REMARK SMILES CC1(C)CC2=NC(=O)[C@H](C(=O)OCCOCCOCCOC(=O)c3ccc(-c4c5nc(c(-c6cccc(S(=O)(=O)[O-])c6F)c6ccc([nH]6)c(-c6cccc(S(=O)(=O)[O-])c6F)c6nc(c(-c7cccc(S(=O)(=O)[O-])c7F)c7ccc4[nH]7)C=C6)C=C5)cc3)C=C2CS1
REMARK SMILES IDX 18 1 17 2 16 3 15 4 14 5 13 6 12 7 10 8 11 9 9 10 1 11 2 12
REMARK SMILES IDX 3 13 4 14 90 15 5 16 89 17 6 18 88 19 7 20 87 21 8 22 19 23
REMARK SMILES IDX 20 24 21 25 22 26 23 27 24 28 25 29 86 30 26 31 85 32 27 33
REMARK SMILES IDX 28 34 29 35 79 36 30 37 84 38 78 39 80 40 31 41 83 42 77 43
REMARK SMILES IDX 76 44 32 46 64 47 44 48 63 49 45 50 48 51 62 52 81 53 46 54
REMARK SMILES IDX 47 55 61 57 82 58 49 59 33 60 34 61 42 62 35 63 37 64 43 65
REMARK SMILES IDX 36 66 38 67 39 68 40 69 41 70 65 71 66 72 74 73 67 74 69 75
REMARK SMILES IDX 75 76 68 77 70 78 71 79 72 80 73 81 50 82 51 83 59 84 52 85
REMARK SMILES IDX 54 86 60 87 53 88 55 89 56 90 57 91 58 92
REMARK H PARENT 80 45 48 56
REMARK Flexibility Score: inf
ROOT
ATOM      1  O   UNL     1      -0.090   4.059   7.917  1.00  0.00    -0.376 OA
ENDROOT
BRANCH   1   2
ATOM      2  C   UNL     1      -1.387   3.658   7.521  1.00  0.00     0.188 C 
BRANCH   2   3
ATOM      3  C   UNL     1      -2.126   2.802   8.568  1.00  0.00     0.188 C 
BRANCH   3   4
ATOM      4  O   UNL     1      -1.390   2.124   9.585  1.00  0.00    -0.376 OA
BRANCH   4   5
ATOM      5  C   UNL     1      -0.048   1.741   9.344  1.00  0.00     0.202 C 
BRANCH   5   6
ATOM      6  C   UNL     1       0.214   0.769   8.184  1.00  0.00     0.261 C 
BRANCH   6   7
ATOM      7  O   UNL     1      -0.524   1.042   6.971  1.00  0.00    -0.462 OA
BRANCH   7   8
ATOM      8  C   UNL     1      -1.434   0.111   6.600  1.00  0.00     0.322 C 
ATOM      9  O   UNL     1      -1.541  -0.979   7.161  1.00  0.00    -0.251 OA
BRANCH   8  10
ATOM     10  C   UNL     1      -2.311   0.461   5.411  1.00  0.00     0.213 C 
ATOM     11  C   UNL     1       1.251   0.228  -0.237  1.00  0.00     0.023 C 
ATOM     12  C   UNL     1       0.693  -0.109   1.160  1.00  0.00     0.016 C 
ATOM     13  C   UNL     1       1.864  -0.419   2.105  1.00  0.00     0.023 C 
ATOM     14  C   UNL     1      -0.138   1.057   1.694  1.00  0.00     0.074 C 
ATOM     15  S   UNL     1      -0.430  -1.538   0.923  1.00  0.00    -0.150 SA
ATOM     16  C   UNL     1      -0.922   0.809   2.982  1.00  0.00     0.049 C 
ATOM     17  C   UNL     1      -0.944  -1.798   2.618  1.00  0.00     0.107 C 
ATOM     18  N   UNL     1      -1.229   1.873   3.655  1.00  0.00    -0.217 NA
ATOM     19  C   UNL     1      -1.387  -0.565   3.325  1.00  0.00    -0.019 C 
ATOM     20  C   UNL     1      -2.133   1.779   4.691  1.00  0.00     0.264 C 
ATOM     21  C   UNL     1      -2.125  -0.669   4.441  1.00  0.00     0.004 C 
ATOM     22  O   UNL     1      -2.848   2.738   4.984  1.00  0.00    -0.271 OA
ENDBRANCH   8  10
ENDBRANCH   7   8
ENDBRANCH   6   7
ENDBRANCH   5   6
ENDBRANCH   4   5
ENDBRANCH   3   4
ENDBRANCH   2   3
ENDBRANCH   1   2
BRANCH   1  23
ATOM     23  C   UNL     1       0.169   5.446   7.847  1.00  0.00     0.202 C 
BRANCH  23  24
ATOM     24  C   UNL     1      -0.505   6.236   8.973  1.00  0.00     0.261 C 
BRANCH  24  25
ATOM     25  O   UNL     1      -1.927   6.042   9.094  1.00  0.00    -0.460 OA
BRANCH  25  26
ATOM     26  C   UNL     1      -2.706   6.576   8.125  1.00  0.00     0.338 C 
ATOM     27  O   UNL     1      -2.326   7.241   7.173  1.00  0.00    -0.246 OA
BRANCH  26  28
ATOM     28  C   UNL     1      -4.082   6.054   8.301  1.00  0.00     0.060 A 
ATOM     29  C   UNL     1      -4.687   5.336   7.259  1.00  0.00     0.016 A 
ATOM     30  C   UNL     1      -4.770   6.265   9.498  1.00  0.00     0.016 A 
ATOM     31  C   UNL     1      -5.996   4.862   7.400  1.00  0.00     0.010 A 
ATOM     32  C   UNL     1      -6.084   5.803   9.630  1.00  0.00     0.010 A 
ATOM     33  C   UNL     1      -6.718   5.129   8.570  1.00  0.00    -0.014 A 
BRANCH  33  34
ATOM     34  C   UNL     1      -8.182   4.875   8.634  1.00  0.00     0.031 A 
ATOM     35  C   UNL     1      -9.120   6.037   8.437  1.00  0.00     0.074 A 
ATOM     36  C   UNL     1      -8.683   3.653   8.897  1.00  0.00     0.049 A 
ATOM     37  N   UNL     1     -10.423   6.081   8.536  1.00  0.00    -0.248 NA
ATOM     38  C   UNL     1      -8.500   7.327   8.091  1.00  0.00     0.031 C 
ATOM     39  C   UNL     1      -7.895   2.441   9.104  1.00  0.00     0.029 A 
ATOM     40  N   UNL     1      -9.984   3.244   9.071  1.00  0.00    -0.354 N 
ATOM     41  C   UNL     1     -10.776   7.405   8.305  1.00  0.00     0.074 A 
ATOM     42  C   UNL     1      -9.550   8.134   8.065  1.00  0.00     0.031 C 
ATOM     43  C   UNL     1      -8.726   1.430   9.414  1.00  0.00     0.029 A 
ATOM     44  C   UNL     1     -10.100   1.929   9.457  1.00  0.00     0.049 A 
ATOM     45  H   UNL     1     -10.759   3.835   8.932  1.00  0.00     0.167 HD
ATOM     46  C   UNL     1     -12.008   7.967   8.284  1.00  0.00     0.034 A 
ATOM     47  C   UNL     1     -11.184   1.218   9.834  1.00  0.00     0.034 A 
ATOM     48  C   UNL     1     -13.232   7.244   8.503  1.00  0.00     0.049 A 
ATOM     49  C   UNL     1     -12.545   1.871   9.826  1.00  0.00     0.074 A 
ATOM     50  C   UNL     1     -14.531   7.719   8.443  1.00  0.00     0.029 A 
ATOM     51  N   UNL     1     -13.312   5.904   8.843  1.00  0.00    -0.354 N 
ATOM     52  N   UNL     1     -12.875   3.095   9.490  1.00  0.00    -0.248 NA
ATOM     53  C   UNL     1     -13.689   1.034  10.222  1.00  0.00     0.031 C 
ATOM     54  C   UNL     1     -15.394   6.674   8.788  1.00  0.00     0.029 A 
ATOM     55  C   UNL     1     -14.636   5.538   9.015  1.00  0.00     0.049 A 
ATOM     56  H   UNL     1     -12.540   5.301   8.947  1.00  0.00     0.167 HD
ATOM     57  C   UNL     1     -14.261   3.162   9.595  1.00  0.00     0.074 A 
ATOM     58  C   UNL     1     -14.713   1.850  10.009  1.00  0.00     0.031 C 
ATOM     59  C   UNL     1     -15.085   4.217   9.376  1.00  0.00     0.034 A 
BRANCH  46  60
ATOM     60  C   UNL     1     -12.099   9.444   8.004  1.00  0.00     0.023 A 
ATOM     61  C   UNL     1     -11.836   9.933   6.709  1.00  0.00     0.012 A 
ATOM     62  C   UNL     1     -12.503  10.341   9.013  1.00  0.00     0.148 A 
ATOM     63  C   UNL     1     -11.942  11.295   6.430  1.00  0.00     0.002 A 
ATOM     64  C   UNL     1     -12.653  11.689   8.716  1.00  0.00     0.091 A 
ATOM     65  F   UNL     1     -12.727   9.859  10.244  1.00  0.00    -0.205 F 
ATOM     66  C   UNL     1     -12.361  12.170   7.429  1.00  0.00     0.022 A 
BRANCH  64  67
ATOM     67  S   UNL     1     -13.268  12.882   9.909  1.00  0.00     0.127 S 
ATOM     68  O   UNL     1     -12.077  13.694  10.154  1.00  0.00    -0.237 OA
ATOM     69  O   UNL     1     -14.321  13.559   9.151  1.00  0.00    -0.237 OA
ATOM     70  O   UNL     1     -13.739  12.108  11.048  1.00  0.00    -0.744 OA
ENDBRANCH  64  67
ENDBRANCH  46  60
BRANCH  47  71
ATOM     71  C   UNL     1     -11.037  -0.210  10.239  1.00  0.00     0.023 A 
ATOM     72  C   UNL     1     -11.579  -1.226   9.427  1.00  0.00     0.012 A 
ATOM     73  C   UNL     1     -10.367  -0.566  11.426  1.00  0.00     0.148 A 
ATOM     74  C   UNL     1     -11.485  -2.566   9.805  1.00  0.00     0.002 A 
ATOM     75  C   UNL     1     -10.225  -1.905  11.767  1.00  0.00     0.091 A 
ATOM     76  F   UNL     1      -9.875   0.416  12.195  1.00  0.00    -0.205 F 
ATOM     77  C   UNL     1     -10.799  -2.906  10.968  1.00  0.00     0.022 A 
BRANCH  75  78
ATOM     78  S   UNL     1      -9.257  -2.447  13.180  1.00  0.00     0.127 S 
ATOM     79  O   UNL     1     -10.286  -3.014  14.048  1.00  0.00    -0.237 OA
ATOM     80  O   UNL     1      -8.360  -3.427  12.567  1.00  0.00    -0.237 OA
ATOM     81  O   UNL     1      -8.593  -1.254  13.685  1.00  0.00    -0.744 OA
ENDBRANCH  75  78
ENDBRANCH  47  71
BRANCH  59  82
ATOM     82  C   UNL     1     -16.571   4.002   9.525  1.00  0.00     0.023 A 
ATOM     83  C   UNL     1     -17.137   3.818  10.802  1.00  0.00     0.012 A 
ATOM     84  C   UNL     1     -17.418   4.063   8.399  1.00  0.00     0.148 A 
ATOM     85  C   UNL     1     -18.515   3.662  10.953  1.00  0.00     0.002 A 
ATOM     86  C   UNL     1     -18.795   3.960   8.562  1.00  0.00     0.091 A 
ATOM     87  F   UNL     1     -16.862   4.225   7.189  1.00  0.00    -0.205 F 
ATOM     88  C   UNL     1     -19.344   3.746   9.836  1.00  0.00     0.022 A 
BRANCH  86  89
ATOM     89  S   UNL     1     -19.947   4.154   7.196  1.00  0.00     0.127 S 
ATOM     90  O   UNL     1     -20.448   2.790   7.034  1.00  0.00    -0.237 OA
ATOM     91  O   UNL     1     -20.919   5.100   7.743  1.00  0.00    -0.237 OA
ATOM     92  O   UNL     1     -19.165   4.667   6.079  1.00  0.00    -0.744 OA
ENDBRANCH  86  89
ENDBRANCH  59  82
ENDBRANCH  33  34
ENDBRANCH  26  28
ENDBRANCH  25  26
ENDBRANCH  24  25
ENDBRANCH  23  24
ENDBRANCH   1  23
TORSDOF 20
