REMARK SMILES Cc1nsc(N[C@@H](C)C2CCCC2)c1C(=O)OCCOCCOCCOC(=O)c1ccc(-c2c3nc(c(-c4cccc(S(=O)(=O)[O-])c4F)c4ccc([nH]4)c(-c4cccc(S(=O)(=O)[O-])c4F)c4nc(c(-c5cccc(S(=O)(=O)[O-])c5F)c5ccc2[nH]5)C=C4)C=C3)cc1
REMARK SMILES IDX 21 1 20 2 19 3 18 4 17 5 15 6 16 7 14 8 1 9 2 10 3 11 4 12
REMARK SMILES IDX 5 13 6 14 7 16 8 17 9 18 10 19 13 20 11 21 12 22 22 23 23 24
REMARK SMILES IDX 24 25 25 26 26 27 27 28 28 29 29 30 30 31 91 32 31 33 90 34
REMARK SMILES IDX 32 35 33 36 34 37 84 38 35 39 89 40 83 41 85 42 36 43 88 44
REMARK SMILES IDX 82 45 81 46 37 48 69 49 49 50 68 51 50 52 53 53 67 54 86 55
REMARK SMILES IDX 51 56 52 57 66 59 87 60 54 61 38 62 39 63 47 64 40 65 42 66
REMARK SMILES IDX 48 67 41 68 43 69 44 70 45 71 46 72 70 73 71 74 79 75 72 76
REMARK SMILES IDX 74 77 80 78 73 79 75 80 76 81 77 82 78 83 55 84 56 85 64 86
REMARK SMILES IDX 57 87 59 88 65 89 58 90 60 91 61 92 62 93 63 94
REMARK H PARENT 6 15 85 47 53 58
REMARK Flexibility Score: inf
ROOT
ATOM      1  C   UNL     1       0.541   4.489  -1.660  1.00  0.00     0.188 C 
ENDROOT
BRANCH   1   2
ATOM      2  O   UNL     1       1.456   4.805  -2.684  1.00  0.00    -0.376 OA
BRANCH   2   3
ATOM      3  C   UNL     1       2.533   3.946  -3.009  1.00  0.00     0.202 C 
BRANCH   3   4
ATOM      4  C   UNL     1       3.182   2.923  -2.051  1.00  0.00     0.261 C 
BRANCH   4   5
ATOM      5  O   UNL     1       2.363   2.341  -1.033  1.00  0.00    -0.460 OA
BRANCH   5   6
ATOM      6  C   UNL     1       2.509   2.834   0.230  1.00  0.00     0.343 C 
ATOM      7  O   UNL     1       3.366   3.650   0.551  1.00  0.00    -0.246 OA
BRANCH   6   8
ATOM      8  C   UNL     1       1.442   2.401   1.123  1.00  0.00     0.117 A 
ATOM      9  C   UNL     1       1.060  -0.037   0.214  1.00  0.00     0.069 C 
ATOM     10  C   UNL     1       0.802   1.102   1.144  1.00  0.00     0.068 A 
ATOM     11  N   UNL     1      -0.139   0.931   2.070  1.00  0.00    -0.195 NA
ATOM     12  S   UNL     1      -0.378   2.353   2.862  1.00  0.00    -0.018 S 
ATOM     13  C   UNL     1       0.792   3.278   1.997  1.00  0.00     0.124 A 
BRANCH  13  14
ATOM     14  N   UNL     1       0.984   4.630   2.106  1.00  0.00    -0.372 N 
ATOM     15  H   UNL     1       1.557   5.064   1.433  1.00  0.00     0.161 HD
BRANCH  14  16
ATOM     16  C   UNL     1       0.403   5.478   3.145  1.00  0.00     0.080 C 
ATOM     17  C   UNL     1       1.570   6.010   3.985  1.00  0.00     0.031 C 
BRANCH  16  18
ATOM     18  C   UNL     1      -0.532   6.599   2.606  1.00  0.00     0.011 C 
ATOM     19  C   UNL     1       0.019   8.031   2.591  1.00  0.00     0.006 C 
ATOM     20  C   UNL     1      -1.170   6.420   1.214  1.00  0.00     0.006 C 
ATOM     21  C   UNL     1      -0.979   8.783   1.724  1.00  0.00     0.000 C 
ATOM     22  C   UNL     1      -1.221   7.815   0.579  1.00  0.00     0.000 C 
ENDBRANCH  16  18
ENDBRANCH  14  16
ENDBRANCH  13  14
ENDBRANCH   6   8
ENDBRANCH   5   6
ENDBRANCH   4   5
ENDBRANCH   3   4
ENDBRANCH   2   3
ENDBRANCH   1   2
BRANCH   1  23
ATOM     23  C   UNL     1      -0.295   3.198  -1.746  1.00  0.00     0.188 C 
BRANCH  23  24
ATOM     24  O   UNL     1       0.159   2.206  -2.641  1.00  0.00    -0.376 OA
BRANCH  24  25
ATOM     25  C   UNL     1      -0.182   2.187  -4.019  1.00  0.00     0.202 C 
BRANCH  25  26
ATOM     26  C   UNL     1      -0.790   3.341  -4.815  1.00  0.00     0.261 C 
BRANCH  26  27
ATOM     27  O   UNL     1      -1.192   4.448  -4.054  1.00  0.00    -0.460 OA
BRANCH  27  28
ATOM     28  C   UNL     1      -2.409   4.334  -3.484  1.00  0.00     0.338 C 
ATOM     29  O   UNL     1      -3.134   3.364  -3.484  1.00  0.00    -0.246 OA
BRANCH  28  30
ATOM     30  C   UNL     1      -2.703   5.630  -2.853  1.00  0.00     0.060 A 
ATOM     31  C   UNL     1      -3.933   5.710  -2.204  1.00  0.00     0.016 A 
ATOM     32  C   UNL     1      -2.003   6.756  -3.313  1.00  0.00     0.016 A 
ATOM     33  C   UNL     1      -4.646   6.863  -2.388  1.00  0.00     0.010 A 
ATOM     34  C   UNL     1      -2.723   7.892  -3.524  1.00  0.00     0.010 A 
ATOM     35  C   UNL     1      -4.068   7.857  -3.181  1.00  0.00    -0.014 A 
BRANCH  35  36
ATOM     36  C   UNL     1      -4.937   8.848  -3.747  1.00  0.00     0.031 A 
ATOM     37  C   UNL     1      -5.128   9.996  -2.855  1.00  0.00     0.074 A 
ATOM     38  C   UNL     1      -5.431   8.703  -4.989  1.00  0.00     0.049 A 
ATOM     39  N   UNL     1      -6.162  10.232  -2.122  1.00  0.00    -0.248 NA
ATOM     40  C   UNL     1      -3.958  10.829  -2.550  1.00  0.00     0.031 C 
ATOM     41  C   UNL     1      -5.057   7.736  -6.027  1.00  0.00     0.029 A 
ATOM     42  N   UNL     1      -6.301   9.515  -5.629  1.00  0.00    -0.354 N 
ATOM     43  C   UNL     1      -5.850  11.399  -1.440  1.00  0.00     0.074 A 
ATOM     44  C   UNL     1      -4.423  11.544  -1.526  1.00  0.00     0.031 C 
ATOM     45  C   UNL     1      -5.496   8.192  -7.225  1.00  0.00     0.029 A 
ATOM     46  C   UNL     1      -6.269   9.405  -7.011  1.00  0.00     0.049 A 
ATOM     47  H   UNL     1      -6.906  10.131  -5.156  1.00  0.00     0.167 HD
ATOM     48  C   UNL     1      -6.817  12.298  -1.119  1.00  0.00     0.034 A 
ATOM     49  C   UNL     1      -6.739  10.335  -7.880  1.00  0.00     0.034 A 
ATOM     50  C   UNL     1      -8.132  11.726  -1.286  1.00  0.00     0.049 A 
ATOM     51  C   UNL     1      -7.701  11.187  -7.127  1.00  0.00     0.074 A 
ATOM     52  C   UNL     1      -8.797  10.650  -0.733  1.00  0.00     0.029 A 
ATOM     53  N   UNL     1      -8.799  12.032  -2.451  1.00  0.00    -0.354 N 
ATOM     54  N   UNL     1      -8.830  10.733  -6.652  1.00  0.00    -0.248 NA
ATOM     55  C   UNL     1      -7.188  12.381  -6.466  1.00  0.00     0.031 C 
ATOM     56  C   UNL     1      -9.530  10.077  -1.812  1.00  0.00     0.029 A 
ATOM     57  C   UNL     1      -9.332  10.869  -2.946  1.00  0.00     0.049 A 
ATOM     58  H   UNL     1      -8.879  12.925  -2.857  1.00  0.00     0.167 HD
ATOM     59  C   UNL     1      -8.919  11.279  -5.376  1.00  0.00     0.074 A 
ATOM     60  C   UNL     1      -7.939  12.367  -5.359  1.00  0.00     0.031 C 
ATOM     61  C   UNL     1      -9.536  10.607  -4.357  1.00  0.00     0.034 A 
BRANCH  48  62
ATOM     62  C   UNL     1      -6.608  13.789  -1.023  1.00  0.00     0.023 A 
ATOM     63  C   UNL     1      -7.694  14.549  -0.541  1.00  0.00     0.012 A 
ATOM     64  C   UNL     1      -5.533  14.503  -1.603  1.00  0.00     0.148 A 
ATOM     65  C   UNL     1      -7.737  15.938  -0.687  1.00  0.00     0.002 A 
ATOM     66  C   UNL     1      -5.545  15.890  -1.674  1.00  0.00     0.091 A 
ATOM     67  F   UNL     1      -4.542  13.857  -2.219  1.00  0.00    -0.205 F 
ATOM     68  C   UNL     1      -6.660  16.611  -1.249  1.00  0.00     0.022 A 
BRANCH  66  69
ATOM     69  S   UNL     1      -4.156  16.805  -2.357  1.00  0.00     0.127 S 
ATOM     70  O   UNL     1      -4.687  17.221  -3.651  1.00  0.00    -0.237 OA
ATOM     71  O   UNL     1      -3.995  17.879  -1.377  1.00  0.00    -0.237 OA
ATOM     72  O   UNL     1      -3.043  15.864  -2.394  1.00  0.00    -0.744 OA
ENDBRANCH  66  69
ENDBRANCH  48  62
BRANCH  49  73
ATOM     73  C   UNL     1      -6.153  10.740  -9.181  1.00  0.00     0.023 A 
ATOM     74  C   UNL     1      -6.921  11.472 -10.108  1.00  0.00     0.012 A 
ATOM     75  C   UNL     1      -4.762  10.631  -9.417  1.00  0.00     0.148 A 
ATOM     76  C   UNL     1      -6.322  12.084 -11.219  1.00  0.00     0.002 A 
ATOM     77  C   UNL     1      -4.174  11.226 -10.528  1.00  0.00     0.091 A 
ATOM     78  F   UNL     1      -3.993  10.031  -8.500  1.00  0.00    -0.205 F 
ATOM     79  C   UNL     1      -4.950  11.963 -11.429  1.00  0.00     0.022 A 
BRANCH  77  80
ATOM     80  S   UNL     1      -2.405  11.118 -10.835  1.00  0.00     0.127 S 
ATOM     81  O   UNL     1      -2.361  10.808 -12.265  1.00  0.00    -0.237 OA
ATOM     82  O   UNL     1      -1.956  12.461 -10.484  1.00  0.00    -0.237 OA
ATOM     83  O   UNL     1      -1.920  10.042  -9.979  1.00  0.00    -0.744 OA
ENDBRANCH  77  80
ENDBRANCH  49  73
BRANCH  61  84
ATOM     84  C   UNL     1     -10.271   9.328  -4.691  1.00  0.00     0.023 A 
ATOM     85  C   UNL     1      -9.605   8.187  -5.189  1.00  0.00     0.012 A 
ATOM     86  C   UNL     1     -11.614   9.205  -4.301  1.00  0.00     0.148 A 
ATOM     87  C   UNL     1     -10.265   6.961  -5.315  1.00  0.00     0.002 A 
ATOM     88  C   UNL     1     -12.254   7.973  -4.381  1.00  0.00     0.091 A 
ATOM     89  F   UNL     1     -12.236  10.291  -3.820  1.00  0.00    -0.205 F 
ATOM     90  C   UNL     1     -11.587   6.850  -4.897  1.00  0.00     0.022 A 
BRANCH  88  91
ATOM     91  S   UNL     1     -13.906   7.734  -3.725  1.00  0.00     0.127 S 
ATOM     92  O   UNL     1     -14.716   7.703  -4.941  1.00  0.00    -0.237 OA
ATOM     93  O   UNL     1     -13.790   6.448  -3.035  1.00  0.00    -0.237 OA
ATOM     94  O   UNL     1     -14.148   8.863  -2.835  1.00  0.00    -0.744 OA
ENDBRANCH  88  91
ENDBRANCH  61  84
ENDBRANCH  35  36
ENDBRANCH  28  30
ENDBRANCH  27  28
ENDBRANCH  26  27
ENDBRANCH  25  26
ENDBRANCH  24  25
ENDBRANCH  23  24
ENDBRANCH   1  23
TORSDOF 23
