REMARK SMILES O=C(Cn1cnc(-c2ccccc2)c1-c1ccccc1)OCCOCCOCCOC(=O)c1ccc(-c2c3nc(c(-c4cccc(S(=O)(=O)[O-])c4F)c4ccc([nH]4)c(-c4cccc(S(=O)(=O)[O-])c4F)c4nc(c(-c5cccc(S(=O)(=O)[O-])c5F)c5ccc2[nH]5)C=C4)C=C3)cc1
REMARK SMILES IDX 26 1 25 2 24 3 23 4 22 5 21 6 2 7 1 8 3 9 4 10 5 11 14 12
REMARK SMILES IDX 6 13 7 14 15 15 16 16 20 17 17 18 19 19 18 20 8 21 9 22
REMARK SMILES IDX 13 23 10 24 12 25 11 26 27 27 28 28 29 29 30 30 31 31 32 32
REMARK SMILES IDX 33 33 34 34 95 35 35 36 94 37 36 38 37 39 38 40 88 41 39 42
REMARK SMILES IDX 93 43 87 44 89 45 40 46 92 47 86 48 85 49 41 51 73 52 53 53
REMARK SMILES IDX 72 54 54 55 57 56 71 57 90 58 55 59 56 60 70 62 91 63 58 64
REMARK SMILES IDX 42 65 43 66 51 67 44 68 46 69 52 70 45 71 47 72 48 73 49 74
REMARK SMILES IDX 50 75 74 76 75 77 83 78 76 79 78 80 84 81 77 82 79 83 80 84
REMARK SMILES IDX 81 85 82 86 59 87 60 88 68 89 61 90 63 91 69 92 62 93 64 94
REMARK SMILES IDX 65 95 66 96 67 97
REMARK H PARENT 89 50 57 61
REMARK Flexibility Score: inf
ROOT
ATOM      1  C   UNL     1       2.317   1.679  -2.451  1.00  0.00     0.188 C 
ENDROOT
BRANCH   1   2
ATOM      2  C   UNL     1       3.064   2.331  -1.268  1.00  0.00     0.188 C 
BRANCH   2   3
ATOM      3  O   UNL     1       4.467   2.123  -1.247  1.00  0.00    -0.376 OA
BRANCH   3   4
ATOM      4  C   UNL     1       4.936   1.220  -0.253  1.00  0.00     0.202 C 
BRANCH   4   5
ATOM      5  C   UNL     1       4.472  -0.225  -0.430  1.00  0.00     0.261 C 
BRANCH   5   6
ATOM      6  O   UNL     1       3.036  -0.417  -0.444  1.00  0.00    -0.462 OA
BRANCH   6   7
ATOM      7  C   UNL     1       2.137  -0.203   0.538  1.00  0.00     0.326 C 
ATOM      8  O   UNL     1       0.933  -0.212   0.278  1.00  0.00    -0.250 OA
BRANCH   7   9
ATOM      9  C   UNL     1       2.599   0.156   1.916  1.00  0.00     0.246 C 
BRANCH   9  10
ATOM     10  N   UNL     1       3.589  -0.716   2.510  1.00  0.00    -0.319 N 
ATOM     11  C   UNL     1       4.589  -0.274   3.333  1.00  0.00     0.201 A 
ATOM     12  C   UNL     1       3.668  -2.092   2.433  1.00  0.00     0.076 A 
ATOM     13  N   UNL     1       5.287  -1.271   3.817  1.00  0.00    -0.236 NA
ATOM     14  C   UNL     1       4.731  -2.400   3.267  1.00  0.00     0.096 A 
BRANCH  12  15
ATOM     15  C   UNL     1       2.784  -2.930   1.627  1.00  0.00     0.000 A 
ATOM     16  C   UNL     1       1.467  -3.166   2.031  1.00  0.00     0.010 A 
ATOM     17  C   UNL     1       3.210  -3.397   0.375  1.00  0.00     0.010 A 
ATOM     18  C   UNL     1       0.578  -3.818   1.173  1.00  0.00     0.001 A 
ATOM     19  C   UNL     1       2.318  -4.036  -0.486  1.00  0.00     0.001 A 
ATOM     20  C   UNL     1       1.000  -4.239  -0.089  1.00  0.00     0.000 A 
ENDBRANCH  12  15
BRANCH  14  21
ATOM     21  C   UNL     1       5.136  -3.735   3.629  1.00  0.00     0.002 A 
ATOM     22  C   UNL     1       4.971  -4.152   4.954  1.00  0.00     0.010 A 
ATOM     23  C   UNL     1       5.626  -4.629   2.673  1.00  0.00     0.010 A 
ATOM     24  C   UNL     1       5.245  -5.471   5.308  1.00  0.00     0.001 A 
ATOM     25  C   UNL     1       5.900  -5.948   3.029  1.00  0.00     0.001 A 
ATOM     26  C   UNL     1       5.699  -6.370   4.343  1.00  0.00     0.000 A 
ENDBRANCH  14  21
ENDBRANCH   9  10
ENDBRANCH   7   9
ENDBRANCH   6   7
ENDBRANCH   5   6
ENDBRANCH   4   5
ENDBRANCH   3   4
ENDBRANCH   2   3
ENDBRANCH   1   2
BRANCH   1  27
ATOM     27  O   UNL     1       2.945   0.674  -3.240  1.00  0.00    -0.376 OA
BRANCH  27  28
ATOM     28  C   UNL     1       4.213   0.901  -3.850  1.00  0.00     0.202 C 
BRANCH  28  29
ATOM     29  C   UNL     1       4.400   2.122  -4.742  1.00  0.00     0.261 C 
BRANCH  29  30
ATOM     30  O   UNL     1       4.469   3.304  -3.952  1.00  0.00    -0.460 OA
BRANCH  30  31
ATOM     31  C   UNL     1       3.413   4.133  -4.058  1.00  0.00     0.338 C 
ATOM     32  O   UNL     1       2.453   4.007  -4.798  1.00  0.00    -0.246 OA
BRANCH  31  33
ATOM     33  C   UNL     1       3.558   5.236  -3.094  1.00  0.00     0.060 A 
ATOM     34  C   UNL     1       2.498   6.143  -3.029  1.00  0.00     0.016 A 
ATOM     35  C   UNL     1       4.746   5.442  -2.373  1.00  0.00     0.016 A 
ATOM     36  C   UNL     1       2.725   7.377  -2.468  1.00  0.00     0.010 A 
ATOM     37  C   UNL     1       4.970   6.675  -1.795  1.00  0.00     0.010 A 
ATOM     38  C   UNL     1       4.004   7.662  -1.981  1.00  0.00    -0.014 A 
BRANCH  38  39
ATOM     39  C   UNL     1       4.371   9.066  -1.976  1.00  0.00     0.031 A 
ATOM     40  C   UNL     1       3.824   9.903  -0.897  1.00  0.00     0.074 A 
ATOM     41  C   UNL     1       5.144   9.560  -2.965  1.00  0.00     0.049 A 
ATOM     42  N   UNL     1       3.008  10.900  -1.007  1.00  0.00    -0.248 NA
ATOM     43  C   UNL     1       4.172   9.539   0.480  1.00  0.00     0.031 C 
ATOM     44  C   UNL     1       5.937   8.794  -3.936  1.00  0.00     0.029 A 
ATOM     45  N   UNL     1       5.490  10.853  -3.228  1.00  0.00    -0.354 N 
ATOM     46  C   UNL     1       2.934  11.444   0.269  1.00  0.00     0.074 A 
ATOM     47  C   UNL     1       3.535  10.489   1.165  1.00  0.00     0.031 C 
ATOM     48  C   UNL     1       6.855   9.608  -4.494  1.00  0.00     0.029 A 
ATOM     49  C   UNL     1       6.621  10.961  -4.024  1.00  0.00     0.049 A 
ATOM     50  H   UNL     1       4.989  11.629  -2.888  1.00  0.00     0.167 HD
ATOM     51  C   UNL     1       2.620  12.751   0.468  1.00  0.00     0.034 A 
ATOM     52  C   UNL     1       7.375  12.066  -4.214  1.00  0.00     0.034 A 
ATOM     53  C   UNL     1       1.955  13.344  -0.660  1.00  0.00     0.049 A 
ATOM     54  C   UNL     1       6.553  13.245  -3.871  1.00  0.00     0.074 A 
ATOM     55  C   UNL     1       0.796  13.095  -1.365  1.00  0.00     0.029 A 
ATOM     56  N   UNL     1       2.675  14.236  -1.413  1.00  0.00    -0.354 N 
ATOM     57  N   UNL     1       5.537  13.665  -4.573  1.00  0.00    -0.248 NA
ATOM     58  C   UNL     1       6.662  13.808  -2.534  1.00  0.00     0.031 C 
ATOM     59  C   UNL     1       1.050  13.545  -2.692  1.00  0.00     0.029 A 
ATOM     60  C   UNL     1       2.357  14.037  -2.730  1.00  0.00     0.049 A 
ATOM     61  H   UNL     1       3.311  14.904  -1.067  1.00  0.00     0.167 HD
ATOM     62  C   UNL     1       4.663  14.204  -3.639  1.00  0.00     0.074 A 
ATOM     63  C   UNL     1       5.475  14.411  -2.446  1.00  0.00     0.031 C 
ATOM     64  C   UNL     1       3.309  14.150  -3.819  1.00  0.00     0.034 A 
BRANCH  51  65
ATOM     65  C   UNL     1       3.228  13.587   1.563  1.00  0.00     0.023 A 
ATOM     66  C   UNL     1       2.640  14.838   1.847  1.00  0.00     0.012 A 
ATOM     67  C   UNL     1       4.489  13.323   2.145  1.00  0.00     0.148 A 
ATOM     68  C   UNL     1       3.285  15.782   2.655  1.00  0.00     0.002 A 
ATOM     69  C   UNL     1       5.079  14.225   3.022  1.00  0.00     0.091 A 
ATOM     70  F   UNL     1       5.202  12.258   1.758  1.00  0.00    -0.205 F 
ATOM     71  C   UNL     1       4.497  15.469   3.260  1.00  0.00     0.022 A 
BRANCH  69  72
ATOM     72  S   UNL     1       6.593  13.779   3.878  1.00  0.00     0.127 S 
ATOM     73  O   UNL     1       7.612  14.225   2.935  1.00  0.00    -0.237 OA
ATOM     74  O   UNL     1       6.501  14.564   5.110  1.00  0.00    -0.237 OA
ATOM     75  O   UNL     1       6.474  12.339   4.085  1.00  0.00    -0.744 OA
ENDBRANCH  69  72
ENDBRANCH  51  65
BRANCH  52  76
ATOM     76  C   UNL     1       8.826  12.146  -4.486  1.00  0.00     0.023 A 
ATOM     77  C   UNL     1       9.357  13.294  -5.101  1.00  0.00     0.012 A 
ATOM     78  C   UNL     1       9.728  11.198  -3.948  1.00  0.00     0.148 A 
ATOM     79  C   UNL     1      10.741  13.498  -5.166  1.00  0.00     0.002 A 
ATOM     80  C   UNL     1      11.102  11.392  -4.040  1.00  0.00     0.091 A 
ATOM     81  F   UNL     1       9.243  10.152  -3.264  1.00  0.00    -0.205 F 
ATOM     82  C   UNL     1      11.613  12.549  -4.638  1.00  0.00     0.022 A 
BRANCH  80  83
ATOM     83  S   UNL     1      12.268  10.182  -3.400  1.00  0.00     0.127 S 
ATOM     84  O   UNL     1      13.326  10.206  -4.411  1.00  0.00    -0.237 OA
ATOM     85  O   UNL     1      12.639  10.765  -2.114  1.00  0.00    -0.237 OA
ATOM     86  O   UNL     1      11.531   8.925  -3.346  1.00  0.00    -0.744 OA
ENDBRANCH  80  83
ENDBRANCH  52  76
BRANCH  64  87
ATOM     87  C   UNL     1       2.782  13.834  -5.200  1.00  0.00     0.023 A 
ATOM     88  C   UNL     1       3.069  12.608  -5.834  1.00  0.00     0.012 A 
ATOM     89  C   UNL     1       1.843  14.698  -5.794  1.00  0.00     0.148 A 
ATOM     90  C   UNL     1       2.463  12.266  -7.045  1.00  0.00     0.002 A 
ATOM     91  C   UNL     1       1.206  14.333  -6.977  1.00  0.00     0.091 A 
ATOM     92  F   UNL     1       1.565  15.860  -5.180  1.00  0.00    -0.205 F 
ATOM     93  C   UNL     1       1.522  13.122  -7.611  1.00  0.00     0.022 A 
BRANCH  91  94
ATOM     94  S   UNL     1      -0.117  15.329  -7.673  1.00  0.00     0.127 S 
ATOM     95  O   UNL     1       0.586  16.117  -8.682  1.00  0.00    -0.237 OA
ATOM     96  O   UNL     1      -1.030  14.320  -8.215  1.00  0.00    -0.237 OA
ATOM     97  O   UNL     1      -0.670  16.079  -6.552  1.00  0.00    -0.744 OA
ENDBRANCH  91  94
ENDBRANCH  64  87
ENDBRANCH  38  39
ENDBRANCH  31  33
ENDBRANCH  30  31
ENDBRANCH  29  30
ENDBRANCH  28  29
ENDBRANCH  27  28
ENDBRANCH   1  27
TORSDOF 23
