REMARK SMILES Cc1cc(C(=O)OCCOCCOCCOC(=O)c2ccc(-c3c4nc(c(-c5cccc(S(=O)(=O)[O-])c5F)c5ccc([nH]5)c(-c5cccc(S(=O)(=O)[O-])c5F)c5nc(c(-c6cccc(S(=O)(=O)[O-])c6F)c6ccc3[nH]6)C=C5)C=C4)cc2)ccc1NC(=O)N1C[C@@H](C)[C@H](C)C1
REMARK SMILES IDX 12 1 11 2 10 3 9 4 8 5 7 6 5 7 6 8 4 9 1 10 2 11 3 12 84 13
REMARK SMILES IDX 83 14 82 15 85 16 86 17 87 19 88 20 89 21 94 22 90 23 92 24
REMARK SMILES IDX 91 25 93 26 13 27 14 28 15 29 16 30 17 31 18 32 19 33 20 34
REMARK SMILES IDX 81 35 21 36 80 37 22 38 23 39 24 40 74 41 25 42 79 43 73 44
REMARK SMILES IDX 75 45 26 46 78 47 72 48 71 49 27 51 59 52 39 53 58 54 40 55
REMARK SMILES IDX 43 56 57 57 76 58 41 59 42 60 56 62 77 63 44 64 28 65 29 66
REMARK SMILES IDX 37 67 30 68 32 69 38 70 31 71 33 72 34 73 35 74 36 75 60 76
REMARK SMILES IDX 61 77 69 78 62 79 64 80 70 81 63 82 65 83 66 84 67 85 68 86
REMARK SMILES IDX 45 87 46 88 54 89 47 90 49 91 55 92 48 93 50 94 51 95 52 96
REMARK SMILES IDX 53 97
REMARK H PARENT 85 18 75 50 43 61
REMARK Flexibility Score: inf
ROOT
ATOM      1  C   UNL     1      -4.924  -3.145  -4.885  1.00  0.00     0.188 C 
ENDROOT
BRANCH   1   2
ATOM      2  C   UNL     1      -4.553  -3.296  -3.430  1.00  0.00     0.188 C 
BRANCH   2   3
ATOM      3  O   UNL     1      -5.583  -3.669  -2.536  1.00  0.00    -0.376 OA
BRANCH   3   4
ATOM      4  C   UNL     1      -5.065  -3.425  -1.204  1.00  0.00     0.202 C 
BRANCH   4   5
ATOM      5  C   UNL     1      -5.045  -1.873  -0.900  1.00  0.00     0.261 C 
BRANCH   5   6
ATOM      6  O   UNL     1      -3.713  -0.846  -0.761  1.00  0.00    -0.460 OA
BRANCH   6   7
ATOM      7  C   UNL     1      -2.560  -0.487   0.000  1.00  0.00     0.338 C 
ATOM      8  O   UNL     1      -2.192  -0.767   1.136  1.00  0.00    -0.246 OA
BRANCH   7   9
ATOM      9  C   UNL     1      -1.476   0.273  -0.595  1.00  0.00     0.060 A 
ATOM     10  C   UNL     1       2.208   0.842   0.294  1.00  0.00     0.046 C 
ATOM     11  C   UNL     1       0.808   1.092  -0.195  1.00  0.00    -0.027 A 
ATOM     12  C   UNL     1      -0.143   0.080  -0.103  1.00  0.00     0.021 A 
ATOM     13  C   UNL     1       0.332   2.288  -0.720  1.00  0.00     0.045 A 
ATOM     14  C   UNL     1      -0.862   2.322  -1.478  1.00  0.00     0.027 A 
ATOM     15  C   UNL     1      -1.812   1.335  -1.378  1.00  0.00     0.018 A 
BRANCH  13  16
ATOM     16  N   UNL     1       0.913   3.517  -0.354  1.00  0.00    -0.308 N 
ATOM     17  C   UNL     1       0.233   4.711  -0.279  1.00  0.00     0.321 C 
ATOM     18  H   UNL     1       1.873   3.522  -0.138  1.00  0.00     0.171 HD
ATOM     19  O   UNL     1       0.806   5.766  -0.550  1.00  0.00    -0.248 OA
ATOM     20  N   UNL     1      -1.103   4.659   0.065  1.00  0.00    -0.324 N 
ATOM     21  C   UNL     1      -2.104   5.432  -0.634  1.00  0.00     0.125 C 
ATOM     22  C   UNL     1      -1.664   3.994   1.246  1.00  0.00     0.125 C 
ATOM     23  C   UNL     1      -3.301   5.496   0.306  1.00  0.00     0.010 C 
ATOM     24  C   UNL     1      -3.181   4.204   1.140  1.00  0.00     0.010 C 
ATOM     25  C   UNL     1      -4.620   5.604  -0.446  1.00  0.00     0.010 C 
ATOM     26  C   UNL     1      -3.880   4.320   2.491  1.00  0.00     0.010 C 
ENDBRANCH  13  16
ENDBRANCH   7   9
ENDBRANCH   6   7
ENDBRANCH   5   6
ENDBRANCH   4   5
ENDBRANCH   3   4
ENDBRANCH   2   3
ENDBRANCH   1   2
BRANCH   1  27
ATOM     27  O   UNL     1      -5.131  -4.334  -5.635  1.00  0.00    -0.376 OA
BRANCH  27  28
ATOM     28  C   UNL     1      -4.460  -5.498  -5.163  1.00  0.00     0.202 C 
BRANCH  28  29
ATOM     29  C   UNL     1      -2.903  -5.532  -5.246  1.00  0.00     0.261 C 
BRANCH  29  30
ATOM     30  O   UNL     1      -2.269  -4.235  -5.190  1.00  0.00    -0.460 OA
BRANCH  30  31
ATOM     31  C   UNL     1      -0.939  -4.197  -4.859  1.00  0.00     0.338 C 
ATOM     32  O   UNL     1      -0.034  -4.708  -5.518  1.00  0.00    -0.246 OA
BRANCH  31  33
ATOM     33  C   UNL     1      -0.823  -3.529  -3.539  1.00  0.00     0.060 A 
ATOM     34  C   UNL     1      -0.166  -3.993  -2.417  1.00  0.00     0.016 A 
ATOM     35  C   UNL     1      -1.596  -2.447  -3.318  1.00  0.00     0.016 A 
ATOM     36  C   UNL     1      -0.616  -3.650  -1.086  1.00  0.00     0.010 A 
ATOM     37  C   UNL     1      -2.116  -2.286  -2.023  1.00  0.00     0.010 A 
ATOM     38  C   UNL     1      -1.833  -3.010  -0.833  1.00  0.00    -0.014 A 
BRANCH  38  39
ATOM     39  C   UNL     1      -2.744  -3.318   0.592  1.00  0.00     0.031 A 
ATOM     40  C   UNL     1      -3.683  -2.371   1.736  1.00  0.00     0.074 A 
ATOM     41  C   UNL     1      -2.727  -4.640   0.938  1.00  0.00     0.049 A 
ATOM     42  N   UNL     1      -3.595  -2.519   3.050  1.00  0.00    -0.248 NA
ATOM     43  C   UNL     1      -4.550  -1.107   1.563  1.00  0.00     0.031 C 
ATOM     44  C   UNL     1      -3.426  -5.293   2.044  1.00  0.00     0.029 A 
ATOM     45  N   UNL     1      -1.925  -5.685   0.451  1.00  0.00    -0.354 N 
ATOM     46  C   UNL     1      -4.339  -1.465   3.640  1.00  0.00     0.074 A 
ATOM     47  C   UNL     1      -4.437  -0.460   2.702  1.00  0.00     0.031 C 
ATOM     48  C   UNL     1      -2.753  -6.416   2.363  1.00  0.00     0.029 A 
ATOM     49  C   UNL     1      -1.545  -6.441   1.556  1.00  0.00     0.049 A 
ATOM     50  H   UNL     1      -1.680  -5.850  -0.488  1.00  0.00     0.167 HD
ATOM     51  C   UNL     1      -5.112  -1.529   4.753  1.00  0.00     0.034 A 
ATOM     52  C   UNL     1      -0.252  -6.473   2.004  1.00  0.00     0.034 A 
ATOM     53  C   UNL     1      -4.675  -2.699   5.466  1.00  0.00     0.049 A 
ATOM     54  C   UNL     1      -0.148  -5.956   3.441  1.00  0.00     0.074 A 
ATOM     55  C   UNL     1      -5.072  -4.018   5.416  1.00  0.00     0.029 A 
ATOM     56  N   UNL     1      -3.356  -2.688   5.892  1.00  0.00    -0.354 N 
ATOM     57  N   UNL     1      -1.129  -5.410   4.118  1.00  0.00    -0.248 NA
ATOM     58  C   UNL     1       1.081  -6.020   4.225  1.00  0.00     0.031 C 
ATOM     59  C   UNL     1      -3.897  -4.808   5.618  1.00  0.00     0.029 A 
ATOM     60  C   UNL     1      -2.823  -3.968   5.883  1.00  0.00     0.049 A 
ATOM     61  H   UNL     1      -2.863  -1.880   6.164  1.00  0.00     0.167 HD
ATOM     62  C   UNL     1      -0.666  -4.934   5.320  1.00  0.00     0.074 A 
ATOM     63  C   UNL     1       0.705  -5.419   5.366  1.00  0.00     0.031 C 
ATOM     64  C   UNL     1      -1.395  -4.132   6.163  1.00  0.00     0.034 A 
BRANCH  51  65
ATOM     65  C   UNL     1      -6.376  -0.647   5.040  1.00  0.00     0.023 A 
ATOM     66  C   UNL     1      -7.114  -1.007   6.185  1.00  0.00     0.012 A 
ATOM     67  C   UNL     1      -6.987   0.403   4.258  1.00  0.00     0.148 A 
ATOM     68  C   UNL     1      -8.359  -0.429   6.506  1.00  0.00     0.002 A 
ATOM     69  C   UNL     1      -8.218   0.996   4.591  1.00  0.00     0.091 A 
ATOM     70  F   UNL     1      -6.441   0.850   3.128  1.00  0.00    -0.205 F 
ATOM     71  C   UNL     1      -8.916   0.565   5.711  1.00  0.00     0.022 A 
BRANCH  69  72
ATOM     72  S   UNL     1      -9.011   2.288   3.582  1.00  0.00     0.127 S 
ATOM     73  O   UNL     1     -10.265   1.644   3.189  1.00  0.00    -0.237 OA
ATOM     74  O   UNL     1      -9.167   3.384   4.537  1.00  0.00    -0.237 OA
ATOM     75  O   UNL     1      -8.108   2.574   2.472  1.00  0.00    -0.744 OA
ENDBRANCH  69  72
ENDBRANCH  51  65
BRANCH  52  76
ATOM     76  C   UNL     1       0.834  -6.418   0.944  1.00  0.00     0.023 A 
ATOM     77  C   UNL     1       0.707  -7.313  -0.156  1.00  0.00     0.012 A 
ATOM     78  C   UNL     1       1.803  -5.399   0.830  1.00  0.00     0.148 A 
ATOM     79  C   UNL     1       1.425  -7.145  -1.346  1.00  0.00     0.002 A 
ATOM     80  C   UNL     1       2.512  -5.225  -0.374  1.00  0.00     0.091 A 
ATOM     81  F   UNL     1       1.968  -4.541   1.844  1.00  0.00    -0.205 F 
ATOM     82  C   UNL     1       2.327  -6.096  -1.458  1.00  0.00     0.022 A 
BRANCH  80  83
ATOM     83  S   UNL     1       3.456  -3.708  -0.677  1.00  0.00     0.127 S 
ATOM     84  O   UNL     1       3.434  -3.596  -2.136  1.00  0.00    -0.237 OA
ATOM     85  O   UNL     1       2.687  -2.675   0.004  1.00  0.00    -0.237 OA
ATOM     86  O   UNL     1       4.756  -4.045  -0.107  1.00  0.00    -0.744 OA
ENDBRANCH  80  83
ENDBRANCH  52  76
BRANCH  64  87
ATOM     87  C   UNL     1      -0.792  -3.341   7.326  1.00  0.00     0.023 A 
ATOM     88  C   UNL     1       0.569  -2.985   7.373  1.00  0.00     0.012 A 
ATOM     89  C   UNL     1      -1.624  -2.749   8.315  1.00  0.00     0.148 A 
ATOM     90  C   UNL     1       1.091  -2.165   8.381  1.00  0.00     0.002 A 
ATOM     91  C   UNL     1      -1.130  -1.796   9.201  1.00  0.00     0.091 A 
ATOM     92  F   UNL     1      -2.917  -3.095   8.407  1.00  0.00    -0.205 F 
ATOM     93  C   UNL     1       0.236  -1.541   9.277  1.00  0.00     0.022 A 
BRANCH  91  94
ATOM     94  S   UNL     1      -2.275  -0.710  10.069  1.00  0.00     0.127 S 
ATOM     95  O   UNL     1      -2.645  -1.507  11.234  1.00  0.00    -0.237 OA
ATOM     96  O   UNL     1      -1.447   0.461  10.370  1.00  0.00    -0.237 OA
ATOM     97  O   UNL     1      -3.325  -0.456   9.089  1.00  0.00    -0.744 OA
ENDBRANCH  91  94
ENDBRANCH  64  87
ENDBRANCH  38  39
ENDBRANCH  31  33
ENDBRANCH  30  31
ENDBRANCH  29  30
ENDBRANCH  28  29
ENDBRANCH  27  28
ENDBRANCH   1  27
TORSDOF 21
