REMARK SMILES Cc1cc(Br)cc2c1O[C@H](C(F)(F)F)C(C(=O)OCCOCCOCCOC(=O)c1ccc(-c3c4nc(c(-c5cccc(S(=O)(=O)[O-])c5F)c5ccc([nH]5)c(-c5cccc(S(=O)(=O)[O-])c5F)c5nc(c(-c6cccc(S(=O)(=O)[O-])c6F)c6ccc3[nH]6)C=C5)C=C4)cc1)=C2
REMARK SMILES IDX 23 1 22 2 21 3 20 4 19 5 18 6 16 7 17 8 15 9 1 10 2 11 3 12
REMARK SMILES IDX 8 13 4 14 7 15 9 16 5 17 6 18 93 19 10 20 11 21 12 22 13 23
REMARK SMILES IDX 14 24 24 25 25 26 26 27 27 28 28 29 29 30 30 31 31 32 92 33
REMARK SMILES IDX 32 34 91 35 33 36 34 37 35 38 85 39 36 40 90 41 84 42 86 43
REMARK SMILES IDX 37 44 89 45 83 46 82 47 38 49 70 50 50 51 69 52 51 53 54 54
REMARK SMILES IDX 68 55 87 56 52 57 53 58 67 60 88 61 55 62 39 63 40 64 48 65
REMARK SMILES IDX 41 66 43 67 49 68 42 69 44 70 45 71 46 72 47 73 71 74 72 75
REMARK SMILES IDX 80 76 73 77 75 78 81 79 74 80 76 81 77 82 78 83 79 84 56 85
REMARK SMILES IDX 57 86 65 87 58 88 60 89 66 90 59 91 61 92 62 93 63 94 64 95
REMARK H PARENT 86 48 54 59
REMARK Flexibility Score: inf
ROOT
ATOM      1  C   UNL     1       2.997  -5.767   3.586  1.00  0.00     0.188 C 
ENDROOT
BRANCH   1   2
ATOM      2  C   UNL     1       2.067  -6.617   4.477  1.00  0.00     0.188 C 
BRANCH   2   3
ATOM      3  O   UNL     1       2.107  -7.996   4.150  1.00  0.00    -0.376 OA
BRANCH   3   4
ATOM      4  C   UNL     1       0.913  -8.561   3.635  1.00  0.00     0.202 C 
BRANCH   4   5
ATOM      5  C   UNL     1       0.522  -8.116   2.219  1.00  0.00     0.261 C 
BRANCH   5   6
ATOM      6  O   UNL     1       0.598  -6.700   1.982  1.00  0.00    -0.460 OA
BRANCH   6   7
ATOM      7  C   UNL     1      -0.466  -5.954   2.345  1.00  0.00     0.338 C 
ATOM      8  O   UNL     1      -1.492  -6.359   2.863  1.00  0.00    -0.246 OA
BRANCH   7   9
ATOM      9  C   UNL     1      -0.151  -4.529   2.094  1.00  0.00     0.087 C 
ATOM     10  C   UNL     1       1.133  -0.025  -0.019  1.00  0.00     0.048 C 
ATOM     11  C   UNL     1       0.576  -0.481   1.301  1.00  0.00    -0.007 A 
ATOM     12  C   UNL     1       0.254   0.472   2.278  1.00  0.00     0.023 A 
ATOM     13  C   UNL     1       0.394  -1.845   1.590  1.00  0.00     0.130 A 
ATOM     14  C   UNL     1      -0.260   0.068   3.509  1.00  0.00     0.019 A 
ATOM     15  C   UNL     1      -0.158  -2.245   2.814  1.00  0.00     0.019 A 
ATOM     16  O   UNL     1       0.781  -2.731   0.625  1.00  0.00    -0.475 OA
ATOM     17  Br  UNL     1      -0.697   1.368   4.809  1.00  0.00    -0.051 Br
ATOM     18  C   UNL     1      -0.470  -1.283   3.781  1.00  0.00     0.027 A 
ATOM     19  C   UNL     1      -0.446  -3.651   3.061  1.00  0.00     0.027 C 
ATOM     20  C   UNL     1       0.510  -4.147   0.795  1.00  0.00     0.316 C 
BRANCH  20  21
ATOM     21  C   UNL     1      -0.283  -4.623  -0.430  1.00  0.00     0.430 C 
ATOM     22  F   UNL     1       0.326  -4.247  -1.583  1.00  0.00    -0.167 F 
ATOM     23  F   UNL     1      -0.390  -5.971  -0.478  1.00  0.00    -0.167 F 
ATOM     24  F   UNL     1      -1.536  -4.116  -0.455  1.00  0.00    -0.167 F 
ENDBRANCH  20  21
ENDBRANCH   7   9
ENDBRANCH   6   7
ENDBRANCH   5   6
ENDBRANCH   4   5
ENDBRANCH   3   4
ENDBRANCH   2   3
ENDBRANCH   1   2
BRANCH   1  25
ATOM     25  O   UNL     1       3.944  -6.407   2.736  1.00  0.00    -0.376 OA
BRANCH  25  26
ATOM     26  C   UNL     1       4.712  -7.486   3.256  1.00  0.00     0.202 C 
BRANCH  26  27
ATOM     27  C   UNL     1       5.587  -7.239   4.493  1.00  0.00     0.261 C 
BRANCH  27  28
ATOM     28  O   UNL     1       4.889  -6.682   5.619  1.00  0.00    -0.460 OA
BRANCH  28  29
ATOM     29  C   UNL     1       5.256  -5.423   5.970  1.00  0.00     0.338 C 
ATOM     30  O   UNL     1       6.125  -4.738   5.459  1.00  0.00    -0.246 OA
BRANCH  29  31
ATOM     31  C   UNL     1       4.300  -4.895   6.966  1.00  0.00     0.060 A 
ATOM     32  C   UNL     1       3.558  -3.753   6.633  1.00  0.00     0.016 A 
ATOM     33  C   UNL     1       4.156  -5.493   8.219  1.00  0.00     0.016 A 
ATOM     34  C   UNL     1       2.668  -3.204   7.554  1.00  0.00     0.010 A 
ATOM     35  C   UNL     1       3.283  -4.923   9.153  1.00  0.00     0.010 A 
ATOM     36  C   UNL     1       2.550  -3.767   8.831  1.00  0.00    -0.014 A 
BRANCH  36  37
ATOM     37  C   UNL     1       1.765  -3.059   9.870  1.00  0.00     0.031 A 
ATOM     38  C   UNL     1       2.475  -2.108  10.792  1.00  0.00     0.074 A 
ATOM     39  C   UNL     1       0.437  -3.247   9.981  1.00  0.00     0.049 A 
ATOM     40  N   UNL     1       1.984  -1.358  11.742  1.00  0.00    -0.248 NA
ATOM     41  C   UNL     1       3.933  -1.982  10.617  1.00  0.00     0.031 C 
ATOM     42  C   UNL     1      -0.362  -4.138   9.142  1.00  0.00     0.029 A 
ATOM     43  N   UNL     1      -0.471  -2.704  10.856  1.00  0.00    -0.354 N 
ATOM     44  C   UNL     1       3.066  -0.672  12.279  1.00  0.00     0.074 A 
ATOM     45  C   UNL     1       4.245  -1.114  11.568  1.00  0.00     0.031 C 
ATOM     46  C   UNL     1      -1.641  -4.091   9.552  1.00  0.00     0.029 A 
ATOM     47  C   UNL     1      -1.751  -3.178  10.690  1.00  0.00     0.049 A 
ATOM     48  H   UNL     1      -0.228  -2.037  11.538  1.00  0.00     0.167 HD
ATOM     49  C   UNL     1       3.073   0.262  13.257  1.00  0.00     0.034 A 
ATOM     50  C   UNL     1      -2.878  -2.909  11.380  1.00  0.00     0.034 A 
ATOM     51  C   UNL     1       1.900   0.703  13.960  1.00  0.00     0.049 A 
ATOM     52  C   UNL     1      -2.833  -1.904  12.506  1.00  0.00     0.074 A 
ATOM     53  C   UNL     1       1.806   1.663  14.951  1.00  0.00     0.029 A 
ATOM     54  N   UNL     1       0.622   0.208  13.756  1.00  0.00    -0.354 N 
ATOM     55  N   UNL     1      -1.825  -1.174  12.919  1.00  0.00    -0.248 NA
ATOM     56  C   UNL     1      -4.085  -1.662  13.241  1.00  0.00     0.031 C 
ATOM     57  C   UNL     1       0.473   1.732  15.363  1.00  0.00     0.029 A 
ATOM     58  C   UNL     1      -0.267   0.834  14.611  1.00  0.00     0.049 A 
ATOM     59  H   UNL     1       0.382  -0.486  13.100  1.00  0.00     0.167 HD
ATOM     60  C   UNL     1      -2.328  -0.362  13.931  1.00  0.00     0.074 A 
ATOM     61  C   UNL     1      -3.734  -0.681  14.063  1.00  0.00     0.031 C 
ATOM     62  C   UNL     1      -1.679   0.556  14.689  1.00  0.00     0.034 A 
BRANCH  49  63
ATOM     63  C   UNL     1       4.385   0.917  13.595  1.00  0.00     0.023 A 
ATOM     64  C   UNL     1       4.926   1.866  12.704  1.00  0.00     0.012 A 
ATOM     65  C   UNL     1       5.032   0.667  14.820  1.00  0.00     0.148 A 
ATOM     66  C   UNL     1       6.103   2.543  13.019  1.00  0.00     0.002 A 
ATOM     67  C   UNL     1       6.183   1.376  15.145  1.00  0.00     0.091 A 
ATOM     68  F   UNL     1       4.511  -0.255  15.642  1.00  0.00    -0.205 F 
ATOM     69  C   UNL     1       6.723   2.308  14.243  1.00  0.00     0.022 A 
BRANCH  67  70
ATOM     70  S   UNL     1       7.014   1.204  16.728  1.00  0.00     0.127 S 
ATOM     71  O   UNL     1       8.259   0.544  16.337  1.00  0.00    -0.237 OA
ATOM     72  O   UNL     1       7.168   2.597  17.147  1.00  0.00    -0.237 OA
ATOM     73  O   UNL     1       6.125   0.411  17.566  1.00  0.00    -0.744 OA
ENDBRANCH  67  70
ENDBRANCH  49  63
BRANCH  50  74
ATOM     74  C   UNL     1      -4.165  -3.548  10.980  1.00  0.00     0.023 A 
ATOM     75  C   UNL     1      -5.175  -2.757  10.400  1.00  0.00     0.012 A 
ATOM     76  C   UNL     1      -4.381  -4.932  11.134  1.00  0.00     0.148 A 
ATOM     77  C   UNL     1      -6.385  -3.327   9.999  1.00  0.00     0.002 A 
ATOM     78  C   UNL     1      -5.567  -5.502  10.685  1.00  0.00     0.091 A 
ATOM     79  F   UNL     1      -3.415  -5.665  11.705  1.00  0.00    -0.205 F 
ATOM     80  C   UNL     1      -6.576  -4.700  10.130  1.00  0.00     0.022 A 
BRANCH  78  81
ATOM     81  S   UNL     1      -5.853  -7.276  10.699  1.00  0.00     0.127 S 
ATOM     82  O   UNL     1      -6.899  -7.403  11.710  1.00  0.00    -0.237 OA
ATOM     83  O   UNL     1      -6.292  -7.521   9.324  1.00  0.00    -0.237 OA
ATOM     84  O   UNL     1      -4.571  -7.879  11.037  1.00  0.00    -0.744 OA
ENDBRANCH  78  81
ENDBRANCH  50  74
BRANCH  62  85
ATOM     85  C   UNL     1      -2.460   1.321  15.726  1.00  0.00     0.023 A 
ATOM     86  C   UNL     1      -2.824   0.686  16.929  1.00  0.00     0.012 A 
ATOM     87  C   UNL     1      -2.680   2.707  15.579  1.00  0.00     0.148 A 
ATOM     88  C   UNL     1      -3.400   1.416  17.968  1.00  0.00     0.002 A 
ATOM     89  C   UNL     1      -3.209   3.436  16.637  1.00  0.00     0.091 A 
ATOM     90  F   UNL     1      -2.335   3.288  14.421  1.00  0.00    -0.205 F 
ATOM     91  C   UNL     1      -3.576   2.791  17.829  1.00  0.00     0.022 A 
BRANCH  89  92
ATOM     92  S   UNL     1      -3.372   5.226  16.597  1.00  0.00     0.127 S 
ATOM     93  O   UNL     1      -4.824   5.393  16.625  1.00  0.00    -0.237 OA
ATOM     94  O   UNL     1      -2.688   5.625  17.827  1.00  0.00    -0.237 OA
ATOM     95  O   UNL     1      -2.722   5.664  15.370  1.00  0.00    -0.744 OA
ENDBRANCH  89  92
ENDBRANCH  62  85
ENDBRANCH  36  37
ENDBRANCH  29  31
ENDBRANCH  28  29
ENDBRANCH  27  28
ENDBRANCH  26  27
ENDBRANCH  25  26
ENDBRANCH   1  25
TORSDOF 21
