REMARK SMILES Cc1nn(C)c(=O)c(C(=O)N2CCCC[C@H]2C(=O)OCCOCCOCCOC(=O)c2ccc(-c3c4nc(c(-c5cccc(S(=O)(=O)[O-])c5F)c5ccc([nH]5)c(-c5cccc(S(=O)(=O)[O-])c5F)c5nc(c(-c6cccc(S(=O)(=O)[O-])c6F)c6ccc3[nH]6)C=C5)C=C4)cc2)c1C
REMARK SMILES IDX 24 1 23 2 22 3 21 4 20 5 19 6 17 7 18 8 16 9 11 10 12 11
REMARK SMILES IDX 13 12 15 13 14 14 9 15 10 16 8 17 1 18 2 19 3 20 94 21 4 22
REMARK SMILES IDX 95 23 5 24 6 25 7 26 25 27 26 28 27 29 28 30 29 31 30 32
REMARK SMILES IDX 31 33 32 34 93 35 33 36 92 37 34 38 35 39 36 40 86 41 37 42
REMARK SMILES IDX 91 43 85 44 87 45 38 46 90 47 84 48 83 49 39 51 71 52 51 53
REMARK SMILES IDX 70 54 52 55 55 56 69 57 88 58 53 59 54 60 68 62 89 63 56 64
REMARK SMILES IDX 40 65 41 66 49 67 42 68 44 69 50 70 43 71 45 72 46 73 47 74
REMARK SMILES IDX 48 75 72 76 73 77 81 78 74 79 76 80 82 81 75 82 77 83 78 84
REMARK SMILES IDX 79 85 80 86 57 87 58 88 66 89 59 90 61 91 67 92 60 93 62 94
REMARK SMILES IDX 63 95 64 96 65 97
REMARK H PARENT 87 50 55 61
REMARK Flexibility Score: inf
ROOT
ATOM      1  C   UNL     1      -0.572   1.148  -0.032  1.00  0.00     0.188 C 
ENDROOT
BRANCH   1   2
ATOM      2  C   UNL     1      -1.357   2.277  -0.704  1.00  0.00     0.188 C 
BRANCH   2   3
ATOM      3  O   UNL     1      -0.621   3.455  -1.024  1.00  0.00    -0.376 OA
BRANCH   3   4
ATOM      4  C   UNL     1       0.360   3.924  -0.105  1.00  0.00     0.202 C 
BRANCH   4   5
ATOM      5  C   UNL     1      -0.178   4.549   1.182  1.00  0.00     0.261 C 
BRANCH   5   6
ATOM      6  O   UNL     1      -0.417   3.554   2.199  1.00  0.00    -0.462 OA
BRANCH   6   7
ATOM      7  C   UNL     1      -1.717   3.285   2.490  1.00  0.00     0.328 C 
ATOM      8  O   UNL     1      -2.666   3.776   1.891  1.00  0.00    -0.250 OA
BRANCH   7   9
ATOM      9  C   UNL     1      -1.881   2.233   3.611  1.00  0.00     0.195 C 
ATOM     10  N   UNL     1      -0.705   1.960   4.474  1.00  0.00    -0.325 N 
ATOM     11  C   UNL     1      -0.264   3.086   5.296  1.00  0.00     0.121 C 
ATOM     12  C   UNL     1      -1.391   3.641   6.160  1.00  0.00     0.022 C 
ATOM     13  C   UNL     1      -3.044   2.710   4.508  1.00  0.00     0.037 C 
ATOM     14  C   UNL     1      -2.633   3.942   5.326  1.00  0.00     0.005 C 
BRANCH  10  15
ATOM     15  C   UNL     1      -0.402   0.684   4.949  1.00  0.00     0.260 C 
ATOM     16  O   UNL     1      -0.158   0.475   6.139  1.00  0.00    -0.269 OA
BRANCH  15  17
ATOM     17  C   UNL     1      -0.106  -0.399   3.962  1.00  0.00     0.111 A 
ATOM     18  C   UNL     1       2.210  -1.368   1.130  1.00  0.00     0.069 C 
ATOM     19  C   UNL     1       1.333  -1.472   2.359  1.00  0.00     0.062 A 
ATOM     20  N   UNL     1       0.959  -2.671   2.671  1.00  0.00    -0.175 NA
ATOM     21  C   UNL     1       0.935  -0.249   3.116  1.00  0.00    -0.010 A 
ATOM     22  N   UNL     1       0.040  -2.818   3.669  1.00  0.00    -0.232 N 
ATOM     23  C   UNL     1       1.821   0.959   3.047  1.00  0.00     0.047 C 
ATOM     24  C   UNL     1      -0.282  -4.191   4.014  1.00  0.00     0.178 C 
ATOM     25  C   UNL     1      -0.680  -1.756   4.204  1.00  0.00     0.279 A 
ATOM     26  O   UNL     1      -1.701  -1.891   4.875  1.00  0.00    -0.267 OA
ENDBRANCH  15  17
ENDBRANCH  10  15
ENDBRANCH   7   9
ENDBRANCH   6   7
ENDBRANCH   5   6
ENDBRANCH   4   5
ENDBRANCH   3   4
ENDBRANCH   2   3
ENDBRANCH   1   2
BRANCH   1  27
ATOM     27  O   UNL     1       0.696   0.827  -0.598  1.00  0.00    -0.376 OA
BRANCH  27  28
ATOM     28  C   UNL     1       0.733   0.607  -2.008  1.00  0.00     0.202 C 
BRANCH  28  29
ATOM     29  C   UNL     1       0.271  -0.785  -2.438  1.00  0.00     0.261 C 
BRANCH  29  30
ATOM     30  O   UNL     1      -1.150  -0.924  -2.298  1.00  0.00    -0.460 OA
BRANCH  30  31
ATOM     31  C   UNL     1      -1.577  -1.743  -1.306  1.00  0.00     0.338 C 
ATOM     32  O   UNL     1      -0.888  -2.385  -0.531  1.00  0.00    -0.246 OA
BRANCH  31  33
ATOM     33  C   UNL     1      -3.038  -1.591  -1.170  1.00  0.00     0.060 A 
ATOM     34  C   UNL     1      -3.589  -1.488   0.116  1.00  0.00     0.016 A 
ATOM     35  C   UNL     1      -3.857  -1.553  -2.300  1.00  0.00     0.016 A 
ATOM     36  C   UNL     1      -4.970  -1.363   0.274  1.00  0.00     0.010 A 
ATOM     37  C   UNL     1      -5.235  -1.443  -2.141  1.00  0.00     0.010 A 
ATOM     38  C   UNL     1      -5.798  -1.370  -0.856  1.00  0.00    -0.014 A 
BRANCH  38  39
ATOM     39  C   UNL     1      -7.269  -1.449  -0.733  1.00  0.00     0.031 A 
ATOM     40  C   UNL     1      -7.920  -2.797  -0.837  1.00  0.00     0.074 A 
ATOM     41  C   UNL     1      -8.008  -0.331  -0.636  1.00  0.00     0.049 A 
ATOM     42  N   UNL     1      -9.184  -3.097  -0.959  1.00  0.00    -0.248 NA
ATOM     43  C   UNL     1      -7.019  -3.963  -0.816  1.00  0.00     0.031 C 
ATOM     44  C   UNL     1      -7.477   1.025  -0.516  1.00  0.00     0.029 A 
ATOM     45  N   UNL     1      -9.369  -0.162  -0.669  1.00  0.00    -0.354 N 
ATOM     46  C   UNL     1      -9.233  -4.482  -1.058  1.00  0.00     0.074 A 
ATOM     47  C   UNL     1      -7.871  -4.964  -0.986  1.00  0.00     0.031 C 
ATOM     48  C   UNL     1      -8.502   1.895  -0.523  1.00  0.00     0.029 A 
ATOM     49  C   UNL     1      -9.754   1.158  -0.685  1.00  0.00     0.049 A 
ATOM     50  H   UNL     1     -10.007  -0.911  -0.680  1.00  0.00     0.167 HD
ATOM     51  C   UNL     1     -10.318  -5.279  -1.185  1.00  0.00     0.034 A 
ATOM     52  C   UNL     1     -10.976   1.705  -0.847  1.00  0.00     0.034 A 
ATOM     53  C   UNL     1     -11.668  -4.792  -1.247  1.00  0.00     0.049 A 
ATOM     54  C   UNL     1     -12.165   0.796  -1.029  1.00  0.00     0.074 A 
ATOM     55  C   UNL     1     -12.840  -5.517  -1.357  1.00  0.00     0.029 A 
ATOM     56  N   UNL     1     -12.025  -3.453  -1.208  1.00  0.00    -0.354 N 
ATOM     57  N   UNL     1     -12.210  -0.515  -1.036  1.00  0.00    -0.248 NA
ATOM     58  C   UNL     1     -13.475   1.441  -1.207  1.00  0.00     0.031 C 
ATOM     59  C   UNL     1     -13.907  -4.614  -1.396  1.00  0.00     0.029 A 
ATOM     60  C   UNL     1     -13.400  -3.328  -1.296  1.00  0.00     0.049 A 
ATOM     61  H   UNL     1     -11.394  -2.701  -1.129  1.00  0.00     0.167 HD
ATOM     62  C   UNL     1     -13.550  -0.852  -1.196  1.00  0.00     0.074 A 
ATOM     63  C   UNL     1     -14.288   0.394  -1.255  1.00  0.00     0.031 C 
ATOM     64  C   UNL     1     -14.119  -2.079  -1.305  1.00  0.00     0.034 A 
BRANCH  51  65
ATOM     65  C   UNL     1     -10.089  -6.765  -1.225  1.00  0.00     0.023 A 
ATOM     66  C   UNL     1      -9.761  -7.443  -0.034  1.00  0.00     0.012 A 
ATOM     67  C   UNL     1     -10.249  -7.497  -2.418  1.00  0.00     0.148 A 
ATOM     68  C   UNL     1      -9.574  -8.825  -0.032  1.00  0.00     0.002 A 
ATOM     69  C   UNL     1     -10.099  -8.879  -2.400  1.00  0.00     0.091 A 
ATOM     70  F   UNL     1     -10.534  -6.829  -3.545  1.00  0.00    -0.205 F 
ATOM     71  C   UNL     1      -9.754  -9.543  -1.211  1.00  0.00     0.022 A 
BRANCH  69  72
ATOM     72  S   UNL     1     -10.373  -9.902  -3.851  1.00  0.00     0.127 S 
ATOM     73  O   UNL     1      -9.013 -10.334  -4.169  1.00  0.00    -0.237 OA
ATOM     74  O   UNL     1     -11.239 -10.957  -3.324  1.00  0.00    -0.237 OA
ATOM     75  O   UNL     1     -11.001  -9.038  -4.840  1.00  0.00    -0.744 OA
ENDBRANCH  69  72
ENDBRANCH  51  65
BRANCH  52  76
ATOM     76  C   UNL     1     -11.138   3.185  -0.802  1.00  0.00     0.023 A 
ATOM     77  C   UNL     1     -11.788   3.768   0.303  1.00  0.00     0.012 A 
ATOM     78  C   UNL     1     -10.622   4.020  -1.813  1.00  0.00     0.148 A 
ATOM     79  C   UNL     1     -11.937   5.152   0.394  1.00  0.00     0.002 A 
ATOM     80  C   UNL     1     -10.727   5.402  -1.691  1.00  0.00     0.091 A 
ATOM     81  F   UNL     1     -10.025   3.447  -2.867  1.00  0.00    -0.205 F 
ATOM     82  C   UNL     1     -11.396   5.969  -0.595  1.00  0.00     0.022 A 
BRANCH  80  83
ATOM     83  S   UNL     1      -9.952   6.536  -2.849  1.00  0.00     0.127 S 
ATOM     84  O   UNL     1     -11.111   7.101  -3.536  1.00  0.00    -0.237 OA
ATOM     85  O   UNL     1      -9.260   7.460  -1.950  1.00  0.00    -0.237 OA
ATOM     86  O   UNL     1      -9.067   5.719  -3.667  1.00  0.00    -0.744 OA
ENDBRANCH  80  83
ENDBRANCH  52  76
BRANCH  64  87
ATOM     87  C   UNL     1     -15.612  -2.147  -1.495  1.00  0.00     0.023 A 
ATOM     88  C   UNL     1     -16.165  -1.817  -2.748  1.00  0.00     0.012 A 
ATOM     89  C   UNL     1     -16.452  -2.636  -0.474  1.00  0.00     0.148 A 
ATOM     90  C   UNL     1     -17.534  -1.952  -2.976  1.00  0.00     0.002 A 
ATOM     91  C   UNL     1     -17.808  -2.810  -0.724  1.00  0.00     0.091 A 
ATOM     92  F   UNL     1     -15.910  -2.926   0.718  1.00  0.00    -0.205 F 
ATOM     93  C   UNL     1     -18.352  -2.461  -1.970  1.00  0.00     0.022 A 
BRANCH  91  94
ATOM     94  S   UNL     1     -18.913  -3.554   0.483  1.00  0.00     0.127 S 
ATOM     95  O   UNL     1     -19.603  -2.383   1.019  1.00  0.00    -0.237 OA
ATOM     96  O   UNL     1     -19.747  -4.425  -0.348  1.00  0.00    -0.237 OA
ATOM     97  O   UNL     1     -18.054  -4.265   1.421  1.00  0.00    -0.744 OA
ENDBRANCH  91  94
ENDBRANCH  64  87
ENDBRANCH  38  39
ENDBRANCH  31  33
ENDBRANCH  30  31
ENDBRANCH  29  30
ENDBRANCH  28  29
ENDBRANCH  27  28
ENDBRANCH   1  27
TORSDOF 22
