REMARK SMILES Cc1ccc(N2C(=O)C[C@H](Sc3ccccc3C(=O)OCCOCCOCCOC(=O)c3ccc(-c4c5nc(c(-c6cccc(S(=O)(=O)[O-])c6F)c6ccc([nH]6)c(-c6cccc(S(=O)(=O)[O-])c6F)c6nc(c(-c7cccc(S(=O)(=O)[O-])c7F)c7ccc4[nH]7)C=C6)C=C5)cc3)C2=O)cc1
REMARK SMILES IDX 24 1 23 2 22 3 21 4 20 5 18 6 19 7 17 8 12 9 13 10 14 11
REMARK SMILES IDX 16 12 15 13 11 14 10 15 6 16 7 17 95 18 8 19 9 20 96 21 5 22
REMARK SMILES IDX 1 23 2 24 3 25 98 26 4 27 97 28 25 29 26 30 27 31 28 32
REMARK SMILES IDX 29 33 30 34 31 35 32 36 33 37 94 38 34 39 93 40 35 41 36 42
REMARK SMILES IDX 37 43 87 44 38 45 92 46 86 47 88 48 39 49 91 50 85 51 84 52
REMARK SMILES IDX 40 54 72 55 52 56 71 57 53 58 56 59 70 60 89 61 54 62 55 63
REMARK SMILES IDX 69 65 90 66 57 67 41 68 42 69 50 70 43 71 45 72 51 73 44 74
REMARK SMILES IDX 46 75 47 76 48 77 49 78 73 79 74 80 82 81 75 82 77 83 83 84
REMARK SMILES IDX 76 85 78 86 79 87 80 88 81 89 58 90 59 91 67 92 60 93 62 94
REMARK SMILES IDX 68 95 61 96 63 97 64 98 65 99 66 100
REMARK H PARENT 88 53 56 64
REMARK Flexibility Score: inf
ROOT
ATOM      1  C   UNL     1      -6.238   1.733  -3.922  1.00  0.00     0.188 C 
ENDROOT
BRANCH   1   2
ATOM      2  O   UNL     1      -6.915   2.868  -4.463  1.00  0.00    -0.376 OA
BRANCH   2   3
ATOM      3  C   UNL     1      -6.397   4.191  -4.215  1.00  0.00     0.202 C 
BRANCH   3   4
ATOM      4  C   UNL     1      -6.755   5.092  -2.963  1.00  0.00     0.261 C 
BRANCH   4   5
ATOM      5  O   UNL     1      -6.112   4.787  -1.637  1.00  0.00    -0.460 OA
BRANCH   5   6
ATOM      6  C   UNL     1      -5.209   5.412  -0.759  1.00  0.00     0.339 C 
ATOM      7  O   UNL     1      -4.655   6.442  -1.132  1.00  0.00    -0.246 OA
BRANCH   6   8
ATOM      8  C   UNL     1      -4.626   4.572   0.784  1.00  0.00     0.073 A 
ATOM      9  C   UNL     1      -5.099   3.309   1.529  1.00  0.00     0.023 A 
ATOM     10  C   UNL     1      -5.534   3.385   2.867  1.00  0.00     0.016 A 
ATOM     11  C   UNL     1      -5.118   4.490   3.597  1.00  0.00     0.001 A 
ATOM     12  C   UNL     1      -4.059   5.535   1.610  1.00  0.00     0.017 A 
ATOM     13  C   UNL     1      -4.318   5.488   2.996  1.00  0.00     0.001 A 
BRANCH   9  14
ATOM     14  S   UNL     1      -3.490   1.943   1.830  1.00  0.00    -0.111 SA
BRANCH  14  15
ATOM     15  C   UNL     1      -4.007  -0.059   2.178  1.00  0.00     0.151 C 
ATOM     16  N   UNL     1      -1.917  -1.073   1.647  1.00  0.00    -0.250 N 
ATOM     17  C   UNL     1      -2.769  -1.650   0.760  1.00  0.00     0.235 C 
ATOM     18  C   UNL     1      -2.612  -0.494   2.693  1.00  0.00     0.247 C 
ATOM     19  O   UNL     1      -2.533  -2.327  -0.234  1.00  0.00    -0.274 OA
ATOM     20  C   UNL     1      -4.134  -1.263   1.187  1.00  0.00     0.126 C 
ATOM     21  O   UNL     1      -2.207  -0.369   3.843  1.00  0.00    -0.273 OA
BRANCH  16  22
ATOM     22  C   UNL     1      -0.541  -0.942   1.385  1.00  0.00     0.052 A 
ATOM     23  C   UNL     1       3.394  -0.170  -0.187  1.00  0.00     0.044 C 
ATOM     24  C   UNL     1       2.043  -0.442   0.397  1.00  0.00    -0.051 A 
ATOM     25  C   UNL     1       1.458  -1.700   0.232  1.00  0.00     0.005 A 
ATOM     26  C   UNL     1       1.347   0.549   1.098  1.00  0.00     0.005 A 
ATOM     27  C   UNL     1       0.167  -1.938   0.701  1.00  0.00     0.027 A 
ATOM     28  C   UNL     1       0.071   0.296   1.607  1.00  0.00     0.027 A 
ENDBRANCH  16  22
ENDBRANCH  14  15
ENDBRANCH   9  14
ENDBRANCH   6   8
ENDBRANCH   5   6
ENDBRANCH   4   5
ENDBRANCH   3   4
ENDBRANCH   2   3
ENDBRANCH   1   2
BRANCH   1  29
ATOM     29  C   UNL     1      -4.807   1.440  -4.372  1.00  0.00     0.188 C 
BRANCH  29  30
ATOM     30  O   UNL     1      -4.002   2.575  -4.113  1.00  0.00    -0.376 OA
BRANCH  30  31
ATOM     31  C   UNL     1      -2.878   2.790  -4.936  1.00  0.00     0.202 C 
BRANCH  31  32
ATOM     32  C   UNL     1      -1.776   1.748  -4.743  1.00  0.00     0.261 C 
BRANCH  32  33
ATOM     33  O   UNL     1      -0.880   2.012  -3.633  1.00  0.00    -0.460 OA
BRANCH  33  34
ATOM     34  C   UNL     1      -1.066   1.341  -2.452  1.00  0.00     0.338 C 
ATOM     35  O   UNL     1      -0.171   0.738  -1.887  1.00  0.00    -0.246 OA
BRANCH  34  36
ATOM     36  C   UNL     1      -2.362   1.650  -1.825  1.00  0.00     0.060 A 
ATOM     37  C   UNL     1      -3.299   0.792  -1.279  1.00  0.00     0.016 A 
ATOM     38  C   UNL     1      -2.674   2.949  -1.732  1.00  0.00     0.016 A 
ATOM     39  C   UNL     1      -4.659   1.206  -0.900  1.00  0.00     0.010 A 
ATOM     40  C   UNL     1      -3.996   3.284  -1.386  1.00  0.00     0.010 A 
ATOM     41  C   UNL     1      -5.157   2.499  -0.963  1.00  0.00    -0.014 A 
BRANCH  41  42
ATOM     42  C   UNL     1      -6.843   2.907  -0.480  1.00  0.00     0.031 A 
ATOM     43  C   UNL     1      -7.617   4.372   0.267  1.00  0.00     0.074 A 
ATOM     44  C   UNL     1      -7.829   2.204  -1.123  1.00  0.00     0.049 A 
ATOM     45  N   UNL     1      -8.921   4.639   0.257  1.00  0.00    -0.248 NA
ATOM     46  C   UNL     1      -7.060   5.575   1.008  1.00  0.00     0.031 C 
ATOM     47  C   UNL     1      -8.952   2.876  -1.778  1.00  0.00     0.029 A 
ATOM     48  N   UNL     1      -8.001   0.868  -1.542  1.00  0.00    -0.354 N 
ATOM     49  C   UNL     1      -9.100   6.021   0.526  1.00  0.00     0.074 A 
ATOM     50  C   UNL     1      -8.027   6.426   1.311  1.00  0.00     0.031 C 
ATOM     51  C   UNL     1      -9.700   2.002  -2.448  1.00  0.00     0.029 A 
ATOM     52  C   UNL     1      -9.320   0.686  -2.008  1.00  0.00     0.049 A 
ATOM     53  H   UNL     1      -7.308   0.169  -1.514  1.00  0.00     0.167 HD
ATOM     54  C   UNL     1      -9.941   6.840  -0.168  1.00  0.00     0.034 A 
ATOM     55  C   UNL     1     -10.239  -0.291  -1.735  1.00  0.00     0.034 A 
ATOM     56  C   UNL     1     -10.984   6.030  -0.738  1.00  0.00     0.049 A 
ATOM     57  C   UNL     1     -11.502   0.323  -1.094  1.00  0.00     0.074 A 
ATOM     58  C   UNL     1     -11.383   5.681  -2.006  1.00  0.00     0.029 A 
ATOM     59  N   UNL     1     -11.673   5.225   0.147  1.00  0.00    -0.354 N 
ATOM     60  N   UNL     1     -11.871   1.574  -1.198  1.00  0.00    -0.248 NA
ATOM     61  C   UNL     1     -12.410  -0.403  -0.200  1.00  0.00     0.031 C 
ATOM     62  C   UNL     1     -12.204   4.524  -1.867  1.00  0.00     0.029 A 
ATOM     63  C   UNL     1     -12.334   4.221  -0.518  1.00  0.00     0.049 A 
ATOM     64  H   UNL     1     -11.689   5.354   1.123  1.00  0.00     0.167 HD
ATOM     65  C   UNL     1     -12.718   1.880  -0.159  1.00  0.00     0.074 A 
ATOM     66  C   UNL     1     -13.120   0.590   0.354  1.00  0.00     0.031 C 
ATOM     67  C   UNL     1     -12.930   3.158   0.282  1.00  0.00     0.034 A 
BRANCH  54  68
ATOM     68  C   UNL     1      -9.827   8.373  -0.421  1.00  0.00     0.023 A 
ATOM     69  C   UNL     1     -10.966   8.972  -1.012  1.00  0.00     0.012 A 
ATOM     70  C   UNL     1      -8.703   9.252  -0.266  1.00  0.00     0.148 A 
ATOM     71  C   UNL     1     -11.008  10.308  -1.438  1.00  0.00     0.002 A 
ATOM     72  C   UNL     1      -8.770  10.617  -0.633  1.00  0.00     0.091 A 
ATOM     73  F   UNL     1      -7.532   8.775   0.173  1.00  0.00    -0.205 F 
ATOM     74  C   UNL     1      -9.917  11.135  -1.239  1.00  0.00     0.022 A 
BRANCH  72  75
ATOM     75  S   UNL     1      -7.437  11.824  -0.384  1.00  0.00     0.127 S 
ATOM     76  O   UNL     1      -7.183  12.300  -1.745  1.00  0.00    -0.237 OA
ATOM     77  O   UNL     1      -8.072  12.816   0.485  1.00  0.00    -0.237 OA
ATOM     78  O   UNL     1      -6.333  11.098   0.229  1.00  0.00    -0.744 OA
ENDBRANCH  72  75
ENDBRANCH  54  68
BRANCH  55  79
ATOM     79  C   UNL     1      -9.677  -1.639  -1.437  1.00  0.00     0.023 A 
ATOM     80  C   UNL     1      -8.839  -2.243  -2.407  1.00  0.00     0.012 A 
ATOM     81  C   UNL     1      -9.571  -2.078  -0.127  1.00  0.00     0.148 A 
ATOM     82  C   UNL     1      -7.776  -3.069  -2.023  1.00  0.00     0.002 A 
ATOM     83  C   UNL     1      -8.347  -2.564   0.271  1.00  0.00     0.091 A 
ATOM     84  F   UNL     1     -10.461  -1.745   0.811  1.00  0.00    -0.205 F 
ATOM     85  C   UNL     1      -7.474  -3.159  -0.666  1.00  0.00     0.022 A 
BRANCH  83  86
ATOM     86  S   UNL     1      -7.552  -1.290   1.331  1.00  0.00     0.127 S 
ATOM     87  O   UNL     1      -6.772  -2.085   2.283  1.00  0.00    -0.237 OA
ATOM     88  O   UNL     1      -6.787  -0.629   0.293  1.00  0.00    -0.237 OA
ATOM     89  O   UNL     1      -8.598  -0.472   1.897  1.00  0.00    -0.744 OA
ENDBRANCH  83  86
ENDBRANCH  55  79
BRANCH  67  90
ATOM     90  C   UNL     1     -13.652   3.509   1.580  1.00  0.00     0.023 A 
ATOM     91  C   UNL     1     -13.673   2.643   2.691  1.00  0.00     0.012 A 
ATOM     92  C   UNL     1     -14.223   4.795   1.773  1.00  0.00     0.148 A 
ATOM     93  C   UNL     1     -14.355   2.969   3.871  1.00  0.00     0.002 A 
ATOM     94  C   UNL     1     -14.780   5.164   2.996  1.00  0.00     0.091 A 
ATOM     95  F   UNL     1     -14.237   5.676   0.761  1.00  0.00    -0.205 F 
ATOM     96  C   UNL     1     -14.904   4.234   4.027  1.00  0.00     0.022 A 
BRANCH  94  97
ATOM     97  S   UNL     1     -15.207   6.880   3.329  1.00  0.00     0.127 S 
ATOM     98  O   UNL     1     -16.587   6.951   2.857  1.00  0.00    -0.237 OA
ATOM     99  O   UNL     1     -15.057   6.972   4.784  1.00  0.00    -0.237 OA
ATOM    100  O   UNL     1     -14.225   7.654   2.582  1.00  0.00    -0.744 OA
ENDBRANCH  94  97
ENDBRANCH  67  90
ENDBRANCH  41  42
ENDBRANCH  34  36
ENDBRANCH  33  34
ENDBRANCH  32  33
ENDBRANCH  31  32
ENDBRANCH  30  31
ENDBRANCH  29  30
ENDBRANCH   1  29
TORSDOF 23
