REMARK SMILES O=C(OCCOCCOCCOC(=O)c1cc([N+](=O)[O-])cc([N+](=O)[O-])c1N1CCCCCC1)c1ccc(-c2c3nc(c(-c4cccc(S(=O)(=O)[O-])c4F)c4ccc([nH]4)c(-c4cccc(S(=O)(=O)[O-])c4F)c4nc(c(-c5cccc(S(=O)(=O)[O-])c5F)c5ccc2[nH]5)C=C4)C=C3)cc1
REMARK SMILES IDX 8 1 7 2 6 3 5 4 4 5 3 6 2 7 1 8 34 9 35 10 96 11 36 12 95 13
REMARK SMILES IDX 37 14 38 15 39 16 89 17 40 18 94 19 88 20 90 21 41 22 93 23
REMARK SMILES IDX 87 24 86 25 42 27 74 28 54 29 73 30 55 31 58 32 72 33 91 34
REMARK SMILES IDX 56 35 57 36 71 38 92 39 59 40 43 41 44 42 52 43 45 44 47 45
REMARK SMILES IDX 53 46 46 47 48 48 49 49 50 50 51 51 75 52 76 53 84 54 77 55
REMARK SMILES IDX 79 56 85 57 78 58 80 59 81 60 82 61 83 62 60 63 61 64 69 65
REMARK SMILES IDX 62 66 64 67 70 68 63 69 65 70 66 71 67 72 68 73 9 74 10 75
REMARK SMILES IDX 11 76 12 77 13 78 14 79 15 80 16 81 26 82 17 83 22 84 21 85
REMARK SMILES IDX 27 86 28 87 29 88 30 89 33 91 32 92 31 93 18 95 19 96 20 97
REMARK SMILES IDX 23 98 24 99 25 100
REMARK H PARENT 90 26 58 37
REMARK Flexibility Score: 90.00
ROOT
ATOM      1  C   UNL     1       1.944  -1.355   2.820  1.00  0.00     0.188 C 
ENDROOT
BRANCH   1   2
ATOM      2  C   UNL     1       2.544  -0.163   2.076  1.00  0.00     0.188 C 
BRANCH   2   3
ATOM      3  O   UNL     1       3.767  -0.540   1.432  1.00  0.00    -0.376 OA
BRANCH   3   4
ATOM      4  C   UNL     1       4.721   0.519   1.334  1.00  0.00     0.202 C 
BRANCH   4   5
ATOM      5  C   UNL     1       4.529   1.435   0.121  1.00  0.00     0.261 C 
BRANCH   5   6
ATOM      6  O   UNL     1       3.151   1.544  -0.265  1.00  0.00    -0.460 OA
BRANCH   6   7
ATOM      7  C   UNL     1       2.508   0.841  -1.233  1.00  0.00     0.338 C 
ATOM      8  O   UNL     1       1.331   1.108  -1.465  1.00  0.00    -0.246 OA
BRANCH   7   9
ATOM      9  C   UNL     1       3.179  -0.200  -2.071  1.00  0.00     0.060 A 
ATOM     10  C   UNL     1       4.195  -1.052  -1.631  1.00  0.00     0.016 A 
ATOM     11  C   UNL     1       2.698  -0.373  -3.378  1.00  0.00     0.016 A 
ATOM     12  C   UNL     1       4.807  -1.960  -2.492  1.00  0.00     0.010 A 
ATOM     13  C   UNL     1       3.265  -1.327  -4.231  1.00  0.00     0.010 A 
ATOM     14  C   UNL     1       4.352  -2.099  -3.802  1.00  0.00    -0.014 A 
BRANCH  14  15
ATOM     15  C   UNL     1       5.059  -3.007  -4.730  1.00  0.00     0.031 A 
ATOM     16  C   UNL     1       5.875  -2.421  -5.842  1.00  0.00     0.074 A 
ATOM     17  C   UNL     1       4.981  -4.341  -4.564  1.00  0.00     0.049 A 
ATOM     18  N   UNL     1       6.513  -3.033  -6.801  1.00  0.00    -0.248 NA
ATOM     19  C   UNL     1       6.000  -0.953  -5.874  1.00  0.00     0.031 C 
ATOM     20  C   UNL     1       4.255  -5.010  -3.486  1.00  0.00     0.029 A 
ATOM     21  N   UNL     1       5.496  -5.372  -5.307  1.00  0.00    -0.354 N 
ATOM     22  C   UNL     1       7.062  -2.029  -7.587  1.00  0.00     0.074 A 
ATOM     23  C   UNL     1       6.709  -0.766  -6.977  1.00  0.00     0.031 C 
ATOM     24  C   UNL     1       4.337  -6.338  -3.662  1.00  0.00     0.029 A 
ATOM     25  C   UNL     1       5.084  -6.613  -4.878  1.00  0.00     0.049 A 
ATOM     26  H   UNL     1       6.101  -5.238  -6.072  1.00  0.00     0.167 HD
ATOM     27  C   UNL     1       7.791  -2.155  -8.718  1.00  0.00     0.034 A 
ATOM     28  C   UNL     1       5.252  -7.832  -5.423  1.00  0.00     0.034 A 
ATOM     29  C   UNL     1       8.155  -3.418  -9.297  1.00  0.00     0.049 A 
ATOM     30  C   UNL     1       6.047  -7.938  -6.691  1.00  0.00     0.074 A 
ATOM     31  C   UNL     1       8.936  -3.659 -10.412  1.00  0.00     0.029 A 
ATOM     32  N   UNL     1       7.740  -4.651  -8.820  1.00  0.00    -0.354 N 
ATOM     33  N   UNL     1       6.647  -6.985  -7.362  1.00  0.00    -0.248 NA
ATOM     34  C   UNL     1       6.205  -9.280  -7.266  1.00  0.00     0.031 C 
ATOM     35  C   UNL     1       8.967  -5.041 -10.627  1.00  0.00     0.029 A 
ATOM     36  C   UNL     1       8.223  -5.659  -9.634  1.00  0.00     0.049 A 
ATOM     37  H   UNL     1       7.183  -4.789  -8.020  1.00  0.00     0.167 HD
ATOM     38  C   UNL     1       7.257  -7.611  -8.438  1.00  0.00     0.074 A 
ATOM     39  C   UNL     1       6.989  -9.030  -8.306  1.00  0.00     0.031 C 
ATOM     40  C   UNL     1       7.956  -7.062  -9.460  1.00  0.00     0.034 A 
BRANCH  27  41
ATOM     41  C   UNL     1       8.218  -0.895  -9.412  1.00  0.00     0.023 A 
ATOM     42  C   UNL     1       9.297  -0.142  -8.910  1.00  0.00     0.012 A 
ATOM     43  C   UNL     1       7.563  -0.477 -10.586  1.00  0.00     0.148 A 
ATOM     44  C   UNL     1       9.705   1.024  -9.557  1.00  0.00     0.002 A 
ATOM     45  C   UNL     1       7.996   0.667 -11.243  1.00  0.00     0.091 A 
ATOM     46  F   UNL     1       6.523  -1.199 -11.026  1.00  0.00    -0.205 F 
ATOM     47  C   UNL     1       9.061   1.423 -10.726  1.00  0.00     0.022 A 
BRANCH  45  48
ATOM     48  S   UNL     1       7.264   1.236 -12.781  1.00  0.00     0.127 S 
ATOM     49  O   UNL     1       6.667   2.507 -12.368  1.00  0.00    -0.237 OA
ATOM     50  O   UNL     1       8.440   1.369 -13.644  1.00  0.00    -0.237 OA
ATOM     51  O   UNL     1       6.319   0.209 -13.185  1.00  0.00    -0.744 OA
ENDBRANCH  45  48
ENDBRANCH  27  41
BRANCH  28  52
ATOM     52  C   UNL     1       4.644  -9.041  -4.799  1.00  0.00     0.023 A 
ATOM     53  C   UNL     1       5.465 -10.003  -4.183  1.00  0.00     0.012 A 
ATOM     54  C   UNL     1       3.251  -9.240  -4.807  1.00  0.00     0.148 A 
ATOM     55  C   UNL     1       4.912 -11.156  -3.620  1.00  0.00     0.002 A 
ATOM     56  C   UNL     1       2.702 -10.367  -4.202  1.00  0.00     0.091 A 
ATOM     57  F   UNL     1       2.471  -8.319  -5.392  1.00  0.00    -0.205 F 
ATOM     58  C   UNL     1       3.529 -11.339  -3.625  1.00  0.00     0.022 A 
BRANCH  56  59
ATOM     59  S   UNL     1       0.921 -10.492  -4.007  1.00  0.00     0.127 S 
ATOM     60  O   UNL     1       0.492 -10.930  -5.330  1.00  0.00    -0.237 OA
ATOM     61  O   UNL     1       0.762 -11.495  -2.953  1.00  0.00    -0.237 OA
ATOM     62  O   UNL     1       0.524  -9.145  -3.602  1.00  0.00    -0.744 OA
ENDBRANCH  56  59
ENDBRANCH  28  52
BRANCH  40  63
ATOM     63  C   UNL     1       8.465  -8.000 -10.515  1.00  0.00     0.023 A 
ATOM     64  C   UNL     1       7.566  -8.529 -11.461  1.00  0.00     0.012 A 
ATOM     65  C   UNL     1       9.836  -8.298 -10.609  1.00  0.00     0.148 A 
ATOM     66  C   UNL     1       8.024  -9.365 -12.476  1.00  0.00     0.002 A 
ATOM     67  C   UNL     1      10.292  -9.094 -11.651  1.00  0.00     0.091 A 
ATOM     68  F   UNL     1      10.665  -7.796  -9.682  1.00  0.00    -0.205 F 
ATOM     69  C   UNL     1       9.387  -9.636 -12.579  1.00  0.00     0.022 A 
BRANCH  67  70
ATOM     70  S   UNL     1      12.036  -9.425 -11.915  1.00  0.00     0.127 S 
ATOM     71  O   UNL     1      12.123 -10.847 -11.588  1.00  0.00    -0.237 OA
ATOM     72  O   UNL     1      12.198  -9.112 -13.334  1.00  0.00    -0.237 OA
ATOM     73  O   UNL     1      12.756  -8.535 -11.013  1.00  0.00    -0.744 OA
ENDBRANCH  67  70
ENDBRANCH  40  63
ENDBRANCH  14  15
ENDBRANCH   7   9
ENDBRANCH   6   7
ENDBRANCH   5   6
ENDBRANCH   4   5
ENDBRANCH   3   4
ENDBRANCH   2   3
ENDBRANCH   1   2
BRANCH   1  74
ATOM     74  O   UNL     1       2.647  -1.754   3.998  1.00  0.00    -0.376 OA
BRANCH  74  75
ATOM     75  C   UNL     1       4.019  -2.108   3.854  1.00  0.00     0.202 C 
BRANCH  75  76
ATOM     76  C   UNL     1       4.342  -3.462   3.212  1.00  0.00     0.261 C 
BRANCH  76  77
ATOM     77  O   UNL     1       3.893  -3.667   1.862  1.00  0.00    -0.460 OA
BRANCH  77  78
ATOM     78  C   UNL     1       2.774  -4.424   1.787  1.00  0.00     0.340 C 
ATOM     79  O   UNL     1       2.013  -4.700   2.707  1.00  0.00    -0.246 OA
BRANCH  78  80
ATOM     80  C   UNL     1       2.553  -5.000   0.456  1.00  0.00     0.097 A 
ATOM     81  C   UNL     1       1.611  -4.366  -0.371  1.00  0.00     0.104 A 
ATOM     82  C   UNL     1       2.971  -6.325   0.229  1.00  0.00     0.131 A 
ATOM     83  C   UNL     1       1.020  -5.083  -1.424  1.00  0.00     0.277 A 
ATOM     84  C   UNL     1       2.227  -7.039  -0.733  1.00  0.00     0.300 A 
ATOM     85  C   UNL     1       1.279  -6.446  -1.581  1.00  0.00     0.173 A 
BRANCH  82  86
ATOM     86  N   UNL     1       4.089  -6.881   0.857  1.00  0.00    -0.365 N 
BRANCH  86  87
ATOM     87  C   UNL     1       5.397  -6.630   0.239  1.00  0.00     0.117 C 
BRANCH  87  88
ATOM     88  C   UNL     1       6.001  -7.906  -0.348  1.00  0.00     0.021 C 
BRANCH  88  89
ATOM     89  C   UNL     1       6.411  -8.984   0.656  1.00  0.00     0.002 CG0
ATOM     90  G   UNL     1       5.373  -9.355   1.714  1.00  0.00     0.000 G0
ENDBRANCH  88  89
ENDBRANCH  87  88
ENDBRANCH  86  87
BRANCH  86  91
ATOM     91  C   UNL     1       3.990  -7.275   2.257  1.00  0.00     0.117 C 
BRANCH  91  92
ATOM     92  C   UNL     1       5.105  -8.219   2.696  1.00  0.00     0.021 C 
BRANCH  92  93
ATOM     93  C   UNL     1       5.373  -9.355   1.714  1.00  0.00     0.002 CG0
ATOM     94  G   UNL     1       6.411  -8.984   0.656  1.00  0.00     0.000 G0
ENDBRANCH  92  93
ENDBRANCH  91  92
ENDBRANCH  86  91
ENDBRANCH  82  86
BRANCH  83  95
ATOM     95  N   UNL     1       0.060  -4.403  -2.304  1.00  0.00     0.062 N 
ATOM     96  O   UNL     1      -0.290  -3.258  -1.979  1.00  0.00    -0.258 OA
ATOM     97  O   UNL     1      -0.333  -4.997  -3.312  1.00  0.00    -0.258 OA
ENDBRANCH  83  95
BRANCH  84  98
ATOM     98  N   UNL     1       2.306  -8.485  -0.706  1.00  0.00     0.065 N 
ATOM     99  O   UNL     1       3.086  -9.022  -1.495  1.00  0.00    -0.258 OA
ATOM    100  O   UNL     1       1.648  -9.053   0.179  1.00  0.00    -0.258 OA
ENDBRANCH  84  98
ENDBRANCH  78  80
ENDBRANCH  77  78
ENDBRANCH  76  77
ENDBRANCH  75  76
ENDBRANCH  74  75
ENDBRANCH   1  74
TORSDOF 23
