REMARK SMILES CC(C)(C)N(CC(=O)OCCOCCOCCOC(=O)c1ccc(-c2c3nc(c(-c4cccc(S(=O)(=O)[O-])c4F)c4ccc([nH]4)c(-c4cccc(S(=O)(=O)[O-])c4F)c4nc(c(-c5cccc(S(=O)(=O)[O-])c5F)c5ccc2[nH]5)C=C4)C=C3)cc1)C(=O)c1cc2ccccc2o1
REMARK SMILES IDX 13 1 12 2 11 3 10 4 9 5 7 6 8 7 6 8 5 9 2 10 1 11 3 12 4 13
REMARK SMILES IDX 84 14 85 15 86 16 87 17 94 18 88 19 93 20 89 21 92 22 90 23
REMARK SMILES IDX 91 24 14 25 15 26 16 27 17 28 18 29 19 30 20 31 21 32 22 33
REMARK SMILES IDX 83 34 23 35 82 36 24 37 25 38 26 39 76 40 27 41 81 42 75 43
REMARK SMILES IDX 77 44 28 45 80 46 74 47 73 48 29 50 61 51 41 52 60 53 42 54
REMARK SMILES IDX 45 55 59 56 78 57 43 58 44 59 58 61 79 62 46 63 30 64 31 65
REMARK SMILES IDX 39 66 32 67 34 68 40 69 33 70 35 71 36 72 37 73 38 74 62 75
REMARK SMILES IDX 63 76 71 77 64 78 66 79 72 80 65 81 67 82 68 83 69 84 70 85
REMARK SMILES IDX 47 86 48 87 56 88 49 89 51 90 57 91 50 92 52 93 53 94 54 95
REMARK SMILES IDX 55 96
REMARK H PARENT 77 49 45 60
REMARK Flexibility Score: inf
ROOT
ATOM      1  C   UNL     1       4.411   3.510  -3.473  1.00  0.00     0.188 C 
ENDROOT
BRANCH   1   2
ATOM      2  O   UNL     1       5.655   3.214  -2.845  1.00  0.00    -0.376 OA
BRANCH   2   3
ATOM      3  C   UNL     1       5.812   1.916  -2.282  1.00  0.00     0.202 C 
BRANCH   3   4
ATOM      4  C   UNL     1       4.988   1.658  -1.014  1.00  0.00     0.261 C 
BRANCH   4   5
ATOM      5  O   UNL     1       3.574   1.512  -1.293  1.00  0.00    -0.462 OA
BRANCH   5   6
ATOM      6  C   UNL     1       2.721   2.340  -0.631  1.00  0.00     0.325 C 
ATOM      7  O   UNL     1       3.071   3.163   0.207  1.00  0.00    -0.250 OA
BRANCH   6   8
ATOM      8  C   UNL     1       1.263   2.258  -1.134  1.00  0.00     0.243 C 
BRANCH   8   9
ATOM      9  N   UNL     1       0.807   1.042  -1.827  1.00  0.00    -0.320 N 
BRANCH   9  10
ATOM     10  C   UNL     1       0.548  -0.231  -1.094  1.00  0.00     0.036 C 
ATOM     11  C   UNL     1       1.056  -0.222   0.362  1.00  0.00     0.034 C 
ATOM     12  C   UNL     1       1.202  -1.446  -1.789  1.00  0.00     0.034 C 
ATOM     13  C   UNL     1      -0.978  -0.456  -1.058  1.00  0.00     0.034 C 
ENDBRANCH   9  10
BRANCH   9  14
ATOM     14  C   UNL     1       0.710   1.041  -3.214  1.00  0.00     0.290 C 
ATOM     15  O   UNL     1       1.466   0.353  -3.899  1.00  0.00    -0.265 OA
BRANCH  14  16
ATOM     16  C   UNL     1      -0.354   1.791  -3.854  1.00  0.00     0.192 A 
ATOM     17  C   UNL     1      -0.214   2.758  -4.832  1.00  0.00     0.065 A 
ATOM     18  O   UNL     1      -1.556   1.147  -4.036  1.00  0.00    -0.451 OA
ATOM     19  C   UNL     1      -1.129   2.413  -5.854  1.00  0.00     0.021 A 
ATOM     20  C   UNL     1      -1.959   1.447  -5.306  1.00  0.00     0.135 A 
ATOM     21  C   UNL     1      -1.244   2.724  -7.219  1.00  0.00     0.012 A 
ATOM     22  C   UNL     1      -2.958   0.789  -6.017  1.00  0.00     0.048 A 
ATOM     23  C   UNL     1      -2.171   2.005  -7.983  1.00  0.00     0.001 A 
ATOM     24  C   UNL     1      -3.019   1.065  -7.389  1.00  0.00     0.004 A 
ENDBRANCH  14  16
ENDBRANCH   9  14
ENDBRANCH   8   9
ENDBRANCH   6   8
ENDBRANCH   5   6
ENDBRANCH   4   5
ENDBRANCH   3   4
ENDBRANCH   2   3
ENDBRANCH   1   2
BRANCH   1  25
ATOM     25  C   UNL     1       3.746   2.374  -4.257  1.00  0.00     0.188 C 
BRANCH  25  26
ATOM     26  O   UNL     1       4.620   1.786  -5.215  1.00  0.00    -0.376 OA
BRANCH  26  27
ATOM     27  C   UNL     1       4.082   1.787  -6.537  1.00  0.00     0.202 C 
BRANCH  27  28
ATOM     28  C   UNL     1       4.481   3.081  -7.235  1.00  0.00     0.261 C 
BRANCH  28  29
ATOM     29  O   UNL     1       3.800   4.207  -6.645  1.00  0.00    -0.460 OA
BRANCH  29  30
ATOM     30  C   UNL     1       2.719   4.653  -7.304  1.00  0.00     0.338 C 
ATOM     31  O   UNL     1       2.251   4.192  -8.348  1.00  0.00    -0.246 OA
BRANCH  30  32
ATOM     32  C   UNL     1       2.116   5.794  -6.596  1.00  0.00     0.060 A 
ATOM     33  C   UNL     1       1.770   5.699  -5.246  1.00  0.00     0.016 A 
ATOM     34  C   UNL     1       1.760   6.927  -7.323  1.00  0.00     0.016 A 
ATOM     35  C   UNL     1       0.940   6.658  -4.665  1.00  0.00     0.010 A 
ATOM     36  C   UNL     1       1.035   7.945  -6.702  1.00  0.00     0.010 A 
ATOM     37  C   UNL     1       0.566   7.800  -5.383  1.00  0.00    -0.014 A 
BRANCH  37  38
ATOM     38  C   UNL     1      -0.339   8.836  -4.807  1.00  0.00     0.031 A 
ATOM     39  C   UNL     1      -1.582   9.239  -5.561  1.00  0.00     0.074 A 
ATOM     40  C   UNL     1      -0.037   9.466  -3.654  1.00  0.00     0.049 A 
ATOM     41  N   UNL     1      -2.316  10.312  -5.435  1.00  0.00    -0.248 NA
ATOM     42  C   UNL     1      -2.045   8.316  -6.612  1.00  0.00     0.031 C 
ATOM     43  C   UNL     1       1.097   9.157  -2.783  1.00  0.00     0.029 A 
ATOM     44  N   UNL     1      -0.647  10.533  -3.036  1.00  0.00    -0.354 N 
ATOM     45  C   UNL     1      -3.268  10.242  -6.446  1.00  0.00     0.074 A 
ATOM     46  C   UNL     1      -3.035   9.006  -7.162  1.00  0.00     0.031 C 
ATOM     47  C   UNL     1       1.110  10.014  -1.753  1.00  0.00     0.029 A 
ATOM     48  C   UNL     1       0.048  10.996  -1.941  1.00  0.00     0.049 A 
ATOM     49  H   UNL     1      -1.495  10.926  -3.345  1.00  0.00     0.167 HD
ATOM     50  C   UNL     1      -4.246  11.129  -6.750  1.00  0.00     0.034 A 
ATOM     51  C   UNL     1      -0.098  12.120  -1.212  1.00  0.00     0.034 A 
ATOM     52  C   UNL     1      -4.528  12.313  -5.984  1.00  0.00     0.049 A 
ATOM     53  C   UNL     1      -1.179  13.097  -1.575  1.00  0.00     0.074 A 
ATOM     54  C   UNL     1      -5.524  13.253  -6.189  1.00  0.00     0.029 A 
ATOM     55  N   UNL     1      -3.828  12.712  -4.857  1.00  0.00    -0.354 N 
ATOM     56  N   UNL     1      -2.077  13.019  -2.528  1.00  0.00    -0.248 NA
ATOM     57  C   UNL     1      -1.271  14.318  -0.761  1.00  0.00     0.031 C 
ATOM     58  C   UNL     1      -5.421  14.225  -5.187  1.00  0.00     0.029 A 
ATOM     59  C   UNL     1      -4.368  13.883  -4.354  1.00  0.00     0.049 A 
ATOM     60  H   UNL     1      -3.059  12.234  -4.472  1.00  0.00     0.167 HD
ATOM     61  C   UNL     1      -2.849  14.169  -2.418  1.00  0.00     0.074 A 
ATOM     62  C   UNL     1      -2.333  14.914  -1.288  1.00  0.00     0.031 C 
ATOM     63  C   UNL     1      -3.877  14.585  -3.197  1.00  0.00     0.034 A 
BRANCH  50  64
ATOM     64  C   UNL     1      -5.104  10.848  -7.955  1.00  0.00     0.023 A 
ATOM     65  C   UNL     1      -6.114   9.869  -7.885  1.00  0.00     0.012 A 
ATOM     66  C   UNL     1      -4.959  11.611  -9.132  1.00  0.00     0.148 A 
ATOM     67  C   UNL     1      -6.953   9.638  -8.975  1.00  0.00     0.002 A 
ATOM     68  C   UNL     1      -5.825  11.402 -10.200  1.00  0.00     0.091 A 
ATOM     69  F   UNL     1      -3.975  12.520  -9.188  1.00  0.00    -0.205 F 
ATOM     70  C   UNL     1      -6.817  10.412 -10.126  1.00  0.00     0.022 A 
BRANCH  68  71
ATOM     71  S   UNL     1      -5.774  12.402 -11.691  1.00  0.00     0.127 S 
ATOM     72  O   UNL     1      -5.162  11.479 -12.646  1.00  0.00    -0.237 OA
ATOM     73  O   UNL     1      -7.191  12.676 -11.931  1.00  0.00    -0.237 OA
ATOM     74  O   UNL     1      -4.980  13.577 -11.357  1.00  0.00    -0.744 OA
ENDBRANCH  68  71
ENDBRANCH  50  64
BRANCH  51  75
ATOM     75  C   UNL     1       0.827  12.384  -0.074  1.00  0.00     0.023 A 
ATOM     76  C   UNL     1       0.335  12.328   1.244  1.00  0.00     0.012 A 
ATOM     77  C   UNL     1       2.198  12.632  -0.285  1.00  0.00     0.148 A 
ATOM     78  C   UNL     1       1.190  12.525   2.329  1.00  0.00     0.002 A 
ATOM     79  C   UNL     1       3.055  12.761   0.801  1.00  0.00     0.091 A 
ATOM     80  F   UNL     1       2.644  12.714  -1.547  1.00  0.00    -0.205 F 
ATOM     81  C   UNL     1       2.551  12.723   2.110  1.00  0.00     0.022 A 
BRANCH  79  82
ATOM     82  S   UNL     1       4.837  12.854   0.597  1.00  0.00     0.127 S 
ATOM     83  O   UNL     1       5.087  14.280   0.788  1.00  0.00    -0.237 OA
ATOM     84  O   UNL     1       5.317  11.993   1.678  1.00  0.00    -0.237 OA
ATOM     85  O   UNL     1       5.098  12.332  -0.738  1.00  0.00    -0.744 OA
ENDBRANCH  79  82
ENDBRANCH  51  75
BRANCH  63  86
ATOM     86  C   UNL     1      -4.530  15.894  -2.842  1.00  0.00     0.023 A 
ATOM     87  C   UNL     1      -3.871  17.102  -3.143  1.00  0.00     0.012 A 
ATOM     88  C   UNL     1      -5.814  15.929  -2.265  1.00  0.00     0.148 A 
ATOM     89  C   UNL     1      -4.469  18.326  -2.848  1.00  0.00     0.002 A 
ATOM     90  C   UNL     1      -6.420  17.154  -2.011  1.00  0.00     0.091 A 
ATOM     91  F   UNL     1      -6.415  14.768  -1.966  1.00  0.00    -0.205 F 
ATOM     92  C   UNL     1      -5.746  18.353  -2.293  1.00  0.00     0.022 A 
BRANCH  90  93
ATOM     93  S   UNL     1      -8.095  17.275  -1.373  1.00  0.00     0.127 S 
ATOM     94  O   UNL     1      -7.856  17.585   0.036  1.00  0.00    -0.237 OA
ATOM     95  O   UNL     1      -8.651  18.381  -2.154  1.00  0.00    -0.237 OA
ATOM     96  O   UNL     1      -8.714  15.983  -1.638  1.00  0.00    -0.744 OA
ENDBRANCH  90  93
ENDBRANCH  63  86
ENDBRANCH  37  38
ENDBRANCH  30  32
ENDBRANCH  29  30
ENDBRANCH  28  29
ENDBRANCH  27  28
ENDBRANCH  26  27
ENDBRANCH  25  26
ENDBRANCH   1  25
TORSDOF 24
