REMARK SMILES O=C(Cc1cncnc1N1CCC2(CC1)OCCC[C@@H]2O)OCCOCCOCCOC(=O)c1ccc(-c2c3nc(c(-c4cccc(S(=O)(=O)[O-])c4F)c4ccc([nH]4)c(-c4cccc(S(=O)(=O)[O-])c4F)c4nc(c(-c5cccc(S(=O)(=O)[O-])c5F)c5ccc2[nH]5)C=C4)C=C3)cc1
REMARK SMILES IDX 26 1 25 2 24 3 23 4 22 5 2 6 1 7 3 8 4 9 5 10 9 11 6 12 8 13
REMARK SMILES IDX 7 14 10 15 11 16 15 17 12 18 14 19 13 20 16 21 20 22 17 23
REMARK SMILES IDX 19 24 18 25 21 26 27 28 28 29 29 30 30 31 31 32 32 33 33 34
REMARK SMILES IDX 34 35 35 36 96 37 36 38 95 39 37 40 38 41 39 42 89 43 40 44
REMARK SMILES IDX 94 45 88 46 90 47 41 48 93 49 87 50 86 51 42 53 74 54 54 55
REMARK SMILES IDX 73 56 55 57 58 58 72 59 91 60 56 61 57 62 71 64 92 65 59 66
REMARK SMILES IDX 43 67 44 68 52 69 45 70 47 71 53 72 46 73 48 74 49 75 50 76
REMARK SMILES IDX 51 77 75 78 76 79 84 80 77 81 79 82 85 83 78 84 80 85 81 86
REMARK SMILES IDX 82 87 83 88 60 89 61 90 69 91 62 92 64 93 70 94 63 95 65 96
REMARK SMILES IDX 66 97 67 98 68 99
REMARK H PARENT 21 27 90 52 58 63
REMARK Flexibility Score: inf
ROOT
ATOM      1  C   UNL     1       3.050  -1.070  -1.564  1.00  0.00     0.188 C 
ENDROOT
BRANCH   1   2
ATOM      2  O   UNL     1       4.451  -1.225  -1.462  1.00  0.00    -0.376 OA
BRANCH   2   3
ATOM      3  C   UNL     1       5.154  -0.794  -0.309  1.00  0.00     0.202 C 
BRANCH   3   4
ATOM      4  C   UNL     1       4.574  -1.108   1.073  1.00  0.00     0.261 C 
BRANCH   4   5
ATOM      5  O   UNL     1       3.244  -0.667   1.434  1.00  0.00    -0.463 OA
BRANCH   5   6
ATOM      6  C   UNL     1       2.752   0.588   1.508  1.00  0.00     0.310 C 
ATOM      7  O   UNL     1       1.816   0.831   2.268  1.00  0.00    -0.252 OA
BRANCH   6   8
ATOM      8  C   UNL     1       3.238   1.615   0.529  1.00  0.00     0.163 C 
BRANCH   8   9
ATOM      9  C   UNL     1       3.839   2.831   1.150  1.00  0.00     0.024 A 
ATOM     10  C   UNL     1       4.906   2.730   2.026  1.00  0.00     0.121 A 
ATOM     11  C   UNL     1       3.488   4.115   0.753  1.00  0.00     0.135 A 
ATOM     12  N   UNL     1       5.577   3.780   2.518  1.00  0.00    -0.244 NA
ATOM     13  N   UNL     1       4.137   5.188   1.229  1.00  0.00    -0.219 NA
ATOM     14  C   UNL     1       5.152   4.973   2.079  1.00  0.00     0.224 A 
BRANCH  11  15
ATOM     15  N   UNL     1       2.544   4.288  -0.247  1.00  0.00    -0.356 N 
ATOM     16  C   UNL     1       2.805   5.338  -1.226  1.00  0.00     0.121 C 
ATOM     17  C   UNL     1       1.133   4.099   0.075  1.00  0.00     0.121 C 
ATOM     18  C   UNL     1       2.133   4.911  -2.530  1.00  0.00     0.060 C 
ATOM     19  C   UNL     1       0.425   3.615  -1.194  1.00  0.00     0.060 C 
ATOM     20  C   UNL     1       0.622   4.601  -2.366  1.00  0.00     0.097 C 
ATOM     21  O   UNL     1      -0.122   5.776  -1.985  1.00  0.00    -0.372 OA
ATOM     22  C   UNL     1       0.063   3.990  -3.692  1.00  0.00     0.146 C 
ATOM     23  C   UNL     1      -0.211   6.778  -2.991  1.00  0.00     0.161 C 
ATOM     24  C   UNL     1      -0.163   5.041  -4.773  1.00  0.00     0.037 C 
ATOM     25  C   UNL     1      -0.902   6.255  -4.237  1.00  0.00     0.031 C 
BRANCH  22  26
ATOM     26  O   UNL     1      -1.188   3.316  -3.502  1.00  0.00    -0.390 OA
ATOM     27  H   UNL     1      -1.862   3.956  -3.224  1.00  0.00     0.211 HD
ENDBRANCH  22  26
ENDBRANCH  11  15
ENDBRANCH   8   9
ENDBRANCH   6   8
ENDBRANCH   5   6
ENDBRANCH   4   5
ENDBRANCH   3   4
ENDBRANCH   2   3
ENDBRANCH   1   2
BRANCH   1  28
ATOM     28  C   UNL     1       2.298  -2.383  -1.838  1.00  0.00     0.188 C 
BRANCH  28  29
ATOM     29  O   UNL     1       2.951  -3.610  -1.544  1.00  0.00    -0.376 OA
BRANCH  29  30
ATOM     30  C   UNL     1       4.224  -3.854  -2.141  1.00  0.00     0.202 C 
BRANCH  30  31
ATOM     31  C   UNL     1       4.399  -3.662  -3.659  1.00  0.00     0.261 C 
BRANCH  31  32
ATOM     32  O   UNL     1       4.150  -2.333  -4.168  1.00  0.00    -0.460 OA
BRANCH  32  33
ATOM     33  C   UNL     1       3.127  -2.220  -5.047  1.00  0.00     0.338 C 
ATOM     34  O   UNL     1       2.350  -3.115  -5.382  1.00  0.00    -0.246 OA
BRANCH  33  35
ATOM     35  C   UNL     1       2.944  -0.829  -5.504  1.00  0.00     0.060 A 
ATOM     36  C   UNL     1       1.711  -0.204  -5.281  1.00  0.00     0.016 A 
ATOM     37  C   UNL     1       3.918  -0.188  -6.273  1.00  0.00     0.016 A 
ATOM     38  C   UNL     1       1.452   1.058  -5.829  1.00  0.00     0.010 A 
ATOM     39  C   UNL     1       3.646   1.069  -6.840  1.00  0.00     0.010 A 
ATOM     40  C   UNL     1       2.410   1.705  -6.629  1.00  0.00    -0.014 A 
BRANCH  40  41
ATOM     41  C   UNL     1       2.078   3.003  -7.291  1.00  0.00     0.031 A 
ATOM     42  C   UNL     1       1.081   3.034  -8.420  1.00  0.00     0.074 A 
ATOM     43  C   UNL     1       2.636   4.162  -6.881  1.00  0.00     0.049 A 
ATOM     44  N   UNL     1       0.528   4.065  -9.005  1.00  0.00    -0.248 NA
ATOM     45  C   UNL     1       0.669   1.733  -8.972  1.00  0.00     0.031 C 
ATOM     46  C   UNL     1       3.602   4.279  -5.794  1.00  0.00     0.029 A 
ATOM     47  N   UNL     1       2.407   5.470  -7.265  1.00  0.00    -0.354 N 
ATOM     48  C   UNL     1      -0.204   3.546 -10.067  1.00  0.00     0.074 A 
ATOM     49  C   UNL     1      -0.115   2.104  -9.976  1.00  0.00     0.031 C 
ATOM     50  C   UNL     1       3.783   5.580  -5.510  1.00  0.00     0.029 A 
ATOM     51  C   UNL     1       2.950   6.396  -6.392  1.00  0.00     0.049 A 
ATOM     52  H   UNL     1       1.907   5.717  -8.076  1.00  0.00     0.167 HD
ATOM     53  C   UNL     1      -0.834   4.207 -11.067  1.00  0.00     0.034 A 
ATOM     54  C   UNL     1       2.713   7.723  -6.261  1.00  0.00     0.034 A 
ATOM     55  C   UNL     1      -0.949   5.636 -11.167  1.00  0.00     0.049 A 
ATOM     56  C   UNL     1       1.834   8.419  -7.276  1.00  0.00     0.074 A 
ATOM     57  C   UNL     1      -1.542   6.381 -12.174  1.00  0.00     0.029 A 
ATOM     58  N   UNL     1      -0.454   6.539 -10.244  1.00  0.00    -0.354 N 
ATOM     59  N   UNL     1       1.031   7.909  -8.175  1.00  0.00    -0.248 NA
ATOM     60  C   UNL     1       1.841   9.893  -7.245  1.00  0.00     0.031 C 
ATOM     61  C   UNL     1      -1.373   7.736 -11.876  1.00  0.00     0.029 A 
ATOM     62  C   UNL     1      -0.696   7.833 -10.672  1.00  0.00     0.049 A 
ATOM     63  H   UNL     1       0.003   6.297  -9.406  1.00  0.00     0.167 HD
ATOM     64  C   UNL     1       0.470   8.998  -8.839  1.00  0.00     0.074 A 
ATOM     65  C   UNL     1       0.926  10.189  -8.156  1.00  0.00     0.031 C 
ATOM     66  C   UNL     1      -0.282   9.016  -9.968  1.00  0.00     0.034 A 
BRANCH  53  67
ATOM     67  C   UNL     1      -1.367   3.394 -12.213  1.00  0.00     0.023 A 
ATOM     68  C   UNL     1      -2.612   2.748 -12.121  1.00  0.00     0.012 A 
ATOM     69  C   UNL     1      -0.647   3.359 -13.425  1.00  0.00     0.148 A 
ATOM     70  C   UNL     1      -3.130   2.066 -13.223  1.00  0.00     0.002 A 
ATOM     71  C   UNL     1      -1.187   2.713 -14.528  1.00  0.00     0.091 A 
ATOM     72  F   UNL     1       0.549   3.964 -13.473  1.00  0.00    -0.205 F 
ATOM     73  C   UNL     1      -2.425   2.060 -14.427  1.00  0.00     0.022 A 
BRANCH  71  74
ATOM     74  S   UNL     1      -0.388   2.719 -16.136  1.00  0.00     0.127 S 
ATOM     75  O   UNL     1      -0.008   1.315 -16.280  1.00  0.00    -0.237 OA
ATOM     76  O   UNL     1      -1.473   3.153 -17.015  1.00  0.00    -0.237 OA
ATOM     77  O   UNL     1       0.724   3.655 -16.031  1.00  0.00    -0.744 OA
ENDBRANCH  71  74
ENDBRANCH  53  67
BRANCH  54  78
ATOM     78  C   UNL     1       3.149   8.486  -5.043  1.00  0.00     0.023 A 
ATOM     79  C   UNL     1       2.158   9.144  -4.277  1.00  0.00     0.012 A 
ATOM     80  C   UNL     1       4.479   8.574  -4.608  1.00  0.00     0.148 A 
ATOM     81  C   UNL     1       2.476   9.855  -3.119  1.00  0.00     0.002 A 
ATOM     82  C   UNL     1       4.783   9.221  -3.410  1.00  0.00     0.091 A 
ATOM     83  F   UNL     1       5.445   8.030  -5.362  1.00  0.00    -0.205 F 
ATOM     84  C   UNL     1       3.789   9.875  -2.671  1.00  0.00     0.022 A 
BRANCH  82  85
ATOM     85  S   UNL     1       6.439   9.104  -2.726  1.00  0.00     0.127 S 
ATOM     86  O   UNL     1       7.146  10.157  -3.446  1.00  0.00    -0.237 OA
ATOM     87  O   UNL     1       6.226   9.367  -1.303  1.00  0.00    -0.237 OA
ATOM     88  O   UNL     1       6.833   7.730  -3.022  1.00  0.00    -0.744 OA
ENDBRANCH  82  85
ENDBRANCH  54  78
BRANCH  66  89
ATOM     89  C   UNL     1      -0.579  10.357 -10.597  1.00  0.00     0.023 A 
ATOM     90  C   UNL     1       0.490  11.087 -11.161  1.00  0.00     0.012 A 
ATOM     91  C   UNL     1      -1.891  10.854 -10.728  1.00  0.00     0.148 A 
ATOM     92  C   UNL     1       0.269  12.301 -11.806  1.00  0.00     0.002 A 
ATOM     93  C   UNL     1      -2.110  12.044 -11.417  1.00  0.00     0.091 A 
ATOM     94  F   UNL     1      -2.897  10.154 -10.186  1.00  0.00    -0.205 F 
ATOM     95  C   UNL     1      -1.031  12.774 -11.944  1.00  0.00     0.022 A 
BRANCH  93  96
ATOM     96  S   UNL     1      -3.754  12.698 -11.736  1.00  0.00     0.127 S 
ATOM     97  O   UNL     1      -3.764  13.898 -10.900  1.00  0.00    -0.237 OA
ATOM     98  O   UNL     1      -3.709  12.958 -13.175  1.00  0.00    -0.237 OA
ATOM     99  O   UNL     1      -4.687  11.654 -11.335  1.00  0.00    -0.744 OA
ENDBRANCH  93  96
ENDBRANCH  66  89
ENDBRANCH  40  41
ENDBRANCH  33  35
ENDBRANCH  32  33
ENDBRANCH  31  32
ENDBRANCH  30  31
ENDBRANCH  29  30
ENDBRANCH  28  29
ENDBRANCH   1  28
TORSDOF 23
