REMARK SMILES C[C@]12CC[C@@H]3[C@@H](CCC4=C/C(=N\OCC(=O)N5CCC[C@@H]5C(=O)OCCOCCOCCOC(=O)c5ccc(-c6c7nc(c(-c8cccc(S(=O)(=O)[O-])c8F)c8ccc([nH]8)c(-c8cccc(S(=O)(=O)[O-])c8F)c8nc(c(-c9cccc(S(=O)(=O)[O-])c9F)c9ccc6[nH]9)C=C8)C=C7)cc5)CC[C@@]43C)[C@@H]1CC[C@@H]2O
REMARK SMILES IDX 28 1 27 2 26 3 25 4 24 5 22 6 23 7 21 8 17 9 18 10 19 11
REMARK SMILES IDX 20 12 15 13 16 14 14 15 13 16 12 17 1 18 2 19 3 20 103 21
REMARK SMILES IDX 106 22 4 23 6 24 104 25 105 26 5 27 7 28 101 29 8 30 9 31
REMARK SMILES IDX 100 32 102 33 10 34 99 35 11 36 107 37 29 39 30 40 31 41
REMARK SMILES IDX 32 42 33 43 34 44 35 45 36 46 37 47 98 48 38 49 97 50 39 51
REMARK SMILES IDX 40 52 41 53 91 54 42 55 96 56 90 57 92 58 43 59 95 60 89 61
REMARK SMILES IDX 88 62 44 64 76 65 56 66 75 67 57 68 60 69 74 70 93 71 58 72
REMARK SMILES IDX 59 73 73 75 94 76 61 77 45 78 46 79 54 80 47 81 49 82 55 83
REMARK SMILES IDX 48 84 50 85 51 86 52 87 53 88 77 89 78 90 86 91 79 92 81 93
REMARK SMILES IDX 87 94 80 95 82 96 83 97 84 98 85 99 62 100 63 101 71 102
REMARK SMILES IDX 64 103 66 104 72 105 65 106 67 107 68 108 69 109 70 110
REMARK H PARENT 107 38 92 63 60 74
REMARK Flexibility Score: inf
ROOT
ATOM      1  C   UNL     1       6.507  -4.159   7.048  1.00  0.00     0.188 C 
ENDROOT
BRANCH   1   2
ATOM      2  O   UNL     1       6.147  -3.049   6.243  1.00  0.00    -0.376 OA
BRANCH   2   3
ATOM      3  C   UNL     1       5.006  -2.319   6.628  1.00  0.00     0.202 C 
BRANCH   3   4
ATOM      4  C   UNL     1       3.737  -3.090   6.984  1.00  0.00     0.261 C 
BRANCH   4   5
ATOM      5  O   UNL     1       3.779  -4.376   7.607  1.00  0.00    -0.462 OA
BRANCH   5   6
ATOM      6  C   UNL     1       3.540  -5.495   6.865  1.00  0.00     0.328 C 
ATOM      7  O   UNL     1       3.565  -5.577   5.645  1.00  0.00    -0.250 OA
BRANCH   6   8
ATOM      8  C   UNL     1       3.259  -6.710   7.748  1.00  0.00     0.195 C 
ATOM      9  N   UNL     1       3.028  -6.382   9.146  1.00  0.00    -0.326 N 
ATOM     10  C   UNL     1       3.980  -7.035  10.027  1.00  0.00     0.120 C 
ATOM     11  C   UNL     1       5.082  -7.580   9.137  1.00  0.00     0.024 C 
ATOM     12  C   UNL     1       4.468  -7.657   7.742  1.00  0.00     0.039 C 
BRANCH   9  13
ATOM     13  C   UNL     1       1.983  -5.634   9.642  1.00  0.00     0.264 C 
ATOM     14  O   UNL     1       1.924  -5.391  10.856  1.00  0.00    -0.271 OA
BRANCH  13  15
ATOM     15  C   UNL     1       0.791  -5.186   8.726  1.00  0.00     0.363 C 
BRANCH  15  16
ATOM     16  O   UNL     1       0.811  -5.003   7.309  1.00  0.00    -0.385 OA
BRANCH  16  17
ATOM     17  N   UNL     1       0.805  -3.625   7.042  1.00  0.00    -0.091 NA
ATOM     18  C   UNL     1       1.238   1.131  -0.121  1.00  0.00     0.014 C 
ATOM     19  C   UNL     1       0.816   0.485   1.231  1.00  0.00    -0.003 C 
ATOM     20  C   UNL     1       1.993   0.750   2.172  1.00  0.00     0.010 C 
ATOM     21  C   UNL     1       0.372  -1.012   1.138  1.00  0.00     0.001 C 
ATOM     22  C   UNL     1      -0.549   1.011   1.712  1.00  0.00     0.120 C 
ATOM     23  C   UNL     1       3.096  -0.302   1.985  1.00  0.00     0.005 C 
ATOM     24  C   UNL     1       1.506  -1.971   0.833  1.00  0.00    -0.003 C 
ATOM     25  C   UNL     1      -0.870  -0.927   0.242  1.00  0.00     0.007 C 
ATOM     26  C   UNL     1      -1.506   0.428   0.655  1.00  0.00     0.032 C 
ATOM     27  C   UNL     1       2.607  -1.773   1.885  1.00  0.00     0.002 C 
ATOM     28  C   UNL     1       1.174  -3.473   0.755  1.00  0.00     0.008 C 
ATOM     29  C   UNL     1       2.326  -2.462   3.301  1.00  0.00    -0.008 C 
ATOM     30  C   UNL     1       0.877  -4.230   2.062  1.00  0.00     0.032 C 
ATOM     31  C   UNL     1       1.290  -3.590   3.360  1.00  0.00    -0.062 C 
ATOM     32  C   UNL     1       1.852  -1.405   4.338  1.00  0.00     0.018 C 
ATOM     33  C   UNL     1       3.719  -3.081   3.583  1.00  0.00     0.016 C 
ATOM     34  C   UNL     1       0.739  -4.030   4.524  1.00  0.00     0.027 C 
ATOM     35  C   UNL     1       1.127  -1.783   5.620  1.00  0.00     0.061 C 
ATOM     36  C   UNL     1       0.883  -3.262   5.797  1.00  0.00     0.080 C 
BRANCH  22  37
ATOM     37  O   UNL     1      -0.635   2.409   1.846  1.00  0.00    -0.393 OA
ATOM     38  H   UNL     1      -0.448   2.828   0.991  1.00  0.00     0.210 HD
ENDBRANCH  22  37
ENDBRANCH  16  17
ENDBRANCH  15  16
ENDBRANCH  13  15
ENDBRANCH   9  13
ENDBRANCH   6   8
ENDBRANCH   5   6
ENDBRANCH   4   5
ENDBRANCH   3   4
ENDBRANCH   2   3
ENDBRANCH   1   2
BRANCH   1  39
ATOM     39  C   UNL     1       6.317  -4.084   8.586  1.00  0.00     0.188 C 
BRANCH  39  40
ATOM     40  O   UNL     1       5.806  -2.861   9.089  1.00  0.00    -0.376 OA
BRANCH  40  41
ATOM     41  C   UNL     1       6.729  -2.024   9.767  1.00  0.00     0.202 C 
BRANCH  41  42
ATOM     42  C   UNL     1       7.885  -1.459   8.928  1.00  0.00     0.261 C 
BRANCH  42  43
ATOM     43  O   UNL     1       8.684  -2.419   8.217  1.00  0.00    -0.460 OA
BRANCH  43  44
ATOM     44  C   UNL     1       9.363  -3.345   8.932  1.00  0.00     0.338 C 
ATOM     45  O   UNL     1       9.411  -3.438  10.147  1.00  0.00    -0.246 OA
BRANCH  44  46
ATOM     46  C   UNL     1       9.820  -4.387   7.980  1.00  0.00     0.060 A 
ATOM     47  C   UNL     1       9.419  -5.720   8.177  1.00  0.00     0.016 A 
ATOM     48  C   UNL     1      10.556  -4.034   6.847  1.00  0.00     0.016 A 
ATOM     49  C   UNL     1       9.771  -6.704   7.250  1.00  0.00     0.010 A 
ATOM     50  C   UNL     1      10.945  -5.026   5.944  1.00  0.00     0.010 A 
ATOM     51  C   UNL     1      10.585  -6.368   6.161  1.00  0.00    -0.014 A 
BRANCH  51  52
ATOM     52  C   UNL     1      11.308  -7.434   5.428  1.00  0.00     0.031 A 
ATOM     53  C   UNL     1      12.671  -7.812   5.942  1.00  0.00     0.074 A 
ATOM     54  C   UNL     1      10.807  -8.027   4.331  1.00  0.00     0.049 A 
ATOM     55  N   UNL     1      13.546  -8.647   5.450  1.00  0.00    -0.248 NA
ATOM     56  C   UNL     1      13.105  -7.144   7.182  1.00  0.00     0.031 C 
ATOM     57  C   UNL     1       9.494  -7.769   3.748  1.00  0.00     0.029 A 
ATOM     58  N   UNL     1      11.373  -8.959   3.495  1.00  0.00    -0.354 N 
ATOM     59  C   UNL     1      14.643  -8.583   6.301  1.00  0.00     0.074 A 
ATOM     60  C   UNL     1      14.329  -7.621   7.333  1.00  0.00     0.031 C 
ATOM     61  C   UNL     1       9.365  -8.504   2.627  1.00  0.00     0.029 A 
ATOM     62  C   UNL     1      10.597  -9.258   2.400  1.00  0.00     0.049 A 
ATOM     63  H   UNL     1      12.250  -9.372   3.663  1.00  0.00     0.167 HD
ATOM     64  C   UNL     1      15.808  -9.268   6.239  1.00  0.00     0.034 A 
ATOM     65  C   UNL     1      10.867 -10.033   1.329  1.00  0.00     0.034 A 
ATOM     66  C   UNL     1      16.125 -10.214   5.208  1.00  0.00     0.049 A 
ATOM     67  C   UNL     1      12.198 -10.742   1.246  1.00  0.00     0.074 A 
ATOM     68  C   UNL     1      17.268 -10.979   5.064  1.00  0.00     0.029 A 
ATOM     69  N   UNL     1      15.306 -10.508   4.128  1.00  0.00    -0.354 N 
ATOM     70  N   UNL     1      13.186 -10.755   2.109  1.00  0.00    -0.248 NA
ATOM     71  C   UNL     1      12.439 -11.567   0.052  1.00  0.00     0.031 C 
ATOM     72  C   UNL     1      17.153 -11.712   3.878  1.00  0.00     0.029 A 
ATOM     73  C   UNL     1      15.922 -11.433   3.305  1.00  0.00     0.049 A 
ATOM     74  H   UNL     1      14.417 -10.115   3.971  1.00  0.00     0.167 HD
ATOM     75  C   UNL     1      14.144 -11.618   1.585  1.00  0.00     0.074 A 
ATOM     76  C   UNL     1      13.613 -12.118   0.334  1.00  0.00     0.031 C 
ATOM     77  C   UNL     1      15.357 -11.961   2.088  1.00  0.00     0.034 A 
BRANCH  64  78
ATOM     78  C   UNL     1      16.816  -9.004   7.326  1.00  0.00     0.023 A 
ATOM     79  C   UNL     1      16.562  -9.451   8.640  1.00  0.00     0.012 A 
ATOM     80  C   UNL     1      18.010  -8.313   7.049  1.00  0.00     0.148 A 
ATOM     81  C   UNL     1      17.460  -9.172   9.670  1.00  0.00     0.002 A 
ATOM     82  C   UNL     1      18.923  -8.083   8.071  1.00  0.00     0.091 A 
ATOM     83  F   UNL     1      18.220  -7.869   5.801  1.00  0.00    -0.205 F 
ATOM     84  C   UNL     1      18.643  -8.497   9.383  1.00  0.00     0.022 A 
BRANCH  82  85
ATOM     85  S   UNL     1      20.509  -7.291   7.785  1.00  0.00     0.127 S 
ATOM     86  O   UNL     1      20.295  -5.976   8.388  1.00  0.00    -0.237 OA
ATOM     87  O   UNL     1      21.424  -8.159   8.527  1.00  0.00    -0.237 OA
ATOM     88  O   UNL     1      20.704  -7.297   6.343  1.00  0.00    -0.744 OA
ENDBRANCH  82  85
ENDBRANCH  64  78
BRANCH  65  89
ATOM     89  C   UNL     1       9.844 -10.214   0.258  1.00  0.00     0.023 A 
ATOM     90  C   UNL     1       9.225 -11.470   0.102  1.00  0.00     0.012 A 
ATOM     91  C   UNL     1       9.474  -9.155  -0.594  1.00  0.00     0.148 A 
ATOM     92  C   UNL     1       8.274 -11.675  -0.899  1.00  0.00     0.002 A 
ATOM     93  C   UNL     1       8.489  -9.353  -1.556  1.00  0.00     0.091 A 
ATOM     94  F   UNL     1      10.087  -7.974  -0.440  1.00  0.00    -0.205 F 
ATOM     95  C   UNL     1       7.899 -10.616  -1.720  1.00  0.00     0.022 A 
BRANCH  93  96
ATOM     96  S   UNL     1       7.859  -8.024  -2.588  1.00  0.00     0.127 S 
ATOM     97  O   UNL     1       8.267  -8.462  -3.921  1.00  0.00    -0.237 OA
ATOM     98  O   UNL     1       6.421  -8.102  -2.328  1.00  0.00    -0.237 OA
ATOM     99  O   UNL     1       8.498  -6.809  -2.105  1.00  0.00    -0.744 OA
ENDBRANCH  93  96
ENDBRANCH  65  89
BRANCH  77 100
ATOM    100  C   UNL     1      16.183 -12.964   1.322  1.00  0.00     0.023 A 
ATOM    101  C   UNL     1      16.802 -12.593   0.112  1.00  0.00     0.012 A 
ATOM    102  C   UNL     1      16.418 -14.249   1.853  1.00  0.00     0.148 A 
ATOM    103  C   UNL     1      17.615 -13.496  -0.573  1.00  0.00     0.002 A 
ATOM    104  C   UNL     1      17.271 -15.124   1.191  1.00  0.00     0.091 A 
ATOM    105  F   UNL     1      15.809 -14.588   2.998  1.00  0.00    -0.205 F 
ATOM    106  C   UNL     1      17.859 -14.755  -0.029  1.00  0.00     0.022 A 
BRANCH 104 107
ATOM    107  S   UNL     1      17.723 -16.726   1.869  1.00  0.00     0.127 S 
ATOM    108  O   UNL     1      17.011 -17.639   0.977  1.00  0.00    -0.237 OA
ATOM    109  O   UNL     1      19.178 -16.729   1.711  1.00  0.00    -0.237 OA
ATOM    110  O   UNL     1      17.266 -16.721   3.252  1.00  0.00    -0.744 OA
ENDBRANCH 104 107
ENDBRANCH  77 100
ENDBRANCH  51  52
ENDBRANCH  44  46
ENDBRANCH  43  44
ENDBRANCH  42  43
ENDBRANCH  41  42
ENDBRANCH  40  41
ENDBRANCH  39  40
ENDBRANCH   1  39
TORSDOF 25
