REMARK SMILES CSc1ccc(/C=C2\C(C)=C(CC(=O)OCCOCCOCCOC(=O)c3ccc(-c4c5nc(c(-c6cccc(S(=O)(=O)[O-])c6F)c6ccc([nH]6)c(-c6cccc(S(=O)(=O)[O-])c6F)c6nc(c(-c7cccc(S(=O)(=O)[O-])c7F)c7ccc4[nH]7)C=C6)C=C5)cc3)c3cc(F)ccc32)cc1
REMARK SMILES IDX 19 1 18 2 17 3 16 4 15 5 13 6 14 7 12 8 11 9 7 10 8 11 9 12
REMARK SMILES IDX 96 13 10 14 90 15 95 16 91 17 94 18 92 19 93 20 6 21 3 22
REMARK SMILES IDX 4 23 98 24 5 25 97 26 2 27 1 28 20 29 21 30 22 31 23 32
REMARK SMILES IDX 24 33 25 34 26 35 27 36 28 37 89 38 29 39 88 40 30 41 31 42
REMARK SMILES IDX 32 43 82 44 33 45 87 46 81 47 83 48 34 49 86 50 80 51 79 52
REMARK SMILES IDX 35 54 67 55 47 56 66 57 48 58 51 59 65 60 84 61 49 62 50 63
REMARK SMILES IDX 64 65 85 66 52 67 36 68 37 69 45 70 38 71 40 72 46 73 39 74
REMARK SMILES IDX 41 75 42 76 43 77 44 78 68 79 69 80 77 81 70 82 72 83 78 84
REMARK SMILES IDX 71 85 73 86 74 87 75 88 76 89 53 90 54 91 62 92 55 93 57 94
REMARK SMILES IDX 63 95 56 96 58 97 59 98 60 99 61 100
REMARK H PARENT 83 53 51 64
REMARK Flexibility Score: inf
ROOT
ATOM      1  C   UNL     1       0.304  -7.011   9.482  1.00  0.00     0.188 C 
ENDROOT
BRANCH   1   2
ATOM      2  O   UNL     1      -0.737  -7.181  10.411  1.00  0.00    -0.376 OA
BRANCH   2   3
ATOM      3  C   UNL     1      -1.599  -6.069  10.607  1.00  0.00     0.202 C 
BRANCH   3   4
ATOM      4  C   UNL     1      -1.007  -4.636  10.782  1.00  0.00     0.261 C 
BRANCH   4   5
ATOM      5  O   UNL     1      -0.368  -4.008   9.623  1.00  0.00    -0.463 OA
BRANCH   5   6
ATOM      6  C   UNL     1       0.974  -3.822   9.608  1.00  0.00     0.310 C 
ATOM      7  O   UNL     1       1.681  -3.975  10.603  1.00  0.00    -0.252 OA
BRANCH   6   8
ATOM      8  C   UNL     1       1.604  -3.468   8.219  1.00  0.00     0.159 C 
BRANCH   8   9
ATOM      9  C   UNL     1       0.869  -3.575   6.824  1.00  0.00    -0.025 C 
ATOM     10  C   UNL     1       2.542  -1.038   5.760  1.00  0.00     0.017 C 
ATOM     11  C   UNL     1       2.169  -2.324   5.476  1.00  0.00    -0.014 C 
ATOM     12  C   UNL     1       0.750  -2.604   5.869  1.00  0.00    -0.039 C 
ATOM     13  C   UNL     1       2.646  -3.797   5.264  1.00  0.00    -0.010 A 
ATOM     14  C   UNL     1       0.012  -2.773   4.495  1.00  0.00     0.045 C 
ATOM     15  C   UNL     1       1.603  -4.512   5.919  1.00  0.00    -0.011 A 
ATOM     16  C   UNL     1       3.089  -4.361   4.043  1.00  0.00     0.012 A 
ATOM     17  C   UNL     1       0.888  -5.546   5.278  1.00  0.00     0.048 A 
ATOM     18  C   UNL     1       2.450  -5.510   3.481  1.00  0.00     0.040 A 
ATOM     19  C   UNL     1       1.324  -6.053   4.075  1.00  0.00     0.123 A 
ATOM     20  F   UNL     1       0.568  -6.950   3.427  1.00  0.00    -0.207 F 
BRANCH  10  21
ATOM     21  C   UNL     1       1.727   0.156   5.211  1.00  0.00    -0.025 A 
ATOM     22  C   UNL     1       0.960   1.380   2.800  1.00  0.00     0.007 A 
ATOM     23  C   UNL     1       0.157   0.428   3.388  1.00  0.00     0.015 A 
ATOM     24  C   UNL     1       1.911   1.985   3.623  1.00  0.00     0.015 A 
ATOM     25  C   UNL     1       0.447   0.010   4.688  1.00  0.00     0.009 A 
ATOM     26  C   UNL     1       2.343   1.336   4.805  1.00  0.00     0.009 A 
BRANCH  22  27
ATOM     27  S   UNL     1       0.725   1.840   1.098  1.00  0.00    -0.130 SA
ATOM     28  C   UNL     1       1.073   0.243   0.266  1.00  0.00     0.091 C 
ENDBRANCH  22  27
ENDBRANCH  10  21
ENDBRANCH   8   9
ENDBRANCH   6   8
ENDBRANCH   5   6
ENDBRANCH   4   5
ENDBRANCH   3   4
ENDBRANCH   2   3
ENDBRANCH   1   2
BRANCH   1  29
ATOM     29  C   UNL     1      -0.043  -6.367   8.150  1.00  0.00     0.188 C 
BRANCH  29  30
ATOM     30  O   UNL     1      -1.176  -5.546   8.001  1.00  0.00    -0.376 OA
BRANCH  30  31
ATOM     31  C   UNL     1      -2.329  -5.969   7.298  1.00  0.00     0.202 C 
BRANCH  31  32
ATOM     32  C   UNL     1      -2.634  -7.461   7.059  1.00  0.00     0.261 C 
BRANCH  32  33
ATOM     33  O   UNL     1      -1.505  -8.361   7.114  1.00  0.00    -0.460 OA
BRANCH  33  34
ATOM     34  C   UNL     1      -0.896  -8.648   5.927  1.00  0.00     0.338 C 
ATOM     35  O   UNL     1      -1.357  -8.415   4.836  1.00  0.00    -0.246 OA
BRANCH  34  36
ATOM     36  C   UNL     1       0.471  -9.245   6.125  1.00  0.00     0.060 A 
ATOM     37  C   UNL     1       1.646  -8.486   6.304  1.00  0.00     0.016 A 
ATOM     38  C   UNL     1       0.603 -10.609   5.936  1.00  0.00     0.016 A 
ATOM     39  C   UNL     1       2.920  -9.044   6.246  1.00  0.00     0.010 A 
ATOM     40  C   UNL     1       1.879 -11.187   5.923  1.00  0.00     0.010 A 
ATOM     41  C   UNL     1       3.047 -10.411   6.058  1.00  0.00    -0.014 A 
BRANCH  41  42
ATOM     42  C   UNL     1       4.385 -11.042   5.975  1.00  0.00     0.031 A 
ATOM     43  C   UNL     1       4.791 -11.750   4.716  1.00  0.00     0.074 A 
ATOM     44  C   UNL     1       5.202 -11.044   7.047  1.00  0.00     0.049 A 
ATOM     45  N   UNL     1       5.813 -12.536   4.512  1.00  0.00    -0.248 NA
ATOM     46  C   UNL     1       3.925 -11.564   3.538  1.00  0.00     0.031 C 
ATOM     47  C   UNL     1       4.943 -10.359   8.315  1.00  0.00     0.029 A 
ATOM     48  N   UNL     1       6.398 -11.689   7.257  1.00  0.00    -0.354 N 
ATOM     49  C   UNL     1       5.681 -12.994   3.208  1.00  0.00     0.074 A 
ATOM     50  C   UNL     1       4.481 -12.394   2.666  1.00  0.00     0.031 C 
ATOM     51  C   UNL     1       5.929 -10.645   9.179  1.00  0.00     0.029 A 
ATOM     52  C   UNL     1       6.851 -11.586   8.553  1.00  0.00     0.049 A 
ATOM     53  H   UNL     1       6.881 -12.176   6.551  1.00  0.00     0.167 HD
ATOM     54  C   UNL     1       6.485 -13.847   2.532  1.00  0.00     0.034 A 
ATOM     55  C   UNL     1       7.856 -12.222   9.187  1.00  0.00     0.034 A 
ATOM     56  C   UNL     1       7.673 -14.443   3.080  1.00  0.00     0.049 A 
ATOM     57  C   UNL     1       8.691 -13.216   8.425  1.00  0.00     0.074 A 
ATOM     58  C   UNL     1       8.576 -15.281   2.449  1.00  0.00     0.029 A 
ATOM     59  N   UNL     1       8.106 -14.301   4.388  1.00  0.00    -0.354 N 
ATOM     60  N   UNL     1       8.598 -13.584   7.171  1.00  0.00    -0.248 NA
ATOM     61  C   UNL     1       9.788 -13.867   9.159  1.00  0.00     0.031 C 
ATOM     62  C   UNL     1       9.505 -15.712   3.397  1.00  0.00     0.029 A 
ATOM     63  C   UNL     1       9.244 -15.062   4.591  1.00  0.00     0.049 A 
ATOM     64  H   UNL     1       7.670 -13.742   5.071  1.00  0.00     0.167 HD
ATOM     65  C   UNL     1       9.651 -14.464   6.954  1.00  0.00     0.074 A 
ATOM     66  C   UNL     1      10.380 -14.563   8.200  1.00  0.00     0.031 C 
ATOM     67  C   UNL     1       9.985 -15.130   5.822  1.00  0.00     0.034 A 
BRANCH  54  68
ATOM     68  C   UNL     1       6.099 -14.221   1.127  1.00  0.00     0.023 A 
ATOM     69  C   UNL     1       6.177 -13.273   0.088  1.00  0.00     0.012 A 
ATOM     70  C   UNL     1       5.741 -15.551   0.828  1.00  0.00     0.148 A 
ATOM     71  C   UNL     1       5.875 -13.637  -1.223  1.00  0.00     0.002 A 
ATOM     72  C   UNL     1       5.494 -15.918  -0.486  1.00  0.00     0.091 A 
ATOM     73  F   UNL     1       5.664 -16.433   1.835  1.00  0.00    -0.205 F 
ATOM     74  C   UNL     1       5.548 -14.960  -1.512  1.00  0.00     0.022 A 
BRANCH  72  75
ATOM     75  S   UNL     1       5.139 -17.610  -0.967  1.00  0.00     0.127 S 
ATOM     76  O   UNL     1       3.781 -17.485  -1.496  1.00  0.00    -0.237 OA
ATOM     77  O   UNL     1       6.166 -17.861  -1.977  1.00  0.00    -0.237 OA
ATOM     78  O   UNL     1       5.257 -18.411   0.243  1.00  0.00    -0.744 OA
ENDBRANCH  72  75
ENDBRANCH  54  68
BRANCH  55  79
ATOM     79  C   UNL     1       8.122 -11.974  10.633  1.00  0.00     0.023 A 
ATOM     80  C   UNL     1       9.348 -11.406  11.034  1.00  0.00     0.012 A 
ATOM     81  C   UNL     1       7.186 -12.349  11.616  1.00  0.00     0.148 A 
ATOM     82  C   UNL     1       9.660 -11.274  12.387  1.00  0.00     0.002 A 
ATOM     83  C   UNL     1       7.477 -12.155  12.959  1.00  0.00     0.091 A 
ATOM     84  F   UNL     1       6.027 -12.890  11.215  1.00  0.00    -0.205 F 
ATOM     85  C   UNL     1       8.723 -11.642  13.349  1.00  0.00     0.022 A 
BRANCH  83  86
ATOM     86  S   UNL     1       6.294 -12.508  14.262  1.00  0.00     0.127 S 
ATOM     87  O   UNL     1       6.961 -13.590  14.983  1.00  0.00    -0.237 OA
ATOM     88  O   UNL     1       6.245 -11.231  14.973  1.00  0.00    -0.237 OA
ATOM     89  O   UNL     1       5.057 -12.875  13.587  1.00  0.00    -0.744 OA
ENDBRANCH  83  86
ENDBRANCH  55  79
BRANCH  67  90
ATOM     90  C   UNL     1      11.244 -15.958   5.837  1.00  0.00     0.023 A 
ATOM     91  C   UNL     1      11.333 -17.131   6.611  1.00  0.00     0.012 A 
ATOM     92  C   UNL     1      12.333 -15.584   5.022  1.00  0.00     0.148 A 
ATOM     93  C   UNL     1      12.504 -17.891   6.611  1.00  0.00     0.002 A 
ATOM     94  C   UNL     1      13.470 -16.377   4.979  1.00  0.00     0.091 A 
ATOM     95  F   UNL     1      12.232 -14.460   4.298  1.00  0.00    -0.205 F 
ATOM     96  C   UNL     1      13.565 -17.521   5.787  1.00  0.00     0.022 A 
BRANCH  94  97
ATOM     97  S   UNL     1      14.849 -16.026   3.885  1.00  0.00     0.127 S 
ATOM     98  O   UNL     1      15.917 -15.731   4.840  1.00  0.00    -0.237 OA
ATOM     99  O   UNL     1      15.002 -17.292   3.169  1.00  0.00    -0.237 OA
ATOM    100  O   UNL     1      14.436 -14.902   3.056  1.00  0.00    -0.744 OA
ENDBRANCH  94  97
ENDBRANCH  67  90
ENDBRANCH  41  42
ENDBRANCH  34  36
ENDBRANCH  33  34
ENDBRANCH  32  33
ENDBRANCH  31  32
ENDBRANCH  30  31
ENDBRANCH  29  30
ENDBRANCH   1  29
TORSDOF 23
