REMARK SMILES N#Cc1ccc(C(=O)OCCOCCOCCOC(=O)c2ccc(-c3c4nc(c(-c5cccc(S(=O)(=O)[O-])c5F)c5ccc([nH]5)c(-c5cccc(S(=O)(=O)[O-])c5F)c5nc(c(-c6cccc(S(=O)(=O)[O-])c6F)c6ccc3[nH]6)C=C5)C=C4)cc2)nc1/C=C/c1ccc(O)c(Cl)c1
REMARK SMILES IDX 13 1 12 2 11 3 10 4 9 5 7 6 8 7 6 8 3 9 4 10 85 11 5 12
REMARK SMILES IDX 84 13 2 14 1 15 86 16 87 17 88 18 89 19 95 20 90 21 93 22
REMARK SMILES IDX 91 23 94 24 92 25 14 27 15 28 16 29 17 30 18 31 19 32 20 33
REMARK SMILES IDX 21 34 22 35 83 36 23 37 82 38 24 39 25 40 26 41 76 42 27 43
REMARK SMILES IDX 81 44 75 45 77 46 28 47 80 48 74 49 73 50 29 52 61 53 41 54
REMARK SMILES IDX 60 55 42 56 45 57 59 58 78 59 43 60 44 61 58 63 79 64 46 65
REMARK SMILES IDX 30 66 31 67 39 68 32 69 34 70 40 71 33 72 35 73 36 74 37 75
REMARK SMILES IDX 38 76 62 77 63 78 71 79 64 80 66 81 72 82 65 83 67 84 68 85
REMARK SMILES IDX 69 86 70 87 47 88 48 89 56 90 49 91 51 92 57 93 50 94 52 95
REMARK SMILES IDX 53 96 54 97 55 98
REMARK H PARENT 92 26 77 51 45 62
REMARK Flexibility Score: inf
ROOT
ATOM      1  C   UNL     1      -4.628  -0.836  -1.605  1.00  0.00     0.188 C 
ENDROOT
BRANCH   1   2
ATOM      2  O   UNL     1      -6.008  -0.558  -1.543  1.00  0.00    -0.376 OA
BRANCH   2   3
ATOM      3  C   UNL     1      -6.516   0.379  -0.610  1.00  0.00     0.202 C 
BRANCH   3   4
ATOM      4  C   UNL     1      -5.713   1.053   0.524  1.00  0.00     0.261 C 
BRANCH   4   5
ATOM      5  O   UNL     1      -4.287   1.092   0.404  1.00  0.00    -0.459 OA
BRANCH   5   6
ATOM      6  C   UNL     1      -3.590   0.277   1.246  1.00  0.00     0.357 C 
ATOM      7  O   UNL     1      -4.059  -0.401   2.143  1.00  0.00    -0.244 OA
BRANCH   6   8
ATOM      8  C   UNL     1      -2.154   0.250   0.822  1.00  0.00     0.149 A 
ATOM      9  C   UNL     1       0.486   0.113   0.099  1.00  0.00     0.078 A 
ATOM     10  C   UNL     1      -0.159   1.357   0.140  1.00  0.00     0.024 A 
ATOM     11  C   UNL     1      -0.255  -1.043   0.373  1.00  0.00     0.082 A 
ATOM     12  C   UNL     1      -1.499   1.432   0.504  1.00  0.00     0.037 A 
ATOM     13  N   UNL     1      -1.565  -0.980   0.736  1.00  0.00    -0.240 NA
BRANCH   9  14
ATOM     14  C   UNL     1       1.890   0.080  -0.187  1.00  0.00     0.101 C 
ATOM     15  N   UNL     1       3.031   0.082  -0.382  1.00  0.00    -0.192 NA
ENDBRANCH   9  14
BRANCH  11  16
ATOM     16  C   UNL     1       0.361  -2.389   0.340  1.00  0.00     0.030 C 
ATOM     17  C   UNL     1      -0.286  -3.567   0.321  1.00  0.00     0.010 C 
BRANCH  17  18
ATOM     18  C   UNL     1       0.430  -4.856   0.392  1.00  0.00    -0.024 A 
ATOM     19  C   UNL     1       0.058  -5.920  -0.439  1.00  0.00     0.012 A 
ATOM     20  C   UNL     1       1.441  -5.073   1.340  1.00  0.00     0.032 A 
ATOM     21  C   UNL     1       0.661  -7.178  -0.318  1.00  0.00     0.048 A 
ATOM     22  C   UNL     1       2.050  -6.325   1.456  1.00  0.00     0.083 A 
ATOM     23  C   UNL     1       1.649  -7.379   0.636  1.00  0.00     0.134 A 
ATOM     24  Cl  UNL     1       3.290  -6.555   2.634  1.00  0.00    -0.080 Cl
BRANCH  23  25
ATOM     25  O   UNL     1       2.189  -8.629   0.736  1.00  0.00    -0.506 OA
ATOM     26  H   UNL     1       1.895  -9.314   0.168  1.00  0.00     0.293 HD
ENDBRANCH  23  25
ENDBRANCH  17  18
ENDBRANCH  11  16
ENDBRANCH   6   8
ENDBRANCH   5   6
ENDBRANCH   4   5
ENDBRANCH   3   4
ENDBRANCH   2   3
ENDBRANCH   1   2
BRANCH   1  27
ATOM     27  C   UNL     1      -3.741   0.220  -2.294  1.00  0.00     0.188 C 
BRANCH  27  28
ATOM     28  O   UNL     1      -4.272   1.510  -2.504  1.00  0.00    -0.376 OA
BRANCH  28  29
ATOM     29  C   UNL     1      -5.282   1.702  -3.485  1.00  0.00     0.202 C 
BRANCH  29  30
ATOM     30  C   UNL     1      -5.675   0.704  -4.601  1.00  0.00     0.261 C 
BRANCH  30  31
ATOM     31  O   UNL     1      -5.297  -0.669  -4.468  1.00  0.00    -0.460 OA
BRANCH  31  32
ATOM     32  C   UNL     1      -4.216  -1.058  -5.189  1.00  0.00     0.338 C 
ATOM     33  O   UNL     1      -3.519  -0.357  -5.902  1.00  0.00    -0.246 OA
BRANCH  32  34
ATOM     34  C   UNL     1      -3.871  -2.446  -4.819  1.00  0.00     0.060 A 
ATOM     35  C   UNL     1      -2.708  -2.686  -4.070  1.00  0.00     0.016 A 
ATOM     36  C   UNL     1      -4.674  -3.505  -5.238  1.00  0.00     0.016 A 
ATOM     37  C   UNL     1      -2.339  -3.990  -3.748  1.00  0.00     0.010 A 
ATOM     38  C   UNL     1      -4.287  -4.813  -4.939  1.00  0.00     0.010 A 
ATOM     39  C   UNL     1      -3.105  -5.064  -4.218  1.00  0.00    -0.014 A 
BRANCH  39  40
ATOM     40  C   UNL     1      -2.596  -6.450  -4.090  1.00  0.00     0.031 A 
ATOM     41  C   UNL     1      -1.964  -7.101  -5.288  1.00  0.00     0.074 A 
ATOM     42  C   UNL     1      -2.704  -7.123  -2.932  1.00  0.00     0.049 A 
ATOM     43  N   UNL     1      -1.502  -8.316  -5.423  1.00  0.00    -0.248 NA
ATOM     44  C   UNL     1      -1.853  -6.276  -6.503  1.00  0.00     0.031 C 
ATOM     45  C   UNL     1      -3.289  -6.596  -1.700  1.00  0.00     0.029 A 
ATOM     46  N   UNL     1      -2.325  -8.402  -2.607  1.00  0.00    -0.354 N 
ATOM     47  C   UNL     1      -1.095  -8.421  -6.747  1.00  0.00     0.074 A 
ATOM     48  C   UNL     1      -1.361  -7.144  -7.374  1.00  0.00     0.031 C 
ATOM     49  C   UNL     1      -3.228  -7.545  -0.750  1.00  0.00     0.029 A 
ATOM     50  C   UNL     1      -2.650  -8.761  -1.320  1.00  0.00     0.049 A 
ATOM     51  H   UNL     1      -1.864  -9.004  -3.235  1.00  0.00     0.167 HD
ATOM     52  C   UNL     1      -0.553  -9.485  -7.385  1.00  0.00     0.034 A 
ATOM     53  C   UNL     1      -2.516  -9.942  -0.684  1.00  0.00     0.034 A 
ATOM     54  C   UNL     1      -0.288 -10.751  -6.757  1.00  0.00     0.049 A 
ATOM     55  C   UNL     1      -1.922 -11.115  -1.422  1.00  0.00     0.074 A 
ATOM     56  C   UNL     1       0.296 -11.877  -7.311  1.00  0.00     0.029 A 
ATOM     57  N   UNL     1      -0.608 -11.070  -5.447  1.00  0.00    -0.354 N 
ATOM     58  N   UNL     1      -1.463 -11.174  -2.649  1.00  0.00    -0.248 NA
ATOM     59  C   UNL     1      -1.813 -12.382  -0.682  1.00  0.00     0.031 C 
ATOM     60  C   UNL     1       0.276 -12.895  -6.353  1.00  0.00     0.029 A 
ATOM     61  C   UNL     1      -0.254 -12.381  -5.180  1.00  0.00     0.049 A 
ATOM     62  H   UNL     1      -1.025 -10.455  -4.802  1.00  0.00     0.167 HD
ATOM     63  C   UNL     1      -0.979 -12.469  -2.814  1.00  0.00     0.074 A 
ATOM     64  C   UNL     1      -1.184 -13.155  -1.556  1.00  0.00     0.031 C 
ATOM     65  C   UNL     1      -0.423 -13.041  -3.911  1.00  0.00     0.034 A 
BRANCH  52  66
ATOM     66  C   UNL     1      -0.225  -9.334  -8.848  1.00  0.00     0.023 A 
ATOM     67  C   UNL     1       0.836  -8.499  -9.255  1.00  0.00     0.012 A 
ATOM     68  C   UNL     1      -0.938 -10.066  -9.818  1.00  0.00     0.148 A 
ATOM     69  C   UNL     1       1.156  -8.366 -10.605  1.00  0.00     0.002 A 
ATOM     70  C   UNL     1      -0.579  -9.969 -11.156  1.00  0.00     0.091 A 
ATOM     71  F   UNL     1      -1.956 -10.839  -9.414  1.00  0.00    -0.205 F 
ATOM     72  C   UNL     1       0.457  -9.109 -11.553  1.00  0.00     0.022 A 
BRANCH  70  73
ATOM     73  S   UNL     1      -1.362 -10.946 -12.443  1.00  0.00     0.127 S 
ATOM     74  O   UNL     1      -2.044  -9.914 -13.223  1.00  0.00    -0.237 OA
ATOM     75  O   UNL     1      -0.209 -11.552 -13.110  1.00  0.00    -0.237 OA
ATOM     76  O   UNL     1      -2.238 -11.889 -11.761  1.00  0.00    -0.744 OA
ENDBRANCH  70  73
ENDBRANCH  52  66
BRANCH  53  77
ATOM     77  C   UNL     1      -2.955 -10.084   0.734  1.00  0.00     0.023 A 
ATOM     78  C   UNL     1      -2.003 -10.336   1.741  1.00  0.00     0.012 A 
ATOM     79  C   UNL     1      -4.314  -9.977   1.085  1.00  0.00     0.148 A 
ATOM     80  C   UNL     1      -2.404 -10.521   3.066  1.00  0.00     0.002 A 
ATOM     81  C   UNL     1      -4.699 -10.096   2.414  1.00  0.00     0.091 A 
ATOM     82  F   UNL     1      -5.205  -9.752   0.109  1.00  0.00    -0.205 F 
ATOM     83  C   UNL     1      -3.749 -10.391   3.404  1.00  0.00     0.022 A 
BRANCH  81  84
ATOM     84  S   UNL     1      -6.388  -9.818   2.955  1.00  0.00     0.127 S 
ATOM     85  O   UNL     1      -6.782 -11.151   3.402  1.00  0.00    -0.237 OA
ATOM     86  O   UNL     1      -6.201  -8.838   4.026  1.00  0.00    -0.237 OA
ATOM     87  O   UNL     1      -7.099  -9.310   1.790  1.00  0.00    -0.744 OA
ENDBRANCH  81  84
ENDBRANCH  53  77
BRANCH  65  88
ATOM     88  C   UNL     1       0.067 -14.464  -3.796  1.00  0.00     0.023 A 
ATOM     89  C   UNL     1      -0.848 -15.529  -3.679  1.00  0.00     0.012 A 
ATOM     90  C   UNL     1       1.446 -14.745  -3.882  1.00  0.00     0.148 A 
ATOM     91  C   UNL     1      -0.396 -16.847  -3.611  1.00  0.00     0.002 A 
ATOM     92  C   UNL     1       1.885 -16.063  -3.872  1.00  0.00     0.091 A 
ATOM     93  F   UNL     1       2.302 -13.718  -3.982  1.00  0.00    -0.205 F 
ATOM     94  C   UNL     1       0.968 -17.114  -3.720  1.00  0.00     0.022 A 
BRANCH  92  95
ATOM     95  S   UNL     1       3.609 -16.508  -4.107  1.00  0.00     0.127 S 
ATOM     96  O   UNL     1       3.958 -17.050  -2.795  1.00  0.00    -0.237 OA
ATOM     97  O   UNL     1       3.526 -17.504  -5.175  1.00  0.00    -0.237 OA
ATOM     98  O   UNL     1       4.300 -15.280  -4.474  1.00  0.00    -0.744 OA
ENDBRANCH  92  95
ENDBRANCH  65  88
ENDBRANCH  39  40
ENDBRANCH  32  34
ENDBRANCH  31  32
ENDBRANCH  30  31
ENDBRANCH  29  30
ENDBRANCH  28  29
ENDBRANCH  27  28
ENDBRANCH   1  27
TORSDOF 24
