REMARK SMILES C[C@@H](Oc1ccc2c(c1)OCO2)C(=O)N1CCn2nc(C(=O)OCCOCCOCCOC(=O)c3ccc(-c4c5nc(c(-c6cccc(S(=O)(=O)[O-])c6F)c6ccc([nH]6)c(-c6cccc(S(=O)(=O)[O-])c6F)c6nc(c(-c7cccc(S(=O)(=O)[O-])c7F)c7ccc4[nH]7)C=C6)C=C5)cc3)cc2C1
REMARK SMILES IDX 27 1 26 2 25 3 24 4 23 5 21 6 22 7 20 8 15 9 16 10 100 11
REMARK SMILES IDX 17 12 99 13 18 14 98 15 19 16 13 17 14 18 2 19 1 20 3 21
REMARK SMILES IDX 4 22 5 23 9 24 6 25 8 26 7 27 10 28 12 29 11 30 28 31 29 32
REMARK SMILES IDX 30 33 31 34 32 35 33 36 34 37 35 38 36 39 97 40 37 41 96 42
REMARK SMILES IDX 38 43 39 44 40 45 90 46 41 47 95 48 89 49 91 50 42 51 94 52
REMARK SMILES IDX 88 53 87 54 43 56 75 57 55 58 74 59 56 60 59 61 73 62 92 63
REMARK SMILES IDX 57 64 58 65 72 67 93 68 60 69 44 70 45 71 53 72 46 73 48 74
REMARK SMILES IDX 54 75 47 76 49 77 50 78 51 79 52 80 76 81 77 82 85 83 78 84
REMARK SMILES IDX 80 85 86 86 79 87 81 88 82 89 83 90 84 91 61 92 62 93 70 94
REMARK SMILES IDX 63 95 65 96 71 97 64 98 66 99 67 100 68 101 69 102
REMARK H PARENT 91 55 59 66
REMARK Flexibility Score: inf
ROOT
ATOM      1  C   UNL     1      -5.214   6.572   3.072  1.00  0.00     0.188 C 
ENDROOT
BRANCH   1   2
ATOM      2  O   UNL     1      -6.425   7.280   3.287  1.00  0.00    -0.376 OA
BRANCH   2   3
ATOM      3  C   UNL     1      -7.597   6.614   3.726  1.00  0.00     0.202 C 
BRANCH   3   4
ATOM      4  C   UNL     1      -8.062   5.272   3.123  1.00  0.00     0.261 C 
BRANCH   4   5
ATOM      5  O   UNL     1      -7.053   4.270   2.937  1.00  0.00    -0.458 OA
BRANCH   5   6
ATOM      6  C   UNL     1      -6.676   4.029   1.647  1.00  0.00     0.358 C 
ATOM      7  O   UNL     1      -7.258   4.484   0.665  1.00  0.00    -0.244 OA
BRANCH   6   8
ATOM      8  C   UNL     1      -5.430   3.249   1.563  1.00  0.00     0.170 A 
ATOM      9  N   UNL     1      -1.635   0.624   1.382  1.00  0.00    -0.332 N 
ATOM     10  C   UNL     1      -1.209   1.776   0.582  1.00  0.00     0.143 C 
ATOM     11  C   UNL     1      -2.859   0.663   2.183  1.00  0.00     0.175 C 
ATOM     12  C   UNL     1      -2.204   2.890   0.288  1.00  0.00     0.166 C 
ATOM     13  C   UNL     1      -3.768   1.781   1.864  1.00  0.00     0.059 A 
ATOM     14  N   UNL     1      -3.470   2.723   0.940  1.00  0.00    -0.265 N 
ATOM     15  C   UNL     1      -5.001   2.153   2.367  1.00  0.00     0.063 A 
ATOM     16  N   UNL     1      -4.471   3.570   0.673  1.00  0.00    -0.165 NA
BRANCH   9  17
ATOM     17  C   UNL     1      -0.827  -0.500   1.601  1.00  0.00     0.263 C 
ATOM     18  O   UNL     1      -1.300  -1.531   2.095  1.00  0.00    -0.271 OA
BRANCH  17  19
ATOM     19  C   UNL     1       0.690  -0.453   1.288  1.00  0.00     0.259 C 
ATOM     20  C   UNL     1       0.998  -0.364  -0.203  1.00  0.00     0.064 C 
BRANCH  19  21
ATOM     21  O   UNL     1       1.234   0.646   2.034  1.00  0.00    -0.481 OA
BRANCH  21  22
ATOM     22  C   UNL     1       2.559   0.510   2.342  1.00  0.00     0.124 A 
ATOM     23  C   UNL     1       3.525   0.920   1.408  1.00  0.00     0.050 A 
ATOM     24  C   UNL     1       2.925   0.137   3.638  1.00  0.00     0.097 A 
ATOM     25  C   UNL     1       4.880   0.925   1.745  1.00  0.00     0.054 A 
ATOM     26  C   UNL     1       4.271   0.170   3.948  1.00  0.00     0.169 A 
ATOM     27  C   UNL     1       5.219   0.551   3.026  1.00  0.00     0.166 A 
ATOM     28  O   UNL     1       4.822  -0.123   5.158  1.00  0.00    -0.453 OA
ATOM     29  O   UNL     1       6.479   0.541   3.536  1.00  0.00    -0.454 OA
ATOM     30  C   UNL     1       6.210   0.195   4.910  1.00  0.00     0.468 C 
ENDBRANCH  21  22
ENDBRANCH  19  21
ENDBRANCH  17  19
ENDBRANCH   9  17
ENDBRANCH   6   8
ENDBRANCH   5   6
ENDBRANCH   4   5
ENDBRANCH   3   4
ENDBRANCH   2   3
ENDBRANCH   1   2
BRANCH   1  31
ATOM     31  C   UNL     1      -4.675   5.583   4.128  1.00  0.00     0.188 C 
BRANCH  31  32
ATOM     32  O   UNL     1      -5.628   5.106   5.055  1.00  0.00    -0.376 OA
BRANCH  32  33
ATOM     33  C   UNL     1      -5.713   5.628   6.372  1.00  0.00     0.202 C 
BRANCH  33  34
ATOM     34  C   UNL     1      -5.352   7.060   6.765  1.00  0.00     0.261 C 
BRANCH  34  35
ATOM     35  O   UNL     1      -4.669   7.829   5.801  1.00  0.00    -0.460 OA
BRANCH  35  36
ATOM     36  C   UNL     1      -3.327   7.747   5.902  1.00  0.00     0.338 C 
ATOM     37  O   UNL     1      -2.682   6.861   6.439  1.00  0.00    -0.246 OA
BRANCH  36  38
ATOM     38  C   UNL     1      -2.748   8.973   5.366  1.00  0.00     0.060 A 
ATOM     39  C   UNL     1      -1.380   8.956   5.091  1.00  0.00     0.016 A 
ATOM     40  C   UNL     1      -3.488  10.161   5.470  1.00  0.00     0.016 A 
ATOM     41  C   UNL     1      -0.705  10.151   5.126  1.00  0.00     0.010 A 
ATOM     42  C   UNL     1      -2.809  11.349   5.529  1.00  0.00     0.010 A 
ATOM     43  C   UNL     1      -1.420  11.313   5.438  1.00  0.00    -0.014 A 
BRANCH  43  44
ATOM     44  C   UNL     1      -0.674  12.540   5.574  1.00  0.00     0.031 A 
ATOM     45  C   UNL     1      -0.282  13.085   4.264  1.00  0.00     0.074 A 
ATOM     46  C   UNL     1      -0.471  13.123   6.770  1.00  0.00     0.049 A 
ATOM     47  N   UNL     1       0.895  13.070   3.732  1.00  0.00    -0.248 NA
ATOM     48  C   UNL     1      -1.358  13.482   3.341  1.00  0.00     0.031 C 
ATOM     49  C   UNL     1      -1.118  12.761   8.037  1.00  0.00     0.029 A 
ATOM     50  N   UNL     1       0.224  14.252   7.082  1.00  0.00    -0.354 N 
ATOM     51  C   UNL     1       0.734  13.765   2.538  1.00  0.00     0.074 A 
ATOM     52  C   UNL     1      -0.667  13.717   2.225  1.00  0.00     0.031 C 
ATOM     53  C   UNL     1      -0.997  13.794   8.900  1.00  0.00     0.029 A 
ATOM     54  C   UNL     1      -0.160  14.816   8.295  1.00  0.00     0.049 A 
ATOM     55  H   UNL     1       0.927  14.632   6.508  1.00  0.00     0.167 HD
ATOM     56  C   UNL     1       1.675  14.669   2.158  1.00  0.00     0.034 A 
ATOM     57  C   UNL     1       0.115  16.072   8.718  1.00  0.00     0.034 A 
ATOM     58  C   UNL     1       2.895  14.488   2.905  1.00  0.00     0.049 A 
ATOM     59  C   UNL     1       1.296  16.552   7.967  1.00  0.00     0.074 A 
ATOM     60  C   UNL     1       3.922  13.575   2.963  1.00  0.00     0.029 A 
ATOM     61  N   UNL     1       2.934  15.230   4.056  1.00  0.00    -0.354 N 
ATOM     62  N   UNL     1       2.488  16.039   8.100  1.00  0.00    -0.248 NA
ATOM     63  C   UNL     1       1.111  17.408   6.800  1.00  0.00     0.031 C 
ATOM     64  C   UNL     1       4.512  13.722   4.254  1.00  0.00     0.029 A 
ATOM     65  C   UNL     1       3.847  14.736   4.943  1.00  0.00     0.049 A 
ATOM     66  H   UNL     1       2.373  16.021   4.223  1.00  0.00     0.167 HD
ATOM     67  C   UNL     1       3.028  16.124   6.830  1.00  0.00     0.074 A 
ATOM     68  C   UNL     1       2.241  17.137   6.142  1.00  0.00     0.031 C 
ATOM     69  C   UNL     1       3.815  15.124   6.338  1.00  0.00     0.034 A 
BRANCH  56  70
ATOM     70  C   UNL     1       1.368  16.028   1.549  1.00  0.00     0.023 A 
ATOM     71  C   UNL     1       2.481  16.800   1.145  1.00  0.00     0.012 A 
ATOM     72  C   UNL     1       0.128  16.704   1.640  1.00  0.00     0.148 A 
ATOM     73  C   UNL     1       2.375  18.173   0.899  1.00  0.00     0.002 A 
ATOM     74  C   UNL     1       0.012  18.052   1.321  1.00  0.00     0.091 A 
ATOM     75  F   UNL     1      -0.935  16.102   2.173  1.00  0.00    -0.205 F 
ATOM     76  C   UNL     1       1.138  18.800   0.981  1.00  0.00     0.022 A 
BRANCH  74  77
ATOM     77  S   UNL     1      -1.573  18.901   1.389  1.00  0.00     0.127 S 
ATOM     78  O   UNL     1      -1.397  19.749   2.563  1.00  0.00    -0.237 OA
ATOM     79  O   UNL     1      -1.584  19.606   0.107  1.00  0.00    -0.237 OA
ATOM     80  O   UNL     1      -2.578  17.851   1.501  1.00  0.00    -0.744 OA
ENDBRANCH  74  77
ENDBRANCH  56  70
BRANCH  57  81
ATOM     81  C   UNL     1      -0.691  16.982   9.565  1.00  0.00     0.023 A 
ATOM     82  C   UNL     1      -0.069  18.089  10.174  1.00  0.00     0.012 A 
ATOM     83  C   UNL     1      -2.103  16.935   9.551  1.00  0.00     0.148 A 
ATOM     84  C   UNL     1      -0.825  19.139  10.707  1.00  0.00     0.002 A 
ATOM     85  C   UNL     1      -2.851  17.975  10.094  1.00  0.00     0.091 A 
ATOM     86  F   UNL     1      -2.713  15.921   8.925  1.00  0.00    -0.205 F 
ATOM     87  C   UNL     1      -2.215  19.087  10.658  1.00  0.00     0.022 A 
BRANCH  85  88
ATOM     88  S   UNL     1      -4.649  17.982  10.056  1.00  0.00     0.127 S 
ATOM     89  O   UNL     1      -4.979  18.341  11.436  1.00  0.00    -0.237 OA
ATOM     90  O   UNL     1      -4.927  19.022   9.070  1.00  0.00    -0.237 OA
ATOM     91  O   UNL     1      -5.044  16.630   9.681  1.00  0.00    -0.744 OA
ENDBRANCH  85  88
ENDBRANCH  57  81
BRANCH  69  92
ATOM     92  C   UNL     1       4.550  14.264   7.322  1.00  0.00     0.023 A 
ATOM     93  C   UNL     1       3.902  13.398   8.223  1.00  0.00     0.012 A 
ATOM     94  C   UNL     1       5.953  14.272   7.267  1.00  0.00     0.148 A 
ATOM     95  C   UNL     1       4.646  12.572   9.070  1.00  0.00     0.002 A 
ATOM     96  C   UNL     1       6.687  13.416   8.075  1.00  0.00     0.091 A 
ATOM     97  F   UNL     1       6.551  15.115   6.411  1.00  0.00    -0.205 F 
ATOM     98  C   UNL     1       6.038  12.571   8.987  1.00  0.00     0.022 A 
BRANCH  96  99
ATOM     99  S   UNL     1       8.470  13.294   7.920  1.00  0.00     0.127 S 
ATOM    100  O   UNL     1       8.931  14.057   9.078  1.00  0.00    -0.237 OA
ATOM    101  O   UNL     1       8.696  11.850   8.008  1.00  0.00    -0.237 OA
ATOM    102  O   UNL     1       8.796  13.865   6.619  1.00  0.00    -0.744 OA
ENDBRANCH  96  99
ENDBRANCH  69  92
ENDBRANCH  43  44
ENDBRANCH  36  38
ENDBRANCH  35  36
ENDBRANCH  34  35
ENDBRANCH  33  34
ENDBRANCH  32  33
ENDBRANCH  31  32
ENDBRANCH   1  31
TORSDOF 24
