REMARK SMILES O=C(OCCOCCOCCOC(=O)[C@H]1CC[C@@H](C(F)F)[NH2+]1)c1ccc(-c2c3nc(c(-c4cccc(S(=O)(=O)[O-])c4F)c4ccc([nH]4)c(-c4cccc(S(=O)(=O)[O-])c4F)c4nc(c(-c5cccc(S(=O)(=O)[O-])c5F)c5ccc2[nH]5)C=C4)C=C3)cc1
REMARK SMILES IDX 7 1 6 2 5 3 4 4 3 5 2 6 1 7 23 8 24 9 85 10 25 11 84 12
REMARK SMILES IDX 26 13 27 14 28 15 78 16 29 17 83 18 77 19 79 20 30 21 82 22
REMARK SMILES IDX 76 23 75 24 31 26 63 27 43 28 62 29 44 30 47 31 61 32 80 33
REMARK SMILES IDX 45 34 46 35 60 37 81 38 48 39 32 40 33 41 41 42 34 43 36 44
REMARK SMILES IDX 42 45 35 46 37 47 38 48 39 49 40 50 64 51 65 52 73 53 66 54
REMARK SMILES IDX 68 55 74 56 67 57 69 58 70 59 71 60 72 61 49 62 50 63 58 64
REMARK SMILES IDX 51 65 53 66 59 67 52 68 54 69 55 70 56 71 57 72 8 73 9 74
REMARK SMILES IDX 10 75 11 76 12 77 13 78 14 79 15 80 16 81 22 82 17 83 18 84
REMARK SMILES IDX 19 87 20 88 21 89
REMARK H PARENT 79 25 47 36 22 85 22 86
REMARK Flexibility Score: inf
ROOT
ATOM      1  C   UNL     1       4.392  -0.737  -1.831  1.00  0.00     0.188 C 
ENDROOT
BRANCH   1   2
ATOM      2  O   UNL     1       3.479  -0.955  -2.913  1.00  0.00    -0.376 OA
BRANCH   2   3
ATOM      3  C   UNL     1       3.345   0.169  -3.792  1.00  0.00     0.202 C 
BRANCH   3   4
ATOM      4  C   UNL     1       2.625   1.408  -3.227  1.00  0.00     0.261 C 
BRANCH   4   5
ATOM      5  O   UNL     1       2.788   1.584  -1.812  1.00  0.00    -0.460 OA
BRANCH   5   6
ATOM      6  C   UNL     1       1.982   1.163  -0.805  1.00  0.00     0.338 C 
ATOM      7  O   UNL     1       2.268   1.510   0.341  1.00  0.00    -0.246 OA
BRANCH   6   8
ATOM      8  C   UNL     1       0.787   0.278  -0.993  1.00  0.00     0.060 A 
ATOM      9  C   UNL     1       0.521  -0.496  -2.123  1.00  0.00     0.016 A 
ATOM     10  C   UNL     1      -0.104   0.174   0.093  1.00  0.00     0.016 A 
ATOM     11  C   UNL     1      -0.612  -1.294  -2.211  1.00  0.00     0.010 A 
ATOM     12  C   UNL     1      -1.238  -0.642   0.025  1.00  0.00     0.010 A 
ATOM     13  C   UNL     1      -1.503  -1.357  -1.143  1.00  0.00    -0.014 A 
BRANCH  13  14
ATOM     14  C   UNL     1      -2.751  -2.110  -1.345  1.00  0.00     0.031 A 
ATOM     15  C   UNL     1      -3.961  -1.360  -1.779  1.00  0.00     0.074 A 
ATOM     16  C   UNL     1      -2.741  -3.450  -1.248  1.00  0.00     0.049 A 
ATOM     17  N   UNL     1      -5.143  -1.820  -2.067  1.00  0.00    -0.248 NA
ATOM     18  C   UNL     1      -3.827   0.103  -1.894  1.00  0.00     0.031 C 
ATOM     19  C   UNL     1      -1.577  -4.221  -0.838  1.00  0.00     0.029 A 
ATOM     20  N   UNL     1      -3.694  -4.397  -1.500  1.00  0.00    -0.354 N 
ATOM     21  C   UNL     1      -5.924  -0.700  -2.301  1.00  0.00     0.074 A 
ATOM     22  C   UNL     1      -5.066   0.459  -2.197  1.00  0.00     0.031 C 
ATOM     23  C   UNL     1      -1.853  -5.530  -0.932  1.00  0.00     0.029 A 
ATOM     24  C   UNL     1      -3.243  -5.689  -1.333  1.00  0.00     0.049 A 
ATOM     25  H   UNL     1      -4.614  -4.178  -1.774  1.00  0.00     0.167 HD
ATOM     26  C   UNL     1      -7.255  -0.659  -2.522  1.00  0.00     0.034 A 
ATOM     27  C   UNL     1      -3.899  -6.860  -1.460  1.00  0.00     0.034 A 
ATOM     28  C   UNL     1      -8.072  -1.837  -2.593  1.00  0.00     0.049 A 
ATOM     29  C   UNL     1      -5.369  -6.779  -1.771  1.00  0.00     0.074 A 
ATOM     30  C   UNL     1      -9.436  -1.927  -2.786  1.00  0.00     0.029 A 
ATOM     31  N   UNL     1      -7.596  -3.134  -2.443  1.00  0.00    -0.354 N 
ATOM     32  N   UNL     1      -6.093  -5.716  -2.036  1.00  0.00    -0.248 NA
ATOM     33  C   UNL     1      -6.123  -8.038  -1.769  1.00  0.00     0.031 C 
ATOM     34  C   UNL     1      -9.791  -3.277  -2.705  1.00  0.00     0.029 A 
ATOM     35  C   UNL     1      -8.642  -4.032  -2.515  1.00  0.00     0.049 A 
ATOM     36  H   UNL     1      -6.652  -3.377  -2.306  1.00  0.00     0.167 HD
ATOM     37  C   UNL     1      -7.390  -6.172  -2.208  1.00  0.00     0.074 A 
ATOM     38  C   UNL     1      -7.341  -7.617  -2.083  1.00  0.00     0.031 C 
ATOM     39  C   UNL     1      -8.530  -5.466  -2.408  1.00  0.00     0.034 A 
BRANCH  26  40
ATOM     40  C   UNL     1      -7.895   0.696  -2.583  1.00  0.00     0.023 A 
ATOM     41  C   UNL     1      -7.712   1.533  -3.700  1.00  0.00     0.012 A 
ATOM     42  C   UNL     1      -8.668   1.147  -1.495  1.00  0.00     0.148 A 
ATOM     43  C   UNL     1      -8.264   2.814  -3.719  1.00  0.00     0.002 A 
ATOM     44  C   UNL     1      -9.253   2.404  -1.541  1.00  0.00     0.091 A 
ATOM     45  F   UNL     1      -8.795   0.346  -0.428  1.00  0.00    -0.205 F 
ATOM     46  C   UNL     1      -9.040   3.245  -2.645  1.00  0.00     0.022 A 
BRANCH  44  47
ATOM     47  S   UNL     1     -10.317   3.025  -0.236  1.00  0.00     0.127 S 
ATOM     48  O   UNL     1      -9.552   4.173   0.248  1.00  0.00    -0.237 OA
ATOM     49  O   UNL     1     -11.531   3.365  -0.974  1.00  0.00    -0.237 OA
ATOM     50  O   UNL     1     -10.465   1.934   0.720  1.00  0.00    -0.744 OA
ENDBRANCH  44  47
ENDBRANCH  26  40
BRANCH  27  51
ATOM     51  C   UNL     1      -3.205  -8.169  -1.265  1.00  0.00     0.023 A 
ATOM     52  C   UNL     1      -3.157  -9.107  -2.316  1.00  0.00     0.012 A 
ATOM     53  C   UNL     1      -2.569  -8.491  -0.050  1.00  0.00     0.148 A 
ATOM     54  C   UNL     1      -2.516 -10.339  -2.151  1.00  0.00     0.002 A 
ATOM     55  C   UNL     1      -1.858  -9.679   0.078  1.00  0.00     0.091 A 
ATOM     56  F   UNL     1      -2.656  -7.622   0.968  1.00  0.00    -0.205 F 
ATOM     57  C   UNL     1      -1.851 -10.618  -0.960  1.00  0.00     0.022 A 
BRANCH  55  58
ATOM     58  S   UNL     1      -0.810  -9.991   1.503  1.00  0.00     0.127 S 
ATOM     59  O   UNL     1      -1.649 -10.871   2.310  1.00  0.00    -0.237 OA
ATOM     60  O   UNL     1       0.356 -10.632   0.893  1.00  0.00    -0.237 OA
ATOM     61  O   UNL     1      -0.530  -8.672   2.058  1.00  0.00    -0.744 OA
ENDBRANCH  55  58
ENDBRANCH  27  51
BRANCH  39  62
ATOM     62  C   UNL     1      -9.806  -6.251  -2.503  1.00  0.00     0.023 A 
ATOM     63  C   UNL     1     -10.375  -6.804  -1.339  1.00  0.00     0.012 A 
ATOM     64  C   UNL     1     -10.484  -6.348  -3.730  1.00  0.00     0.148 A 
ATOM     65  C   UNL     1     -11.598  -7.465  -1.403  1.00  0.00     0.002 A 
ATOM     66  C   UNL     1     -11.728  -6.959  -3.775  1.00  0.00     0.091 A 
ATOM     67  F   UNL     1      -9.907  -5.827  -4.822  1.00  0.00    -0.205 F 
ATOM     68  C   UNL     1     -12.281  -7.529  -2.616  1.00  0.00     0.022 A 
BRANCH  66  69
ATOM     69  S   UNL     1     -12.726  -6.992  -5.265  1.00  0.00     0.127 S 
ATOM     70  O   UNL     1     -12.729  -8.417  -5.589  1.00  0.00    -0.237 OA
ATOM     71  O   UNL     1     -14.006  -6.468  -4.788  1.00  0.00    -0.237 OA
ATOM     72  O   UNL     1     -12.042  -6.139  -6.229  1.00  0.00    -0.744 OA
ENDBRANCH  66  69
ENDBRANCH  39  62
ENDBRANCH  13  14
ENDBRANCH   6   8
ENDBRANCH   5   6
ENDBRANCH   4   5
ENDBRANCH   3   4
ENDBRANCH   2   3
ENDBRANCH   1   2
BRANCH   1  73
ATOM     73  C   UNL     1       5.330  -1.913  -1.560  1.00  0.00     0.188 C 
BRANCH  73  74
ATOM     74  O   UNL     1       6.292  -2.226  -2.565  1.00  0.00    -0.376 OA
BRANCH  74  75
ATOM     75  C   UNL     1       5.821  -2.447  -3.889  1.00  0.00     0.202 C 
BRANCH  75  76
ATOM     76  C   UNL     1       4.971  -3.692  -4.168  1.00  0.00     0.261 C 
BRANCH  76  77
ATOM     77  O   UNL     1       4.002  -3.982  -3.163  1.00  0.00    -0.459 OA
BRANCH  77  78
ATOM     78  C   UNL     1       4.333  -4.989  -2.301  1.00  0.00     0.364 C 
ATOM     79  O   UNL     1       5.408  -5.580  -2.304  1.00  0.00    -0.245 OA
BRANCH  78  80
ATOM     80  C   UNL     1       3.208  -5.247  -1.279  1.00  0.00     0.294 C 
ATOM     81  C   UNL     1       1.874  -4.596  -1.585  1.00  0.00     0.084 C 
ATOM     82  N   UNL     1       2.854  -6.687  -1.260  1.00  0.00    -0.327 N 
ATOM     83  C   UNL     1       1.304  -5.487  -2.675  1.00  0.00     0.078 C 
ATOM     84  C   UNL     1       1.841  -6.882  -2.336  1.00  0.00     0.251 C 
ATOM     85  H   UNL     1       2.461  -6.942  -0.354  1.00  0.00     0.347 HD
ATOM     86  H   UNL     1       3.675  -7.273  -1.412  1.00  0.00     0.347 HD
BRANCH  84  87
ATOM     87  C   UNL     1       2.381  -7.607  -3.579  1.00  0.00     0.399 C 
ATOM     88  F   UNL     1       1.361  -7.881  -4.434  1.00  0.00    -0.204 F 
ATOM     89  F   UNL     1       3.243  -6.810  -4.269  1.00  0.00    -0.204 F 
ENDBRANCH  84  87
ENDBRANCH  78  80
ENDBRANCH  77  78
ENDBRANCH  76  77
ENDBRANCH  75  76
ENDBRANCH  74  75
ENDBRANCH  73  74
ENDBRANCH   1  73
TORSDOF 21
