REMARK SMILES CC[N@@H+]1CC[C@H](C[NH2+]Cc2cc(C(=O)OCCOCCOCCOC(=O)c3ccc(-c4c5nc(c(-c6cccc(S(=O)(=O)[O-])c6F)c6ccc([nH]6)c(-c6cccc(S(=O)(=O)[O-])c6F)c6nc(c(-c7cccc(S(=O)(=O)[O-])c7F)c7ccc4[nH]7)C=C6)C=C5)cc3)cs2)C1
REMARK SMILES IDX 19 1 18 2 17 3 16 4 15 5 13 6 14 7 12 8 10 9 11 10 91 11
REMARK SMILES IDX 90 12 9 13 8 14 7 17 6 18 3 19 4 20 92 21 5 23 2 24 1 25
REMARK SMILES IDX 20 26 21 27 22 28 23 29 24 30 25 31 26 32 27 33 28 34 89 35
REMARK SMILES IDX 29 36 88 37 30 38 31 39 32 40 82 41 33 42 87 43 81 44 83 45
REMARK SMILES IDX 34 46 86 47 80 48 79 49 35 51 67 52 47 53 66 54 48 55 51 56
REMARK SMILES IDX 65 57 84 58 49 59 50 60 64 62 85 63 52 64 36 65 37 66 45 67
REMARK SMILES IDX 38 68 40 69 46 70 39 71 41 72 42 73 43 74 44 75 68 76 69 77
REMARK SMILES IDX 77 78 70 79 72 80 78 81 71 82 73 83 74 84 75 85 76 86 53 87
REMARK SMILES IDX 54 88 62 89 55 90 57 91 63 92 56 93 58 94 59 95 60 96 61 97
REMARK H PARENT 8 15 8 16 3 22 83 50 51 61
REMARK Flexibility Score: inf
ROOT
ATOM      1  C   UNL     1       5.823   1.161   5.965  1.00  0.00     0.188 C 
ENDROOT
BRANCH   1   2
ATOM      2  O   UNL     1       5.155   0.016   6.486  1.00  0.00    -0.376 OA
BRANCH   2   3
ATOM      3  C   UNL     1       4.865  -1.091   5.646  1.00  0.00     0.202 C 
BRANCH   3   4
ATOM      4  C   UNL     1       3.878  -0.867   4.499  1.00  0.00     0.261 C 
BRANCH   4   5
ATOM      5  O   UNL     1       4.317   0.143   3.577  1.00  0.00    -0.460 OA
BRANCH   5   6
ATOM      6  C   UNL     1       3.544   1.266   3.534  1.00  0.00     0.339 C 
ATOM      7  O   UNL     1       2.446   1.381   4.065  1.00  0.00    -0.246 OA
BRANCH   6   8
ATOM      8  C   UNL     1       4.203   2.375   2.854  1.00  0.00     0.071 A 
ATOM      9  C   UNL     1       5.419   3.572   1.248  1.00  0.00     0.059 A 
ATOM     10  C   UNL     1       5.106   2.316   1.739  1.00  0.00     0.037 A 
ATOM     11  S   UNL     1       4.866   4.806   2.300  1.00  0.00    -0.142 S 
ATOM     12  C   UNL     1       4.008   3.684   3.254  1.00  0.00     0.081 A 
BRANCH   9  13
ATOM     13  C   UNL     1       6.053   3.950  -0.064  1.00  0.00     0.308 C 
BRANCH  13  14
ATOM     14  N   UNL     1       5.401   3.280  -1.203  1.00  0.00    -0.341 N 
ATOM     15  H   UNL     1       5.846   3.592  -2.066  1.00  0.00     0.346 HD
ATOM     16  H   UNL     1       5.504   2.273  -1.072  1.00  0.00     0.346 HD
BRANCH  14  17
ATOM     17  C   UNL     1       3.960   3.575  -1.282  1.00  0.00     0.270 C 
BRANCH  17  18
ATOM     18  C   UNL     1       3.225   2.611  -2.220  1.00  0.00     0.105 C 
ATOM     19  N   UNL     1       1.142   1.408  -1.841  1.00  0.00    -0.335 N 
ATOM     20  C   UNL     1       2.175   0.482  -2.318  1.00  0.00     0.262 C 
ATOM     21  C   UNL     1       1.691   2.756  -2.136  1.00  0.00     0.271 C 
ATOM     22  H   UNL     1       0.258   1.200  -2.304  1.00  0.00     0.348 HD
ATOM     23  C   UNL     1       3.475   1.135  -1.907  1.00  0.00     0.076 C 
BRANCH  19  24
ATOM     24  C   UNL     1       0.827   1.298  -0.401  1.00  0.00     0.258 C 
ATOM     25  C   UNL     1       0.638  -0.123   0.124  1.00  0.00     0.071 C 
ENDBRANCH  19  24
ENDBRANCH  17  18
ENDBRANCH  14  17
ENDBRANCH  13  14
ENDBRANCH   9  13
ENDBRANCH   6   8
ENDBRANCH   5   6
ENDBRANCH   4   5
ENDBRANCH   3   4
ENDBRANCH   2   3
ENDBRANCH   1   2
BRANCH   1  26
ATOM     26  C   UNL     1       6.947   0.996   4.923  1.00  0.00     0.188 C 
BRANCH  26  27
ATOM     27  O   UNL     1       7.522  -0.301   4.867  1.00  0.00    -0.376 OA
BRANCH  27  28
ATOM     28  C   UNL     1       8.849  -0.412   5.363  1.00  0.00     0.202 C 
BRANCH  28  29
ATOM     29  C   UNL     1       8.939  -0.374   6.892  1.00  0.00     0.261 C 
BRANCH  29  30
ATOM     30  O   UNL     1       8.552   0.876   7.485  1.00  0.00    -0.460 OA
BRANCH  30  31
ATOM     31  C   UNL     1       9.304   1.955   7.175  1.00  0.00     0.338 C 
ATOM     32  O   UNL     1      10.291   1.979   6.460  1.00  0.00    -0.246 OA
BRANCH  31  33
ATOM     33  C   UNL     1       8.635   3.157   7.712  1.00  0.00     0.060 A 
ATOM     34  C   UNL     1       8.377   4.224   6.844  1.00  0.00     0.016 A 
ATOM     35  C   UNL     1       8.281   3.238   9.062  1.00  0.00     0.016 A 
ATOM     36  C   UNL     1       7.801   5.396   7.339  1.00  0.00     0.010 A 
ATOM     37  C   UNL     1       7.713   4.415   9.556  1.00  0.00     0.010 A 
ATOM     38  C   UNL     1       7.502   5.513   8.705  1.00  0.00    -0.014 A 
BRANCH  38  39
ATOM     39  C   UNL     1       7.113   6.833   9.261  1.00  0.00     0.031 A 
ATOM     40  C   UNL     1       8.173   7.700   9.886  1.00  0.00     0.074 A 
ATOM     41  C   UNL     1       5.840   7.263   9.209  1.00  0.00     0.049 A 
ATOM     42  N   UNL     1       8.073   8.912  10.365  1.00  0.00    -0.248 NA
ATOM     43  C   UNL     1       9.524   7.122   9.986  1.00  0.00     0.031 C 
ATOM     44  C   UNL     1       4.713   6.510   8.663  1.00  0.00     0.029 A 
ATOM     45  N   UNL     1       5.282   8.441   9.640  1.00  0.00    -0.354 N 
ATOM     46  C   UNL     1       9.341   9.242  10.829  1.00  0.00     0.074 A 
ATOM     47  C   UNL     1      10.188   8.092  10.598  1.00  0.00     0.031 C 
ATOM     48  C   UNL     1       3.591   7.238   8.810  1.00  0.00     0.029 A 
ATOM     49  C   UNL     1       3.921   8.507   9.458  1.00  0.00     0.049 A 
ATOM     50  H   UNL     1       5.807   9.170  10.042  1.00  0.00     0.167 HD
ATOM     51  C   UNL     1       9.771  10.404  11.373  1.00  0.00     0.034 A 
ATOM     52  C   UNL     1       3.044   9.481   9.775  1.00  0.00     0.034 A 
ATOM     53  C   UNL     1       8.939  11.555  11.595  1.00  0.00     0.049 A 
ATOM     54  C   UNL     1       3.549  10.768  10.378  1.00  0.00     0.074 A 
ATOM     55  C   UNL     1       9.298  12.794  12.094  1.00  0.00     0.029 A 
ATOM     56  N   UNL     1       7.577  11.605  11.343  1.00  0.00    -0.354 N 
ATOM     57  N   UNL     1       4.780  11.124  10.656  1.00  0.00    -0.248 NA
ATOM     58  C   UNL     1       2.547  11.805  10.669  1.00  0.00     0.031 C 
ATOM     59  C   UNL     1       8.149  13.591  12.156  1.00  0.00     0.029 A 
ATOM     60  C   UNL     1       7.078  12.851  11.682  1.00  0.00     0.049 A 
ATOM     61  H   UNL     1       7.043  10.864  10.976  1.00  0.00     0.167 HD
ATOM     62  C   UNL     1       4.704  12.435  11.118  1.00  0.00     0.074 A 
ATOM     63  C   UNL     1       3.308  12.817  11.062  1.00  0.00     0.031 C 
ATOM     64  C   UNL     1       5.697  13.243  11.565  1.00  0.00     0.034 A 
BRANCH  51  65
ATOM     65  C   UNL     1      11.232  10.506  11.721  1.00  0.00     0.023 A 
ATOM     66  C   UNL     1      12.175  10.666  10.685  1.00  0.00     0.012 A 
ATOM     67  C   UNL     1      11.667  10.494  13.059  1.00  0.00     0.148 A 
ATOM     68  C   UNL     1      13.533  10.787  10.974  1.00  0.00     0.002 A 
ATOM     69  C   UNL     1      13.020  10.652  13.342  1.00  0.00     0.091 A 
ATOM     70  F   UNL     1      10.758  10.313  14.027  1.00  0.00    -0.205 F 
ATOM     71  C   UNL     1      13.954  10.790  12.301  1.00  0.00     0.022 A 
BRANCH  69  72
ATOM     72  S   UNL     1      13.649  10.736  15.022  1.00  0.00     0.127 S 
ATOM     73  O   UNL     1      14.267   9.420  15.171  1.00  0.00    -0.237 OA
ATOM     74  O   UNL     1      14.597  11.849  14.944  1.00  0.00    -0.237 OA
ATOM     75  O   UNL     1      12.491  10.988  15.868  1.00  0.00    -0.744 OA
ENDBRANCH  69  72
ENDBRANCH  51  65
BRANCH  52  76
ATOM     76  C   UNL     1       1.597   9.309   9.463  1.00  0.00     0.023 A 
ATOM     77  C   UNL     1       1.014  10.076   8.435  1.00  0.00     0.012 A 
ATOM     78  C   UNL     1       0.800   8.388  10.168  1.00  0.00     0.148 A 
ATOM     79  C   UNL     1      -0.343   9.949   8.135  1.00  0.00     0.002 A 
ATOM     80  C   UNL     1      -0.539   8.230   9.830  1.00  0.00     0.091 A 
ATOM     81  F   UNL     1       1.367   7.685  11.159  1.00  0.00    -0.205 F 
ATOM     82  C   UNL     1      -1.116   9.020   8.824  1.00  0.00     0.022 A 
BRANCH  80  83
ATOM     83  S   UNL     1      -1.577   6.974  10.587  1.00  0.00     0.127 S 
ATOM     84  O   UNL     1      -2.413   7.774  11.478  1.00  0.00    -0.237 OA
ATOM     85  O   UNL     1      -2.273   6.414   9.428  1.00  0.00    -0.237 OA
ATOM     86  O   UNL     1      -0.657   6.050  11.236  1.00  0.00    -0.744 OA
ENDBRANCH  80  83
ENDBRANCH  52  76
BRANCH  64  87
ATOM     87  C   UNL     1       5.327  14.637  12.004  1.00  0.00     0.023 A 
ATOM     88  C   UNL     1       4.648  14.825  13.224  1.00  0.00     0.012 A 
ATOM     89  C   UNL     1       5.712  15.762  11.248  1.00  0.00     0.148 A 
ATOM     90  C   UNL     1       4.330  16.108  13.669  1.00  0.00     0.002 A 
ATOM     91  C   UNL     1       5.430  17.040  11.720  1.00  0.00     0.091 A 
ATOM     92  F   UNL     1       6.338  15.566  10.079  1.00  0.00    -0.205 F 
ATOM     93  C   UNL     1       4.731  17.215  12.924  1.00  0.00     0.022 A 
BRANCH  91  94
ATOM     94  S   UNL     1       5.995  18.515  10.862  1.00  0.00     0.127 S 
ATOM     95  O   UNL     1       4.796  18.913  10.128  1.00  0.00    -0.237 OA
ATOM     96  O   UNL     1       6.358  19.406  11.966  1.00  0.00    -0.237 OA
ATOM     97  O   UNL     1       7.124  18.085  10.047  1.00  0.00    -0.744 OA
ENDBRANCH  91  94
ENDBRANCH  64  87
ENDBRANCH  38  39
ENDBRANCH  31  33
ENDBRANCH  30  31
ENDBRANCH  29  30
ENDBRANCH  28  29
ENDBRANCH  27  28
ENDBRANCH  26  27
ENDBRANCH   1  26
TORSDOF 25
