REMARK SMILES CC[NH2+][C@@]1(C(=O)OCCOCCOCCOC(=O)c2ccc(-c3c4nc(c(-c5cccc(S(=O)(=O)[O-])c5F)c5ccc([nH]5)c(-c5cccc(S(=O)(=O)[O-])c5F)c5nc(c(-c6cccc(S(=O)(=O)[O-])c6F)c6ccc3[nH]6)C=C5)C=C4)cc2)CCC[C@@H]1CC[NH+]1CCS(=O)(=O)CC1
REMARK SMILES IDX 11 1 10 2 9 3 8 4 7 5 5 6 6 7 4 8 82 9 85 10 83 11 84 12
REMARK SMILES IDX 3 13 2 16 1 17 86 18 87 19 88 20 89 21 95 22 90 24 94 25
REMARK SMILES IDX 91 26 92 27 93 28 12 29 13 30 14 31 15 32 16 33 17 34 18 35
REMARK SMILES IDX 19 36 20 37 81 38 21 39 80 40 22 41 23 42 24 43 74 44 25 45
REMARK SMILES IDX 79 46 73 47 75 48 26 49 78 50 72 51 71 52 27 54 59 55 39 56
REMARK SMILES IDX 58 57 40 58 43 59 57 60 76 61 41 62 42 63 56 65 77 66 44 67
REMARK SMILES IDX 28 68 29 69 37 70 30 71 32 72 38 73 31 74 33 75 34 76 35 77
REMARK SMILES IDX 36 78 60 79 61 80 69 81 62 82 64 83 70 84 63 85 65 86 66 87
REMARK SMILES IDX 67 88 68 89 45 90 46 91 54 92 47 93 49 94 55 95 48 96 50 97
REMARK SMILES IDX 51 98 52 99 53 100
REMARK H PARENT 3 14 3 15 88 23 75 53 43 64
REMARK Flexibility Score: inf
ROOT
ATOM      1  C   UNL     1      -3.494  -3.690  -2.643  1.00  0.00     0.188 C 
ENDROOT
BRANCH   1   2
ATOM      2  O   UNL     1      -4.282  -3.224  -3.731  1.00  0.00    -0.376 OA
BRANCH   2   3
ATOM      3  C   UNL     1      -3.569  -2.805  -4.897  1.00  0.00     0.202 C 
BRANCH   3   4
ATOM      4  C   UNL     1      -2.546  -1.675  -4.694  1.00  0.00     0.261 C 
BRANCH   4   5
ATOM      5  O   UNL     1      -1.228  -2.164  -4.312  1.00  0.00    -0.459 OA
BRANCH   5   6
ATOM      6  C   UNL     1      -0.296  -1.161  -4.212  1.00  0.00     0.368 C 
ATOM      7  O   UNL     1      -0.565   0.004  -4.502  1.00  0.00    -0.245 OA
BRANCH   6   8
ATOM      8  C   UNL     1       1.150  -1.621  -3.800  1.00  0.00     0.197 C 
ATOM      9  C   UNL     1       2.015  -1.424  -5.065  1.00  0.00     0.081 C 
ATOM     10  C   UNL     1       1.409  -3.147  -3.520  1.00  0.00     0.068 C 
ATOM     11  C   UNL     1       1.686  -2.631  -5.927  1.00  0.00     0.008 C 
ATOM     12  C   UNL     1       1.402  -3.763  -4.946  1.00  0.00     0.011 C 
BRANCH   8  13
ATOM     13  N   UNL     1       1.773  -0.825  -2.716  1.00  0.00    -0.332 N 
ATOM     14  H   UNL     1       1.426  -1.224  -1.844  1.00  0.00     0.347 HD
ATOM     15  H   UNL     1       2.760  -0.894  -2.964  1.00  0.00     0.347 HD
BRANCH  13  16
ATOM     16  C   UNL     1       1.620   0.617  -2.578  1.00  0.00     0.257 C 
ATOM     17  C   UNL     1       2.030   1.001  -1.145  1.00  0.00     0.071 C 
ENDBRANCH  13  16
ENDBRANCH   8  13
BRANCH  10  18
ATOM     18  C   UNL     1       0.631  -4.116  -2.583  1.00  0.00     0.072 C 
BRANCH  18  19
ATOM     19  C   UNL     1       0.402  -3.970  -1.056  1.00  0.00     0.262 C 
BRANCH  19  20
ATOM     20  N   UNL     1      -0.625  -2.979  -0.734  1.00  0.00    -0.333 N 
ATOM     21  C   UNL     1      -1.392  -3.195   0.479  1.00  0.00     0.278 C 
ATOM     22  C   UNL     1      -0.069  -1.651  -0.572  1.00  0.00     0.278 C 
ATOM     23  H   UNL     1      -1.243  -3.078  -1.540  1.00  0.00     0.348 HD
ATOM     24  C   UNL     1      -2.620  -2.307   0.651  1.00  0.00     0.198 C 
ATOM     25  C   UNL     1      -1.129  -0.779  -1.173  1.00  0.00     0.198 C 
ATOM     26  S   UNL     1      -2.497  -0.691  -0.072  1.00  0.00     0.161 S 
ATOM     27  O   UNL     1      -3.687  -0.486  -0.888  1.00  0.00    -0.228 OA
ATOM     28  O   UNL     1      -2.132   0.244   0.964  1.00  0.00    -0.228 OA
ENDBRANCH  19  20
ENDBRANCH  18  19
ENDBRANCH  10  18
ENDBRANCH   6   8
ENDBRANCH   5   6
ENDBRANCH   4   5
ENDBRANCH   3   4
ENDBRANCH   2   3
ENDBRANCH   1   2
BRANCH   1  29
ATOM     29  C   UNL     1      -2.833  -5.055  -2.862  1.00  0.00     0.188 C 
BRANCH  29  30
ATOM     30  O   UNL     1      -3.700  -6.157  -3.114  1.00  0.00    -0.376 OA
BRANCH  30  31
ATOM     31  C   UNL     1      -4.804  -6.311  -2.231  1.00  0.00     0.202 C 
BRANCH  31  32
ATOM     32  C   UNL     1      -4.508  -6.964  -0.871  1.00  0.00     0.261 C 
BRANCH  32  33
ATOM     33  O   UNL     1      -3.712  -6.191   0.054  1.00  0.00    -0.460 OA
BRANCH  33  34
ATOM     34  C   UNL     1      -2.631  -6.843   0.580  1.00  0.00     0.338 C 
ATOM     35  O   UNL     1      -2.127  -7.863   0.141  1.00  0.00    -0.246 OA
BRANCH  34  36
ATOM     36  C   UNL     1      -2.046  -6.103   1.740  1.00  0.00     0.060 A 
ATOM     37  C   UNL     1      -0.648  -6.096   1.877  1.00  0.00     0.016 A 
ATOM     38  C   UNL     1      -2.821  -5.319   2.610  1.00  0.00     0.016 A 
ATOM     39  C   UNL     1      -0.029  -5.261   2.820  1.00  0.00     0.010 A 
ATOM     40  C   UNL     1      -2.198  -4.502   3.576  1.00  0.00     0.010 A 
ATOM     41  C   UNL     1      -0.796  -4.453   3.682  1.00  0.00    -0.014 A 
BRANCH  41  42
ATOM     42  C   UNL     1      -0.128  -3.836   4.867  1.00  0.00     0.031 A 
ATOM     43  C   UNL     1       0.155  -4.779   6.006  1.00  0.00     0.074 A 
ATOM     44  C   UNL     1       0.250  -2.543   4.971  1.00  0.00     0.049 A 
ATOM     45  N   UNL     1       0.841  -4.588   7.099  1.00  0.00    -0.248 NA
ATOM     46  C   UNL     1      -0.406  -6.135   5.870  1.00  0.00     0.031 C 
ATOM     47  C   UNL     1       0.037  -1.494   3.976  1.00  0.00     0.029 A 
ATOM     48  N   UNL     1       0.897  -1.886   5.999  1.00  0.00    -0.354 N 
ATOM     49  C   UNL     1       0.815  -5.806   7.765  1.00  0.00     0.074 A 
ATOM     50  C   UNL     1       0.033  -6.721   6.968  1.00  0.00     0.031 C 
ATOM     51  C   UNL     1       0.529  -0.329   4.444  1.00  0.00     0.029 A 
ATOM     52  C   UNL     1       1.081  -0.535   5.783  1.00  0.00     0.049 A 
ATOM     53  H   UNL     1       1.202  -2.342   6.816  1.00  0.00     0.167 HD
ATOM     54  C   UNL     1       1.385  -6.150   8.940  1.00  0.00     0.034 A 
ATOM     55  C   UNL     1       1.616   0.422   6.576  1.00  0.00     0.034 A 
ATOM     56  C   UNL     1       2.064  -5.233   9.803  1.00  0.00     0.049 A 
ATOM     57  C   UNL     1       2.167   0.036   7.934  1.00  0.00     0.074 A 
ATOM     58  C   UNL     1       2.625  -5.475  11.042  1.00  0.00     0.029 A 
ATOM     59  N   UNL     1       2.224  -3.882   9.542  1.00  0.00    -0.354 N 
ATOM     60  N   UNL     1       2.252  -1.151   8.487  1.00  0.00    -0.248 NA
ATOM     61  C   UNL     1       2.722   1.118   8.766  1.00  0.00     0.031 C 
ATOM     62  C   UNL     1       3.087  -4.258  11.552  1.00  0.00     0.029 A 
ATOM     63  C   UNL     1       2.864  -3.271  10.604  1.00  0.00     0.049 A 
ATOM     64  H   UNL     1       1.926  -3.425   8.722  1.00  0.00     0.167 HD
ATOM     65  C   UNL     1       2.900  -0.963   9.707  1.00  0.00     0.074 A 
ATOM     66  C   UNL     1       3.205   0.448   9.805  1.00  0.00     0.031 C 
ATOM     67  C   UNL     1       3.206  -1.874  10.664  1.00  0.00     0.034 A 
BRANCH  54  68
ATOM     68  C   UNL     1       1.240  -7.587   9.350  1.00  0.00     0.023 A 
ATOM     69  C   UNL     1       1.953  -8.585   8.650  1.00  0.00     0.012 A 
ATOM     70  C   UNL     1       0.355  -7.955  10.377  1.00  0.00     0.148 A 
ATOM     71  C   UNL     1       1.748  -9.932   8.937  1.00  0.00     0.002 A 
ATOM     72  C   UNL     1       0.192  -9.297  10.689  1.00  0.00     0.091 A 
ATOM     73  F   UNL     1      -0.340  -6.990  10.997  1.00  0.00    -0.205 F 
ATOM     74  C   UNL     1       0.873 -10.287   9.960  1.00  0.00     0.022 A 
BRANCH  72  75
ATOM     75  S   UNL     1      -0.869  -9.854  12.023  1.00  0.00     0.127 S 
ATOM     76  O   UNL     1      -1.924 -10.552  11.289  1.00  0.00    -0.237 OA
ATOM     77  O   UNL     1       0.029 -10.726  12.779  1.00  0.00    -0.237 OA
ATOM     78  O   UNL     1      -1.294  -8.654  12.730  1.00  0.00    -0.744 OA
ENDBRANCH  72  75
ENDBRANCH  54  68
BRANCH  55  79
ATOM     79  C   UNL     1       1.677   1.854   6.134  1.00  0.00     0.023 A 
ATOM     80  C   UNL     1       2.926   2.478   5.926  1.00  0.00     0.012 A 
ATOM     81  C   UNL     1       0.505   2.620   5.979  1.00  0.00     0.148 A 
ATOM     82  C   UNL     1       3.007   3.837   5.611  1.00  0.00     0.002 A 
ATOM     83  C   UNL     1       0.589   3.961   5.615  1.00  0.00     0.091 A 
ATOM     84  F   UNL     1      -0.674   2.025   6.210  1.00  0.00    -0.205 F 
ATOM     85  C   UNL     1       1.839   4.577   5.448  1.00  0.00     0.022 A 
BRANCH  83  86
ATOM     86  S   UNL     1      -0.859   4.976   5.296  1.00  0.00     0.127 S 
ATOM     87  O   UNL     1      -0.780   5.957   6.377  1.00  0.00    -0.237 OA
ATOM     88  O   UNL     1      -0.563   5.506   3.965  1.00  0.00    -0.237 OA
ATOM     89  O   UNL     1      -1.997   4.070   5.354  1.00  0.00    -0.744 OA
ENDBRANCH  83  86
ENDBRANCH  55  79
BRANCH  67  90
ATOM     90  C   UNL     1       3.961  -1.406  11.883  1.00  0.00     0.023 A 
ATOM     91  C   UNL     1       3.325  -0.609  12.854  1.00  0.00     0.012 A 
ATOM     92  C   UNL     1       5.278  -1.854  12.111  1.00  0.00     0.148 A 
ATOM     93  C   UNL     1       4.000  -0.240  14.019  1.00  0.00     0.002 A 
ATOM     94  C   UNL     1       5.923  -1.530  13.297  1.00  0.00     0.091 A 
ATOM     95  F   UNL     1       5.872  -2.598  11.166  1.00  0.00    -0.205 F 
ATOM     96  C   UNL     1       5.291  -0.711  14.246  1.00  0.00     0.022 A 
BRANCH  94  97
ATOM     97  S   UNL     1       7.541  -2.187  13.721  1.00  0.00     0.127 S 
ATOM     98  O   UNL     1       8.388  -1.004  13.584  1.00  0.00    -0.237 OA
ATOM     99  O   UNL     1       7.340  -2.638  15.098  1.00  0.00    -0.237 OA
ATOM    100  O   UNL     1       7.802  -3.257  12.768  1.00  0.00    -0.744 OA
ENDBRANCH  94  97
ENDBRANCH  67  90
ENDBRANCH  41  42
ENDBRANCH  34  36
ENDBRANCH  33  34
ENDBRANCH  32  33
ENDBRANCH  31  32
ENDBRANCH  30  31
ENDBRANCH  29  30
ENDBRANCH   1  29
TORSDOF 25
