REMARK SMILES CCOc1cccc(-c2ccc([C@@H](C)C(=O)OCCOCCOCCOC(=O)c3ccc(-c4c5nc(c(-c6cccc(S(=O)(=O)[O-])c6F)c6ccc([nH]6)c(-c6cccc(S(=O)(=O)[O-])c6F)c6nc(c(-c7cccc(S(=O)(=O)[O-])c7F)c7ccc4[nH]7)C=C6)C=C5)cc3)cc2F)c1
REMARK SMILES IDX 21 1 20 2 19 3 18 4 17 5 15 6 16 7 13 8 14 9 12 10 9 11
REMARK SMILES IDX 10 12 93 13 11 14 92 15 94 16 8 17 4 18 5 19 95 20 6 21 7 22
REMARK SMILES IDX 3 23 2 24 1 25 22 26 23 27 24 28 25 29 26 30 27 31 28 32
REMARK SMILES IDX 29 33 30 34 91 35 31 36 90 37 32 38 33 39 34 40 84 41 35 42
REMARK SMILES IDX 89 43 83 44 85 45 36 46 88 47 82 48 81 49 37 51 69 52 49 53
REMARK SMILES IDX 68 54 50 55 53 56 67 57 86 58 51 59 52 60 66 62 87 63 54 64
REMARK SMILES IDX 38 65 39 66 47 67 40 68 42 69 48 70 41 71 43 72 44 73 45 74
REMARK SMILES IDX 46 75 70 76 71 77 79 78 72 79 74 80 80 81 73 82 75 83 76 84
REMARK SMILES IDX 77 85 78 86 55 87 56 88 64 89 57 90 59 91 65 92 58 93 60 94
REMARK SMILES IDX 61 95 62 96 63 97
REMARK H PARENT 85 50 53 61
REMARK Flexibility Score: inf
ROOT
ATOM      1  C   UNL     1       6.049  -4.353  -2.433  1.00  0.00     0.188 C 
ENDROOT
BRANCH   1   2
ATOM      2  O   UNL     1       6.606  -5.527  -1.857  1.00  0.00    -0.376 OA
BRANCH   2   3
ATOM      3  C   UNL     1       7.627  -5.399  -0.875  1.00  0.00     0.202 C 
BRANCH   3   4
ATOM      4  C   UNL     1       8.844  -4.505  -1.177  1.00  0.00     0.261 C 
BRANCH   4   5
ATOM      5  O   UNL     1       8.542  -3.130  -1.519  1.00  0.00    -0.463 OA
BRANCH   5   6
ATOM      6  C   UNL     1       9.056  -2.672  -2.689  1.00  0.00     0.313 C 
ATOM      7  O   UNL     1       9.814  -3.338  -3.392  1.00  0.00    -0.252 OA
BRANCH   6   8
ATOM      8  C   UNL     1       8.619  -1.267  -3.128  1.00  0.00     0.126 C 
ATOM      9  C   UNL     1       9.874  -0.451  -3.435  1.00  0.00     0.025 C 
BRANCH   8  10
ATOM     10  C   UNL     1       7.645  -0.427  -2.300  1.00  0.00    -0.031 A 
ATOM     11  C   UNL     1       5.715   1.133  -0.842  1.00  0.00     0.018 A 
ATOM     12  C   UNL     1       6.851   0.579  -0.219  1.00  0.00     0.012 A 
ATOM     13  C   UNL     1       5.583   0.899  -2.215  1.00  0.00     0.131 A 
ATOM     14  C   UNL     1       7.803  -0.180  -0.931  1.00  0.00     0.005 A 
ATOM     15  C   UNL     1       6.525   0.149  -2.934  1.00  0.00     0.044 A 
ATOM     16  F   UNL     1       4.536   1.401  -2.890  1.00  0.00    -0.206 F 
BRANCH  11  17
ATOM     17  C   UNL     1       4.730   1.928  -0.073  1.00  0.00    -0.012 A 
ATOM     18  C   UNL     1       2.437   2.397   0.641  1.00  0.00     0.119 A 
ATOM     19  C   UNL     1       2.875   3.466   1.415  1.00  0.00     0.046 A 
ATOM     20  C   UNL     1       3.350   1.647  -0.112  1.00  0.00     0.055 A 
ATOM     21  C   UNL     1       4.231   3.777   1.454  1.00  0.00     0.004 A 
ATOM     22  C   UNL     1       5.147   3.014   0.719  1.00  0.00     0.009 A 
BRANCH  18  23
ATOM     23  O   UNL     1       1.085   2.221   0.524  1.00  0.00    -0.494 OA
BRANCH  23  24
ATOM     24  C   UNL     1       0.587   1.064   1.204  1.00  0.00     0.226 C 
ATOM     25  C   UNL     1       0.608  -0.149   0.301  1.00  0.00     0.049 C 
ENDBRANCH  23  24
ENDBRANCH  18  23
ENDBRANCH  11  17
ENDBRANCH   8  10
ENDBRANCH   6   8
ENDBRANCH   5   6
ENDBRANCH   4   5
ENDBRANCH   3   4
ENDBRANCH   2   3
ENDBRANCH   1   2
BRANCH   1  26
ATOM     26  C   UNL     1       5.727  -3.167  -1.512  1.00  0.00     0.188 C 
BRANCH  26  27
ATOM     27  O   UNL     1       5.978  -3.395  -0.144  1.00  0.00    -0.376 OA
BRANCH  27  28
ATOM     28  C   UNL     1       4.869  -3.398   0.731  1.00  0.00     0.202 C 
BRANCH  28  29
ATOM     29  C   UNL     1       3.681  -4.329   0.424  1.00  0.00     0.261 C 
BRANCH  29  30
ATOM     30  O   UNL     1       3.259  -4.431  -0.948  1.00  0.00    -0.460 OA
BRANCH  30  31
ATOM     31  C   UNL     1       2.564  -3.385  -1.442  1.00  0.00     0.338 C 
ATOM     32  O   UNL     1       2.276  -2.363  -0.836  1.00  0.00    -0.246 OA
BRANCH  31  33
ATOM     33  C   UNL     1       2.398  -3.539  -2.898  1.00  0.00     0.060 A 
ATOM     34  C   UNL     1       2.966  -2.583  -3.756  1.00  0.00     0.016 A 
ATOM     35  C   UNL     1       1.666  -4.608  -3.410  1.00  0.00     0.016 A 
ATOM     36  C   UNL     1       2.793  -2.692  -5.135  1.00  0.00     0.010 A 
ATOM     37  C   UNL     1       1.473  -4.700  -4.789  1.00  0.00     0.010 A 
ATOM     38  C   UNL     1       2.015  -3.732  -5.655  1.00  0.00    -0.014 A 
BRANCH  38  39
ATOM     39  C   UNL     1       1.624  -3.734  -7.084  1.00  0.00     0.031 A 
ATOM     40  C   UNL     1       0.246  -3.260  -7.452  1.00  0.00     0.074 A 
ATOM     41  C   UNL     1       2.462  -4.191  -8.032  1.00  0.00     0.049 A 
ATOM     42  N   UNL     1      -0.357  -3.282  -8.610  1.00  0.00    -0.248 NA
ATOM     43  C   UNL     1      -0.563  -2.691  -6.360  1.00  0.00     0.031 C 
ATOM     44  C   UNL     1       3.826  -4.661  -7.800  1.00  0.00     0.029 A 
ATOM     45  N   UNL     1       2.266  -4.368  -9.379  1.00  0.00    -0.354 N 
ATOM     46  C   UNL     1      -1.628  -2.770  -8.382  1.00  0.00     0.074 A 
ATOM     47  C   UNL     1      -1.712  -2.451  -6.974  1.00  0.00     0.031 C 
ATOM     48  C   UNL     1       4.334  -5.109  -8.961  1.00  0.00     0.029 A 
ATOM     49  C   UNL     1       3.318  -4.992 -10.006  1.00  0.00     0.049 A 
ATOM     50  H   UNL     1       1.452  -4.077  -9.850  1.00  0.00     0.167 HD
ATOM     51  C   UNL     1      -2.634  -2.577  -9.268  1.00  0.00     0.034 A 
ATOM     52  C   UNL     1       3.432  -5.449 -11.270  1.00  0.00     0.034 A 
ATOM     53  C   UNL     1      -2.542  -2.888 -10.669  1.00  0.00     0.049 A 
ATOM     54  C   UNL     1       2.282  -5.261 -12.227  1.00  0.00     0.074 A 
ATOM     55  C   UNL     1      -3.489  -2.689 -11.657  1.00  0.00     0.029 A 
ATOM     56  N   UNL     1      -1.446  -3.480 -11.278  1.00  0.00    -0.354 N 
ATOM     57  N   UNL     1       1.122  -4.684 -12.025  1.00  0.00    -0.248 NA
ATOM     58  C   UNL     1       2.470  -5.761 -13.597  1.00  0.00     0.031 C 
ATOM     59  C   UNL     1      -2.982  -3.199 -12.856  1.00  0.00     0.029 A 
ATOM     60  C   UNL     1      -1.699  -3.671 -12.625  1.00  0.00     0.049 A 
ATOM     61  H   UNL     1      -0.611  -3.729 -10.819  1.00  0.00     0.167 HD
ATOM     62  C   UNL     1       0.461  -4.714 -13.249  1.00  0.00     0.074 A 
ATOM     63  C   UNL     1       1.356  -5.352 -14.191  1.00  0.00     0.031 C 
ATOM     64  C   UNL     1      -0.779  -4.261 -13.564  1.00  0.00     0.034 A 
BRANCH  51  65
ATOM     65  C   UNL     1      -3.922  -1.997  -8.746  1.00  0.00     0.023 A 
ATOM     66  C   UNL     1      -3.973  -0.647  -8.341  1.00  0.00     0.012 A 
ATOM     67  C   UNL     1      -5.094  -2.777  -8.700  1.00  0.00     0.148 A 
ATOM     68  C   UNL     1      -5.161  -0.094  -7.863  1.00  0.00     0.002 A 
ATOM     69  C   UNL     1      -6.285  -2.205  -8.271  1.00  0.00     0.091 A 
ATOM     70  F   UNL     1      -5.021  -4.064  -9.069  1.00  0.00    -0.205 F 
ATOM     71  C   UNL     1      -6.318  -0.869  -7.839  1.00  0.00     0.022 A 
BRANCH  69  72
ATOM     72  S   UNL     1      -7.845  -3.094  -8.278  1.00  0.00     0.127 S 
ATOM     73  O   UNL     1      -8.108  -3.242  -6.847  1.00  0.00    -0.237 OA
ATOM     74  O   UNL     1      -8.730  -2.154  -8.966  1.00  0.00    -0.237 OA
ATOM     75  O   UNL     1      -7.599  -4.336  -8.997  1.00  0.00    -0.744 OA
ENDBRANCH  69  72
ENDBRANCH  51  65
BRANCH  52  76
ATOM     76  C   UNL     1       4.689  -6.116 -11.714  1.00  0.00     0.023 A 
ATOM     77  C   UNL     1       5.513  -5.481 -12.663  1.00  0.00     0.012 A 
ATOM     78  C   UNL     1       5.071  -7.372 -11.204  1.00  0.00     0.148 A 
ATOM     79  C   UNL     1       6.677  -6.098 -13.121  1.00  0.00     0.002 A 
ATOM     80  C   UNL     1       6.260  -7.956 -11.622  1.00  0.00     0.091 A 
ATOM     81  F   UNL     1       4.265  -7.966 -10.312  1.00  0.00    -0.205 F 
ATOM     82  C   UNL     1       7.055  -7.330 -12.595  1.00  0.00     0.022 A 
BRANCH  80  83
ATOM     83  S   UNL     1       6.889  -9.483 -10.917  1.00  0.00     0.127 S 
ATOM     84  O   UNL     1       6.801 -10.397 -12.054  1.00  0.00    -0.237 OA
ATOM     85  O   UNL     1       8.249  -9.100 -10.539  1.00  0.00    -0.237 OA
ATOM     86  O   UNL     1       6.013  -9.790  -9.794  1.00  0.00    -0.744 OA
ENDBRANCH  80  83
ENDBRANCH  52  76
BRANCH  64  87
ATOM     87  C   UNL     1      -1.230  -4.382 -14.998  1.00  0.00     0.023 A 
ATOM     88  C   UNL     1      -1.547  -5.643 -15.539  1.00  0.00     0.012 A 
ATOM     89  C   UNL     1      -1.416  -3.227 -15.785  1.00  0.00     0.148 A 
ATOM     90  C   UNL     1      -2.006  -5.757 -16.851  1.00  0.00     0.002 A 
ATOM     91  C   UNL     1      -1.925  -3.343 -17.073  1.00  0.00     0.091 A 
ATOM     92  F   UNL     1      -1.096  -2.036 -15.258  1.00  0.00    -0.205 F 
ATOM     93  C   UNL     1      -2.207  -4.608 -17.613  1.00  0.00     0.022 A 
BRANCH  91  94
ATOM     94  S   UNL     1      -2.312  -1.915 -18.091  1.00  0.00     0.127 S 
ATOM     95  O   UNL     1      -1.292  -2.008 -19.134  1.00  0.00    -0.237 OA
ATOM     96  O   UNL     1      -3.672  -2.214 -18.540  1.00  0.00    -0.237 OA
ATOM     97  O   UNL     1      -2.204  -0.754 -17.218  1.00  0.00    -0.744 OA
ENDBRANCH  91  94
ENDBRANCH  64  87
ENDBRANCH  38  39
ENDBRANCH  31  33
ENDBRANCH  30  31
ENDBRANCH  29  30
ENDBRANCH  28  29
ENDBRANCH  27  28
ENDBRANCH  26  27
ENDBRANCH   1  26
TORSDOF 24
