REMARK SMILES CCc1nc(COC)cc(N2CCCC[C@H]2C(=O)OCCOCCOCCOC(=O)c2ccc(-c3c4nc(c(-c5cccc(S(=O)(=O)[O-])c5F)c5ccc([nH]5)c(-c5cccc(S(=O)(=O)[O-])c5F)c5nc(c(-c6cccc(S(=O)(=O)[O-])c6F)c6ccc3[nH]6)C=C5)C=C4)cc2)n1
REMARK SMILES IDX 23 1 22 2 21 3 20 4 19 5 17 6 18 7 16 8 11 9 12 10 13 11
REMARK SMILES IDX 15 12 14 13 10 14 3 15 4 16 94 17 5 18 9 19 2 20 1 21 6 22
REMARK SMILES IDX 7 23 8 24 24 25 25 26 26 27 27 28 28 29 29 30 30 31 31 32
REMARK SMILES IDX 32 33 93 34 33 35 92 36 34 37 35 38 36 39 86 40 37 41 91 42
REMARK SMILES IDX 85 43 87 44 38 45 90 46 84 47 83 48 39 50 71 51 51 52 70 53
REMARK SMILES IDX 52 54 55 55 69 56 88 57 53 58 54 59 68 61 89 62 56 63 40 64
REMARK SMILES IDX 41 65 49 66 42 67 44 68 50 69 43 70 45 71 46 72 47 73 48 74
REMARK SMILES IDX 72 75 73 76 81 77 74 78 76 79 82 80 75 81 77 82 78 83 79 84
REMARK SMILES IDX 80 85 57 86 58 87 66 88 59 89 61 90 67 91 60 92 62 93 63 94
REMARK SMILES IDX 64 95 65 96
REMARK H PARENT 87 49 55 60
REMARK Flexibility Score: inf
ROOT
ATOM      1  C   UNL     1       2.455   2.822   9.977  1.00  0.00     0.188 C 
ENDROOT
BRANCH   1   2
ATOM      2  O   UNL     1       3.245   3.961  10.277  1.00  0.00    -0.376 OA
BRANCH   2   3
ATOM      3  C   UNL     1       4.556   3.982   9.731  1.00  0.00     0.202 C 
BRANCH   3   4
ATOM      4  C   UNL     1       4.708   3.961   8.199  1.00  0.00     0.261 C 
BRANCH   4   5
ATOM      5  O   UNL     1       3.755   3.154   7.494  1.00  0.00    -0.462 OA
BRANCH   5   6
ATOM      6  C   UNL     1       4.074   1.849   7.255  1.00  0.00     0.328 C 
ATOM      7  O   UNL     1       5.138   1.334   7.568  1.00  0.00    -0.250 OA
BRANCH   6   8
ATOM      8  C   UNL     1       2.877   1.145   6.579  1.00  0.00     0.193 C 
ATOM      9  N   UNL     1       3.192   0.736   5.205  1.00  0.00    -0.343 N 
ATOM     10  C   UNL     1       4.095  -0.401   5.045  1.00  0.00     0.119 C 
ATOM     11  C   UNL     1       3.670  -1.602   5.891  1.00  0.00     0.022 C 
ATOM     12  C   UNL     1       2.354  -0.056   7.377  1.00  0.00     0.037 C 
ATOM     13  C   UNL     1       3.307  -1.242   7.329  1.00  0.00     0.005 C 
BRANCH   9  14
ATOM     14  C   UNL     1       2.311   1.101   4.198  1.00  0.00     0.133 A 
ATOM     15  C   UNL     1       1.029   0.576   2.359  1.00  0.00     0.130 A 
ATOM     16  N   UNL     1       0.553   1.824   2.212  1.00  0.00    -0.235 NA
ATOM     17  N   UNL     1       1.910   0.186   3.303  1.00  0.00    -0.216 NA
ATOM     18  C   UNL     1       1.004   2.745   3.081  1.00  0.00     0.072 A 
ATOM     19  C   UNL     1       1.870   2.413   4.105  1.00  0.00     0.073 A 
BRANCH  15  20
ATOM     20  C   UNL     1       0.561  -0.453   1.369  1.00  0.00     0.074 C 
ATOM     21  C   UNL     1       1.085  -0.150  -0.026  1.00  0.00     0.012 C 
ENDBRANCH  15  20
BRANCH  18  22
ATOM     22  C   UNL     1       0.622   4.190   2.848  1.00  0.00     0.216 C 
BRANCH  22  23
ATOM     23  O   UNL     1       1.260   4.766   1.699  1.00  0.00    -0.378 OA
ATOM     24  C   UNL     1       2.675   4.838   1.817  1.00  0.00     0.195 C 
ENDBRANCH  22  23
ENDBRANCH  18  22
ENDBRANCH   9  14
ENDBRANCH   6   8
ENDBRANCH   5   6
ENDBRANCH   4   5
ENDBRANCH   3   4
ENDBRANCH   2   3
ENDBRANCH   1   2
BRANCH   1  25
ATOM     25  C   UNL     1       1.248   3.155   9.074  1.00  0.00     0.188 C 
BRANCH  25  26
ATOM     26  O   UNL     1       1.115   4.453   8.516  1.00  0.00    -0.376 OA
BRANCH  26  27
ATOM     27  C   UNL     1       1.230   5.569   9.394  1.00  0.00     0.202 C 
BRANCH  27  28
ATOM     28  C   UNL     1       0.495   5.597  10.754  1.00  0.00     0.261 C 
BRANCH  28  29
ATOM     29  O   UNL     1       0.444   4.365  11.496  1.00  0.00    -0.460 OA
BRANCH  29  30
ATOM     30  C   UNL     1      -0.756   3.739  11.515  1.00  0.00     0.338 C 
ATOM     31  O   UNL     1      -1.800   4.140  11.002  1.00  0.00    -0.246 OA
BRANCH  30  32
ATOM     32  C   UNL     1      -0.613   2.365  12.041  1.00  0.00     0.060 A 
ATOM     33  C   UNL     1      -0.927   1.291  11.191  1.00  0.00     0.016 A 
ATOM     34  C   UNL     1      -0.241   2.128  13.364  1.00  0.00     0.016 A 
ATOM     35  C   UNL     1      -0.912  -0.017  11.669  1.00  0.00     0.010 A 
ATOM     36  C   UNL     1      -0.260   0.816  13.853  1.00  0.00     0.010 A 
ATOM     37  C   UNL     1      -0.641  -0.254  13.020  1.00  0.00    -0.014 A 
BRANCH  37  38
ATOM     38  C   UNL     1      -1.007  -1.567  13.605  1.00  0.00     0.031 A 
ATOM     39  C   UNL     1      -2.339  -1.689  14.295  1.00  0.00     0.074 A 
ATOM     40  C   UNL     1      -0.195  -2.634  13.519  1.00  0.00     0.049 A 
ATOM     41  N   UNL     1      -2.871  -2.718  14.901  1.00  0.00    -0.248 NA
ATOM     42  C   UNL     1      -3.179  -0.480  14.309  1.00  0.00     0.031 C 
ATOM     43  C   UNL     1       1.113  -2.651  12.871  1.00  0.00     0.029 A 
ATOM     44  N   UNL     1      -0.349  -3.906  14.012  1.00  0.00    -0.354 N 
ATOM     45  C   UNL     1      -4.089  -2.272  15.400  1.00  0.00     0.074 A 
ATOM     46  C   UNL     1      -4.210  -0.876  15.039  1.00  0.00     0.031 C 
ATOM     47  C   UNL     1       1.666  -3.864  13.045  1.00  0.00     0.029 A 
ATOM     48  C   UNL     1       0.758  -4.699  13.832  1.00  0.00     0.049 A 
ATOM     49  H   UNL     1      -1.172  -4.219  14.453  1.00  0.00     0.167 HD
ATOM     50  C   UNL     1      -5.031  -2.959  16.088  1.00  0.00     0.034 A 
ATOM     51  C   UNL     1       1.020  -5.946  14.276  1.00  0.00     0.034 A 
ATOM     52  C   UNL     1      -4.915  -4.348  16.442  1.00  0.00     0.049 A 
ATOM     53  C   UNL     1      -0.033  -6.695  15.052  1.00  0.00     0.074 A 
ATOM     54  C   UNL     1      -5.835  -5.150  17.093  1.00  0.00     0.029 A 
ATOM     55  N   UNL     1      -3.802  -5.136  16.196  1.00  0.00    -0.354 N 
ATOM     56  N   UNL     1      -1.230  -6.300  15.415  1.00  0.00    -0.248 NA
ATOM     57  C   UNL     1       0.285  -8.076  15.443  1.00  0.00     0.031 C 
ATOM     58  C   UNL     1      -5.262  -6.413  17.274  1.00  0.00     0.029 A 
ATOM     59  C   UNL     1      -4.003  -6.412  16.695  1.00  0.00     0.049 A 
ATOM     60  H   UNL     1      -2.987  -4.833  15.733  1.00  0.00     0.167 HD
ATOM     61  C   UNL     1      -1.821  -7.392  16.043  1.00  0.00     0.074 A 
ATOM     62  C   UNL     1      -0.854  -8.470  15.998  1.00  0.00     0.031 C 
ATOM     63  C   UNL     1      -3.051  -7.492  16.608  1.00  0.00     0.034 A 
BRANCH  50  64
ATOM     64  C   UNL     1      -6.268  -2.204  16.502  1.00  0.00     0.023 A 
ATOM     65  C   UNL     1      -7.196  -1.782  15.527  1.00  0.00     0.012 A 
ATOM     66  C   UNL     1      -6.510  -1.909  17.857  1.00  0.00     0.148 A 
ATOM     67  C   UNL     1      -8.315  -1.033  15.888  1.00  0.00     0.002 A 
ATOM     68  C   UNL     1      -7.655  -1.207  18.215  1.00  0.00     0.091 A 
ATOM     69  F   UNL     1      -5.605  -2.293  18.768  1.00  0.00    -0.205 F 
ATOM     70  C   UNL     1      -8.548  -0.753  17.231  1.00  0.00     0.022 A 
BRANCH  68  71
ATOM     71  S   UNL     1      -8.081  -0.873  19.927  1.00  0.00     0.127 S 
ATOM     72  O   UNL     1      -7.762   0.550  20.038  1.00  0.00    -0.237 OA
ATOM     73  O   UNL     1      -9.511  -1.181  19.955  1.00  0.00    -0.237 OA
ATOM     74  O   UNL     1      -7.255  -1.768  20.725  1.00  0.00    -0.744 OA
ENDBRANCH  68  71
ENDBRANCH  50  64
BRANCH  51  75
ATOM     75  C   UNL     1       2.338  -6.567  13.970  1.00  0.00     0.023 A 
ATOM     76  C   UNL     1       2.418  -7.620  13.040  1.00  0.00     0.012 A 
ATOM     77  C   UNL     1       3.519  -6.080  14.564  1.00  0.00     0.148 A 
ATOM     78  C   UNL     1       3.651  -8.190  12.719  1.00  0.00     0.002 A 
ATOM     79  C   UNL     1       4.748  -6.613  14.198  1.00  0.00     0.091 A 
ATOM     80  F   UNL     1       3.415  -5.084  15.455  1.00  0.00    -0.205 F 
ATOM     81  C   UNL     1       4.816  -7.679  13.287  1.00  0.00     0.022 A 
BRANCH  79  82
ATOM     82  S   UNL     1       6.307  -5.935  14.775  1.00  0.00     0.127 S 
ATOM     83  O   UNL     1       6.858  -7.055  15.535  1.00  0.00    -0.237 OA
ATOM     84  O   UNL     1       6.990  -5.649  13.514  1.00  0.00    -0.237 OA
ATOM     85  O   UNL     1       5.963  -4.756  15.558  1.00  0.00    -0.744 OA
ENDBRANCH  79  82
ENDBRANCH  51  75
BRANCH  63  86
ATOM     86  C   UNL     1      -3.455  -8.825  17.188  1.00  0.00     0.023 A 
ATOM     87  C   UNL     1      -2.861  -9.292  18.377  1.00  0.00     0.012 A 
ATOM     88  C   UNL     1      -4.483  -9.582  16.588  1.00  0.00     0.148 A 
ATOM     89  C   UNL     1      -3.257 -10.507  18.938  1.00  0.00     0.002 A 
ATOM     90  C   UNL     1      -4.908 -10.765  17.180  1.00  0.00     0.091 A 
ATOM     91  F   UNL     1      -5.025  -9.132  15.447  1.00  0.00    -0.205 F 
ATOM     92  C   UNL     1      -4.286 -11.237  18.347  1.00  0.00     0.022 A 
BRANCH  90  93
ATOM     93  S   UNL     1      -6.294 -11.715  16.545  1.00  0.00     0.127 S 
ATOM     94  O   UNL     1      -5.618 -12.866  15.949  1.00  0.00    -0.237 OA
ATOM     95  O   UNL     1      -7.050 -12.014  17.761  1.00  0.00    -0.237 OA
ATOM     96  O   UNL     1      -6.983 -10.839  15.607  1.00  0.00    -0.744 OA
ENDBRANCH  90  93
ENDBRANCH  63  86
ENDBRANCH  37  38
ENDBRANCH  30  32
ENDBRANCH  29  30
ENDBRANCH  28  29
ENDBRANCH  27  28
ENDBRANCH  26  27
ENDBRANCH  25  26
ENDBRANCH   1  25
TORSDOF 24
