REMARK SMILES O=C(OCCOCCOCCOC(=O)[C@H]1O[C@@H](Oc2c(-c3cc(O)c(O)c(O)c3)oc3cc(O)cc(O)c3c2=O)[C@H](O)[C@@H](O)[C@@H]1O)c1ccc(-c2c3nc(c(-c4cccc(S(=O)(=O)[O-])c4F)c4ccc([nH]4)c(-c4cccc(S(=O)(=O)[O-])c4F)c4nc(c(-c5cccc(S(=O)(=O)[O-])c5F)c5ccc2[nH]5)C=C4)C=C3)cc1
REMARK SMILES IDX 8 1 7 2 6 3 5 4 4 5 3 6 2 7 1 8 47 9 48 10 109 11 49 12
REMARK SMILES IDX 108 13 50 14 51 15 52 16 102 17 53 18 107 19 101 20 103 21
REMARK SMILES IDX 54 22 106 23 100 24 99 25 55 27 87 28 67 29 86 30 68 31
REMARK SMILES IDX 71 32 85 33 104 34 69 35 70 36 84 38 105 39 72 40 56 41
REMARK SMILES IDX 57 42 65 43 58 44 60 45 66 46 59 47 61 48 62 49 63 50 64 51
REMARK SMILES IDX 88 52 89 53 97 54 90 55 92 56 98 57 91 58 93 59 94 60 95 61
REMARK SMILES IDX 96 62 73 63 74 64 82 65 75 66 77 67 83 68 76 69 78 70 79 71
REMARK SMILES IDX 80 72 81 73 9 74 10 75 11 76 12 77 13 78 14 79 15 80 16 81
REMARK SMILES IDX 45 82 17 83 43 84 41 85 46 86 18 88 19 89 20 90 39 91 30 92
REMARK SMILES IDX 38 93 40 94 31 95 36 96 32 97 35 98 33 99 21 100 22 101
REMARK SMILES IDX 29 102 23 103 27 104 25 105 24 106 28 108 26 110 37 112
REMARK SMILES IDX 34 114 44 116 42 118
REMARK H PARENT 103 26 71 37 46 87 24 107 28 109 26 111 37 113 34 115 44 117
REMARK H PARENT 42 119
REMARK Flexibility Score: inf
ROOT
ATOM      1  C   UNL     1       4.847  -1.603  -2.001  1.00  0.00     0.188 C 
ENDROOT
BRANCH   1   2
ATOM      2  C   UNL     1       3.731  -0.577  -2.184  1.00  0.00     0.188 C 
BRANCH   2   3
ATOM      3  O   UNL     1       2.595  -1.081  -2.880  1.00  0.00    -0.376 OA
BRANCH   3   4
ATOM      4  C   UNL     1       2.017  -0.189  -3.837  1.00  0.00     0.202 C 
BRANCH   4   5
ATOM      5  C   UNL     1       1.376   1.100  -3.273  1.00  0.00     0.261 C 
BRANCH   5   6
ATOM      6  O   UNL     1       1.892   1.521  -1.993  1.00  0.00    -0.460 OA
BRANCH   6   7
ATOM      7  C   UNL     1       1.418   1.231  -0.750  1.00  0.00     0.338 C 
ATOM      8  O   UNL     1       1.932   1.780   0.223  1.00  0.00    -0.246 OA
BRANCH   7   9
ATOM      9  C   UNL     1       0.317   0.252  -0.517  1.00  0.00     0.060 A 
ATOM     10  C   UNL     1      -0.032  -0.723  -1.443  1.00  0.00     0.016 A 
ATOM     11  C   UNL     1      -0.352   0.244   0.713  1.00  0.00     0.016 A 
ATOM     12  C   UNL     1      -1.054  -1.613  -1.254  1.00  0.00     0.010 A 
ATOM     13  C   UNL     1      -1.324  -0.732   0.970  1.00  0.00     0.010 A 
ATOM     14  C   UNL     1      -1.662  -1.664  -0.028  1.00  0.00    -0.014 A 
BRANCH  14  15
ATOM     15  C   UNL     1      -2.618  -2.739   0.170  1.00  0.00     0.031 A 
ATOM     16  C   UNL     1      -4.077  -2.441   0.274  1.00  0.00     0.074 A 
ATOM     17  C   UNL     1      -2.140  -3.999   0.149  1.00  0.00     0.049 A 
ATOM     18  N   UNL     1      -5.091  -3.250   0.429  1.00  0.00    -0.248 NA
ATOM     19  C   UNL     1      -4.459  -1.037   0.029  1.00  0.00     0.031 C 
ATOM     20  C   UNL     1      -0.404  -4.673  -0.452  1.00  0.00     0.029 A 
ATOM     21  N   UNL     1      -2.873  -5.292   1.135  1.00  0.00    -0.354 N 
ATOM     22  C   UNL     1      -6.223  -2.459   0.290  1.00  0.00     0.074 A 
ATOM     23  C   UNL     1      -5.781  -1.107   0.037  1.00  0.00     0.031 C 
ATOM     24  C   UNL     1      -0.088  -6.185   0.375  1.00  0.00     0.029 A 
ATOM     25  C   UNL     1      -1.731  -6.670   1.470  1.00  0.00     0.049 A 
ATOM     26  H   UNL     1      -3.800  -5.264   1.464  1.00  0.00     0.167 HD
ATOM     27  C   UNL     1      -7.522  -2.824   0.336  1.00  0.00     0.034 A 
ATOM     28  C   UNL     1      -2.366  -7.774   2.080  1.00  0.00     0.034 A 
ATOM     29  C   UNL     1      -7.984  -4.151   0.605  1.00  0.00     0.049 A 
ATOM     30  C   UNL     1      -3.960  -7.869   2.179  1.00  0.00     0.074 A 
ATOM     31  C   UNL     1      -9.292  -4.591   0.685  1.00  0.00     0.029 A 
ATOM     32  N   UNL     1      -7.166  -5.223   0.917  1.00  0.00    -0.354 N 
ATOM     33  N   UNL     1      -4.943  -7.124   1.711  1.00  0.00    -0.248 NA
ATOM     34  C   UNL     1      -4.467  -9.140   2.769  1.00  0.00     0.031 C 
ATOM     35  C   UNL     1      -9.270  -5.914   1.125  1.00  0.00     0.029 A 
ATOM     36  C   UNL     1      -7.948  -6.309   1.257  1.00  0.00     0.049 A 
ATOM     37  H   UNL     1      -6.182  -5.212   0.900  1.00  0.00     0.167 HD
ATOM     38  C   UNL     1      -6.127  -7.873   1.885  1.00  0.00     0.074 A 
ATOM     39  C   UNL     1      -5.732  -9.158   2.395  1.00  0.00     0.031 C 
ATOM     40  C   UNL     1      -7.443  -7.576   1.701  1.00  0.00     0.034 A 
BRANCH  27  41
ATOM     41  C   UNL     1      -8.545  -1.743   0.175  1.00  0.00     0.023 A 
ATOM     42  C   UNL     1      -8.887  -1.260  -1.101  1.00  0.00     0.012 A 
ATOM     43  C   UNL     1      -9.188  -1.235   1.318  1.00  0.00     0.148 A 
ATOM     44  C   UNL     1      -9.846  -0.256  -1.233  1.00  0.00     0.002 A 
ATOM     45  C   UNL     1     -10.165  -0.264   1.175  1.00  0.00     0.091 A 
ATOM     46  F   UNL     1      -8.819  -1.706   2.517  1.00  0.00    -0.205 F 
ATOM     47  C   UNL     1     -10.488   0.236  -0.097  1.00  0.00     0.022 A 
BRANCH  45  48
ATOM     48  S   UNL     1     -11.084   0.381   2.573  1.00  0.00     0.127 S 
ATOM     49  O   UNL     1     -10.631   1.771   2.602  1.00  0.00    -0.237 OA
ATOM     50  O   UNL     1     -12.467   0.196   2.136  1.00  0.00    -0.237 OA
ATOM     51  O   UNL     1     -10.690  -0.423   3.721  1.00  0.00    -0.744 OA
ENDBRANCH  45  48
ENDBRANCH  27  41
BRANCH  28  52
ATOM     52  C   UNL     1      -1.788  -9.119   2.458  1.00  0.00     0.023 A 
ATOM     53  C   UNL     1      -1.970 -10.248   1.612  1.00  0.00     0.012 A 
ATOM     54  C   UNL     1      -1.110  -9.299   3.669  1.00  0.00     0.148 A 
ATOM     55  C   UNL     1      -1.392 -11.483   1.913  1.00  0.00     0.002 A 
ATOM     56  C   UNL     1      -0.491 -10.522   3.937  1.00  0.00     0.091 A 
ATOM     57  F   UNL     1      -1.026  -8.259   4.509  1.00  0.00    -0.205 F 
ATOM     58  C   UNL     1      -0.626 -11.613   3.065  1.00  0.00     0.022 A 
BRANCH  56  59
ATOM     59  S   UNL     1       0.786 -10.608   5.200  1.00  0.00     0.127 S 
ATOM     60  O   UNL     1       0.071 -11.171   6.336  1.00  0.00    -0.237 OA
ATOM     61  O   UNL     1       1.784 -11.478   4.580  1.00  0.00    -0.237 OA
ATOM     62  O   UNL     1       1.222  -9.217   5.298  1.00  0.00    -0.744 OA
ENDBRANCH  56  59
ENDBRANCH  28  52
BRANCH  40  63
ATOM     63  C   UNL     1      -8.486  -8.623   2.091  1.00  0.00     0.023 A 
ATOM     64  C   UNL     1      -8.642  -8.967   3.452  1.00  0.00     0.012 A 
ATOM     65  C   UNL     1      -9.372  -9.184   1.145  1.00  0.00     0.148 A 
ATOM     66  C   UNL     1      -9.614  -9.883   3.857  1.00  0.00     0.002 A 
ATOM     67  C   UNL     1     -10.382 -10.048   1.565  1.00  0.00     0.091 A 
ATOM     68  F   UNL     1      -9.229  -8.845  -0.145  1.00  0.00    -0.205 F 
ATOM     69  C   UNL     1     -10.490 -10.414   2.917  1.00  0.00     0.022 A 
BRANCH  67  70
ATOM     70  S   UNL     1     -11.642 -10.698   0.457  1.00  0.00     0.127 S 
ATOM     71  O   UNL     1     -11.364 -12.133   0.496  1.00  0.00    -0.237 OA
ATOM     72  O   UNL     1     -12.878 -10.298   1.130  1.00  0.00    -0.237 OA
ATOM     73  O   UNL     1     -11.415 -10.059  -0.832  1.00  0.00    -0.744 OA
ENDBRANCH  67  70
ENDBRANCH  40  63
ENDBRANCH  14  15
ENDBRANCH   7   9
ENDBRANCH   6   7
ENDBRANCH   5   6
ENDBRANCH   4   5
ENDBRANCH   3   4
ENDBRANCH   2   3
ENDBRANCH   1   2
BRANCH   1  74
ATOM     74  O   UNL     1       5.358  -2.238  -3.165  1.00  0.00    -0.376 OA
BRANCH  74  75
ATOM     75  C   UNL     1       4.415  -2.782  -4.080  1.00  0.00     0.202 C 
BRANCH  75  76
ATOM     76  C   UNL     1       3.467  -3.930  -3.642  1.00  0.00     0.261 C 
BRANCH  76  77
ATOM     77  O   UNL     1       2.804  -3.849  -2.343  1.00  0.00    -0.461 OA
BRANCH  77  78
ATOM     78  C   UNL     1       3.472  -4.490  -1.343  1.00  0.00     0.338 C 
ATOM     79  O   UNL     1       4.593  -4.961  -1.545  1.00  0.00    -0.249 OA
BRANCH  78  80
ATOM     80  C   UNL     1       2.837  -4.429   0.129  1.00  0.00     0.263 C 
ATOM     81  O   UNL     1       1.553  -3.877   0.512  1.00  0.00    -0.322 OA
ATOM     82  C   UNL     1       3.162  -5.780   0.798  1.00  0.00     0.186 C 
ATOM     83  C   UNL     1       0.633  -4.445   1.604  1.00  0.00     0.340 C 
ATOM     84  C   UNL     1       2.880  -5.598   2.278  1.00  0.00     0.181 C 
ATOM     85  C   UNL     1       1.388  -5.398   2.603  1.00  0.00     0.214 C 
BRANCH  82  86
ATOM     86  O   UNL     1       4.504  -6.265   0.645  1.00  0.00    -0.387 OA
ATOM     87  H   UNL     1       5.121  -5.646   1.065  1.00  0.00     0.211 HD
ENDBRANCH  82  86
BRANCH  83  88
ATOM     88  O   UNL     1      -1.054  -5.026   1.180  1.00  0.00    -0.454 OA
BRANCH  88  89
ATOM     89  C   UNL     1      -1.817  -6.059  -0.419  1.00  0.00     0.214 A 
ATOM     90  C   UNL     1      -1.536  -7.498  -0.862  1.00  0.00     0.181 A 
ATOM     91  C   UNL     1      -2.417  -5.429  -1.748  1.00  0.00     0.239 A 
ATOM     92  O   UNL     1      -2.356  -8.101  -1.880  1.00  0.00    -0.452 OA
ATOM     93  C   UNL     1      -3.607  -6.052  -2.217  1.00  0.00     0.111 A 
ATOM     94  O   UNL     1      -1.855  -4.646  -2.516  1.00  0.00    -0.285 OA
ATOM     95  C   UNL     1      -3.491  -7.428  -2.324  1.00  0.00     0.146 A 
ATOM     96  C   UNL     1      -4.656  -5.299  -2.754  1.00  0.00     0.134 A 
ATOM     97  C   UNL     1      -4.493  -8.079  -3.035  1.00  0.00     0.094 A 
ATOM     98  C   UNL     1      -5.659  -5.950  -3.441  1.00  0.00     0.093 A 
ATOM     99  C   UNL     1      -5.555  -7.334  -3.591  1.00  0.00     0.123 A 
BRANCH  90 100
ATOM    100  C   UNL     1      -0.328  -8.627  -0.369  1.00  0.00     0.029 A 
ATOM    101  C   UNL     1       0.291  -9.520  -1.252  1.00  0.00     0.062 A 
ATOM    102  C   UNL     1       0.364  -8.621   0.925  1.00  0.00     0.062 A 
ATOM    103  C   UNL     1       1.437 -10.276  -0.833  1.00  0.00     0.162 A 
ATOM    104  C   UNL     1       1.486  -9.319   1.329  1.00  0.00     0.162 A 
ATOM    105  C   UNL     1       2.008 -10.193   0.443  1.00  0.00     0.200 A 
BRANCH 103 106
ATOM    106  O   UNL     1       2.086 -11.096  -1.721  1.00  0.00    -0.504 OA
ATOM    107  H   UNL     1       1.756 -11.197  -2.592  1.00  0.00     0.293 HD
ENDBRANCH 103 106
BRANCH 104 108
ATOM    108  O   UNL     1       2.138  -9.082   2.502  1.00  0.00    -0.504 OA
ATOM    109  H   UNL     1       2.895  -9.585   2.728  1.00  0.00     0.293 HD
ENDBRANCH 104 108
BRANCH 105 110
ATOM    110  O   UNL     1       3.084 -10.947   0.819  1.00  0.00    -0.502 OA
ATOM    111  H   UNL     1       3.461 -11.558   0.218  1.00  0.00     0.293 HD
ENDBRANCH 105 110
ENDBRANCH  90 100
BRANCH  96 112
ATOM    112  O   UNL     1      -4.662  -3.934  -2.679  1.00  0.00    -0.507 OA
ATOM    113  H   UNL     1      -5.374  -3.448  -3.046  1.00  0.00     0.293 HD
ENDBRANCH  96 112
BRANCH  99 114
ATOM    114  O   UNL     1      -6.478  -7.997  -4.350  1.00  0.00    -0.508 OA
ATOM    115  H   UNL     1      -6.417  -8.926  -4.457  1.00  0.00     0.293 HD
ENDBRANCH  99 114
ENDBRANCH  88  89
ENDBRANCH  83  88
BRANCH  84 116
ATOM    116  O   UNL     1       3.406  -6.690   3.043  1.00  0.00    -0.387 OA
ATOM    117  H   UNL     1       2.953  -7.510   2.792  1.00  0.00     0.211 HD
ENDBRANCH  84 116
BRANCH  85 118
ATOM    118  O   UNL     1       1.351  -4.888   3.949  1.00  0.00    -0.384 OA
ATOM    119  H   UNL     1       1.832  -4.046   3.990  1.00  0.00     0.211 HD
ENDBRANCH  85 118
ENDBRANCH  78  80
ENDBRANCH  77  78
ENDBRANCH  76  77
ENDBRANCH  75  76
ENDBRANCH  74  75
ENDBRANCH   1  74
TORSDOF 31
