REMARK SMILES CN(CC(=O)NCC(=O)OCCOCCOCCOC(=O)c1ccc(-c2c3nc(c(-c4cccc(S(=O)(=O)[O-])c4F)c4ccc([nH]4)c(-c4cccc(S(=O)(=O)[O-])c4F)c4nc(c(-c5cccc(S(=O)(=O)[O-])c5F)c5ccc2[nH]5)C=C4)C=C3)cc1)c1ncccn1
REMARK SMILES IDX 14 1 13 2 12 3 11 4 10 5 8 6 9 7 7 8 6 9 4 10 5 11 3 13 2 14
REMARK SMILES IDX 1 15 85 16 86 17 90 18 87 19 89 20 88 21 15 22 16 23 17 24
REMARK SMILES IDX 18 25 19 26 20 27 21 28 22 29 23 30 84 31 24 32 83 33 25 34
REMARK SMILES IDX 26 35 27 36 77 37 28 38 82 39 76 40 78 41 29 42 81 43 75 44
REMARK SMILES IDX 74 45 30 47 62 48 42 49 61 50 43 51 46 52 60 53 79 54 44 55
REMARK SMILES IDX 45 56 59 58 80 59 47 60 31 61 32 62 40 63 33 64 35 65 41 66
REMARK SMILES IDX 34 67 36 68 37 69 38 70 39 71 63 72 64 73 72 74 65 75 67 76
REMARK SMILES IDX 73 77 66 78 68 79 69 80 70 81 71 82 48 83 49 84 57 85 50 86
REMARK SMILES IDX 52 87 58 88 51 89 53 90 54 91 55 92 56 93
REMARK H PARENT 6 12 78 46 46 57
REMARK Flexibility Score: inf
ROOT
ATOM      1  C   UNL     1      -3.763   0.180   3.228  1.00  0.00     0.188 C 
ENDROOT
BRANCH   1   2
ATOM      2  O   UNL     1      -3.119   0.079   4.494  1.00  0.00    -0.376 OA
BRANCH   2   3
ATOM      3  C   UNL     1      -1.797   0.590   4.637  1.00  0.00     0.202 C 
BRANCH   3   4
ATOM      4  C   UNL     1      -0.730   0.206   3.595  1.00  0.00     0.261 C 
BRANCH   4   5
ATOM      5  O   UNL     1      -1.105   0.455   2.224  1.00  0.00    -0.462 OA
BRANCH   5   6
ATOM      6  C   UNL     1      -0.931  -0.567   1.347  1.00  0.00     0.325 C 
ATOM      7  O   UNL     1      -0.396  -1.635   1.633  1.00  0.00    -0.250 OA
BRANCH   6   8
ATOM      8  C   UNL     1      -1.623  -0.371  -0.017  1.00  0.00     0.238 C 
BRANCH   8   9
ATOM      9  N   UNL     1      -2.039   0.922  -0.547  1.00  0.00    -0.344 N 
ATOM     10  C   UNL     1      -1.322   1.786  -1.323  1.00  0.00     0.240 C 
ATOM     11  O   UNL     1      -1.920   2.720  -1.866  1.00  0.00    -0.273 OA
ATOM     12  H   UNL     1      -2.952   1.208  -0.315  1.00  0.00     0.164 HD
BRANCH  10  13
ATOM     13  C   UNL     1       0.154   1.505  -1.604  1.00  0.00     0.219 C 
BRANCH  13  14
ATOM     14  N   UNL     1       0.945   1.248  -0.405  1.00  0.00    -0.335 N 
ATOM     15  C   UNL     1       1.849   0.124  -0.346  1.00  0.00     0.147 C 
BRANCH  14  16
ATOM     16  C   UNL     1       1.150   2.305   0.458  1.00  0.00     0.225 A 
ATOM     17  N   UNL     1       0.176   3.216   0.594  1.00  0.00    -0.221 NA
ATOM     18  N   UNL     1       2.299   2.372   1.151  1.00  0.00    -0.221 NA
ATOM     19  C   UNL     1       0.337   4.189   1.507  1.00  0.00     0.117 A 
ATOM     20  C   UNL     1       2.446   3.398   2.011  1.00  0.00     0.117 A 
ATOM     21  C   UNL     1       1.478   4.339   2.248  1.00  0.00     0.040 A 
ENDBRANCH  14  16
ENDBRANCH  13  14
ENDBRANCH  10  13
ENDBRANCH   8   9
ENDBRANCH   6   8
ENDBRANCH   5   6
ENDBRANCH   4   5
ENDBRANCH   3   4
ENDBRANCH   2   3
ENDBRANCH   1   2
BRANCH   1  22
ATOM     22  C   UNL     1      -3.673   1.514   2.464  1.00  0.00     0.188 C 
BRANCH  22  23
ATOM     23  O   UNL     1      -2.964   2.521   3.143  1.00  0.00    -0.376 OA
BRANCH  23  24
ATOM     24  C   UNL     1      -3.660   3.647   3.628  1.00  0.00     0.202 C 
BRANCH  24  25
ATOM     25  C   UNL     1      -5.009   3.505   4.356  1.00  0.00     0.261 C 
BRANCH  25  26
ATOM     26  O   UNL     1      -5.888   2.453   3.936  1.00  0.00    -0.460 OA
BRANCH  26  27
ATOM     27  C   UNL     1      -6.647   2.677   2.839  1.00  0.00     0.338 C 
ATOM     28  O   UNL     1      -6.654   3.687   2.148  1.00  0.00    -0.246 OA
BRANCH  27  29
ATOM     29  C   UNL     1      -7.298   1.399   2.476  1.00  0.00     0.060 A 
ATOM     30  C   UNL     1      -6.995   0.798   1.244  1.00  0.00     0.016 A 
ATOM     31  C   UNL     1      -8.191   0.788   3.358  1.00  0.00     0.016 A 
ATOM     32  C   UNL     1      -7.604  -0.406   0.881  1.00  0.00     0.010 A 
ATOM     33  C   UNL     1      -8.819  -0.402   2.982  1.00  0.00     0.010 A 
ATOM     34  C   UNL     1      -8.554  -0.988   1.730  1.00  0.00    -0.014 A 
BRANCH  34  35
ATOM     35  C   UNL     1      -9.429  -2.081   1.238  1.00  0.00     0.031 A 
ATOM     36  C   UNL     1     -10.813  -1.720   0.768  1.00  0.00     0.074 A 
ATOM     37  C   UNL     1      -9.030  -3.365   1.237  1.00  0.00     0.049 A 
ATOM     38  N   UNL     1     -11.797  -2.498   0.404  1.00  0.00    -0.248 NA
ATOM     39  C   UNL     1     -11.129  -0.282   0.711  1.00  0.00     0.031 C 
ATOM     40  C   UNL     1      -7.711  -3.844   1.645  1.00  0.00     0.029 A 
ATOM     41  N   UNL     1      -9.718  -4.508   0.909  1.00  0.00    -0.354 N 
ATOM     42  C   UNL     1     -12.860  -1.650   0.113  1.00  0.00     0.074 A 
ATOM     43  C   UNL     1     -12.402  -0.299   0.350  1.00  0.00     0.031 C 
ATOM     44  C   UNL     1      -7.697  -5.187   1.580  1.00  0.00     0.029 A 
ATOM     45  C   UNL     1      -9.015  -5.663   1.160  1.00  0.00     0.049 A 
ATOM     46  H   UNL     1     -10.627  -4.501   0.531  1.00  0.00     0.167 HD
ATOM     47  C   UNL     1     -14.102  -1.965  -0.320  1.00  0.00     0.034 A 
ATOM     48  C   UNL     1      -9.404  -6.953   1.093  1.00  0.00     0.034 A 
ATOM     49  C   UNL     1     -14.553  -3.308  -0.564  1.00  0.00     0.049 A 
ATOM     50  C   UNL     1     -10.810  -7.281   0.651  1.00  0.00     0.074 A 
ATOM     51  C   UNL     1     -15.782  -3.728  -1.039  1.00  0.00     0.029 A 
ATOM     52  N   UNL     1     -13.800  -4.449  -0.336  1.00  0.00    -0.354 N 
ATOM     53  N   UNL     1     -11.774  -6.470   0.288  1.00  0.00    -0.248 NA
ATOM     54  C   UNL     1     -11.171  -8.705   0.581  1.00  0.00     0.031 C 
ATOM     55  C   UNL     1     -15.785  -5.126  -1.062  1.00  0.00     0.029 A 
ATOM     56  C   UNL     1     -14.541  -5.574  -0.649  1.00  0.00     0.049 A 
ATOM     57  H   UNL     1     -12.874  -4.457  -0.002  1.00  0.00     0.167 HD
ATOM     58  C   UNL     1     -12.836  -7.284  -0.097  1.00  0.00     0.074 A 
ATOM     59  C   UNL     1     -12.392  -8.652   0.065  1.00  0.00     0.031 C 
ATOM     60  C   UNL     1     -14.068  -6.931  -0.539  1.00  0.00     0.034 A 
BRANCH  47  61
ATOM     61  C   UNL     1     -15.065  -0.833  -0.564  1.00  0.00     0.023 A 
ATOM     62  C   UNL     1     -14.868   0.033  -1.659  1.00  0.00     0.012 A 
ATOM     63  C   UNL     1     -16.190  -0.655   0.265  1.00  0.00     0.148 A 
ATOM     64  C   UNL     1     -15.756   1.080  -1.904  1.00  0.00     0.002 A 
ATOM     65  C   UNL     1     -17.098   0.358  -0.015  1.00  0.00     0.091 A 
ATOM     66  F   UNL     1     -16.347  -1.475   1.314  1.00  0.00    -0.205 F 
ATOM     67  C   UNL     1     -16.875   1.235  -1.090  1.00  0.00     0.022 A 
BRANCH  65  68
ATOM     68  S   UNL     1     -18.611   0.590   0.922  1.00  0.00     0.127 S 
ATOM     69  O   UNL     1     -18.347   1.857   1.601  1.00  0.00    -0.237 OA
ATOM     70  O   UNL     1     -19.618   0.664  -0.137  1.00  0.00    -0.237 OA
ATOM     71  O   UNL     1     -18.729  -0.571   1.794  1.00  0.00    -0.744 OA
ENDBRANCH  65  68
ENDBRANCH  47  61
BRANCH  48  72
ATOM     72  C   UNL     1      -8.449  -8.046   1.437  1.00  0.00     0.023 A 
ATOM     73  C   UNL     1      -7.999  -8.920   0.428  1.00  0.00     0.012 A 
ATOM     74  C   UNL     1      -7.994  -8.232   2.757  1.00  0.00     0.148 A 
ATOM     75  C   UNL     1      -7.144  -9.980   0.732  1.00  0.00     0.002 A 
ATOM     76  C   UNL     1      -7.098  -9.255   3.044  1.00  0.00     0.091 A 
ATOM     77  F   UNL     1      -8.446  -7.401   3.707  1.00  0.00    -0.205 F 
ATOM     78  C   UNL     1      -6.686 -10.142   2.037  1.00  0.00     0.022 A 
BRANCH  76  79
ATOM     79  S   UNL     1      -6.363  -9.470   4.668  1.00  0.00     0.127 S 
ATOM     80  O   UNL     1      -6.947 -10.739   5.095  1.00  0.00    -0.237 OA
ATOM     81  O   UNL     1      -4.937  -9.525   4.346  1.00  0.00    -0.237 OA
ATOM     82  O   UNL     1      -6.763  -8.302   5.441  1.00  0.00    -0.744 OA
ENDBRANCH  76  79
ENDBRANCH  48  72
BRANCH  60  83
ATOM     83  C   UNL     1     -15.016  -8.030  -0.950  1.00  0.00     0.023 A 
ATOM     84  C   UNL     1     -15.605  -8.862   0.023  1.00  0.00     0.012 A 
ATOM     85  C   UNL     1     -15.386  -8.180  -2.302  1.00  0.00     0.148 A 
ATOM     86  C   UNL     1     -16.521  -9.847  -0.348  1.00  0.00     0.002 A 
ATOM     87  C   UNL     1     -16.339  -9.126  -2.658  1.00  0.00     0.091 A 
ATOM     88  F   UNL     1     -14.803  -7.389  -3.215  1.00  0.00    -0.205 F 
ATOM     89  C   UNL     1     -16.897  -9.970  -1.684  1.00  0.00     0.022 A 
BRANCH  87  90
ATOM     90  S   UNL     1     -16.959  -9.288  -4.336  1.00  0.00     0.127 S 
ATOM     91  O   UNL     1     -16.401 -10.579  -4.736  1.00  0.00    -0.237 OA
ATOM     92  O   UNL     1     -18.408  -9.288  -4.130  1.00  0.00    -0.237 OA
ATOM     93  O   UNL     1     -16.451  -8.136  -5.068  1.00  0.00    -0.744 OA
ENDBRANCH  87  90
ENDBRANCH  60  83
ENDBRANCH  34  35
ENDBRANCH  27  29
ENDBRANCH  26  27
ENDBRANCH  25  26
ENDBRANCH  24  25
ENDBRANCH  23  24
ENDBRANCH  22  23
ENDBRANCH   1  22
TORSDOF 24
