REMARK SMILES O=C(Cc1ccc(-c2ccn(C(F)F)c(=O)c2)cc1)OCCOCCOCCOC(=O)c1ccc(-c2c3nc(c(-c4cccc(S(=O)(=O)[O-])c4F)c4ccc([nH]4)c(-c4cccc(S(=O)(=O)[O-])c4F)c4nc(c(-c5cccc(S(=O)(=O)[O-])c5F)c5ccc2[nH]5)C=C4)C=C3)cc1
REMARK SMILES IDX 24 1 23 2 22 3 21 4 20 5 2 6 1 7 3 8 4 9 5 10 19 11 6 12
REMARK SMILES IDX 18 13 7 14 8 15 9 16 17 17 10 18 15 19 11 20 16 21 12 22
REMARK SMILES IDX 13 23 14 24 25 25 26 26 27 27 28 28 29 29 30 30 31 31 32 32
REMARK SMILES IDX 33 33 94 34 34 35 93 36 35 37 36 38 37 39 87 40 38 41 92 42
REMARK SMILES IDX 86 43 88 44 39 45 91 46 85 47 84 48 40 50 72 51 52 52 71 53
REMARK SMILES IDX 53 54 56 55 70 56 89 57 54 58 55 59 69 61 90 62 57 63 41 64
REMARK SMILES IDX 42 65 50 66 43 67 45 68 51 69 44 70 46 71 47 72 48 73 49 74
REMARK SMILES IDX 73 75 74 76 82 77 75 78 77 79 83 80 76 81 78 82 79 83 80 84
REMARK SMILES IDX 81 85 58 86 59 87 67 88 60 89 62 90 68 91 61 92 63 93 64 94
REMARK SMILES IDX 65 95 66 96
REMARK H PARENT 88 49 56 60
REMARK Flexibility Score: inf
ROOT
ATOM      1  C   UNL     1       3.203   1.992  -0.590  1.00  0.00     0.188 C 
ENDROOT
BRANCH   1   2
ATOM      2  O   UNL     1       4.378   1.264  -0.919  1.00  0.00    -0.376 OA
BRANCH   2   3
ATOM      3  C   UNL     1       4.711   0.232  -0.012  1.00  0.00     0.202 C 
BRANCH   3   4
ATOM      4  C   UNL     1       4.045  -1.061  -0.463  1.00  0.00     0.261 C 
BRANCH   4   5
ATOM      5  O   UNL     1       2.597  -1.027  -0.500  1.00  0.00    -0.463 OA
BRANCH   5   6
ATOM      6  C   UNL     1       1.717  -0.970   0.522  1.00  0.00     0.310 C 
ATOM      7  O   UNL     1       0.514  -1.056   0.275  1.00  0.00    -0.252 OA
BRANCH   6   8
ATOM      8  C   UNL     1       2.185  -0.698   1.934  1.00  0.00     0.158 C 
BRANCH   8   9
ATOM      9  C   UNL     1       3.253  -1.611   2.465  1.00  0.00    -0.037 A 
ATOM     10  C   UNL     1       3.156  -2.994   2.274  1.00  0.00     0.005 A 
ATOM     11  C   UNL     1       4.347  -1.086   3.170  1.00  0.00     0.005 A 
ATOM     12  C   UNL     1       4.177  -3.829   2.713  1.00  0.00     0.009 A 
ATOM     13  C   UNL     1       5.371  -1.923   3.607  1.00  0.00     0.009 A 
ATOM     14  C   UNL     1       5.295  -3.297   3.368  1.00  0.00    -0.018 A 
BRANCH  14  15
ATOM     15  C   UNL     1       6.331  -4.207   3.872  1.00  0.00    -0.011 A 
ATOM     16  C   UNL     1       6.520  -4.440   5.287  1.00  0.00     0.027 A 
ATOM     17  C   UNL     1       7.066  -4.894   2.981  1.00  0.00     0.080 A 
ATOM     18  C   UNL     1       7.368  -5.384   5.706  1.00  0.00     0.095 A 
ATOM     19  C   UNL     1       8.027  -5.934   3.434  1.00  0.00     0.255 A 
ATOM     20  N   UNL     1       8.098  -6.135   4.804  1.00  0.00    -0.258 N 
ATOM     21  O   UNL     1       8.661  -6.554   2.585  1.00  0.00    -0.269 OA
BRANCH  20  22
ATOM     22  C   UNL     1       8.958  -7.189   5.266  1.00  0.00     0.451 C 
ATOM     23  F   UNL     1       8.571  -8.387   4.761  1.00  0.00    -0.185 F 
ATOM     24  F   UNL     1      10.243  -6.975   4.892  1.00  0.00    -0.185 F 
ENDBRANCH  20  22
ENDBRANCH  14  15
ENDBRANCH   8   9
ENDBRANCH   6   8
ENDBRANCH   5   6
ENDBRANCH   4   5
ENDBRANCH   3   4
ENDBRANCH   2   3
ENDBRANCH   1   2
BRANCH   1  25
ATOM     25  C   UNL     1       2.358   2.282  -1.835  1.00  0.00     0.188 C 
BRANCH  25  26
ATOM     26  O   UNL     1       2.984   2.636  -3.065  1.00  0.00    -0.376 OA
BRANCH  26  27
ATOM     27  C   UNL     1       4.295   3.179  -3.063  1.00  0.00     0.202 C 
BRANCH  27  28
ATOM     28  C   UNL     1       4.435   4.626  -2.583  1.00  0.00     0.261 C 
BRANCH  28  29
ATOM     29  O   UNL     1       4.032   4.843  -1.218  1.00  0.00    -0.460 OA
BRANCH  29  30
ATOM     30  C   UNL     1       2.844   5.478  -1.063  1.00  0.00     0.338 C 
ATOM     31  O   UNL     1       2.117   5.892  -1.950  1.00  0.00    -0.246 OA
BRANCH  30  32
ATOM     32  C   UNL     1       2.437   5.508   0.361  1.00  0.00     0.060 A 
ATOM     33  C   UNL     1       1.146   5.065   0.675  1.00  0.00     0.016 A 
ATOM     34  C   UNL     1       3.243   6.073   1.353  1.00  0.00     0.016 A 
ATOM     35  C   UNL     1       0.630   5.250   1.959  1.00  0.00     0.010 A 
ATOM     36  C   UNL     1       2.718   6.268   2.641  1.00  0.00     0.010 A 
ATOM     37  C   UNL     1       1.392   5.903   2.937  1.00  0.00    -0.014 A 
BRANCH  37  38
ATOM     38  C   UNL     1       0.725   6.363   4.186  1.00  0.00     0.031 A 
ATOM     39  C   UNL     1       0.240   7.789   4.274  1.00  0.00     0.074 A 
ATOM     40  C   UNL     1       0.507   5.526   5.217  1.00  0.00     0.049 A 
ATOM     41  N   UNL     1      -0.410   8.386   5.240  1.00  0.00    -0.248 NA
ATOM     42  C   UNL     1       0.523   8.654   3.117  1.00  0.00     0.031 C 
ATOM     43  C   UNL     1       0.925   4.128   5.275  1.00  0.00     0.029 A 
ATOM     44  N   UNL     1      -0.109   5.744   6.426  1.00  0.00    -0.354 N 
ATOM     45  C   UNL     1      -0.610   9.694   4.813  1.00  0.00     0.074 A 
ATOM     46  C   UNL     1       0.014   9.812   3.513  1.00  0.00     0.031 C 
ATOM     47  C   UNL     1       0.580   3.619   6.471  1.00  0.00     0.029 A 
ATOM     48  C   UNL     1      -0.078   4.657   7.267  1.00  0.00     0.049 A 
ATOM     49  H   UNL     1      -0.533   6.599   6.668  1.00  0.00     0.167 HD
ATOM     50  C   UNL     1      -1.276  10.701   5.427  1.00  0.00     0.034 A 
ATOM     51  C   UNL     1      -0.521   4.514   8.533  1.00  0.00     0.034 A 
ATOM     52  C   UNL     1      -1.910  10.596   6.714  1.00  0.00     0.049 A 
ATOM     53  C   UNL     1      -1.247   5.655   9.203  1.00  0.00     0.074 A 
ATOM     54  C   UNL     1      -2.623  11.561   7.404  1.00  0.00     0.029 A 
ATOM     55  N   UNL     1      -1.903   9.462   7.509  1.00  0.00    -0.354 N 
ATOM     56  N   UNL     1      -1.538   6.843   8.730  1.00  0.00    -0.248 NA
ATOM     57  C   UNL     1      -1.744   5.420  10.569  1.00  0.00     0.031 C 
ATOM     58  C   UNL     1      -3.038  11.013   8.623  1.00  0.00     0.029 A 
ATOM     59  C   UNL     1      -2.598   9.701   8.683  1.00  0.00     0.049 A 
ATOM     60  H   UNL     1      -1.468   8.610   7.274  1.00  0.00     0.167 HD
ATOM     61  C   UNL     1      -2.278   7.480   9.722  1.00  0.00     0.074 A 
ATOM     62  C   UNL     1      -2.416   6.537  10.812  1.00  0.00     0.031 C 
ATOM     63  C   UNL     1      -2.782   8.740   9.739  1.00  0.00     0.034 A 
BRANCH  50  64
ATOM     64  C   UNL     1      -1.399  12.005   4.683  1.00  0.00     0.023 A 
ATOM     65  C   UNL     1      -2.291  12.094   3.594  1.00  0.00     0.012 A 
ATOM     66  C   UNL     1      -0.688  13.150   5.090  1.00  0.00     0.148 A 
ATOM     67  C   UNL     1      -2.452  13.294   2.904  1.00  0.00     0.002 A 
ATOM     68  C   UNL     1      -0.883  14.354   4.421  1.00  0.00     0.091 A 
ATOM     69  F   UNL     1       0.171  13.040   6.114  1.00  0.00    -0.205 F 
ATOM     70  C   UNL     1      -1.757  14.425   3.323  1.00  0.00     0.022 A 
BRANCH  68  71
ATOM     71  S   UNL     1      -0.089  15.883   4.928  1.00  0.00     0.127 S 
ATOM     72  O   UNL     1       0.880  16.083   3.851  1.00  0.00    -0.237 OA
ATOM     73  O   UNL     1      -1.207  16.827   4.924  1.00  0.00    -0.237 OA
ATOM     74  O   UNL     1       0.481  15.623   6.242  1.00  0.00    -0.744 OA
ENDBRANCH  68  71
ENDBRANCH  50  64
BRANCH  51  75
ATOM     75  C   UNL     1      -0.329   3.219   9.248  1.00  0.00     0.023 A 
ATOM     76  C   UNL     1      -1.444   2.415   9.553  1.00  0.00     0.012 A 
ATOM     77  C   UNL     1       0.956   2.783   9.629  1.00  0.00     0.148 A 
ATOM     78  C   UNL     1      -1.287   1.219  10.256  1.00  0.00     0.002 A 
ATOM     79  C   UNL     1       1.111   1.562  10.275  1.00  0.00     0.091 A 
ATOM     80  F   UNL     1       2.004   3.572   9.352  1.00  0.00    -0.205 F 
ATOM     81  C   UNL     1      -0.010   0.787  10.607  1.00  0.00     0.022 A 
BRANCH  79  82
ATOM     82  S   UNL     1       2.730   0.873  10.633  1.00  0.00     0.127 S 
ATOM     83  O   UNL     1       2.845   1.101  12.070  1.00  0.00    -0.237 OA
ATOM     84  O   UNL     1       2.561  -0.528  10.243  1.00  0.00    -0.237 OA
ATOM     85  O   UNL     1       3.662   1.613   9.792  1.00  0.00    -0.744 OA
ENDBRANCH  79  82
ENDBRANCH  51  75
BRANCH  63  86
ATOM     86  C   UNL     1      -3.556   9.173  10.959  1.00  0.00     0.023 A 
ATOM     87  C   UNL     1      -2.872   9.426  12.165  1.00  0.00     0.012 A 
ATOM     88  C   UNL     1      -4.947   9.389  10.898  1.00  0.00     0.148 A 
ATOM     89  C   UNL     1      -3.564   9.851  13.300  1.00  0.00     0.002 A 
ATOM     90  C   UNL     1      -5.624   9.855  12.021  1.00  0.00     0.091 A 
ATOM     91  F   UNL     1      -5.588   9.125   9.750  1.00  0.00    -0.205 F 
ATOM     92  C   UNL     1      -4.937  10.075  13.225  1.00  0.00     0.022 A 
BRANCH  90  93
ATOM     93  S   UNL     1      -7.376  10.255  11.985  1.00  0.00     0.127 S 
ATOM     94  O   UNL     1      -7.962   9.087  12.640  1.00  0.00    -0.237 OA
ATOM     95  O   UNL     1      -7.434  11.488  12.772  1.00  0.00    -0.237 OA
ATOM     96  O   UNL     1      -7.713  10.426  10.578  1.00  0.00    -0.744 OA
ENDBRANCH  90  93
ENDBRANCH  63  86
ENDBRANCH  37  38
ENDBRANCH  30  32
ENDBRANCH  29  30
ENDBRANCH  28  29
ENDBRANCH  27  28
ENDBRANCH  26  27
ENDBRANCH  25  26
ENDBRANCH   1  25
TORSDOF 23
