REMARK SMILES Cc1cc(SCC(=O)OCCOCCOCCOC(=O)c2ccc(-c3c4nc(c(-c5cccc(S(=O)(=O)[O-])c5F)c5ccc([nH]5)c(-c5cccc(S(=O)(=O)[O-])c5F)c5nc(c(-c6cccc(S(=O)(=O)[O-])c6F)c6ccc3[nH]6)C=C5)C=C4)cc2)c2cc(I)ccc2n1
REMARK SMILES IDX 14 1 13 2 12 3 11 4 10 5 9 6 7 7 8 8 6 9 5 10 4 11 1 12 2 13
REMARK SMILES IDX 3 14 91 15 90 16 84 17 89 18 85 19 88 20 86 21 87 22 15 23
REMARK SMILES IDX 16 24 17 25 18 26 19 27 20 28 21 29 22 30 83 31 23 32 82 33
REMARK SMILES IDX 24 34 25 35 26 36 76 37 27 38 81 39 75 40 77 41 28 42 80 43
REMARK SMILES IDX 74 44 73 45 29 47 61 48 41 49 60 50 42 51 45 52 59 53 78 54
REMARK SMILES IDX 43 55 44 56 58 58 79 59 46 60 30 61 31 62 39 63 32 64 34 65
REMARK SMILES IDX 40 66 33 67 35 68 36 69 37 70 38 71 62 72 63 73 71 74 64 75
REMARK SMILES IDX 66 76 72 77 65 78 67 79 68 80 69 81 70 82 47 83 48 84 56 85
REMARK SMILES IDX 49 86 51 87 57 88 50 89 52 90 53 91 54 92 55 93
REMARK H PARENT 77 46 45 57
REMARK Flexibility Score: inf
ROOT
ATOM      1  C   UNL     1       2.568  -1.615  -2.972  1.00  0.00     0.188 C 
ENDROOT
BRANCH   1   2
ATOM      2  C   UNL     1       3.127  -2.546  -1.876  1.00  0.00     0.188 C 
BRANCH   2   3
ATOM      3  O   UNL     1       4.266  -3.344  -2.194  1.00  0.00    -0.376 OA
BRANCH   3   4
ATOM      4  C   UNL     1       4.252  -4.065  -3.424  1.00  0.00     0.202 C 
BRANCH   4   5
ATOM      5  C   UNL     1       3.110  -5.075  -3.565  1.00  0.00     0.261 C 
BRANCH   5   6
ATOM      6  O   UNL     1       1.884  -4.359  -3.800  1.00  0.00    -0.463 OA
BRANCH   6   7
ATOM      7  C   UNL     1       0.726  -5.010  -3.515  1.00  0.00     0.316 C 
ATOM      8  O   UNL     1       0.647  -6.217  -3.333  1.00  0.00    -0.251 OA
BRANCH   7   9
ATOM      9  C   UNL     1      -0.404  -4.025  -3.248  1.00  0.00     0.197 C 
BRANCH   9  10
ATOM     10  S   UNL     1      -0.771  -2.945  -4.682  1.00  0.00    -0.114 SA
BRANCH  10  11
ATOM     11  C   UNL     1      -1.057  -1.289  -3.976  1.00  0.00     0.019 A 
ATOM     12  C   UNL     1      -2.163   0.442  -0.775  1.00  0.00     0.067 C 
ATOM     13  C   UNL     1      -1.637   0.171  -2.152  1.00  0.00     0.039 A 
ATOM     14  C   UNL     1      -1.467  -1.118  -2.647  1.00  0.00     0.039 A 
ATOM     15  N   UNL     1      -1.385   1.266  -2.891  1.00  0.00    -0.253 NA
ATOM     16  C   UNL     1      -1.067   1.127  -4.177  1.00  0.00     0.072 A 
ATOM     17  C   UNL     1      -0.915  -0.130  -4.803  1.00  0.00     0.015 A 
ATOM     18  C   UNL     1      -0.931   2.296  -4.910  1.00  0.00     0.030 A 
ATOM     19  C   UNL     1      -0.668  -0.132  -6.204  1.00  0.00     0.026 A 
ATOM     20  C   UNL     1      -0.705   2.280  -6.284  1.00  0.00     0.017 A 
ATOM     21  C   UNL     1      -0.591   1.059  -6.931  1.00  0.00     0.014 A 
ATOM     22  I   UNL     1      -0.354   1.008  -8.995  1.00  0.00    -0.044 I 
ENDBRANCH  10  11
ENDBRANCH   9  10
ENDBRANCH   7   9
ENDBRANCH   6   7
ENDBRANCH   5   6
ENDBRANCH   4   5
ENDBRANCH   3   4
ENDBRANCH   2   3
ENDBRANCH   1   2
BRANCH   1  23
ATOM     23  O   UNL     1       3.490  -1.063  -3.902  1.00  0.00    -0.376 OA
BRANCH  23  24
ATOM     24  C   UNL     1       4.573  -0.327  -3.345  1.00  0.00     0.202 C 
BRANCH  24  25
ATOM     25  C   UNL     1       4.139   0.897  -2.540  1.00  0.00     0.261 C 
BRANCH  25  26
ATOM     26  O   UNL     1       3.527   0.480  -1.305  1.00  0.00    -0.460 OA
BRANCH  26  27
ATOM     27  C   UNL     1       2.705   1.402  -0.753  1.00  0.00     0.338 C 
ATOM     28  O   UNL     1       2.564   2.555  -1.113  1.00  0.00    -0.246 OA
BRANCH  27  29
ATOM     29  C   UNL     1       2.002   0.816   0.407  1.00  0.00     0.060 A 
ATOM     30  C   UNL     1       2.142   1.437   1.646  1.00  0.00     0.016 A 
ATOM     31  C   UNL     1       1.095  -0.237   0.255  1.00  0.00     0.016 A 
ATOM     32  C   UNL     1       1.348   1.025   2.721  1.00  0.00     0.010 A 
ATOM     33  C   UNL     1       0.270  -0.615   1.320  1.00  0.00     0.010 A 
ATOM     34  C   UNL     1       0.365   0.031   2.558  1.00  0.00    -0.014 A 
BRANCH  34  35
ATOM     35  C   UNL     1      -0.625  -0.220   3.642  1.00  0.00     0.031 A 
ATOM     36  C   UNL     1      -0.759  -1.560   4.312  1.00  0.00     0.074 A 
ATOM     37  C   UNL     1      -1.463   0.777   4.003  1.00  0.00     0.049 A 
ATOM     38  N   UNL     1      -1.441  -1.870   5.385  1.00  0.00    -0.248 NA
ATOM     39  C   UNL     1      -0.079  -2.705   3.687  1.00  0.00     0.031 C 
ATOM     40  C   UNL     1      -1.579   2.072   3.325  1.00  0.00     0.029 A 
ATOM     41  N   UNL     1      -2.365   0.865   5.035  1.00  0.00    -0.354 N 
ATOM     42  C   UNL     1      -1.282  -3.238   5.559  1.00  0.00     0.074 A 
ATOM     43  C   UNL     1      -0.490  -3.713   4.446  1.00  0.00     0.031 C 
ATOM     44  C   UNL     1      -2.449   2.845   3.996  1.00  0.00     0.029 A 
ATOM     45  C   UNL     1      -2.944   2.108   5.154  1.00  0.00     0.049 A 
ATOM     46  H   UNL     1      -2.578   0.111   5.631  1.00  0.00     0.167 HD
ATOM     47  C   UNL     1      -1.701  -4.019   6.583  1.00  0.00     0.034 A 
ATOM     48  C   UNL     1      -3.733   2.621   6.119  1.00  0.00     0.034 A 
ATOM     49  C   UNL     1      -2.419  -3.530   7.727  1.00  0.00     0.049 A 
ATOM     50  C   UNL     1      -4.066   1.784   7.323  1.00  0.00     0.074 A 
ATOM     51  C   UNL     1      -2.764  -4.210   8.881  1.00  0.00     0.029 A 
ATOM     52  N   UNL     1      -2.893  -2.236   7.864  1.00  0.00    -0.354 N 
ATOM     53  N   UNL     1      -3.711   0.550   7.587  1.00  0.00    -0.248 NA
ATOM     54  C   UNL     1      -4.860   2.421   8.385  1.00  0.00     0.031 C 
ATOM     55  C   UNL     1      -3.437  -3.320   9.725  1.00  0.00     0.029 A 
ATOM     56  C   UNL     1      -3.516  -2.091   9.090  1.00  0.00     0.049 A 
ATOM     57  H   UNL     1      -2.800  -1.526   7.190  1.00  0.00     0.167 HD
ATOM     58  C   UNL     1      -4.211   0.273   8.854  1.00  0.00     0.074 A 
ATOM     59  C   UNL     1      -4.884   1.471   9.312  1.00  0.00     0.031 C 
ATOM     60  C   UNL     1      -4.127  -0.877   9.564  1.00  0.00     0.034 A 
BRANCH  47  61
ATOM     61  C   UNL     1      -1.274  -5.461   6.581  1.00  0.00     0.023 A 
ATOM     62  C   UNL     1       0.064  -5.766   6.907  1.00  0.00     0.012 A 
ATOM     63  C   UNL     1      -2.183  -6.507   6.336  1.00  0.00     0.148 A 
ATOM     64  C   UNL     1       0.501  -7.087   6.960  1.00  0.00     0.002 A 
ATOM     65  C   UNL     1      -1.747  -7.825   6.420  1.00  0.00     0.091 A 
ATOM     66  F   UNL     1      -3.448  -6.194   6.023  1.00  0.00    -0.205 F 
ATOM     67  C   UNL     1      -0.406  -8.116   6.723  1.00  0.00     0.022 A 
BRANCH  65  68
ATOM     68  S   UNL     1      -2.837  -9.234   6.183  1.00  0.00     0.127 S 
ATOM     69  O   UNL     1      -2.287  -9.827   4.964  1.00  0.00    -0.237 OA
ATOM     70  O   UNL     1      -2.601 -10.011   7.399  1.00  0.00    -0.237 OA
ATOM     71  O   UNL     1      -4.180  -8.688   6.054  1.00  0.00    -0.744 OA
ENDBRANCH  65  68
ENDBRANCH  47  61
BRANCH  48  72
ATOM     72  C   UNL     1      -4.116   4.059   6.064  1.00  0.00     0.023 A 
ATOM     73  C   UNL     1      -3.405   4.978   6.860  1.00  0.00     0.012 A 
ATOM     74  C   UNL     1      -5.130   4.524   5.207  1.00  0.00     0.148 A 
ATOM     75  C   UNL     1      -3.708   6.339   6.818  1.00  0.00     0.002 A 
ATOM     76  C   UNL     1      -5.409   5.886   5.149  1.00  0.00     0.091 A 
ATOM     77  F   UNL     1      -5.787   3.628   4.458  1.00  0.00    -0.205 F 
ATOM     78  C   UNL     1      -4.705   6.793   5.960  1.00  0.00     0.022 A 
BRANCH  76  79
ATOM     79  S   UNL     1      -6.623   6.585   4.026  1.00  0.00     0.127 S 
ATOM     80  O   UNL     1      -7.605   7.139   4.956  1.00  0.00    -0.237 OA
ATOM     81  O   UNL     1      -5.827   7.580   3.307  1.00  0.00    -0.237 OA
ATOM     82  O   UNL     1      -7.093   5.475   3.208  1.00  0.00    -0.744 OA
ENDBRANCH  76  79
ENDBRANCH  48  72
BRANCH  60  83
ATOM     83  C   UNL     1      -4.761  -0.925  10.925  1.00  0.00     0.023 A 
ATOM     84  C   UNL     1      -6.149  -1.135  11.028  1.00  0.00     0.012 A 
ATOM     85  C   UNL     1      -3.967  -0.921  12.088  1.00  0.00     0.148 A 
ATOM     86  C   UNL     1      -6.740  -1.344  12.273  1.00  0.00     0.002 A 
ATOM     87  C   UNL     1      -4.558  -1.163  13.323  1.00  0.00     0.091 A 
ATOM     88  F   UNL     1      -2.649  -0.707  11.960  1.00  0.00    -0.205 F 
ATOM     89  C   UNL     1      -5.944  -1.372  13.417  1.00  0.00     0.022 A 
BRANCH  87  90
ATOM     90  S   UNL     1      -3.609  -1.301  14.842  1.00  0.00     0.127 S 
ATOM     91  O   UNL     1      -4.066  -0.129  15.587  1.00  0.00    -0.237 OA
ATOM     92  O   UNL     1      -4.069  -2.583  15.377  1.00  0.00    -0.237 OA
ATOM     93  O   UNL     1      -2.207  -1.276  14.447  1.00  0.00    -0.744 OA
ENDBRANCH  87  90
ENDBRANCH  60  83
ENDBRANCH  34  35
ENDBRANCH  27  29
ENDBRANCH  26  27
ENDBRANCH  25  26
ENDBRANCH  24  25
ENDBRANCH  23  24
ENDBRANCH   1  23
TORSDOF 22
