REMARK SMILES CCOc1cc(OCC)cc(-c2ccc([C@@H](C)C(=O)OCCOCCOCCOC(=O)c3ccc(-c4c5nc(c(-c6cccc(S(=O)(=O)[O-])c6F)c6ccc([nH]6)c(-c6cccc(S(=O)(=O)[O-])c6F)c6nc(c(-c7cccc(S(=O)(=O)[O-])c7F)c7ccc4[nH]7)C=C6)C=C5)cc3)cc2F)c1
REMARK SMILES IDX 24 1 23 2 22 3 21 4 20 5 18 6 19 7 16 8 17 9 15 10 12 11
REMARK SMILES IDX 13 12 96 13 14 14 95 15 97 16 11 17 4 18 5 19 98 20 6 21
REMARK SMILES IDX 10 22 3 23 2 24 1 25 7 26 8 27 9 28 25 29 26 30 27 31 28 32
REMARK SMILES IDX 29 33 30 34 31 35 32 36 33 37 94 38 34 39 93 40 35 41 36 42
REMARK SMILES IDX 37 43 87 44 38 45 92 46 86 47 88 48 39 49 91 50 85 51 84 52
REMARK SMILES IDX 40 54 72 55 52 56 71 57 53 58 56 59 70 60 89 61 54 62 55 63
REMARK SMILES IDX 69 65 90 66 57 67 41 68 42 69 50 70 43 71 45 72 51 73 44 74
REMARK SMILES IDX 46 75 47 76 48 77 49 78 73 79 74 80 82 81 75 82 77 83 83 84
REMARK SMILES IDX 76 85 78 86 79 87 80 88 81 89 58 90 59 91 67 92 60 93 62 94
REMARK SMILES IDX 68 95 61 96 63 97 64 98 65 99 66 100
REMARK H PARENT 88 53 56 64
REMARK Flexibility Score: inf
ROOT
ATOM      1  C   UNL     1       6.336   4.769  -1.230  1.00  0.00     0.188 C 
ENDROOT
BRANCH   1   2
ATOM      2  O   UNL     1       7.025   5.228  -2.387  1.00  0.00    -0.376 OA
BRANCH   2   3
ATOM      3  C   UNL     1       8.087   4.445  -2.917  1.00  0.00     0.202 C 
BRANCH   3   4
ATOM      4  C   UNL     1       9.230   4.016  -1.981  1.00  0.00     0.261 C 
BRANCH   4   5
ATOM      5  O   UNL     1       8.823   3.339  -0.769  1.00  0.00    -0.463 OA
BRANCH   5   6
ATOM      6  C   UNL     1       9.272   3.868   0.398  1.00  0.00     0.313 C 
ATOM      7  O   UNL     1      10.054   4.816   0.446  1.00  0.00    -0.252 OA
BRANCH   6   8
ATOM      8  C   UNL     1       8.739   3.228   1.685  1.00  0.00     0.126 C 
ATOM      9  C   UNL     1       9.932   2.818   2.547  1.00  0.00     0.025 C 
BRANCH   8  10
ATOM     10  C   UNL     1       7.719   2.091   1.644  1.00  0.00    -0.031 A 
ATOM     11  C   UNL     1       5.735   0.021   1.643  1.00  0.00     0.018 A 
ATOM     12  C   UNL     1       6.918  -0.084   0.884  1.00  0.00     0.012 A 
ATOM     13  C   UNL     1       5.569   1.185   2.396  1.00  0.00     0.131 A 
ATOM     14  C   UNL     1       7.901   0.923   0.894  1.00  0.00     0.005 A 
ATOM     15  C   UNL     1       6.538   2.196   2.408  1.00  0.00     0.044 A 
ATOM     16  F   UNL     1       4.473   1.351   3.152  1.00  0.00    -0.206 F 
BRANCH  11  17
ATOM     17  C   UNL     1       4.777  -1.102   1.698  1.00  0.00    -0.008 A 
ATOM     18  C   UNL     1       2.558  -2.078   1.465  1.00  0.00     0.123 A 
ATOM     19  C   UNL     1       3.056  -3.329   1.832  1.00  0.00     0.092 A 
ATOM     20  C   UNL     1       3.410  -0.967   1.411  1.00  0.00     0.055 A 
ATOM     21  C   UNL     1       4.403  -3.480   2.157  1.00  0.00     0.123 A 
ATOM     22  C   UNL     1       5.244  -2.369   2.090  1.00  0.00     0.055 A 
BRANCH  18  23
ATOM     23  O   UNL     1       1.199  -1.967   1.343  1.00  0.00    -0.494 OA
BRANCH  23  24
ATOM     24  C   UNL     1       0.730  -1.630   0.034  1.00  0.00     0.226 C 
ATOM     25  C   UNL     1       0.653  -0.131  -0.168  1.00  0.00     0.049 C 
ENDBRANCH  23  24
ENDBRANCH  18  23
BRANCH  21  26
ATOM     26  O   UNL     1       4.795  -4.743   2.513  1.00  0.00    -0.494 OA
BRANCH  26  27
ATOM     27  C   UNL     1       6.042  -4.873   3.201  1.00  0.00     0.226 C 
ATOM     28  C   UNL     1       7.198  -5.051   2.229  1.00  0.00     0.049 C 
ENDBRANCH  26  27
ENDBRANCH  21  26
ENDBRANCH  11  17
ENDBRANCH   8  10
ENDBRANCH   6   8
ENDBRANCH   5   6
ENDBRANCH   4   5
ENDBRANCH   3   4
ENDBRANCH   2   3
ENDBRANCH   1   2
BRANCH   1  29
ATOM     29  C   UNL     1       6.015   3.273  -1.102  1.00  0.00     0.188 C 
BRANCH  29  30
ATOM     30  O   UNL     1       6.338   2.489  -2.231  1.00  0.00    -0.376 OA
BRANCH  30  31
ATOM     31  C   UNL     1       5.258   1.845  -2.879  1.00  0.00     0.202 C 
BRANCH  31  32
ATOM     32  C   UNL     1       4.167   2.759  -3.461  1.00  0.00     0.261 C 
BRANCH  32  33
ATOM     33  O   UNL     1       3.631   3.758  -2.570  1.00  0.00    -0.460 OA
BRANCH  33  34
ATOM     34  C   UNL     1       2.825   3.308  -1.584  1.00  0.00     0.338 C 
ATOM     35  O   UNL     1       2.493   2.143  -1.412  1.00  0.00    -0.246 OA
BRANCH  34  36
ATOM     36  C   UNL     1       2.580   4.387  -0.604  1.00  0.00     0.060 A 
ATOM     37  C   UNL     1       2.988   4.201   0.726  1.00  0.00     0.016 A 
ATOM     38  C   UNL     1       1.931   5.563  -0.981  1.00  0.00     0.016 A 
ATOM     39  C   UNL     1       2.723   5.180   1.685  1.00  0.00     0.010 A 
ATOM     40  C   UNL     1       1.648   6.535  -0.012  1.00  0.00     0.010 A 
ATOM     41  C   UNL     1       2.015   6.337   1.332  1.00  0.00    -0.014 A 
BRANCH  41  42
ATOM     42  C   UNL     1       1.541   7.260   2.396  1.00  0.00     0.031 A 
ATOM     43  C   UNL     1       0.103   7.196   2.838  1.00  0.00     0.074 A 
ATOM     44  C   UNL     1       2.382   8.133   2.983  1.00  0.00     0.049 A 
ATOM     45  N   UNL     1      -0.513   7.889   3.761  1.00  0.00    -0.248 NA
ATOM     46  C   UNL     1      -0.755   6.221   2.146  1.00  0.00     0.031 C 
ATOM     47  C   UNL     1       3.794   8.302   2.647  1.00  0.00     0.029 A 
ATOM     48  N   UNL     1       2.159   9.054   3.977  1.00  0.00    -0.354 N 
ATOM     49  C   UNL     1      -1.834   7.455   3.745  1.00  0.00     0.074 A 
ATOM     50  C   UNL     1      -1.933   6.450   2.708  1.00  0.00     0.031 C 
ATOM     51  C   UNL     1       4.309   9.282   3.410  1.00  0.00     0.029 A 
ATOM     52  C   UNL     1       3.259   9.824   4.271  1.00  0.00     0.049 A 
ATOM     53  H   UNL     1       1.293   9.154   4.435  1.00  0.00     0.167 HD
ATOM     54  C   UNL     1      -2.869   7.844   4.529  1.00  0.00     0.034 A 
ATOM     55  C   UNL     1       3.400  10.858   5.125  1.00  0.00     0.034 A 
ATOM     56  C   UNL     1      -2.772   8.836   5.567  1.00  0.00     0.049 A 
ATOM     57  C   UNL     1       2.229  11.282   5.975  1.00  0.00     0.074 A 
ATOM     58  C   UNL     1      -3.754   9.263   6.444  1.00  0.00     0.029 A 
ATOM     59  N   UNL     1      -1.633   9.571   5.859  1.00  0.00    -0.354 N 
ATOM     60  N   UNL     1       1.019  10.779   6.030  1.00  0.00    -0.248 NA
ATOM     61  C   UNL     1       2.459  12.392   6.913  1.00  0.00     0.031 C 
ATOM     62  C   UNL     1      -3.220  10.284   7.239  1.00  0.00     0.029 A 
ATOM     63  C   UNL     1      -1.891  10.459   6.891  1.00  0.00     0.049 A 
ATOM     64  H   UNL     1      -0.767   9.476   5.400  1.00  0.00     0.167 HD
ATOM     65  C   UNL     1       0.357  11.485   7.031  1.00  0.00     0.074 A 
ATOM     66  C   UNL     1       1.311  12.429   7.574  1.00  0.00     0.031 C 
ATOM     67  C   UNL     1      -0.928  11.371   7.454  1.00  0.00     0.034 A 
BRANCH  54  68
ATOM     68  C   UNL     1      -4.204   7.180   4.303  1.00  0.00     0.023 A 
ATOM     69  C   UNL     1      -4.390   5.832   4.670  1.00  0.00     0.012 A 
ATOM     70  C   UNL     1      -5.290   7.908   3.776  1.00  0.00     0.148 A 
ATOM     71  C   UNL     1      -5.624   5.208   4.484  1.00  0.00     0.002 A 
ATOM     72  C   UNL     1      -6.529   7.294   3.640  1.00  0.00     0.091 A 
ATOM     73  F   UNL     1      -5.089   9.182   3.413  1.00  0.00    -0.205 F 
ATOM     74  C   UNL     1      -6.695   5.941   3.981  1.00  0.00     0.022 A 
BRANCH  72  75
ATOM     75  S   UNL     1      -7.991   8.174   3.078  1.00  0.00     0.127 S 
ATOM     76  O   UNL     1      -8.222   7.559   1.772  1.00  0.00    -0.237 OA
ATOM     77  O   UNL     1      -8.974   7.819   4.101  1.00  0.00    -0.237 OA
ATOM     78  O   UNL     1      -7.626   9.583   3.047  1.00  0.00    -0.744 OA
ENDBRANCH  72  75
ENDBRANCH  54  68
BRANCH  55  79
ATOM     79  C   UNL     1       4.713  11.553   5.248  1.00  0.00     0.023 A 
ATOM     80  C   UNL     1       5.455  11.443   6.441  1.00  0.00     0.012 A 
ATOM     81  C   UNL     1       5.228  12.326   4.189  1.00  0.00     0.148 A 
ATOM     82  C   UNL     1       6.667  12.119   6.590  1.00  0.00     0.002 A 
ATOM     83  C   UNL     1       6.463  12.947   4.322  1.00  0.00     0.091 A 
ATOM     84  F   UNL     1       4.499  12.432   3.069  1.00  0.00    -0.205 F 
ATOM     85  C   UNL     1       7.176  12.862   5.528  1.00  0.00     0.022 A 
BRANCH  83  86
ATOM     86  S   UNL     1       7.254  13.820   2.967  1.00  0.00     0.127 S 
ATOM     87  O   UNL     1       7.220  15.202   3.440  1.00  0.00    -0.237 OA
ATOM     88  O   UNL     1       8.582  13.206   2.951  1.00  0.00    -0.237 OA
ATOM     89  O   UNL     1       6.446  13.537   1.789  1.00  0.00    -0.744 OA
ENDBRANCH  83  86
ENDBRANCH  55  79
BRANCH  67  90
ATOM     90  C   UNL     1      -1.368  12.262   8.591  1.00  0.00     0.023 A 
ATOM     91  C   UNL     1      -1.484  13.654   8.397  1.00  0.00     0.012 A 
ATOM     92  C   UNL     1      -1.690  11.715   9.850  1.00  0.00     0.148 A 
ATOM     93  C   UNL     1      -1.854  14.491   9.451  1.00  0.00     0.002 A 
ATOM     94  C   UNL     1      -2.113  12.549  10.879  1.00  0.00     0.091 A 
ATOM     95  F   UNL     1      -1.562  10.392  10.026  1.00  0.00    -0.205 F 
ATOM     96  C   UNL     1      -2.176  13.938  10.688  1.00  0.00     0.022 A 
BRANCH  94  97
ATOM     97  S   UNL     1      -2.643  11.914  12.474  1.00  0.00     0.127 S 
ATOM     98  O   UNL     1      -1.504  12.255  13.324  1.00  0.00    -0.237 OA
ATOM     99  O   UNL     1      -3.853  12.695  12.733  1.00  0.00    -0.237 OA
ATOM    100  O   UNL     1      -2.877  10.489  12.278  1.00  0.00    -0.744 OA
ENDBRANCH  94  97
ENDBRANCH  67  90
ENDBRANCH  41  42
ENDBRANCH  34  36
ENDBRANCH  33  34
ENDBRANCH  32  33
ENDBRANCH  31  32
ENDBRANCH  30  31
ENDBRANCH  29  30
ENDBRANCH   1  29
TORSDOF 26
