REMARK SMILES Cc1cc(F)cc(N[C@](C)(C(=O)OCCOCCOCCOC(=O)c2ccc(-c3c4nc(c(-c5cccc(S(=O)(=O)[O-])c5F)c5ccc([nH]5)c(-c5cccc(S(=O)(=O)[O-])c5F)c5nc(c(-c6cccc(S(=O)(=O)[O-])c6F)c6ccc3[nH]6)C=C5)C=C4)cc2)c2cccc(F)c2)c1
REMARK SMILES IDX 18 1 17 2 16 3 15 4 14 5 13 6 11 7 12 8 9 9 10 10 8 11 7 13
REMARK SMILES IDX 1 14 2 15 3 16 95 17 4 18 5 19 6 20 88 21 89 22 94 23 90 24
REMARK SMILES IDX 92 25 91 26 93 27 19 28 20 29 21 30 22 31 23 32 24 33 25 34
REMARK SMILES IDX 26 35 87 36 27 37 86 38 28 39 29 40 30 41 80 42 31 43 85 44
REMARK SMILES IDX 79 45 81 46 32 47 84 48 78 49 77 50 33 52 65 53 45 54 64 55
REMARK SMILES IDX 46 56 49 57 63 58 82 59 47 60 48 61 62 63 83 64 50 65 34 66
REMARK SMILES IDX 35 67 43 68 36 69 38 70 44 71 37 72 39 73 40 74 41 75 42 76
REMARK SMILES IDX 66 77 67 78 75 79 68 80 70 81 76 82 69 83 71 84 72 85 73 86
REMARK SMILES IDX 74 87 51 88 52 89 60 90 53 91 55 92 61 93 54 94 56 95 57 96
REMARK SMILES IDX 58 97 59 98
REMARK H PARENT 8 12 81 51 49 62
REMARK Flexibility Score: inf
ROOT
ATOM      1  C   UNL     1      -0.596  -5.363   3.002  1.00  0.00     0.188 C 
ENDROOT
BRANCH   1   2
ATOM      2  C   UNL     1      -0.650  -3.930   3.557  1.00  0.00     0.188 C 
BRANCH   2   3
ATOM      3  O   UNL     1      -1.695  -3.591   4.457  1.00  0.00    -0.376 OA
BRANCH   3   4
ATOM      4  C   UNL     1      -3.038  -3.915   4.113  1.00  0.00     0.202 C 
BRANCH   4   5
ATOM      5  C   UNL     1      -3.546  -3.762   2.664  1.00  0.00     0.261 C 
BRANCH   5   6
ATOM      6  O   UNL     1      -2.605  -4.158   1.650  1.00  0.00    -0.461 OA
BRANCH   6   7
ATOM      7  C   UNL     1      -2.639  -3.483   0.472  1.00  0.00     0.336 C 
ATOM      8  O   UNL     1      -3.522  -2.668   0.216  1.00  0.00    -0.249 OA
BRANCH   7   9
ATOM      9  C   UNL     1      -1.446  -3.838  -0.514  1.00  0.00     0.159 C 
ATOM     10  C   UNL     1      -1.980  -3.672  -1.947  1.00  0.00     0.053 C 
BRANCH   9  11
ATOM     11  N   UNL     1      -0.269  -2.941  -0.277  1.00  0.00    -0.366 N 
ATOM     12  H   UNL     1       0.571  -3.413  -0.077  1.00  0.00     0.162 HD
BRANCH  11  13
ATOM     13  C   UNL     1      -0.163  -1.559  -0.291  1.00  0.00     0.038 A 
ATOM     14  C   UNL     1       2.670   1.052  -0.050  1.00  0.00     0.044 C 
ATOM     15  C   UNL     1       1.308   0.427  -0.131  1.00  0.00    -0.046 A 
ATOM     16  C   UNL     1       0.195   1.261  -0.220  1.00  0.00     0.042 A 
ATOM     17  C   UNL     1       1.117  -0.971  -0.157  1.00  0.00     0.029 A 
ATOM     18  C   UNL     1      -1.053   0.699  -0.417  1.00  0.00     0.125 A 
ATOM     19  F   UNL     1      -2.121   1.497  -0.552  1.00  0.00    -0.207 F 
ATOM     20  C   UNL     1      -1.226  -0.683  -0.492  1.00  0.00     0.065 A 
ENDBRANCH  11  13
ENDBRANCH   9  11
BRANCH   9  21
ATOM     21  C   UNL     1      -0.970  -5.333  -0.451  1.00  0.00    -0.009 A 
ATOM     22  C   UNL     1       0.390  -5.709  -0.597  1.00  0.00     0.007 A 
ATOM     23  C   UNL     1      -1.897  -6.380  -0.268  1.00  0.00     0.046 A 
ATOM     24  C   UNL     1       0.808  -7.041  -0.458  1.00  0.00     0.003 A 
ATOM     25  C   UNL     1      -1.471  -7.705  -0.152  1.00  0.00     0.123 A 
ATOM     26  C   UNL     1      -0.127  -8.042  -0.225  1.00  0.00     0.039 A 
ATOM     27  F   UNL     1      -2.379  -8.672   0.037  1.00  0.00    -0.207 F 
ENDBRANCH   9  21
ENDBRANCH   7   9
ENDBRANCH   6   7
ENDBRANCH   5   6
ENDBRANCH   4   5
ENDBRANCH   3   4
ENDBRANCH   2   3
ENDBRANCH   1   2
BRANCH   1  28
ATOM     28  O   UNL     1      -1.685  -6.190   3.330  1.00  0.00    -0.376 OA
BRANCH  28  29
ATOM     29  C   UNL     1      -1.556  -7.130   4.378  1.00  0.00     0.202 C 
BRANCH  29  30
ATOM     30  C   UNL     1      -0.546  -7.014   5.540  1.00  0.00     0.261 C 
BRANCH  30  31
ATOM     31  O   UNL     1       0.589  -6.153   5.385  1.00  0.00    -0.460 OA
BRANCH  31  32
ATOM     32  C   UNL     1       1.684  -6.678   4.788  1.00  0.00     0.338 C 
ATOM     33  O   UNL     1       1.807  -7.815   4.348  1.00  0.00    -0.246 OA
BRANCH  32  34
ATOM     34  C   UNL     1       2.635  -5.575   4.532  1.00  0.00     0.060 A 
ATOM     35  C   UNL     1       2.951  -5.233   3.207  1.00  0.00     0.016 A 
ATOM     36  C   UNL     1       3.205  -4.876   5.596  1.00  0.00     0.016 A 
ATOM     37  C   UNL     1       3.861  -4.208   2.945  1.00  0.00     0.010 A 
ATOM     38  C   UNL     1       4.137  -3.869   5.332  1.00  0.00     0.010 A 
ATOM     39  C   UNL     1       4.494  -3.553   4.008  1.00  0.00    -0.014 A 
BRANCH  39  40
ATOM     40  C   UNL     1       5.661  -2.674   3.756  1.00  0.00     0.031 A 
ATOM     41  C   UNL     1       7.039  -3.243   3.953  1.00  0.00     0.074 A 
ATOM     42  C   UNL     1       5.508  -1.385   3.408  1.00  0.00     0.049 A 
ATOM     43  N   UNL     1       8.200  -2.647   3.882  1.00  0.00    -0.248 NA
ATOM     44  C   UNL     1       7.113  -4.674   4.291  1.00  0.00     0.031 C 
ATOM     45  C   UNL     1       4.228  -0.713   3.210  1.00  0.00     0.029 A 
ATOM     46  N   UNL     1       6.444  -0.401   3.200  1.00  0.00    -0.354 N 
ATOM     47  C   UNL     1       9.140  -3.615   4.212  1.00  0.00     0.074 A 
ATOM     48  C   UNL     1       8.413  -4.837   4.484  1.00  0.00     0.031 C 
ATOM     49  C   UNL     1       4.458   0.585   2.948  1.00  0.00     0.029 A 
ATOM     50  C   UNL     1       5.897   0.837   2.959  1.00  0.00     0.049 A 
ATOM     51  H   UNL     1       7.415  -0.567   3.223  1.00  0.00     0.167 HD
ATOM     52  C   UNL     1      10.487  -3.502   4.280  1.00  0.00     0.034 A 
ATOM     53  C   UNL     1       6.489   2.037   2.790  1.00  0.00     0.034 A 
ATOM     54  C   UNL     1      11.209  -2.289   4.007  1.00  0.00     0.049 A 
ATOM     55  C   UNL     1       7.991   2.139   2.877  1.00  0.00     0.074 A 
ATOM     56  C   UNL     1      12.578  -2.086   4.010  1.00  0.00     0.029 A 
ATOM     57  N   UNL     1      10.624  -1.070   3.703  1.00  0.00    -0.354 N 
ATOM     58  N   UNL     1       8.875   1.192   3.078  1.00  0.00    -0.248 NA
ATOM     59  C   UNL     1       8.579   3.476   2.697  1.00  0.00     0.031 C 
ATOM     60  C   UNL     1      12.819  -0.734   3.743  1.00  0.00     0.029 A 
ATOM     61  C   UNL     1      11.603  -0.106   3.527  1.00  0.00     0.049 A 
ATOM     62  H   UNL     1       9.656  -0.913   3.623  1.00  0.00     0.167 HD
ATOM     63  C   UNL     1      10.120   1.811   3.018  1.00  0.00     0.074 A 
ATOM     64  C   UNL     1       9.877   3.210   2.736  1.00  0.00     0.031 C 
ATOM     65  C   UNL     1      11.353   1.273   3.196  1.00  0.00     0.034 A 
BRANCH  52  66
ATOM     66  C   UNL     1      11.269  -4.731   4.662  1.00  0.00     0.023 A 
ATOM     67  C   UNL     1      11.367  -5.809   3.759  1.00  0.00     0.012 A 
ATOM     68  C   UNL     1      11.939  -4.801   5.899  1.00  0.00     0.148 A 
ATOM     69  C   UNL     1      12.087  -6.954   4.097  1.00  0.00     0.002 A 
ATOM     70  C   UNL     1      12.696  -5.924   6.207  1.00  0.00     0.091 A 
ATOM     71  F   UNL     1      11.814  -3.776   6.753  1.00  0.00    -0.205 F 
ATOM     72  C   UNL     1      12.760  -7.007   5.314  1.00  0.00     0.022 A 
BRANCH  70  73
ATOM     73  S   UNL     1      13.665  -6.056   7.713  1.00  0.00     0.127 S 
ATOM     74  O   UNL     1      12.935  -7.090   8.444  1.00  0.00    -0.237 OA
ATOM     75  O   UNL     1      14.970  -6.476   7.201  1.00  0.00    -0.237 OA
ATOM     76  O   UNL     1      13.648  -4.732   8.320  1.00  0.00    -0.744 OA
ENDBRANCH  70  73
ENDBRANCH  52  66
BRANCH  53  77
ATOM     77  C   UNL     1       5.668   3.246   2.486  1.00  0.00     0.023 A 
ATOM     78  C   UNL     1       5.784   3.861   1.224  1.00  0.00     0.012 A 
ATOM     79  C   UNL     1       4.779   3.788   3.433  1.00  0.00     0.148 A 
ATOM     80  C   UNL     1       5.056   5.013   0.922  1.00  0.00     0.002 A 
ATOM     81  C   UNL     1       4.011   4.899   3.105  1.00  0.00     0.091 A 
ATOM     82  F   UNL     1       4.696   3.199   4.634  1.00  0.00    -0.205 F 
ATOM     83  C   UNL     1       4.162   5.525   1.858  1.00  0.00     0.022 A 
BRANCH  81  84
ATOM     84  S   UNL     1       2.740   5.548   4.194  1.00  0.00     0.127 S 
ATOM     85  O   UNL     1       3.304   6.841   4.573  1.00  0.00    -0.237 OA
ATOM     86  O   UNL     1       1.587   5.615   3.297  1.00  0.00    -0.237 OA
ATOM     87  O   UNL     1       2.612   4.576   5.271  1.00  0.00    -0.744 OA
ENDBRANCH  81  84
ENDBRANCH  53  77
BRANCH  65  88
ATOM     88  C   UNL     1      12.547   2.181   3.043  1.00  0.00     0.023 A 
ATOM     89  C   UNL     1      12.823   3.162   4.017  1.00  0.00     0.012 A 
ATOM     90  C   UNL     1      13.440   2.009   1.966  1.00  0.00     0.148 A 
ATOM     91  C   UNL     1      13.947   3.980   3.901  1.00  0.00     0.002 A 
ATOM     92  C   UNL     1      14.586   2.791   1.886  1.00  0.00     0.091 A 
ATOM     93  F   UNL     1      13.153   1.082   1.040  1.00  0.00    -0.205 F 
ATOM     94  C   UNL     1      14.834   3.787   2.844  1.00  0.00     0.022 A 
BRANCH  92  95
ATOM     95  S   UNL     1      15.834   2.547   0.617  1.00  0.00     0.127 S 
ATOM     96  O   UNL     1      15.670   3.751  -0.197  1.00  0.00    -0.237 OA
ATOM     97  O   UNL     1      17.068   2.504   1.401  1.00  0.00    -0.237 OA
ATOM     98  O   UNL     1      15.495   1.296  -0.048  1.00  0.00    -0.744 OA
ENDBRANCH  92  95
ENDBRANCH  65  88
ENDBRANCH  39  40
ENDBRANCH  32  34
ENDBRANCH  31  32
ENDBRANCH  30  31
ENDBRANCH  29  30
ENDBRANCH  28  29
ENDBRANCH   1  28
TORSDOF 23
