REMARK SMILES Cc1cccc(S(=O)(=O)Nc2cc(C(=O)OCCOCCOCCOC(=O)c3ccc(-c4c5nc(c(-c6cccc(S(=O)(=O)[O-])c6F)c6ccc([nH]6)c(-c6cccc(S(=O)(=O)[O-])c6F)c6nc(c(-c7cccc(S(=O)(=O)[O-])c7F)c7ccc4[nH]7)C=C6)C=C5)cc3)ccc2N2CCC[C@H](C[NH+]3CCCC3)C2)c1
REMARK SMILES IDX 20 1 19 2 18 3 17 4 16 5 14 6 15 7 13 8 11 9 12 10 93 11
REMARK SMILES IDX 92 12 91 13 10 14 7 16 8 17 9 18 6 19 1 20 2 21 3 22 106 23
REMARK SMILES IDX 4 24 5 25 94 26 95 27 105 28 96 29 98 30 97 31 99 32 100 33
REMARK SMILES IDX 101 34 104 35 102 37 103 38 21 39 22 40 23 41 24 42 25 43
REMARK SMILES IDX 26 44 27 45 28 46 29 47 90 48 30 49 89 50 31 51 32 52 33 53
REMARK SMILES IDX 83 54 34 55 88 56 82 57 84 58 35 59 87 60 81 61 80 62 36 64
REMARK SMILES IDX 68 65 48 66 67 67 49 68 52 69 66 70 85 71 50 72 51 73 65 75
REMARK SMILES IDX 86 76 53 77 37 78 38 79 46 80 39 81 41 82 47 83 40 84 42 85
REMARK SMILES IDX 43 86 44 87 45 88 69 89 70 90 78 91 71 92 73 93 79 94 72 95
REMARK SMILES IDX 74 96 75 97 76 98 77 99 54 100 55 101 63 102 56 103 58 104
REMARK SMILES IDX 64 105 57 106 59 107 60 108 61 109 62 110
REMARK H PARENT 10 15 100 36 84 63 52 74
REMARK Flexibility Score: inf
ROOT
ATOM      1  C   UNL     1       3.410   1.405  -6.184  1.00  0.00     0.188 C 
ENDROOT
BRANCH   1   2
ATOM      2  O   UNL     1       4.824   1.537  -6.169  1.00  0.00    -0.376 OA
BRANCH   2   3
ATOM      3  C   UNL     1       5.443   1.038  -4.985  1.00  0.00     0.202 C 
BRANCH   3   4
ATOM      4  C   UNL     1       4.855   1.296  -3.555  1.00  0.00     0.261 C 
BRANCH   4   5
ATOM      5  O   UNL     1       4.724   2.461  -2.466  1.00  0.00    -0.460 OA
BRANCH   5   6
ATOM      6  C   UNL     1       4.433   2.422  -1.005  1.00  0.00     0.338 C 
ATOM      7  O   UNL     1       5.202   1.801  -0.270  1.00  0.00    -0.246 OA
BRANCH   6   8
ATOM      8  C   UNL     1       3.330   2.979  -0.046  1.00  0.00     0.062 A 
ATOM      9  C   UNL     1       1.060   3.743   0.546  1.00  0.00     0.073 A 
ATOM     10  C   UNL     1       1.918   2.756   0.007  1.00  0.00     0.044 A 
ATOM     11  C   UNL     1       1.591   4.769   1.343  1.00  0.00     0.061 A 
ATOM     12  C   UNL     1       2.969   4.761   1.558  1.00  0.00     0.029 A 
ATOM     13  C   UNL     1       3.814   3.882   0.886  1.00  0.00     0.018 A 
BRANCH   9  14
ATOM     14  N   UNL     1      -0.290   3.927   0.023  1.00  0.00    -0.277 N 
ATOM     15  H   UNL     1      -0.379   4.515  -0.761  1.00  0.00     0.180 HD
BRANCH  14  16
ATOM     16  S   UNL     1      -1.730   3.236   0.619  1.00  0.00     0.261 S 
ATOM     17  O   UNL     1      -2.501   2.942  -0.610  1.00  0.00    -0.201 OA
ATOM     18  O   UNL     1      -2.288   4.115   1.575  1.00  0.00    -0.201 OA
BRANCH  16  19
ATOM     19  C   UNL     1      -1.408   1.700   1.407  1.00  0.00     0.088 A 
ATOM     20  C   UNL     1       1.704  -0.094   2.396  1.00  0.00     0.044 C 
ATOM     21  C   UNL     1       0.233   0.168   2.258  1.00  0.00    -0.050 A 
ATOM     22  C   UNL     1      -0.716  -0.849   2.183  1.00  0.00     0.003 A 
ATOM     23  C   UNL     1      -0.190   1.468   2.033  1.00  0.00     0.025 A 
ATOM     24  C   UNL     1      -2.010  -0.589   1.739  1.00  0.00     0.002 A 
ATOM     25  C   UNL     1      -2.342   0.676   1.283  1.00  0.00     0.022 A 
ENDBRANCH  16  19
ENDBRANCH  14  16
ENDBRANCH   9  14
BRANCH  11  26
ATOM     26  N   UNL     1       0.770   5.776   1.837  1.00  0.00    -0.369 N 
ATOM     27  C   UNL     1       1.208   7.164   1.729  1.00  0.00     0.116 C 
ATOM     28  C   UNL     1      -0.143   5.441   2.934  1.00  0.00     0.126 C 
ATOM     29  C   UNL     1       1.738   7.675   3.066  1.00  0.00     0.022 C 
ATOM     30  C   UNL     1       0.409   5.878   4.298  1.00  0.00     0.064 C 
ATOM     31  C   UNL     1       0.759   7.372   4.200  1.00  0.00     0.013 C 
BRANCH  30  32
ATOM     32  C   UNL     1       1.545   4.917   4.740  1.00  0.00     0.267 C 
BRANCH  32  33
ATOM     33  N   UNL     1       2.025   4.912   6.122  1.00  0.00    -0.335 N 
ATOM     34  C   UNL     1       1.019   4.609   7.130  1.00  0.00     0.262 C 
ATOM     35  C   UNL     1       2.757   6.096   6.548  1.00  0.00     0.262 C 
ATOM     36  H   UNL     1       2.684   4.135   6.071  1.00  0.00     0.348 HD
ATOM     37  C   UNL     1       0.619   5.958   7.689  1.00  0.00     0.067 C 
ATOM     38  C   UNL     1       1.887   6.790   7.590  1.00  0.00     0.067 C 
ENDBRANCH  32  33
ENDBRANCH  30  32
ENDBRANCH  11  26
ENDBRANCH   6   8
ENDBRANCH   5   6
ENDBRANCH   4   5
ENDBRANCH   3   4
ENDBRANCH   2   3
ENDBRANCH   1   2
BRANCH   1  39
ATOM     39  C   UNL     1       2.589   2.025  -7.349  1.00  0.00     0.188 C 
BRANCH  39  40
ATOM     40  O   UNL     1       3.103   1.873  -8.644  1.00  0.00    -0.376 OA
BRANCH  40  41
ATOM     41  C   UNL     1       4.459   2.264  -8.684  1.00  0.00     0.202 C 
BRANCH  41  42
ATOM     42  C   UNL     1       4.968   3.528  -7.902  1.00  0.00     0.261 C 
BRANCH  42  43
ATOM     43  O   UNL     1       4.222   4.421  -6.915  1.00  0.00    -0.460 OA
BRANCH  43  44
ATOM     44  C   UNL     1       3.475   4.952  -5.922  1.00  0.00     0.338 C 
ATOM     45  O   UNL     1       3.576   6.164  -5.722  1.00  0.00    -0.246 OA
BRANCH  44  46
ATOM     46  C   UNL     1       2.651   4.183  -4.913  1.00  0.00     0.060 A 
ATOM     47  C   UNL     1       3.006   4.289  -3.613  1.00  0.00     0.016 A 
ATOM     48  C   UNL     1       1.486   3.405  -5.063  1.00  0.00     0.016 A 
ATOM     49  C   UNL     1       2.469   3.345  -2.706  1.00  0.00     0.010 A 
ATOM     50  C   UNL     1       1.209   2.269  -4.171  1.00  0.00     0.010 A 
ATOM     51  C   UNL     1       1.924   2.069  -2.991  1.00  0.00    -0.014 A 
BRANCH  51  52
ATOM     52  C   UNL     1       2.204   0.495  -2.302  1.00  0.00     0.031 A 
ATOM     53  C   UNL     1       0.985  -0.328  -2.008  1.00  0.00     0.074 A 
ATOM     54  C   UNL     1       3.322  -0.326  -1.913  1.00  0.00     0.049 A 
ATOM     55  N   UNL     1       1.035  -1.454  -1.372  1.00  0.00    -0.248 NA
ATOM     56  C   UNL     1      -0.364   0.063  -2.352  1.00  0.00     0.031 C 
ATOM     57  C   UNL     1       3.474  -1.829  -2.054  1.00  0.00     0.029 A 
ATOM     58  N   UNL     1       4.630  -0.128  -1.503  1.00  0.00    -0.354 N 
ATOM     59  C   UNL     1      -0.204  -1.994  -1.306  1.00  0.00     0.074 A 
ATOM     60  C   UNL     1      -1.021  -1.067  -2.070  1.00  0.00     0.031 C 
ATOM     61  C   UNL     1       4.713  -2.271  -1.724  1.00  0.00     0.029 A 
ATOM     62  C   UNL     1       5.524  -1.155  -1.326  1.00  0.00     0.049 A 
ATOM     63  H   UNL     1       4.932   0.793  -1.329  1.00  0.00     0.167 HD
ATOM     64  C   UNL     1      -0.404  -3.132  -0.580  1.00  0.00     0.034 A 
ATOM     65  C   UNL     1       6.642  -1.022  -0.537  1.00  0.00     0.034 A 
ATOM     66  C   UNL     1       0.861  -3.739  -0.053  1.00  0.00     0.049 A 
ATOM     67  C   UNL     1       6.237  -1.692   0.754  1.00  0.00     0.074 A 
ATOM     68  C   UNL     1       1.827  -4.571  -0.608  1.00  0.00     0.029 A 
ATOM     69  N   UNL     1       1.435  -3.314   1.150  1.00  0.00    -0.354 N 
ATOM     70  N   UNL     1       5.199  -2.489   0.817  1.00  0.00    -0.248 NA
ATOM     71  C   UNL     1       6.902  -1.570   2.042  1.00  0.00     0.031 C 
ATOM     72  C   UNL     1       3.001  -4.529   0.217  1.00  0.00     0.029 A 
ATOM     73  C   UNL     1       2.772  -3.699   1.306  1.00  0.00     0.049 A 
ATOM     74  H   UNL     1       0.944  -2.792   1.824  1.00  0.00     0.167 HD
ATOM     75  C   UNL     1       4.878  -2.753   2.110  1.00  0.00     0.074 A 
ATOM     76  C   UNL     1       6.073  -2.296   2.818  1.00  0.00     0.031 C 
ATOM     77  C   UNL     1       3.630  -3.235   2.449  1.00  0.00     0.034 A 
BRANCH  64  78
ATOM     78  C   UNL     1      -1.796  -3.736  -0.479  1.00  0.00     0.023 A 
ATOM     79  C   UNL     1      -1.943  -5.094  -0.160  1.00  0.00     0.012 A 
ATOM     80  C   UNL     1      -3.005  -3.024  -0.708  1.00  0.00     0.148 A 
ATOM     81  C   UNL     1      -3.205  -5.716  -0.167  1.00  0.00     0.002 A 
ATOM     82  C   UNL     1      -4.234  -3.660  -0.850  1.00  0.00     0.091 A 
ATOM     83  F   UNL     1      -3.004  -1.689  -0.675  1.00  0.00    -0.205 F 
ATOM     84  C   UNL     1      -4.343  -5.014  -0.561  1.00  0.00     0.022 A 
BRANCH  82  85
ATOM     85  S   UNL     1      -5.685  -2.799  -1.489  1.00  0.00     0.127 S 
ATOM     86  O   UNL     1      -5.922  -3.509  -2.747  1.00  0.00    -0.237 OA
ATOM     87  O   UNL     1      -6.684  -3.041  -0.452  1.00  0.00    -0.237 OA
ATOM     88  O   UNL     1      -5.293  -1.404  -1.657  1.00  0.00    -0.744 OA
ENDBRANCH  82  85
ENDBRANCH  64  78
BRANCH  65  89
ATOM     89  C   UNL     1       7.527   0.230  -0.794  1.00  0.00     0.023 A 
ATOM     90  C   UNL     1       8.043   0.286  -2.119  1.00  0.00     0.012 A 
ATOM     91  C   UNL     1       7.615   1.445  -0.054  1.00  0.00     0.148 A 
ATOM     92  C   UNL     1       8.376   1.492  -2.759  1.00  0.00     0.002 A 
ATOM     93  C   UNL     1       7.859   2.673  -0.734  1.00  0.00     0.091 A 
ATOM     94  F   UNL     1       7.289   1.435   1.248  1.00  0.00    -0.205 F 
ATOM     95  C   UNL     1       8.207   2.690  -2.091  1.00  0.00     0.022 A 
BRANCH  93  96
ATOM     96  S   UNL     1       7.477   4.326  -0.066  1.00  0.00     0.127 S 
ATOM     97  O   UNL     1       8.657   5.104  -0.446  1.00  0.00    -0.237 OA
ATOM     98  O   UNL     1       6.269   4.703  -0.803  1.00  0.00    -0.237 OA
ATOM     99  O   UNL     1       7.307   4.149   1.369  1.00  0.00    -0.744 OA
ENDBRANCH  93  96
ENDBRANCH  65  89
BRANCH  77 100
ATOM    100  C   UNL     1       3.163  -3.304   3.909  1.00  0.00     0.023 A 
ATOM    101  C   UNL     1       3.884  -2.704   4.968  1.00  0.00     0.012 A 
ATOM    102  C   UNL     1       1.950  -3.922   4.289  1.00  0.00     0.148 A 
ATOM    103  C   UNL     1       3.536  -2.842   6.316  1.00  0.00     0.002 A 
ATOM    104  C   UNL     1       1.538  -3.956   5.625  1.00  0.00     0.091 A 
ATOM    105  F   UNL     1       1.176  -4.498   3.362  1.00  0.00    -0.205 F 
ATOM    106  C   UNL     1       2.353  -3.469   6.646  1.00  0.00     0.022 A 
BRANCH 104 107
ATOM    107  S   UNL     1      -0.107  -4.511   6.087  1.00  0.00     0.127 S 
ATOM    108  O   UNL     1       0.157  -5.875   6.540  1.00  0.00    -0.237 OA
ATOM    109  O   UNL     1      -0.463  -3.571   7.150  1.00  0.00    -0.237 OA
ATOM    110  O   UNL     1      -0.905  -4.377   4.875  1.00  0.00    -0.744 OA
ENDBRANCH 104 107
ENDBRANCH  77 100
ENDBRANCH  51  52
ENDBRANCH  44  46
ENDBRANCH  43  44
ENDBRANCH  42  43
ENDBRANCH  41  42
ENDBRANCH  40  41
ENDBRANCH  39  40
ENDBRANCH   1  39
TORSDOF 26
