REMARK SMILES COc1c(C)cccc1C(=O)NC(=S)Nc1ccc(C(=O)OCCOCCOCCOC(=O)c2ccc(-c3c4nc(c(-c5cccc(S(=O)(=O)[O-])c5F)c5ccc([nH]5)c(-c5cccc(S(=O)(=O)[O-])c5F)c5nc(c(-c6cccc(S(=O)(=O)[O-])c6F)c6ccc3[nH]6)C=C5)C=C4)cc2)cc1C
REMARK SMILES IDX 26 1 25 2 24 3 23 4 22 5 20 6 21 7 19 8 16 9 17 10 98 11
REMARK SMILES IDX 18 12 97 13 99 14 15 15 13 17 14 18 12 19 10 20 11 21 9 23
REMARK SMILES IDX 3 24 4 25 5 26 6 27 8 28 7 29 2 30 1 31 27 32 28 33 29 34
REMARK SMILES IDX 30 35 31 36 32 37 33 38 34 39 35 40 96 41 36 42 95 43 37 44
REMARK SMILES IDX 38 45 39 46 89 47 40 48 94 49 88 50 90 51 41 52 93 53 87 54
REMARK SMILES IDX 86 55 42 57 74 58 54 59 73 60 55 61 58 62 72 63 91 64 56 65
REMARK SMILES IDX 57 66 71 68 92 69 59 70 43 71 44 72 52 73 45 74 47 75 53 76
REMARK SMILES IDX 46 77 48 78 49 79 50 80 51 81 75 82 76 83 84 84 77 85 79 86
REMARK SMILES IDX 85 87 78 88 80 89 81 90 82 91 83 92 60 93 61 94 69 95 62 96
REMARK SMILES IDX 64 97 70 98 63 99 65 100 66 101 67 102 68 103
REMARK H PARENT 15 16 12 22 90 56 58 67
REMARK Flexibility Score: inf
ROOT
ATOM      1  C   UNL     1       4.319   9.238  -1.044  1.00  0.00     0.188 C 
ENDROOT
BRANCH   1   2
ATOM      2  O   UNL     1       2.930   9.602  -1.190  1.00  0.00    -0.376 OA
BRANCH   2   3
ATOM      3  C   UNL     1       1.837   9.350  -0.254  1.00  0.00     0.202 C 
BRANCH   3   4
ATOM      4  C   UNL     1       0.527   8.134  -0.068  1.00  0.00     0.261 C 
BRANCH   4   5
ATOM      5  O   UNL     1       0.405   6.264  -0.277  1.00  0.00    -0.460 OA
BRANCH   5   6
ATOM      6  C   UNL     1       0.587   5.121  -1.369  1.00  0.00     0.338 C 
ATOM      7  O   UNL     1       0.418   5.400  -2.553  1.00  0.00    -0.246 OA
BRANCH   6   8
ATOM      8  C   UNL     1       0.765   3.492  -1.325  1.00  0.00     0.060 A 
ATOM      9  C   UNL     1      -0.330   0.064  -1.223  1.00  0.00     0.043 A 
ATOM     10  C   UNL     1      -1.169   1.356  -0.292  1.00  0.00     0.027 A 
ATOM     11  C   UNL     1       1.062   0.305  -2.218  1.00  0.00    -0.027 A 
ATOM     12  C   UNL     1      -0.649   3.047  -0.310  1.00  0.00     0.018 A 
ATOM     13  C   UNL     1       1.635   1.974  -2.357  1.00  0.00     0.021 A 
ATOM     14  C   UNL     1       1.774  -0.710  -3.049  1.00  0.00     0.046 C 
BRANCH   9  15
ATOM     15  N   UNL     1      -1.114  -1.010  -1.599  1.00  0.00    -0.332 N 
ATOM     16  H   UNL     1      -0.832  -1.940  -1.441  1.00  0.00     0.169 HD
BRANCH  15  17
ATOM     17  C   UNL     1      -2.294  -0.711  -2.200  1.00  0.00     0.177 C 
ATOM     18  S   UNL     1      -3.406  -1.910  -2.518  1.00  0.00    -0.040 S 
BRANCH  17  19
ATOM     19  N   UNL     1      -2.494   0.598  -2.608  1.00  0.00    -0.299 N 
ATOM     20  C   UNL     1      -1.744   1.801  -2.680  1.00  0.00     0.261 C 
ATOM     21  O   UNL     1      -2.321   2.719  -3.274  1.00  0.00    -0.269 OA
ATOM     22  H   UNL     1      -3.410   0.730  -2.942  1.00  0.00     0.172 HD
BRANCH  20  23
ATOM     23  C   UNL     1      -0.230   2.063  -2.165  1.00  0.00     0.082 A 
ATOM     24  C   UNL     1       1.034   1.735  -0.605  1.00  0.00     0.134 A 
ATOM     25  C   UNL     1       2.655   2.553  -0.646  1.00  0.00    -0.008 A 
ATOM     26  C   UNL     1       3.849   1.968   0.056  1.00  0.00     0.048 C 
ATOM     27  C   UNL     1       3.037   3.581  -2.024  1.00  0.00     0.007 A 
ATOM     28  C   UNL     1       0.362   3.131  -3.506  1.00  0.00     0.018 A 
ATOM     29  C   UNL     1       1.964   3.857  -3.394  1.00  0.00     0.001 A 
BRANCH  24  30
ATOM     30  O   UNL     1       0.866   1.258   0.726  1.00  0.00    -0.496 OA
ATOM     31  C   UNL     1       1.471   0.023   1.082  1.00  0.00     0.278 C 
ENDBRANCH  24  30
ENDBRANCH  20  23
ENDBRANCH  17  19
ENDBRANCH  15  17
ENDBRANCH   9  15
ENDBRANCH   6   8
ENDBRANCH   5   6
ENDBRANCH   4   5
ENDBRANCH   3   4
ENDBRANCH   2   3
ENDBRANCH   1   2
BRANCH   1  32
ATOM     32  C   UNL     1       4.976   9.229   0.309  1.00  0.00     0.188 C 
BRANCH  32  33
ATOM     33  O   UNL     1       3.969   8.913   1.228  1.00  0.00    -0.376 OA
BRANCH  33  34
ATOM     34  C   UNL     1       4.121   9.392   2.531  1.00  0.00     0.202 C 
BRANCH  34  35
ATOM     35  C   UNL     1       5.211   8.605   3.245  1.00  0.00     0.261 C 
BRANCH  35  36
ATOM     36  O   UNL     1       4.863   7.203   3.399  1.00  0.00    -0.460 OA
BRANCH  36  37
ATOM     37  C   UNL     1       5.402   6.305   2.494  1.00  0.00     0.338 C 
ATOM     38  O   UNL     1       6.499   5.798   2.640  1.00  0.00    -0.246 OA
BRANCH  37  39
ATOM     39  C   UNL     1       4.453   6.022   1.375  1.00  0.00     0.060 A 
ATOM     40  C   UNL     1       4.761   5.831   0.010  1.00  0.00     0.016 A 
ATOM     41  C   UNL     1       3.164   6.245   1.672  1.00  0.00     0.016 A 
ATOM     42  C   UNL     1       3.844   6.183  -1.095  1.00  0.00     0.010 A 
ATOM     43  C   UNL     1       2.381   6.659   0.609  1.00  0.00     0.010 A 
ATOM     44  C   UNL     1       2.591   6.746  -0.878  1.00  0.00    -0.014 A 
BRANCH  44  45
ATOM     45  C   UNL     1       1.471   7.445  -2.155  1.00  0.00     0.031 A 
ATOM     46  C   UNL     1      -0.379   7.411  -2.298  1.00  0.00     0.074 A 
ATOM     47  C   UNL     1       1.953   8.125  -3.221  1.00  0.00     0.049 A 
ATOM     48  N   UNL     1      -1.041   7.362  -3.432  1.00  0.00    -0.248 NA
ATOM     49  C   UNL     1      -1.472   7.171  -1.205  1.00  0.00     0.031 C 
ATOM     50  C   UNL     1       1.196   9.030  -4.090  1.00  0.00     0.029 A 
ATOM     51  N   UNL     1       3.261   8.262  -3.682  1.00  0.00    -0.354 N 
ATOM     52  C   UNL     1      -2.411   7.136  -3.167  1.00  0.00     0.074 A 
ATOM     53  C   UNL     1      -2.585   6.843  -1.807  1.00  0.00     0.031 C 
ATOM     54  C   UNL     1       1.980   9.430  -5.101  1.00  0.00     0.029 A 
ATOM     55  C   UNL     1       3.209   8.674  -5.016  1.00  0.00     0.049 A 
ATOM     56  H   UNL     1       4.078   8.097  -3.158  1.00  0.00     0.167 HD
ATOM     57  C   UNL     1      -3.409   7.449  -4.027  1.00  0.00     0.034 A 
ATOM     58  C   UNL     1       3.809   7.932  -5.982  1.00  0.00     0.034 A 
ATOM     59  C   UNL     1      -2.792   7.996  -5.211  1.00  0.00     0.049 A 
ATOM     60  C   UNL     1       2.780   7.400  -6.959  1.00  0.00     0.074 A 
ATOM     61  C   UNL     1      -2.373   9.267  -5.562  1.00  0.00     0.029 A 
ATOM     62  N   UNL     1      -2.026   7.123  -5.958  1.00  0.00    -0.354 N 
ATOM     63  N   UNL     1       1.504   7.688  -6.907  1.00  0.00    -0.248 NA
ATOM     64  C   UNL     1       3.076   6.491  -8.057  1.00  0.00     0.031 C 
ATOM     65  C   UNL     1      -1.397   9.132  -6.595  1.00  0.00     0.029 A 
ATOM     66  C   UNL     1      -1.267   7.788  -6.897  1.00  0.00     0.049 A 
ATOM     67  H   UNL     1      -2.023   6.146  -5.836  1.00  0.00     0.167 HD
ATOM     68  C   UNL     1       0.798   6.951  -7.819  1.00  0.00     0.074 A 
ATOM     69  C   UNL     1       1.843   6.229  -8.533  1.00  0.00     0.031 C 
ATOM     70  C   UNL     1      -0.576   6.978  -7.886  1.00  0.00     0.034 A 
BRANCH  57  71
ATOM     71  C   UNL     1      -4.845   7.644  -3.522  1.00  0.00     0.023 A 
ATOM     72  C   UNL     1      -5.502   8.807  -3.959  1.00  0.00     0.012 A 
ATOM     73  C   UNL     1      -5.540   6.861  -2.545  1.00  0.00     0.148 A 
ATOM     74  C   UNL     1      -6.715   9.235  -3.405  1.00  0.00     0.002 A 
ATOM     75  C   UNL     1      -6.711   7.336  -1.929  1.00  0.00     0.091 A 
ATOM     76  F   UNL     1      -5.066   5.653  -2.199  1.00  0.00    -0.205 F 
ATOM     77  C   UNL     1      -7.300   8.524  -2.366  1.00  0.00     0.022 A 
BRANCH  75  78
ATOM     78  S   UNL     1      -7.442   6.584  -0.450  1.00  0.00     0.127 S 
ATOM     79  O   UNL     1      -7.766   7.754   0.375  1.00  0.00    -0.237 OA
ATOM     80  O   UNL     1      -8.610   5.888  -0.980  1.00  0.00    -0.237 OA
ATOM     81  O   UNL     1      -6.399   5.743   0.127  1.00  0.00    -0.744 OA
ENDBRANCH  75  78
ENDBRANCH  57  71
BRANCH  58  82
ATOM     82  C   UNL     1       5.124   7.374  -5.502  1.00  0.00     0.023 A 
ATOM     83  C   UNL     1       6.081   8.351  -5.089  1.00  0.00     0.012 A 
ATOM     84  C   UNL     1       5.332   6.045  -5.089  1.00  0.00     0.148 A 
ATOM     85  C   UNL     1       7.100   8.057  -4.179  1.00  0.00     0.002 A 
ATOM     86  C   UNL     1       6.387   5.749  -4.209  1.00  0.00     0.091 A 
ATOM     87  F   UNL     1       4.469   5.106  -5.494  1.00  0.00    -0.205 F 
ATOM     88  C   UNL     1       7.232   6.760  -3.716  1.00  0.00     0.022 A 
BRANCH  86  89
ATOM     89  S   UNL     1       6.745   4.098  -3.587  1.00  0.00     0.127 S 
ATOM     90  O   UNL     1       8.139   3.921  -3.991  1.00  0.00    -0.237 OA
ATOM     91  O   UNL     1       6.555   4.265  -2.148  1.00  0.00    -0.237 OA
ATOM     92  O   UNL     1       5.795   3.212  -4.241  1.00  0.00    -0.744 OA
ENDBRANCH  86  89
ENDBRANCH  58  82
BRANCH  70  93
ATOM     93  C   UNL     1      -1.447   6.200  -8.875  1.00  0.00     0.023 A 
ATOM     94  C   UNL     1      -0.949   5.822 -10.128  1.00  0.00     0.012 A 
ATOM     95  C   UNL     1      -2.829   5.911  -8.645  1.00  0.00     0.148 A 
ATOM     96  C   UNL     1      -1.719   5.082 -11.036  1.00  0.00     0.002 A 
ATOM     97  C   UNL     1      -3.598   5.191  -9.547  1.00  0.00     0.091 A 
ATOM     98  F   UNL     1      -3.463   6.378  -7.571  1.00  0.00    -0.205 F 
ATOM     99  C   UNL     1      -3.034   4.747 -10.737  1.00  0.00     0.022 A 
BRANCH  97 100
ATOM    100  S   UNL     1      -5.344   4.844  -9.262  1.00  0.00     0.127 S 
ATOM    101  O   UNL     1      -5.975   5.650 -10.308  1.00  0.00    -0.237 OA
ATOM    102  O   UNL     1      -5.400   3.399  -9.489  1.00  0.00    -0.237 OA
ATOM    103  O   UNL     1      -5.641   5.258  -7.899  1.00  0.00    -0.744 OA
ENDBRANCH  97 100
ENDBRANCH  70  93
ENDBRANCH  44  45
ENDBRANCH  37  39
ENDBRANCH  36  37
ENDBRANCH  35  36
ENDBRANCH  34  35
ENDBRANCH  33  34
ENDBRANCH  32  33
ENDBRANCH   1  32
TORSDOF 25
