REMARK SMILES CCOc1cccc2c(SCC(=O)OCCOCCOCCOC(=O)c3ccc(-c4c5nc(c(-c6cccc(S(=O)(=O)[O-])c6F)c6ccc([nH]6)c(-c6cccc(S(=O)(=O)[O-])c6F)c6nc(c(-c7cccc(S(=O)(=O)[O-])c7F)c7ccc4[nH]7)C=C6)C=C5)cc3)cc(C)nc12
REMARK SMILES IDX 18 1 17 2 16 3 15 4 14 5 12 6 13 7 11 8 10 9 9 10 4 11 5 12
REMARK SMILES IDX 93 13 6 14 8 15 92 16 7 17 90 18 89 19 91 20 3 21 2 22 1 23
REMARK SMILES IDX 19 24 20 25 21 26 22 27 23 28 24 29 25 30 26 31 27 32 88 33
REMARK SMILES IDX 28 34 87 35 29 36 30 37 31 38 81 39 32 40 86 41 80 42 82 43
REMARK SMILES IDX 33 44 85 45 79 46 78 47 34 49 66 50 46 51 65 52 47 53 50 54
REMARK SMILES IDX 64 55 83 56 48 57 49 58 63 60 84 61 51 62 35 63 36 64 44 65
REMARK SMILES IDX 37 66 39 67 45 68 38 69 40 70 41 71 42 72 43 73 67 74 68 75
REMARK SMILES IDX 76 76 69 77 71 78 77 79 70 80 72 81 73 82 74 83 75 84 52 85
REMARK SMILES IDX 53 86 61 87 54 88 56 89 62 90 55 91 57 92 58 93 59 94 60 95
REMARK H PARENT 82 48 50 59
REMARK Flexibility Score: inf
ROOT
ATOM      1  C   UNL     1       6.110  -2.976   0.346  1.00  0.00     0.188 C 
ENDROOT
BRANCH   1   2
ATOM      2  O   UNL     1       6.966  -3.664   1.251  1.00  0.00    -0.376 OA
BRANCH   2   3
ATOM      3  C   UNL     1       8.105  -2.974   1.758  1.00  0.00     0.202 C 
BRANCH   3   4
ATOM      4  C   UNL     1       9.068  -2.443   0.693  1.00  0.00     0.261 C 
BRANCH   4   5
ATOM      5  O   UNL     1       8.510  -1.252   0.104  1.00  0.00    -0.463 OA
BRANCH   5   6
ATOM      6  C   UNL     1       8.943  -0.918  -1.139  1.00  0.00     0.316 C 
ATOM      7  O   UNL     1       9.937  -1.406  -1.665  1.00  0.00    -0.251 OA
BRANCH   6   8
ATOM      8  C   UNL     1       7.936  -0.051  -1.886  1.00  0.00     0.197 C 
BRANCH   8   9
ATOM      9  S   UNL     1       7.419   1.462  -0.985  1.00  0.00    -0.114 SA
BRANCH   9  10
ATOM     10  C   UNL     1       5.624   1.637  -1.298  1.00  0.00     0.019 A 
ATOM     11  C   UNL     1       2.605   3.236   0.185  1.00  0.00     0.145 A 
ATOM     12  C   UNL     1       3.126   4.120   1.127  1.00  0.00     0.049 A 
ATOM     13  C   UNL     1       3.428   2.477  -0.657  1.00  0.00     0.114 A 
ATOM     14  C   UNL     1       4.500   4.192   1.295  1.00  0.00     0.005 A 
ATOM     15  C   UNL     1       4.828   2.485  -0.456  1.00  0.00     0.018 A 
ATOM     16  N   UNL     1       2.864   1.794  -1.659  1.00  0.00    -0.249 NA
ATOM     17  C   UNL     1       5.336   3.362   0.541  1.00  0.00     0.012 A 
ATOM     18  C   UNL     1       3.630   1.119  -2.530  1.00  0.00     0.039 A 
ATOM     19  C   UNL     1       5.002   0.988  -2.370  1.00  0.00     0.039 A 
ATOM     20  C   UNL     1       2.891   0.570  -3.708  1.00  0.00     0.067 C 
BRANCH  11  21
ATOM     21  O   UNL     1       1.230   3.203   0.057  1.00  0.00    -0.492 OA
BRANCH  21  22
ATOM     22  C   UNL     1       0.673   2.109   0.805  1.00  0.00     0.226 C 
ATOM     23  C   UNL     1      -0.060   1.148  -0.116  1.00  0.00     0.049 C 
ENDBRANCH  21  22
ENDBRANCH  11  21
ENDBRANCH   9  10
ENDBRANCH   8   9
ENDBRANCH   6   8
ENDBRANCH   5   6
ENDBRANCH   4   5
ENDBRANCH   3   4
ENDBRANCH   2   3
ENDBRANCH   1   2
BRANCH   1  24
ATOM     24  C   UNL     1       5.648  -1.549   0.713  1.00  0.00     0.188 C 
BRANCH  24  25
ATOM     25  O   UNL     1       5.510  -1.191   2.076  1.00  0.00    -0.376 OA
BRANCH  25  26
ATOM     26  C   UNL     1       4.788  -2.090   2.901  1.00  0.00     0.202 C 
BRANCH  26  27
ATOM     27  C   UNL     1       3.317  -2.296   2.541  1.00  0.00     0.261 C 
BRANCH  27  28
ATOM     28  O   UNL     1       3.129  -2.815   1.208  1.00  0.00    -0.460 OA
BRANCH  28  29
ATOM     29  C   UNL     1       2.290  -2.075   0.441  1.00  0.00     0.338 C 
ATOM     30  O   UNL     1       1.697  -1.073   0.793  1.00  0.00    -0.246 OA
BRANCH  29  31
ATOM     31  C   UNL     1       2.142  -2.616  -0.925  1.00  0.00     0.060 A 
ATOM     32  C   UNL     1       3.146  -2.460  -1.882  1.00  0.00     0.016 A 
ATOM     33  C   UNL     1       0.878  -3.056  -1.315  1.00  0.00     0.016 A 
ATOM     34  C   UNL     1       2.855  -2.658  -3.235  1.00  0.00     0.010 A 
ATOM     35  C   UNL     1       0.606  -3.298  -2.667  1.00  0.00     0.010 A 
ATOM     36  C   UNL     1       1.572  -3.043  -3.653  1.00  0.00    -0.014 A 
BRANCH  36  37
ATOM     37  C   UNL     1       1.208  -3.099  -5.102  1.00  0.00     0.031 A 
ATOM     38  C   UNL     1       0.035  -2.303  -5.630  1.00  0.00     0.074 A 
ATOM     39  C   UNL     1       1.919  -3.852  -5.965  1.00  0.00     0.049 A 
ATOM     40  N   UNL     1      -0.589  -2.411  -6.776  1.00  0.00    -0.248 NA
ATOM     41  C   UNL     1      -0.503  -1.243  -4.760  1.00  0.00     0.031 C 
ATOM     42  C   UNL     1       3.124  -4.612  -5.634  1.00  0.00     0.029 A 
ATOM     43  N   UNL     1       1.711  -4.125  -7.298  1.00  0.00    -0.354 N 
ATOM     44  C   UNL     1      -1.630  -1.489  -6.738  1.00  0.00     0.074 A 
ATOM     45  C   UNL     1      -1.537  -0.804  -5.467  1.00  0.00     0.031 C 
ATOM     46  C   UNL     1       3.548  -5.264  -6.724  1.00  0.00     0.029 A 
ATOM     47  C   UNL     1       2.577  -5.071  -7.796  1.00  0.00     0.049 A 
ATOM     48  H   UNL     1       1.015  -3.688  -7.839  1.00  0.00     0.167 HD
ATOM     49  C   UNL     1      -2.579  -1.239  -7.673  1.00  0.00     0.034 A 
ATOM     50  C   UNL     1       2.553  -5.784  -8.940  1.00  0.00     0.034 A 
ATOM     51  C   UNL     1      -2.642  -1.885  -8.958  1.00  0.00     0.049 A 
ATOM     52  C   UNL     1       1.443  -5.563  -9.924  1.00  0.00     0.074 A 
ATOM     53  C   UNL     1      -3.562  -1.690  -9.975  1.00  0.00     0.029 A 
ATOM     54  N   UNL     1      -1.751  -2.846  -9.407  1.00  0.00    -0.354 N 
ATOM     55  N   UNL     1       0.457  -4.702  -9.871  1.00  0.00    -0.248 NA
ATOM     56  C   UNL     1       1.440  -6.411 -11.124  1.00  0.00     0.031 C 
ATOM     57  C   UNL     1      -3.240  -2.551 -11.030  1.00  0.00     0.029 A 
ATOM     58  C   UNL     1      -2.106  -3.264 -10.679  1.00  0.00     0.049 A 
ATOM     59  H   UNL     1      -0.979  -3.183  -8.897  1.00  0.00     0.167 HD
ATOM     60  C   UNL     1      -0.276  -4.892 -11.036  1.00  0.00     0.074 A 
ATOM     61  C   UNL     1       0.394  -5.934 -11.787  1.00  0.00     0.031 C 
ATOM     62  C   UNL     1      -1.411  -4.270 -11.438  1.00  0.00     0.034 A 
BRANCH  49  63
ATOM     63  C   UNL     1      -3.645  -0.221  -7.357  1.00  0.00     0.023 A 
ATOM     64  C   UNL     1      -3.354   1.154  -7.443  1.00  0.00     0.012 A 
ATOM     65  C   UNL     1      -4.965  -0.632  -7.080  1.00  0.00     0.148 A 
ATOM     66  C   UNL     1      -4.358   2.104  -7.247  1.00  0.00     0.002 A 
ATOM     67  C   UNL     1      -5.968   0.319  -6.924  1.00  0.00     0.091 A 
ATOM     68  F   UNL     1      -5.217  -1.946  -6.980  1.00  0.00    -0.205 F 
ATOM     69  C   UNL     1      -5.665   1.687  -7.001  1.00  0.00     0.022 A 
BRANCH  67  70
ATOM     70  S   UNL     1      -7.692  -0.128  -6.685  1.00  0.00     0.127 S 
ATOM     71  O   UNL     1      -7.884   0.181  -5.269  1.00  0.00    -0.237 OA
ATOM     72  O   UNL     1      -8.380   0.778  -7.605  1.00  0.00    -0.237 OA
ATOM     73  O   UNL     1      -7.792  -1.538  -7.038  1.00  0.00    -0.744 OA
ENDBRANCH  67  70
ENDBRANCH  49  63
BRANCH  50  74
ATOM     74  C   UNL     1       3.601  -6.818  -9.171  1.00  0.00     0.023 A 
ATOM     75  C   UNL     1       4.568  -6.626 -10.173  1.00  0.00     0.012 A 
ATOM     76  C   UNL     1       3.693  -7.949  -8.333  1.00  0.00     0.148 A 
ATOM     77  C   UNL     1       5.611  -7.541 -10.334  1.00  0.00     0.002 A 
ATOM     78  C   UNL     1       4.776  -8.810  -8.447  1.00  0.00     0.091 A 
ATOM     79  F   UNL     1       2.739  -8.137  -7.410  1.00  0.00    -0.205 F 
ATOM     80  C   UNL     1       5.728  -8.618  -9.457  1.00  0.00     0.022 A 
BRANCH  78  81
ATOM     81  S   UNL     1       5.091 -10.092  -7.228  1.00  0.00     0.127 S 
ATOM     82  O   UNL     1       4.642 -11.291  -7.928  1.00  0.00    -0.237 OA
ATOM     83  O   UNL     1       6.539  -9.990  -7.042  1.00  0.00    -0.237 OA
ATOM     84  O   UNL     1       4.317  -9.705  -6.055  1.00  0.00    -0.744 OA
ENDBRANCH  78  81
ENDBRANCH  50  74
BRANCH  62  85
ATOM     85  C   UNL     1      -1.993  -4.676 -12.764  1.00  0.00     0.023 A 
ATOM     86  C   UNL     1      -2.684  -5.898 -12.878  1.00  0.00     0.012 A 
ATOM     87  C   UNL     1      -1.908  -3.820 -13.880  1.00  0.00     0.148 A 
ATOM     88  C   UNL     1      -3.259  -6.275 -14.091  1.00  0.00     0.002 A 
ATOM     89  C   UNL     1      -2.518  -4.184 -15.074  1.00  0.00     0.091 A 
ATOM     90  F   UNL     1      -1.229  -2.671 -13.754  1.00  0.00    -0.205 F 
ATOM     91  C   UNL     1      -3.184  -5.415 -15.185  1.00  0.00     0.022 A 
BRANCH  89  92
ATOM     92  S   UNL     1      -2.540  -3.107 -16.511  1.00  0.00     0.127 S 
ATOM     93  O   UNL     1      -1.601  -3.783 -17.405  1.00  0.00    -0.237 OA
ATOM     94  O   UNL     1      -3.940  -3.177 -16.931  1.00  0.00    -0.237 OA
ATOM     95  O   UNL     1      -2.118  -1.796 -16.036  1.00  0.00    -0.744 OA
ENDBRANCH  89  92
ENDBRANCH  62  85
ENDBRANCH  36  37
ENDBRANCH  29  31
ENDBRANCH  28  29
ENDBRANCH  27  28
ENDBRANCH  26  27
ENDBRANCH  25  26
ENDBRANCH  24  25
ENDBRANCH   1  24
TORSDOF 24
