REMARK SMILES CCc1ccsc1CNC(=O)N1[C@H]2CC[C@@H]1[C@H](C(=O)OCCOCCOCCOC(=O)c1ccc(-c3c4nc(c(-c5cccc(S(=O)(=O)[O-])c5F)c5ccc([nH]5)c(-c5cccc(S(=O)(=O)[O-])c5F)c5nc(c(-c6cccc(S(=O)(=O)[O-])c6F)c6ccc3[nH]6)C=C5)C=C4)cc1)C2
REMARK SMILES IDX 24 1 23 2 22 3 21 4 20 5 18 6 19 7 17 8 12 9 13 10 16 11
REMARK SMILES IDX 14 12 95 13 15 14 10 15 9 16 11 18 8 19 7 20 3 21 4 22 5 23
REMARK SMILES IDX 6 24 2 25 1 26 25 27 26 28 27 29 28 30 29 31 30 32 31 33
REMARK SMILES IDX 32 34 33 35 94 36 34 37 93 38 35 39 36 40 37 41 87 42 38 43
REMARK SMILES IDX 92 44 86 45 88 46 39 47 91 48 85 49 84 50 40 52 72 53 52 54
REMARK SMILES IDX 71 55 53 56 56 57 70 58 89 59 54 60 55 61 69 63 90 64 57 65
REMARK SMILES IDX 41 66 42 67 50 68 43 69 45 70 51 71 44 72 46 73 47 74 48 75
REMARK SMILES IDX 49 76 73 77 74 78 82 79 75 80 77 81 83 82 76 83 78 84 79 85
REMARK SMILES IDX 80 86 81 87 58 88 59 89 67 90 60 91 62 92 68 93 61 94 63 95
REMARK SMILES IDX 64 96 65 97 66 98
REMARK H PARENT 9 17 88 51 56 62
REMARK Flexibility Score: inf
ROOT
ATOM      1  C   UNL     1      -1.926  10.027  -2.096  1.00  0.00     0.188 C 
ENDROOT
BRANCH   1   2
ATOM      2  O   UNL     1      -2.230  10.522  -3.394  1.00  0.00    -0.376 OA
BRANCH   2   3
ATOM      3  C   UNL     1      -3.267   9.907  -4.149  1.00  0.00     0.202 C 
BRANCH   3   4
ATOM      4  C   UNL     1      -3.318   8.373  -4.266  1.00  0.00     0.261 C 
BRANCH   4   5
ATOM      5  O   UNL     1      -3.384   7.661  -3.010  1.00  0.00    -0.463 OA
BRANCH   5   6
ATOM      6  C   UNL     1      -2.432   6.724  -2.813  1.00  0.00     0.311 C 
ATOM      7  O   UNL     1      -1.600   6.406  -3.660  1.00  0.00    -0.252 OA
BRANCH   6   8
ATOM      8  C   UNL     1      -2.450   6.028  -1.470  1.00  0.00     0.124 C 
ATOM      9  N   UNL     1      -3.225   5.101   0.453  1.00  0.00    -0.318 N 
ATOM     10  C   UNL     1      -3.707   4.189  -0.556  1.00  0.00     0.088 C 
ATOM     11  C   UNL     1      -3.360   6.358  -0.261  1.00  0.00     0.101 C 
ATOM     12  C   UNL     1      -5.081   4.818  -0.878  1.00  0.00     0.027 C 
ATOM     13  C   UNL     1      -2.753   4.522  -1.710  1.00  0.00     0.042 C 
ATOM     14  C   UNL     1      -4.851   6.316  -0.590  1.00  0.00     0.028 C 
BRANCH   9  15
ATOM     15  C   UNL     1      -2.804   4.971   1.727  1.00  0.00     0.318 C 
ATOM     16  N   UNL     1      -2.179   3.837   2.115  1.00  0.00    -0.333 N 
ATOM     17  H   UNL     1      -2.208   3.644   3.080  1.00  0.00     0.165 HD
ATOM     18  O   UNL     1      -2.930   5.878   2.549  1.00  0.00    -0.249 OA
BRANCH  16  19
ATOM     19  C   UNL     1      -1.476   2.870   1.305  1.00  0.00     0.165 C 
BRANCH  19  20
ATOM     20  C   UNL     1       0.020   2.993   1.435  1.00  0.00     0.027 A 
ATOM     21  C   UNL     1       0.963   1.969   1.439  1.00  0.00    -0.033 A 
ATOM     22  C   UNL     1       2.299   2.494   1.503  1.00  0.00     0.016 A 
ATOM     23  C   UNL     1       2.334   3.868   1.508  1.00  0.00     0.065 A 
ATOM     24  S   UNL     1       0.772   4.541   1.444  1.00  0.00    -0.147 S 
BRANCH  21  25
ATOM     25  C   UNL     1       0.666   0.498   1.355  1.00  0.00     0.033 C 
ATOM     26  C   UNL     1       1.001  -0.082  -0.012  1.00  0.00     0.009 C 
ENDBRANCH  21  25
ENDBRANCH  19  20
ENDBRANCH  16  19
ENDBRANCH   9  15
ENDBRANCH   6   8
ENDBRANCH   5   6
ENDBRANCH   4   5
ENDBRANCH   3   4
ENDBRANCH   2   3
ENDBRANCH   1   2
BRANCH   1  27
ATOM     27  C   UNL     1      -3.088   9.729  -1.138  1.00  0.00     0.188 C 
BRANCH  27  28
ATOM     28  O   UNL     1      -4.376   9.921  -1.672  1.00  0.00    -0.376 OA
BRANCH  28  29
ATOM     29  C   UNL     1      -5.153  11.012  -1.218  1.00  0.00     0.202 C 
BRANCH  29  30
ATOM     30  C   UNL     1      -4.536  12.399  -0.965  1.00  0.00     0.261 C 
BRANCH  30  31
ATOM     31  O   UNL     1      -3.205  12.446  -0.434  1.00  0.00    -0.460 OA
BRANCH  31  32
ATOM     32  C   UNL     1      -3.056  12.226   0.894  1.00  0.00     0.338 C 
ATOM     33  O   UNL     1      -3.945  11.993   1.699  1.00  0.00    -0.246 OA
BRANCH  32  34
ATOM     34  C   UNL     1      -1.606  12.081   1.155  1.00  0.00     0.060 A 
ATOM     35  C   UNL     1      -1.117  10.866   1.660  1.00  0.00     0.016 A 
ATOM     36  C   UNL     1      -0.729  13.127   0.863  1.00  0.00     0.016 A 
ATOM     37  C   UNL     1       0.250  10.705   1.899  1.00  0.00     0.010 A 
ATOM     38  C   UNL     1       0.635  12.972   1.125  1.00  0.00     0.010 A 
ATOM     39  C   UNL     1       1.127  11.773   1.673  1.00  0.00    -0.014 A 
BRANCH  39  40
ATOM     40  C   UNL     1       2.516  11.725   2.191  1.00  0.00     0.031 A 
ATOM     41  C   UNL     1       2.814  12.418   3.492  1.00  0.00     0.074 A 
ATOM     42  C   UNL     1       3.503  11.113   1.513  1.00  0.00     0.049 A 
ATOM     43  N   UNL     1       3.955  12.583   4.106  1.00  0.00    -0.248 NA
ATOM     44  C   UNL     1       1.662  13.016   4.187  1.00  0.00     0.031 C 
ATOM     45  C   UNL     1       3.344  10.391   0.254  1.00  0.00     0.029 A 
ATOM     46  N   UNL     1       4.846  11.031   1.785  1.00  0.00    -0.354 N 
ATOM     47  C   UNL     1       3.668  13.335   5.239  1.00  0.00     0.074 A 
ATOM     48  C   UNL     1       2.247  13.607   5.217  1.00  0.00     0.031 C 
ATOM     49  C   UNL     1       4.551   9.957  -0.153  1.00  0.00     0.029 A 
ATOM     50  C   UNL     1       5.568  10.399   0.801  1.00  0.00     0.049 A 
ATOM     51  H   UNL     1       5.254  11.391   2.606  1.00  0.00     0.167 HD
ATOM     52  C   UNL     1       4.506  13.753   6.217  1.00  0.00     0.034 A 
ATOM     53  C   UNL     1       6.899  10.219   0.675  1.00  0.00     0.034 A 
ATOM     54  C   UNL     1       5.917  13.479   6.239  1.00  0.00     0.049 A 
ATOM     55  C   UNL     1       7.822  10.738   1.749  1.00  0.00     0.074 A 
ATOM     56  C   UNL     1       6.845  13.818   7.207  1.00  0.00     0.029 A 
ATOM     57  N   UNL     1       6.610  12.820   5.235  1.00  0.00    -0.354 N 
ATOM     58  N   UNL     1       7.527  11.354   2.869  1.00  0.00    -0.248 NA
ATOM     59  C   UNL     1       9.262  10.509   1.554  1.00  0.00     0.031 C 
ATOM     60  C   UNL     1       8.107  13.404   6.766  1.00  0.00     0.029 A 
ATOM     61  C   UNL     1       7.958  12.762   5.547  1.00  0.00     0.049 A 
ATOM     62  H   UNL     1       6.204  12.448   4.419  1.00  0.00     0.167 HD
ATOM     63  C   UNL     1       8.737  11.548   3.530  1.00  0.00     0.074 A 
ATOM     64  C   UNL     1       9.767  10.973   2.689  1.00  0.00     0.031 C 
ATOM     65  C   UNL     1       8.972  12.150   4.724  1.00  0.00     0.034 A 
BRANCH  52  66
ATOM     66  C   UNL     1       3.904  14.559   7.341  1.00  0.00     0.023 A 
ATOM     67  C   UNL     1       3.020  13.947   8.254  1.00  0.00     0.012 A 
ATOM     68  C   UNL     1       4.215  15.925   7.494  1.00  0.00     0.148 A 
ATOM     69  C   UNL     1       2.412  14.692   9.264  1.00  0.00     0.002 A 
ATOM     70  C   UNL     1       3.647  16.648   8.536  1.00  0.00     0.091 A 
ATOM     71  F   UNL     1       5.039  16.498   6.605  1.00  0.00    -0.205 F 
ATOM     72  C   UNL     1       2.732  16.039   9.409  1.00  0.00     0.022 A 
BRANCH  70  73
ATOM     73  S   UNL     1       4.062  18.366   8.855  1.00  0.00     0.127 S 
ATOM     74  O   UNL     1       2.849  19.051   8.413  1.00  0.00    -0.237 OA
ATOM     75  O   UNL     1       4.269  18.368  10.304  1.00  0.00    -0.237 OA
ATOM     76  O   UNL     1       5.260  18.640   8.074  1.00  0.00    -0.744 OA
ENDBRANCH  70  73
ENDBRANCH  52  66
BRANCH  53  77
ATOM     77  C   UNL     1       7.438   9.469  -0.494  1.00  0.00     0.023 A 
ATOM     78  C   UNL     1       7.990   8.188  -0.294  1.00  0.00     0.012 A 
ATOM     79  C   UNL     1       7.383   9.998  -1.798  1.00  0.00     0.148 A 
ATOM     80  C   UNL     1       8.497   7.457  -1.368  1.00  0.00     0.002 A 
ATOM     81  C   UNL     1       7.844   9.243  -2.870  1.00  0.00     0.091 A 
ATOM     82  F   UNL     1       6.865  11.223  -1.963  1.00  0.00    -0.205 F 
ATOM     83  C   UNL     1       8.415   7.979  -2.656  1.00  0.00     0.022 A 
BRANCH  81  84
ATOM     84  S   UNL     1       7.683   9.780  -4.577  1.00  0.00     0.127 S 
ATOM     85  O   UNL     1       9.080   9.880  -4.993  1.00  0.00    -0.237 OA
ATOM     86  O   UNL     1       6.943   8.665  -5.170  1.00  0.00    -0.237 OA
ATOM     87  O   UNL     1       6.953  11.039  -4.532  1.00  0.00    -0.744 OA
ENDBRANCH  81  84
ENDBRANCH  53  77
BRANCH  65  88
ATOM     88  C   UNL     1      10.394  12.184   5.229  1.00  0.00     0.023 A 
ATOM     89  C   UNL     1      11.349  13.013   4.607  1.00  0.00     0.012 A 
ATOM     90  C   UNL     1      10.764  11.446   6.372  1.00  0.00     0.148 A 
ATOM     91  C   UNL     1      12.656  13.079   5.093  1.00  0.00     0.002 A 
ATOM     92  C   UNL     1      12.052  11.559   6.883  1.00  0.00     0.091 A 
ATOM     93  F   UNL     1       9.847  10.650   6.943  1.00  0.00    -0.205 F 
ATOM     94  C   UNL     1      13.003  12.363   6.236  1.00  0.00     0.022 A 
BRANCH  92  95
ATOM     95  S   UNL     1      12.562  10.753   8.406  1.00  0.00     0.127 S 
ATOM     96  O   UNL     1      13.485   9.733   7.909  1.00  0.00    -0.237 OA
ATOM     97  O   UNL     1      13.199  11.848   9.136  1.00  0.00    -0.237 OA
ATOM     98  O   UNL     1      11.344  10.243   9.021  1.00  0.00    -0.744 OA
ENDBRANCH  92  95
ENDBRANCH  65  88
ENDBRANCH  39  40
ENDBRANCH  32  34
ENDBRANCH  31  32
ENDBRANCH  30  31
ENDBRANCH  29  30
ENDBRANCH  28  29
ENDBRANCH  27  28
ENDBRANCH   1  27
TORSDOF 24
