REMARK SMILES O=C(Cn1cnc2c(S)ncnc21)OCCOCCOCCOC(=O)c1ccc(-c2c3nc(c(-c4cccc(S(=O)(=O)[O-])c4F)c4ccc([nH]4)c(-c4cccc(S(=O)(=O)[O-])c4F)c4nc(c(-c5cccc(S(=O)(=O)[O-])c5F)c5ccc2[nH]5)C=C4)C=C3)cc1
REMARK SMILES IDX 19 1 18 2 17 3 16 4 15 5 14 6 2 7 1 8 3 9 4 10 5 11 13 12
REMARK SMILES IDX 6 13 7 14 12 15 8 16 11 17 10 18 9 19 20 21 21 22 22 23
REMARK SMILES IDX 23 24 24 25 25 26 26 27 27 28 88 29 28 30 87 31 29 32 30 33
REMARK SMILES IDX 31 34 81 35 32 36 86 37 80 38 82 39 33 40 85 41 79 42 78 43
REMARK SMILES IDX 34 45 66 46 46 47 65 48 47 49 50 50 64 51 83 52 48 53 49 54
REMARK SMILES IDX 63 56 84 57 51 58 35 59 36 60 44 61 37 62 39 63 45 64 38 65
REMARK SMILES IDX 40 66 41 67 42 68 43 69 67 70 68 71 76 72 69 73 71 74 77 75
REMARK SMILES IDX 70 76 72 77 73 78 74 79 75 80 52 81 53 82 61 83 54 84 56 85
REMARK SMILES IDX 62 86 55 87 57 88 58 89 59 90 60 91
REMARK H PARENT 9 20 82 44 50 55
REMARK Flexibility Score: inf
ROOT
ATOM      1  C   UNL     1       2.293   0.795  -2.601  1.00  0.00     0.188 C 
ENDROOT
BRANCH   1   2
ATOM      2  C   UNL     1       2.994   1.641  -1.520  1.00  0.00     0.188 C 
BRANCH   2   3
ATOM      3  O   UNL     1       4.393   1.466  -1.421  1.00  0.00    -0.376 OA
BRANCH   3   4
ATOM      4  C   UNL     1       4.900   0.575  -0.442  1.00  0.00     0.202 C 
BRANCH   4   5
ATOM      5  C   UNL     1       4.259  -0.809  -0.326  1.00  0.00     0.261 C 
BRANCH   5   6
ATOM      6  O   UNL     1       2.834  -0.865  -0.071  1.00  0.00    -0.462 OA
BRANCH   6   7
ATOM      7  C   UNL     1       2.106  -0.371   0.951  1.00  0.00     0.326 C 
ATOM      8  O   UNL     1       0.887  -0.552   0.964  1.00  0.00    -0.250 OA
BRANCH   7   9
ATOM      9  C   UNL     1       2.741   0.520   1.981  1.00  0.00     0.247 C 
BRANCH   9  10
ATOM     10  N   UNL     1       3.795  -0.070   2.771  1.00  0.00    -0.304 N 
ATOM     11  C   UNL     1       4.791   0.625   3.402  1.00  0.00     0.202 A 
ATOM     12  C   UNL     1       3.966  -1.391   3.058  1.00  0.00     0.164 A 
ATOM     13  N   UNL     1       5.595  -0.178   4.066  1.00  0.00    -0.232 NA
ATOM     14  C   UNL     1       5.093  -1.447   3.859  1.00  0.00     0.140 A 
ATOM     15  N   UNL     1       3.221  -2.417   2.624  1.00  0.00    -0.217 NA
ATOM     16  C   UNL     1       5.468  -2.727   4.268  1.00  0.00     0.124 A 
ATOM     17  C   UNL     1       3.697  -3.595   3.057  1.00  0.00     0.225 A 
ATOM     18  N   UNL     1       4.763  -3.809   3.853  1.00  0.00    -0.228 NA
BRANCH  16  19
ATOM     19  S   UNL     1       6.847  -2.972   5.328  1.00  0.00    -0.121 SA
ATOM     20  H   UNL     1       7.411  -1.770   5.624  1.00  0.00     0.110 HD
ENDBRANCH  16  19
ENDBRANCH   9  10
ENDBRANCH   7   9
ENDBRANCH   6   7
ENDBRANCH   5   6
ENDBRANCH   4   5
ENDBRANCH   3   4
ENDBRANCH   2   3
ENDBRANCH   1   2
BRANCH   1  21
ATOM     21  O   UNL     1       3.009  -0.196  -3.328  1.00  0.00    -0.376 OA
BRANCH  21  22
ATOM     22  C   UNL     1       4.286   0.070  -3.899  1.00  0.00     0.202 C 
BRANCH  22  23
ATOM     23  C   UNL     1       4.487   1.289  -4.789  1.00  0.00     0.261 C 
BRANCH  23  24
ATOM     24  O   UNL     1       4.407   2.502  -4.056  1.00  0.00    -0.460 OA
BRANCH  24  25
ATOM     25  C   UNL     1       3.303   3.238  -4.291  1.00  0.00     0.338 C 
ATOM     26  O   UNL     1       2.334   2.928  -4.958  1.00  0.00    -0.246 OA
BRANCH  25  27
ATOM     27  C   UNL     1       3.458   4.551  -3.656  1.00  0.00     0.060 A 
ATOM     28  C   UNL     1       2.331   5.377  -3.664  1.00  0.00     0.016 A 
ATOM     29  C   UNL     1       4.741   5.031  -3.363  1.00  0.00     0.016 A 
ATOM     30  C   UNL     1       2.529   6.736  -3.659  1.00  0.00     0.010 A 
ATOM     31  C   UNL     1       4.940   6.388  -3.376  1.00  0.00     0.010 A 
ATOM     32  C   UNL     1       3.844   7.206  -3.639  1.00  0.00    -0.014 A 
BRANCH  32  33
ATOM     33  C   UNL     1       4.059   8.581  -4.021  1.00  0.00     0.031 A 
ATOM     34  C   UNL     1       3.876   9.557  -2.938  1.00  0.00     0.074 A 
ATOM     35  C   UNL     1       4.481   8.894  -5.261  1.00  0.00     0.049 A 
ATOM     36  N   UNL     1       2.954  10.454  -2.834  1.00  0.00    -0.248 NA
ATOM     37  C   UNL     1       4.740   9.424  -1.758  1.00  0.00     0.031 C 
ATOM     38  C   UNL     1       4.986   7.979  -6.292  1.00  0.00     0.029 A 
ATOM     39  N   UNL     1       4.692  10.122  -5.802  1.00  0.00    -0.354 N 
ATOM     40  C   UNL     1       3.264  11.151  -1.674  1.00  0.00     0.074 A 
ATOM     41  C   UNL     1       4.228  10.357  -0.958  1.00  0.00     0.031 C 
ATOM     42  C   UNL     1       5.678   8.694  -7.207  1.00  0.00     0.029 A 
ATOM     43  C   UNL     1       5.548  10.106  -6.895  1.00  0.00     0.049 A 
ATOM     44  H   UNL     1       4.277  10.944  -5.452  1.00  0.00     0.167 HD
ATOM     45  C   UNL     1       2.911  12.452  -1.510  1.00  0.00     0.034 A 
ATOM     46  C   UNL     1       6.184  11.180  -7.418  1.00  0.00     0.034 A 
ATOM     47  C   UNL     1       1.922  12.872  -2.464  1.00  0.00     0.049 A 
ATOM     48  C   UNL     1       5.460  12.390  -6.960  1.00  0.00     0.074 A 
ATOM     49  C   UNL     1       0.633  12.488  -2.772  1.00  0.00     0.029 A 
ATOM     50  N   UNL     1       2.366  13.623  -3.523  1.00  0.00    -0.354 N 
ATOM     51  N   UNL     1       4.253  12.706  -7.336  1.00  0.00    -0.248 NA
ATOM     52  C   UNL     1       5.941  13.074  -5.769  1.00  0.00     0.031 C 
ATOM     53  C   UNL     1       0.516  12.673  -4.180  1.00  0.00     0.029 A 
ATOM     54  C   UNL     1       1.729  13.180  -4.652  1.00  0.00     0.049 A 
ATOM     55  H   UNL     1       3.026  14.352  -3.480  1.00  0.00     0.167 HD
ATOM     56  C   UNL     1       3.673  13.274  -6.209  1.00  0.00     0.074 A 
ATOM     57  C   UNL     1       4.794  13.600  -5.333  1.00  0.00     0.031 C 
ATOM     58  C   UNL     1       2.333  13.154  -5.970  1.00  0.00     0.034 A 
BRANCH  45  59
ATOM     59  C   UNL     1       3.709  13.441  -0.705  1.00  0.00     0.023 A 
ATOM     60  C   UNL     1       3.095  14.669  -0.385  1.00  0.00     0.012 A 
ATOM     61  C   UNL     1       5.095  13.328  -0.455  1.00  0.00     0.148 A 
ATOM     62  C   UNL     1       3.829  15.735   0.146  1.00  0.00     0.002 A 
ATOM     63  C   UNL     1       5.798  14.351   0.167  1.00  0.00     0.091 A 
ATOM     64  F   UNL     1       5.783  12.290  -0.944  1.00  0.00    -0.205 F 
ATOM     65  C   UNL     1       5.177  15.569   0.443  1.00  0.00     0.022 A 
BRANCH  63  66
ATOM     66  S   UNL     1       7.513  14.133   0.652  1.00  0.00     0.127 S 
ATOM     67  O   UNL     1       8.214  14.841  -0.413  1.00  0.00    -0.237 OA
ATOM     68  O   UNL     1       7.544  14.790   1.960  1.00  0.00    -0.237 OA
ATOM     69  O   UNL     1       7.709  12.689   0.712  1.00  0.00    -0.744 OA
ENDBRANCH  63  66
ENDBRANCH  45  59
BRANCH  46  70
ATOM     70  C   UNL     1       7.526  11.263  -8.038  1.00  0.00     0.023 A 
ATOM     71  C   UNL     1       7.847  12.383  -8.830  1.00  0.00     0.012 A 
ATOM     72  C   UNL     1       8.578  10.409  -7.633  1.00  0.00     0.148 A 
ATOM     73  C   UNL     1       9.174  12.669  -9.170  1.00  0.00     0.002 A 
ATOM     74  C   UNL     1       9.894  10.693  -7.981  1.00  0.00     0.091 A 
ATOM     75  F   UNL     1       8.301   9.377  -6.825  1.00  0.00    -0.205 F 
ATOM     76  C   UNL     1      10.198  11.831  -8.738  1.00  0.00     0.022 A 
BRANCH  74  77
ATOM     77  S   UNL     1      11.269   9.669  -7.436  1.00  0.00     0.127 S 
ATOM     78  O   UNL     1      12.042   9.516  -8.669  1.00  0.00    -0.237 OA
ATOM     79  O   UNL     1      11.893  10.518  -6.424  1.00  0.00    -0.237 OA
ATOM     80  O   UNL     1      10.674   8.432  -6.947  1.00  0.00    -0.744 OA
ENDBRANCH  74  77
ENDBRANCH  46  70
BRANCH  58  81
ATOM     81  C   UNL     1       1.449  12.658  -7.090  1.00  0.00     0.023 A 
ATOM     82  C   UNL     1       1.600  11.370  -7.645  1.00  0.00     0.012 A 
ATOM     83  C   UNL     1       0.325  13.423  -7.450  1.00  0.00     0.148 A 
ATOM     84  C   UNL     1       0.665  10.864  -8.551  1.00  0.00     0.002 A 
ATOM     85  C   UNL     1      -0.632  12.895  -8.310  1.00  0.00     0.091 A 
ATOM     86  F   UNL     1       0.190  14.645  -6.913  1.00  0.00    -0.205 F 
ATOM     87  C   UNL     1      -0.460  11.620  -8.871  1.00  0.00     0.022 A 
BRANCH  85  88
ATOM     88  S   UNL     1      -2.174  13.752  -8.642  1.00  0.00     0.127 S 
ATOM     89  O   UNL     1      -1.954  14.268  -9.991  1.00  0.00    -0.237 OA
ATOM     90  O   UNL     1      -3.160  12.674  -8.553  1.00  0.00    -0.237 OA
ATOM     91  O   UNL     1      -2.303  14.760  -7.596  1.00  0.00    -0.744 OA
ENDBRANCH  85  88
ENDBRANCH  58  81
ENDBRANCH  32  33
ENDBRANCH  25  27
ENDBRANCH  24  25
ENDBRANCH  23  24
ENDBRANCH  22  23
ENDBRANCH  21  22
ENDBRANCH   1  21
TORSDOF 22
