REMARK SMILES C[C@]1(C(=O)OCCOCCOCCOC(=O)c2ccc(-c3c4nc(c(-c5cccc(S(=O)(=O)[O-])c5F)c5ccc([nH]5)c(-c5cccc(S(=O)(=O)[O-])c5F)c5nc(c(-c6cccc(S(=O)(=O)[O-])c6F)c6ccc3[nH]6)C=C5)C=C4)cc2)COC[C@H]1Nc1ccc2nnnn2n1
REMARK SMILES IDX 10 1 9 2 8 3 7 4 6 5 5 6 3 7 4 8 2 9 1 10 80 11 83 12 81 13
REMARK SMILES IDX 82 14 84 15 85 17 86 18 93 19 87 20 92 21 88 22 91 23 89 24
REMARK SMILES IDX 90 25 11 26 12 27 13 28 14 29 15 30 16 31 17 32 18 33 79 34
REMARK SMILES IDX 19 35 78 36 20 37 21 38 22 39 72 40 23 41 77 42 71 43 73 44
REMARK SMILES IDX 24 45 76 46 70 47 69 48 25 50 57 51 37 52 56 53 38 54 41 55
REMARK SMILES IDX 55 56 74 57 39 58 40 59 54 61 75 62 42 63 26 64 27 65 35 66
REMARK SMILES IDX 28 67 30 68 36 69 29 70 31 71 32 72 33 73 34 74 58 75 59 76
REMARK SMILES IDX 67 77 60 78 62 79 68 80 61 81 63 82 64 83 65 84 66 85 43 86
REMARK SMILES IDX 44 87 52 88 45 89 47 90 53 91 46 92 48 93 49 94 50 95 51 96
REMARK H PARENT 84 16 73 49 41 60
REMARK Flexibility Score: inf
ROOT
ATOM      1  C   UNL     1      -0.366  -1.168  -1.721  1.00  0.00     0.188 C 
ENDROOT
BRANCH   1   2
ATOM      2  C   UNL     1       1.126  -1.104  -2.097  1.00  0.00     0.188 C 
BRANCH   2   3
ATOM      3  O   UNL     1       1.950  -2.197  -1.703  1.00  0.00    -0.376 OA
BRANCH   3   4
ATOM      4  C   UNL     1       1.859  -2.681  -0.371  1.00  0.00     0.202 C 
BRANCH   4   5
ATOM      5  C   UNL     1       2.248  -1.702   0.733  1.00  0.00     0.261 C 
BRANCH   5   6
ATOM      6  O   UNL     1       1.329  -0.601   0.884  1.00  0.00    -0.463 OA
BRANCH   6   7
ATOM      7  C   UNL     1       1.852   0.656   0.807  1.00  0.00     0.316 C 
ATOM      8  O   UNL     1       2.998   0.910   0.461  1.00  0.00    -0.251 OA
BRANCH   7   9
ATOM      9  C   UNL     1       0.889   1.715   1.331  1.00  0.00     0.111 C 
ATOM     10  C   UNL     1      -0.514   1.174   1.658  1.00  0.00     0.028 C 
ATOM     11  C   UNL     1       1.528   2.257   2.623  1.00  0.00     0.181 C 
ATOM     12  C   UNL     1       0.770   2.969   0.450  1.00  0.00     0.126 C 
ATOM     13  O   UNL     1       1.530   3.688   2.535  1.00  0.00    -0.378 OA
ATOM     14  C   UNL     1       1.660   3.994   1.142  1.00  0.00     0.186 C 
BRANCH  12  15
ATOM     15  N   UNL     1       1.071   2.827  -0.971  1.00  0.00    -0.362 N 
ATOM     16  H   UNL     1       1.954   2.488  -1.243  1.00  0.00     0.162 HD
BRANCH  15  17
ATOM     17  C   UNL     1       0.152   3.154  -1.941  1.00  0.00     0.149 A 
ATOM     18  C   UNL     1      -1.202   2.510  -1.903  1.00  0.00     0.053 A 
ATOM     19  N   UNL     1       0.508   4.015  -2.853  1.00  0.00    -0.129 NA
ATOM     20  C   UNL     1      -2.120   2.855  -2.812  1.00  0.00     0.057 A 
ATOM     21  N   UNL     1      -0.489   4.321  -3.728  1.00  0.00    -0.108 N 
ATOM     22  C   UNL     1      -1.770   3.810  -3.778  1.00  0.00     0.200 A 
ATOM     23  N   UNL     1      -0.333   5.183  -4.741  1.00  0.00    -0.022 NA
ATOM     24  N   UNL     1      -2.401   4.339  -4.799  1.00  0.00    -0.107 NA
ATOM     25  N   UNL     1      -1.493   5.189  -5.389  1.00  0.00    -0.022 NA
ENDBRANCH  15  17
ENDBRANCH  12  15
ENDBRANCH   7   9
ENDBRANCH   6   7
ENDBRANCH   5   6
ENDBRANCH   4   5
ENDBRANCH   3   4
ENDBRANCH   2   3
ENDBRANCH   1   2
BRANCH   1  26
ATOM     26  O   UNL     1      -0.785  -2.490  -1.419  1.00  0.00    -0.376 OA
BRANCH  26  27
ATOM     27  C   UNL     1      -1.813  -3.050  -2.209  1.00  0.00     0.202 C 
BRANCH  27  28
ATOM     28  C   UNL     1      -1.521  -3.260  -3.701  1.00  0.00     0.261 C 
BRANCH  28  29
ATOM     29  O   UNL     1      -0.701  -2.233  -4.277  1.00  0.00    -0.460 OA
BRANCH  29  30
ATOM     30  C   UNL     1      -1.157  -1.612  -5.381  1.00  0.00     0.338 C 
ATOM     31  O   UNL     1      -2.241  -1.780  -5.928  1.00  0.00    -0.246 OA
BRANCH  30  32
ATOM     32  C   UNL     1      -0.153  -0.628  -5.823  1.00  0.00     0.060 A 
ATOM     33  C   UNL     1      -0.097   0.613  -5.188  1.00  0.00     0.016 A 
ATOM     34  C   UNL     1       0.685  -0.901  -6.906  1.00  0.00     0.016 A 
ATOM     35  C   UNL     1       0.784   1.591  -5.650  1.00  0.00     0.010 A 
ATOM     36  C   UNL     1       1.559   0.092  -7.375  1.00  0.00     0.010 A 
ATOM     37  C   UNL     1       1.594   1.357  -6.766  1.00  0.00    -0.014 A 
BRANCH  37  38
ATOM     38  C   UNL     1       2.360   2.487  -7.353  1.00  0.00     0.031 A 
ATOM     39  C   UNL     1       1.769   3.259  -8.502  1.00  0.00     0.074 A 
ATOM     40  C   UNL     1       3.532   2.892  -6.829  1.00  0.00     0.049 A 
ATOM     41  N   UNL     1       2.305   4.207  -9.225  1.00  0.00    -0.248 NA
ATOM     42  C   UNL     1       0.382   2.929  -8.870  1.00  0.00     0.031 C 
ATOM     43  C   UNL     1       4.166   2.332  -5.638  1.00  0.00     0.029 A 
ATOM     44  N   UNL     1       4.399   3.875  -7.243  1.00  0.00    -0.354 N 
ATOM     45  C   UNL     1       1.337   4.567 -10.154  1.00  0.00     0.074 A 
ATOM     46  C   UNL     1       0.173   3.747  -9.892  1.00  0.00     0.031 C 
ATOM     47  C   UNL     1       5.333   2.967  -5.430  1.00  0.00     0.029 A 
ATOM     48  C   UNL     1       5.555   3.938  -6.502  1.00  0.00     0.049 A 
ATOM     49  H   UNL     1       4.210   4.478  -7.999  1.00  0.00     0.167 HD
ATOM     50  C   UNL     1       1.407   5.494 -11.137  1.00  0.00     0.034 A 
ATOM     51  C   UNL     1       6.679   4.660  -6.691  1.00  0.00     0.034 A 
ATOM     52  C   UNL     1       2.544   6.337 -11.393  1.00  0.00     0.049 A 
ATOM     53  C   UNL     1       6.775   5.599  -7.869  1.00  0.00     0.074 A 
ATOM     54  C   UNL     1       2.707   7.278 -12.395  1.00  0.00     0.029 A 
ATOM     55  N   UNL     1       3.708   6.346 -10.645  1.00  0.00    -0.354 N 
ATOM     56  N   UNL     1       5.854   5.944  -8.734  1.00  0.00    -0.248 NA
ATOM     57  C   UNL     1       8.074   6.257  -8.091  1.00  0.00     0.031 C 
ATOM     58  C   UNL     1       3.982   7.838 -12.269  1.00  0.00     0.029 A 
ATOM     59  C   UNL     1       4.603   7.261 -11.174  1.00  0.00     0.049 A 
ATOM     60  H   UNL     1       3.876   5.784  -9.854  1.00  0.00     0.167 HD
ATOM     61  C   UNL     1       6.449   6.877  -9.579  1.00  0.00     0.074 A 
ATOM     62  C   UNL     1       7.804   7.066  -9.107  1.00  0.00     0.031 C 
ATOM     63  C   UNL     1       5.927   7.502 -10.663  1.00  0.00     0.034 A 
BRANCH  50  64
ATOM     64  C   UNL     1       0.217   5.637 -12.042  1.00  0.00     0.023 A 
ATOM     65  C   UNL     1      -0.909   6.365 -11.614  1.00  0.00     0.012 A 
ATOM     66  C   UNL     1       0.249   5.103 -13.345  1.00  0.00     0.148 A 
ATOM     67  C   UNL     1      -1.996   6.547 -12.468  1.00  0.00     0.002 A 
ATOM     68  C   UNL     1      -0.821   5.319 -14.202  1.00  0.00     0.091 A 
ATOM     69  F   UNL     1       1.323   4.392 -13.717  1.00  0.00    -0.205 F 
ATOM     70  C   UNL     1      -1.947   6.035 -13.764  1.00  0.00     0.022 A 
BRANCH  68  71
ATOM     71  S   UNL     1      -0.819   4.756 -15.907  1.00  0.00     0.127 S 
ATOM     72  O   UNL     1      -1.804   3.676 -15.863  1.00  0.00    -0.237 OA
ATOM     73  O   UNL     1      -1.257   5.951 -16.628  1.00  0.00    -0.237 OA
ATOM     74  O   UNL     1       0.547   4.341 -16.193  1.00  0.00    -0.744 OA
ENDBRANCH  68  71
ENDBRANCH  50  64
BRANCH  51  75
ATOM     75  C   UNL     1       7.839   4.512  -5.764  1.00  0.00     0.023 A 
ATOM     76  C   UNL     1       8.260   5.613  -4.993  1.00  0.00     0.012 A 
ATOM     77  C   UNL     1       8.555   3.302  -5.678  1.00  0.00     0.148 A 
ATOM     78  C   UNL     1       9.395   5.523  -4.185  1.00  0.00     0.002 A 
ATOM     79  C   UNL     1       9.647   3.201  -4.825  1.00  0.00     0.091 A 
ATOM     80  F   UNL     1       8.166   2.275  -6.447  1.00  0.00    -0.205 F 
ATOM     81  C   UNL     1      10.082   4.315  -4.093  1.00  0.00     0.022 A 
BRANCH  79  82
ATOM     82  S   UNL     1      10.508   1.647  -4.561  1.00  0.00     0.127 S 
ATOM     83  O   UNL     1      11.730   1.845  -5.336  1.00  0.00    -0.237 OA
ATOM     84  O   UNL     1      10.693   1.642  -3.109  1.00  0.00    -0.237 OA
ATOM     85  O   UNL     1       9.604   0.615  -5.050  1.00  0.00    -0.744 OA
ENDBRANCH  79  82
ENDBRANCH  51  75
BRANCH  63  86
ATOM     86  C   UNL     1       6.800   8.479 -11.411  1.00  0.00     0.023 A 
ATOM     87  C   UNL     1       7.853   7.998 -12.214  1.00  0.00     0.012 A 
ATOM     88  C   UNL     1       6.524   9.861 -11.393  1.00  0.00     0.148 A 
ATOM     89  C   UNL     1       8.633   8.877 -12.965  1.00  0.00     0.002 A 
ATOM     90  C   UNL     1       7.278  10.727 -12.179  1.00  0.00     0.091 A 
ATOM     91  F   UNL     1       5.529  10.306 -10.611  1.00  0.00    -0.205 F 
ATOM     92  C   UNL     1       8.339  10.238 -12.957  1.00  0.00     0.022 A 
BRANCH  90  93
ATOM     93  S   UNL     1       6.912  12.483 -12.305  1.00  0.00     0.127 S 
ATOM     94  O   UNL     1       7.996  13.071 -11.521  1.00  0.00    -0.237 OA
ATOM     95  O   UNL     1       7.006  12.719 -13.746  1.00  0.00    -0.237 OA
ATOM     96  O   UNL     1       5.575  12.654 -11.753  1.00  0.00    -0.744 OA
ENDBRANCH  90  93
ENDBRANCH  63  86
ENDBRANCH  37  38
ENDBRANCH  30  32
ENDBRANCH  29  30
ENDBRANCH  28  29
ENDBRANCH  27  28
ENDBRANCH  26  27
ENDBRANCH   1  26
TORSDOF 22
