REMARK SMILES C[C@@H](Cc1cccs1)N(C)c1ncc(C(=O)OCCOCCOCCOC(=O)c2ccc(-c3c4nc(c(-c5cccc(S(=O)(=O)[O-])c5F)c5ccc([nH]5)c(-c5cccc(S(=O)(=O)[O-])c5F)c5nc(c(-c6cccc(S(=O)(=O)[O-])c6F)c6ccc3[nH]6)C=C5)C=C4)cc2)s1
REMARK SMILES IDX 21 1 20 2 19 3 18 4 17 5 15 6 16 7 14 8 11 9 12 10 92 11
REMARK SMILES IDX 13 12 9 13 10 14 2 15 1 16 3 17 4 18 5 19 8 20 6 21 7 22
REMARK SMILES IDX 22 23 23 24 24 25 25 26 26 27 27 28 28 29 29 30 30 31 91 32
REMARK SMILES IDX 31 33 90 34 32 35 33 36 34 37 84 38 35 39 89 40 83 41 85 42
REMARK SMILES IDX 36 43 88 44 82 45 81 46 37 48 69 49 49 50 68 51 50 52 53 53
REMARK SMILES IDX 67 54 86 55 51 56 52 57 66 59 87 60 54 61 38 62 39 63 47 64
REMARK SMILES IDX 40 65 42 66 48 67 41 68 43 69 44 70 45 71 46 72 70 73 71 74
REMARK SMILES IDX 79 75 72 76 74 77 80 78 73 79 75 80 76 81 77 82 78 83 55 84
REMARK SMILES IDX 56 85 64 86 57 87 59 88 65 89 58 90 60 91 61 92 62 93 63 94
REMARK H PARENT 85 47 53 58
REMARK Flexibility Score: inf
ROOT
ATOM      1  C   UNL     1      -6.298   2.973   2.229  1.00  0.00     0.188 C 
ENDROOT
BRANCH   1   2
ATOM      2  O   UNL     1      -6.713   4.061   3.052  1.00  0.00    -0.376 OA
BRANCH   2   3
ATOM      3  C   UNL     1      -6.015   5.298   3.004  1.00  0.00     0.202 C 
BRANCH   3   4
ATOM      4  C   UNL     1      -4.556   5.294   3.459  1.00  0.00     0.261 C 
BRANCH   4   5
ATOM      5  O   UNL     1      -3.718   4.479   2.624  1.00  0.00    -0.459 OA
BRANCH   5   6
ATOM      6  C   UNL     1      -3.179   3.384   3.232  1.00  0.00     0.350 C 
ATOM      7  O   UNL     1      -3.238   3.159   4.435  1.00  0.00    -0.245 OA
BRANCH   6   8
ATOM      8  C   UNL     1      -2.601   2.509   2.251  1.00  0.00     0.134 A 
ATOM      9  C   UNL     1      -1.579   0.587   1.170  1.00  0.00     0.186 A 
ATOM     10  N   UNL     1      -1.356   1.678   0.468  1.00  0.00    -0.228 NA
ATOM     11  S   UNL     1      -2.712   0.813   2.460  1.00  0.00    -0.090 S 
ATOM     12  C   UNL     1      -1.947   2.773   1.070  1.00  0.00     0.141 A 
BRANCH   9  13
ATOM     13  N   UNL     1      -0.942  -0.601   0.973  1.00  0.00    -0.348 N 
ATOM     14  C   UNL     1      -1.685  -1.847   1.081  1.00  0.00     0.146 C 
BRANCH  13  15
ATOM     15  C   UNL     1       0.533  -0.654   0.970  1.00  0.00     0.086 C 
ATOM     16  C   UNL     1       1.136   0.026  -0.258  1.00  0.00     0.031 C 
BRANCH  15  17
ATOM     17  C   UNL     1       1.200  -0.282   2.323  1.00  0.00     0.071 C 
BRANCH  17  18
ATOM     18  C   UNL     1       1.029   1.116   2.866  1.00  0.00     0.007 A 
ATOM     19  C   UNL     1       0.329   1.498   3.998  1.00  0.00     0.015 A 
ATOM     20  S   UNL     1       1.821   2.462   2.159  1.00  0.00    -0.149 S 
ATOM     21  C   UNL     1       0.334   2.908   4.200  1.00  0.00     0.012 A 
ATOM     22  C   UNL     1       1.087   3.557   3.249  1.00  0.00     0.065 A 
ENDBRANCH  17  18
ENDBRANCH  15  17
ENDBRANCH  13  15
ENDBRANCH   9  13
ENDBRANCH   6   8
ENDBRANCH   5   6
ENDBRANCH   4   5
ENDBRANCH   3   4
ENDBRANCH   2   3
ENDBRANCH   1   2
BRANCH   1  23
ATOM     23  C   UNL     1      -5.863   3.256   0.778  1.00  0.00     0.188 C 
BRANCH  23  24
ATOM     24  O   UNL     1      -6.344   4.496   0.284  1.00  0.00    -0.376 OA
BRANCH  24  25
ATOM     25  C   UNL     1      -7.323   4.439  -0.738  1.00  0.00     0.202 C 
BRANCH  25  26
ATOM     26  C   UNL     1      -8.699   3.913  -0.311  1.00  0.00     0.261 C 
BRANCH  26  27
ATOM     27  O   UNL     1      -8.708   2.612   0.295  1.00  0.00    -0.460 OA
BRANCH  27  28
ATOM     28  C   UNL     1      -8.428   1.557  -0.502  1.00  0.00     0.338 C 
ATOM     29  O   UNL     1      -8.158   1.594  -1.689  1.00  0.00    -0.246 OA
BRANCH  28  30
ATOM     30  C   UNL     1      -8.334   0.348   0.349  1.00  0.00     0.060 A 
ATOM     31  C   UNL     1      -7.183  -0.445   0.270  1.00  0.00     0.016 A 
ATOM     32  C   UNL     1      -9.379  -0.009   1.206  1.00  0.00     0.016 A 
ATOM     33  C   UNL     1      -7.099  -1.627   1.012  1.00  0.00     0.010 A 
ATOM     34  C   UNL     1      -9.297  -1.199   1.939  1.00  0.00     0.010 A 
ATOM     35  C   UNL     1      -8.174  -2.034   1.815  1.00  0.00    -0.014 A 
BRANCH  35  36
ATOM     36  C   UNL     1      -8.206  -3.415   2.359  1.00  0.00     0.031 A 
ATOM     37  C   UNL     1      -8.921  -4.480   1.569  1.00  0.00     0.074 A 
ATOM     38  C   UNL     1      -7.618  -3.730   3.528  1.00  0.00     0.049 A 
ATOM     39  N   UNL     1      -9.047  -5.757   1.821  1.00  0.00    -0.248 NA
ATOM     40  C   UNL     1      -9.584  -4.045   0.327  1.00  0.00     0.031 C 
ATOM     41  C   UNL     1      -6.916  -2.795   4.404  1.00  0.00     0.029 A 
ATOM     42  N   UNL     1      -7.542  -4.933   4.189  1.00  0.00    -0.354 N 
ATOM     43  C   UNL     1      -9.810  -6.275   0.781  1.00  0.00     0.074 A 
ATOM     44  C   UNL     1     -10.136  -5.173  -0.097  1.00  0.00     0.031 C 
ATOM     45  C   UNL     1      -6.503  -3.454   5.502  1.00  0.00     0.029 A 
ATOM     46  C   UNL     1      -6.915  -4.854   5.410  1.00  0.00     0.049 A 
ATOM     47  H   UNL     1      -7.904  -5.772   3.822  1.00  0.00     0.167 HD
ATOM     48  C   UNL     1     -10.187  -7.556   0.559  1.00  0.00     0.034 A 
ATOM     49  C   UNL     1      -6.704  -5.803   6.345  1.00  0.00     0.034 A 
ATOM     50  C   UNL     1      -9.854  -8.659   1.416  1.00  0.00     0.049 A 
ATOM     51  C   UNL     1      -7.147  -7.221   6.079  1.00  0.00     0.074 A 
ATOM     52  C   UNL     1     -10.143 -10.001   1.240  1.00  0.00     0.029 A 
ATOM     53  N   UNL     1      -9.173  -8.549   2.616  1.00  0.00    -0.354 N 
ATOM     54  N   UNL     1      -7.719  -7.723   5.011  1.00  0.00    -0.248 NA
ATOM     55  C   UNL     1      -6.880  -8.212   7.135  1.00  0.00     0.031 C 
ATOM     56  C   UNL     1      -9.648 -10.701   2.346  1.00  0.00     0.029 A 
ATOM     57  C   UNL     1      -9.041  -9.796   3.201  1.00  0.00     0.049 A 
ATOM     58  H   UNL     1      -8.833  -7.707   2.998  1.00  0.00     0.167 HD
ATOM     59  C   UNL     1      -7.849  -9.088   5.252  1.00  0.00     0.074 A 
ATOM     60  C   UNL     1      -7.275  -9.339   6.557  1.00  0.00     0.031 C 
ATOM     61  C   UNL     1      -8.411 -10.044   4.472  1.00  0.00     0.034 A 
BRANCH  48  62
ATOM     62  C   UNL     1     -10.968  -7.841  -0.694  1.00  0.00     0.023 A 
ATOM     63  C   UNL     1     -10.295  -7.868  -1.933  1.00  0.00     0.012 A 
ATOM     64  C   UNL     1     -12.344  -8.134  -0.645  1.00  0.00     0.148 A 
ATOM     65  C   UNL     1     -10.985  -8.161  -3.108  1.00  0.00     0.002 A 
ATOM     66  C   UNL     1     -13.018  -8.459  -1.816  1.00  0.00     0.091 A 
ATOM     67  F   UNL     1     -12.968  -8.076   0.540  1.00  0.00    -0.205 F 
ATOM     68  C   UNL     1     -12.342  -8.466  -3.048  1.00  0.00     0.022 A 
BRANCH  66  69
ATOM     69  S   UNL     1     -14.751  -8.929  -1.836  1.00  0.00     0.127 S 
ATOM     70  O   UNL     1     -15.369  -7.749  -2.439  1.00  0.00    -0.237 OA
ATOM     71  O   UNL     1     -14.740 -10.116  -2.691  1.00  0.00    -0.237 OA
ATOM     72  O   UNL     1     -15.111  -9.185  -0.448  1.00  0.00    -0.744 OA
ENDBRANCH  66  69
ENDBRANCH  48  62
BRANCH  49  73
ATOM     73  C   UNL     1      -5.993  -5.463   7.611  1.00  0.00     0.023 A 
ATOM     74  C   UNL     1      -4.697  -5.967   7.835  1.00  0.00     0.012 A 
ATOM     75  C   UNL     1      -6.593  -4.653   8.594  1.00  0.00     0.148 A 
ATOM     76  C   UNL     1      -4.023  -5.697   9.027  1.00  0.00     0.002 A 
ATOM     77  C   UNL     1      -5.897  -4.347   9.758  1.00  0.00     0.091 A 
ATOM     78  F   UNL     1      -7.838  -4.206   8.377  1.00  0.00    -0.205 F 
ATOM     79  C   UNL     1      -4.619  -4.879   9.984  1.00  0.00     0.022 A 
BRANCH  77  80
ATOM     80  S   UNL     1      -6.548  -3.212  10.989  1.00  0.00     0.127 S 
ATOM     81  O   UNL     1      -6.989  -4.127  12.038  1.00  0.00    -0.237 OA
ATOM     82  O   UNL     1      -5.368  -2.413  11.325  1.00  0.00    -0.237 OA
ATOM     83  O   UNL     1      -7.598  -2.466  10.309  1.00  0.00    -0.744 OA
ENDBRANCH  77  80
ENDBRANCH  49  73
BRANCH  61  84
ATOM     84  C   UNL     1      -8.417 -11.461   4.986  1.00  0.00     0.023 A 
ATOM     85  C   UNL     1      -9.306 -11.822   6.017  1.00  0.00     0.012 A 
ATOM     86  C   UNL     1      -7.609 -12.451   4.392  1.00  0.00     0.148 A 
ATOM     87  C   UNL     1      -9.371 -13.140   6.468  1.00  0.00     0.002 A 
ATOM     88  C   UNL     1      -7.711 -13.771   4.817  1.00  0.00     0.091 A 
ATOM     89  F   UNL     1      -6.755 -12.086   3.425  1.00  0.00    -0.205 F 
ATOM     90  C   UNL     1      -8.584 -14.116   5.861  1.00  0.00     0.022 A 
BRANCH  88  91
ATOM     91  S   UNL     1      -6.802 -15.103   4.023  1.00  0.00     0.127 S 
ATOM     92  O   UNL     1      -5.706 -15.320   4.965  1.00  0.00    -0.237 OA
ATOM     93  O   UNL     1      -7.791 -16.180   3.981  1.00  0.00    -0.237 OA
ATOM     94  O   UNL     1      -6.417 -14.592   2.714  1.00  0.00    -0.744 OA
ENDBRANCH  88  91
ENDBRANCH  61  84
ENDBRANCH  35  36
ENDBRANCH  28  30
ENDBRANCH  27  28
ENDBRANCH  26  27
ENDBRANCH  25  26
ENDBRANCH  24  25
ENDBRANCH  23  24
ENDBRANCH   1  23
TORSDOF 24
