REMARK SMILES CC[NH+](CC)[C@@H](C(=O)OCCOCCOCCOC(=O)c1ccc(-c2c3nc(c(-c4cccc(S(=O)(=O)[O-])c4F)c4ccc([nH]4)c(-c4cccc(S(=O)(=O)[O-])c4F)c4nc(c(-c5cccc(S(=O)(=O)[O-])c5F)c5ccc2[nH]5)C=C4)C=C3)cc1)c1ccc(C2CC2)cc1
REMARK SMILES IDX 14 1 13 2 12 3 11 4 10 5 9 6 7 7 8 8 6 9 3 10 2 12 1 13 4 14
REMARK SMILES IDX 5 15 84 16 85 17 92 18 86 19 91 20 87 21 88 22 89 23 90 24
REMARK SMILES IDX 15 25 16 26 17 27 18 28 19 29 20 30 21 31 22 32 83 33 23 34
REMARK SMILES IDX 82 35 24 36 25 37 26 38 76 39 27 40 81 41 75 42 77 43 28 44
REMARK SMILES IDX 80 45 74 46 73 47 29 49 61 50 41 51 60 52 42 53 45 54 59 55
REMARK SMILES IDX 78 56 43 57 44 58 58 60 79 61 46 62 30 63 31 64 39 65 32 66
REMARK SMILES IDX 34 67 40 68 33 69 35 70 36 71 37 72 38 73 62 74 63 75 71 76
REMARK SMILES IDX 64 77 66 78 72 79 65 80 67 81 68 82 69 83 70 84 47 85 48 86
REMARK SMILES IDX 56 87 49 88 51 89 57 90 50 91 52 92 53 93 54 94 55 95
REMARK H PARENT 3 11 77 48 45 59
REMARK Flexibility Score: inf
ROOT
ATOM      1  C   UNL     1       1.949   3.449  -1.728  1.00  0.00     0.188 C 
ENDROOT
BRANCH   1   2
ATOM      2  C   UNL     1       3.325   2.800  -1.752  1.00  0.00     0.188 C 
BRANCH   2   3
ATOM      3  O   UNL     1       4.233   3.303  -2.721  1.00  0.00    -0.376 OA
BRANCH   3   4
ATOM      4  C   UNL     1       3.860   3.104  -4.081  1.00  0.00     0.202 C 
BRANCH   4   5
ATOM      5  C   UNL     1       3.860   1.650  -4.573  1.00  0.00     0.261 C 
BRANCH   5   6
ATOM      6  O   UNL     1       3.016   0.750  -3.816  1.00  0.00    -0.459 OA
BRANCH   6   7
ATOM      7  C   UNL     1       3.629  -0.359  -3.311  1.00  0.00     0.369 C 
ATOM      8  O   UNL     1       4.827  -0.590  -3.477  1.00  0.00    -0.245 OA
BRANCH   7   9
ATOM      9  C   UNL     1       2.729  -1.340  -2.521  1.00  0.00     0.326 C 
BRANCH   9  10
ATOM     10  N   UNL     1       1.250  -1.251  -2.681  1.00  0.00    -0.320 N 
ATOM     11  H   UNL     1       1.093  -2.108  -2.149  1.00  0.00     0.349 HD
BRANCH  10  12
ATOM     12  C   UNL     1       0.437  -0.369  -1.850  1.00  0.00     0.259 C 
ATOM     13  C   UNL     1       0.268  -0.811  -0.398  1.00  0.00     0.071 C 
ENDBRANCH  10  12
BRANCH  10  14
ATOM     14  C   UNL     1       0.718  -1.481  -4.023  1.00  0.00     0.259 C 
ATOM     15  C   UNL     1       0.448  -0.253  -4.891  1.00  0.00     0.071 C 
ENDBRANCH  10  14
ENDBRANCH   9  10
BRANCH   9  16
ATOM     16  C   UNL     1       3.185  -1.589  -1.076  1.00  0.00     0.021 A 
ATOM     17  C   UNL     1       2.859  -2.809  -0.462  1.00  0.00     0.011 A 
ATOM     18  C   UNL     1       3.864  -0.644  -0.297  1.00  0.00     0.011 A 
ATOM     19  C   UNL     1       3.138  -3.038   0.892  1.00  0.00     0.004 A 
ATOM     20  C   UNL     1       4.130  -0.878   1.063  1.00  0.00     0.004 A 
ATOM     21  C   UNL     1       3.763  -2.074   1.700  1.00  0.00    -0.045 A 
BRANCH  21  22
ATOM     22  C   UNL     1       4.005  -2.373   3.169  1.00  0.00     0.019 C 
ATOM     23  C   UNL     1       4.853  -1.502   4.056  1.00  0.00     0.009 C 
ATOM     24  C   UNL     1       3.363  -1.504   4.226  1.00  0.00     0.009 C 
ENDBRANCH  21  22
ENDBRANCH   9  16
ENDBRANCH   7   9
ENDBRANCH   6   7
ENDBRANCH   5   6
ENDBRANCH   4   5
ENDBRANCH   3   4
ENDBRANCH   2   3
ENDBRANCH   1   2
BRANCH   1  25
ATOM     25  O   UNL     1       1.249   3.399  -2.963  1.00  0.00    -0.376 OA
BRANCH  25  26
ATOM     26  C   UNL     1      -0.103   3.860  -2.951  1.00  0.00     0.202 C 
BRANCH  26  27
ATOM     27  C   UNL     1      -0.446   5.091  -2.087  1.00  0.00     0.261 C 
BRANCH  27  28
ATOM     28  O   UNL     1      -0.129   4.988  -0.682  1.00  0.00    -0.460 OA
BRANCH  28  29
ATOM     29  C   UNL     1      -0.657   3.942   0.006  1.00  0.00     0.338 C 
ATOM     30  O   UNL     1      -1.510   3.182  -0.391  1.00  0.00    -0.246 OA
BRANCH  29  31
ATOM     31  C   UNL     1       0.182   3.713   1.220  1.00  0.00     0.060 A 
ATOM     32  C   UNL     1       0.512   2.389   1.534  1.00  0.00     0.016 A 
ATOM     33  C   UNL     1       0.694   4.751   2.001  1.00  0.00     0.016 A 
ATOM     34  C   UNL     1       1.313   2.092   2.638  1.00  0.00     0.010 A 
ATOM     35  C   UNL     1       1.479   4.454   3.127  1.00  0.00     0.010 A 
ATOM     36  C   UNL     1       1.765   3.121   3.472  1.00  0.00    -0.014 A 
BRANCH  36  37
ATOM     37  C   UNL     1       2.331   2.776   4.805  1.00  0.00     0.031 A 
ATOM     38  C   UNL     1       1.405   2.785   5.992  1.00  0.00     0.074 A 
ATOM     39  C   UNL     1       3.619   2.419   4.970  1.00  0.00     0.049 A 
ATOM     40  N   UNL     1       1.657   2.515   7.246  1.00  0.00    -0.248 NA
ATOM     41  C   UNL     1       0.009   3.168   5.727  1.00  0.00     0.031 C 
ATOM     42  C   UNL     1       4.620   2.364   3.911  1.00  0.00     0.029 A 
ATOM     43  N   UNL     1       4.297   2.014   6.097  1.00  0.00    -0.354 N 
ATOM     44  C   UNL     1       0.477   2.779   7.931  1.00  0.00     0.074 A 
ATOM     45  C   UNL     1      -0.501   3.190   6.948  1.00  0.00     0.031 C 
ATOM     46  C   UNL     1       5.775   1.905   4.428  1.00  0.00     0.029 A 
ATOM     47  C   UNL     1       5.602   1.645   5.858  1.00  0.00     0.049 A 
ATOM     48  H   UNL     1       3.887   1.990   6.992  1.00  0.00     0.167 HD
ATOM     49  C   UNL     1       0.233   2.710   9.261  1.00  0.00     0.034 A 
ATOM     50  C   UNL     1       6.536   1.137   6.693  1.00  0.00     0.034 A 
ATOM     51  C   UNL     1       1.192   2.275  10.240  1.00  0.00     0.049 A 
ATOM     52  C   UNL     1       6.208   0.979   8.160  1.00  0.00     0.074 A 
ATOM     53  C   UNL     1       1.038   2.183  11.612  1.00  0.00     0.029 A 
ATOM     54  N   UNL     1       2.483   1.861   9.954  1.00  0.00    -0.354 N 
ATOM     55  N   UNL     1       5.074   1.184   8.786  1.00  0.00    -0.248 NA
ATOM     56  C   UNL     1       7.298   0.523   9.040  1.00  0.00     0.031 C 
ATOM     57  C   UNL     1       2.246   1.740  12.159  1.00  0.00     0.029 A 
ATOM     58  C   UNL     1       3.139   1.515  11.124  1.00  0.00     0.049 A 
ATOM     59  H   UNL     1       2.876   1.818   9.053  1.00  0.00     0.167 HD
ATOM     60  C   UNL     1       5.314   0.888  10.125  1.00  0.00     0.074 A 
ATOM     61  C   UNL     1       6.684   0.429  10.212  1.00  0.00     0.031 C 
ATOM     62  C   UNL     1       4.490   1.023  11.195  1.00  0.00     0.034 A 
BRANCH  49  63
ATOM     63  C   UNL     1      -1.121   3.163   9.738  1.00  0.00     0.023 A 
ATOM     64  C   UNL     1      -2.263   2.375   9.497  1.00  0.00     0.012 A 
ATOM     65  C   UNL     1      -1.251   4.374  10.447  1.00  0.00     0.148 A 
ATOM     66  C   UNL     1      -3.521   2.805   9.920  1.00  0.00     0.002 A 
ATOM     67  C   UNL     1      -2.499   4.771  10.909  1.00  0.00     0.091 A 
ATOM     68  F   UNL     1      -0.155   5.121  10.642  1.00  0.00    -0.205 F 
ATOM     69  C   UNL     1      -3.637   3.996  10.633  1.00  0.00     0.022 A 
BRANCH  67  70
ATOM     70  S   UNL     1      -2.736   6.246  11.904  1.00  0.00     0.127 S 
ATOM     71  O   UNL     1      -3.457   7.115  10.975  1.00  0.00    -0.237 OA
ATOM     72  O   UNL     1      -3.542   5.740  13.015  1.00  0.00    -0.237 OA
ATOM     73  O   UNL     1      -1.404   6.700  12.277  1.00  0.00    -0.744 OA
ENDBRANCH  67  70
ENDBRANCH  49  63
BRANCH  50  74
ATOM     74  C   UNL     1       7.860   0.677   6.171  1.00  0.00     0.023 A 
ATOM     75  C   UNL     1       8.205  -0.688   6.274  1.00  0.00     0.012 A 
ATOM     76  C   UNL     1       8.779   1.564   5.582  1.00  0.00     0.148 A 
ATOM     77  C   UNL     1       9.445  -1.151   5.828  1.00  0.00     0.002 A 
ATOM     78  C   UNL     1       9.981   1.083   5.070  1.00  0.00     0.091 A 
ATOM     79  F   UNL     1       8.465   2.866   5.531  1.00  0.00    -0.205 F 
ATOM     80  C   UNL     1      10.326  -0.269   5.211  1.00  0.00     0.022 A 
BRANCH  78  81
ATOM     81  S   UNL     1      11.091   2.125   4.117  1.00  0.00     0.127 S 
ATOM     82  O   UNL     1      12.160   2.384   5.078  1.00  0.00    -0.237 OA
ATOM     83  O   UNL     1      11.458   1.246   3.007  1.00  0.00    -0.237 OA
ATOM     84  O   UNL     1      10.291   3.278   3.725  1.00  0.00    -0.744 OA
ENDBRANCH  78  81
ENDBRANCH  50  74
BRANCH  62  85
ATOM     85  C   UNL     1       5.037   0.675  12.558  1.00  0.00     0.023 A 
ATOM     86  C   UNL     1       6.006   1.506  13.156  1.00  0.00     0.012 A 
ATOM     87  C   UNL     1       4.535  -0.425  13.281  1.00  0.00     0.148 A 
ATOM     88  C   UNL     1       6.494   1.228  14.433  1.00  0.00     0.002 A 
ATOM     89  C   UNL     1       4.988  -0.668  14.573  1.00  0.00     0.091 A 
ATOM     90  F   UNL     1       3.623  -1.214  12.694  1.00  0.00    -0.205 F 
ATOM     91  C   UNL     1       5.977   0.148  15.145  1.00  0.00     0.022 A 
BRANCH  89  92
ATOM     92  S   UNL     1       4.312  -1.976  15.604  1.00  0.00     0.127 S 
ATOM     93  O   UNL     1       5.415  -2.935  15.629  1.00  0.00    -0.237 OA
ATOM     94  O   UNL     1       4.077  -1.282  16.871  1.00  0.00    -0.237 OA
ATOM     95  O   UNL     1       3.103  -2.432  14.931  1.00  0.00    -0.744 OA
ENDBRANCH  89  92
ENDBRANCH  62  85
ENDBRANCH  36  37
ENDBRANCH  29  31
ENDBRANCH  28  29
ENDBRANCH  27  28
ENDBRANCH  26  27
ENDBRANCH  25  26
ENDBRANCH   1  25
TORSDOF 25
