REMARK SMILES CCN(C(=O)Cc1c(C(=O)OCCOCCOCCOC(=O)c2ccc(-c3c4nc(c(-c5cccc(S(=O)(=O)[O-])c5F)c5ccc([nH]5)c(-c5cccc(S(=O)(=O)[O-])c5F)c5nc(c(-c6cccc(S(=O)(=O)[O-])c6F)c6ccc3[nH]6)C=C5)C=C4)cc2)[nH]c2ccc(Cl)cc12)c1ccc(C)c(C)c1
REMARK SMILES IDX 15 1 14 2 13 3 12 4 11 5 9 6 10 7 8 8 7 9 93 10 86 11 87 12
REMARK SMILES IDX 92 13 88 15 90 16 89 17 91 18 6 19 4 20 5 21 3 22 2 23 1 24
REMARK SMILES IDX 94 25 95 26 101 27 96 28 99 29 97 30 100 31 98 32 16 33
REMARK SMILES IDX 17 34 18 35 19 36 20 37 21 38 22 39 23 40 24 41 85 42 25 43
REMARK SMILES IDX 84 44 26 45 27 46 28 47 78 48 29 49 83 50 77 51 79 52 30 53
REMARK SMILES IDX 82 54 76 55 75 56 31 58 63 59 43 60 62 61 44 62 47 63 61 64
REMARK SMILES IDX 80 65 45 66 46 67 60 69 81 70 48 71 32 72 33 73 41 74 34 75
REMARK SMILES IDX 36 76 42 77 35 78 37 79 38 80 39 81 40 82 64 83 65 84 73 85
REMARK SMILES IDX 66 86 68 87 74 88 67 89 69 90 70 91 71 92 72 93 49 94 50 95
REMARK SMILES IDX 58 96 51 97 53 98 59 99 52 100 54 101 55 102 56 103 57 104
REMARK H PARENT 86 14 79 57 47 68
REMARK Flexibility Score: inf
ROOT
ATOM      1  C   UNL     1      -4.694   1.696   0.367  1.00  0.00     0.188 C 
ENDROOT
BRANCH   1   2
ATOM      2  O   UNL     1      -4.629   3.094   0.527  1.00  0.00    -0.376 OA
BRANCH   2   3
ATOM      3  C   UNL     1      -3.572   3.879   0.015  1.00  0.00     0.202 C 
BRANCH   3   4
ATOM      4  C   UNL     1      -2.199   3.357  -0.424  1.00  0.00     0.261 C 
BRANCH   4   5
ATOM      5  O   UNL     1      -2.127   2.017  -0.897  1.00  0.00    -0.459 OA
BRANCH   5   6
ATOM      6  C   UNL     1      -1.713   1.099   0.007  1.00  0.00     0.355 C 
ATOM      7  O   UNL     1      -1.468   1.340   1.195  1.00  0.00    -0.244 OA
BRANCH   6   8
ATOM      8  C   UNL     1      -1.667  -0.217  -0.572  1.00  0.00     0.129 A 
ATOM      9  C   UNL     1      -1.403  -0.656  -1.871  1.00  0.00     0.002 A 
ATOM     10  C   UNL     1      -1.464  -2.092  -1.849  1.00  0.00     0.005 A 
ATOM     11  N   UNL     1      -1.845  -1.337   0.207  1.00  0.00    -0.349 N 
ATOM     12  C   UNL     1      -1.734  -2.481  -0.539  1.00  0.00     0.046 A 
ATOM     13  C   UNL     1      -1.276  -3.095  -2.823  1.00  0.00     0.031 A 
ATOM     14  H   UNL     1      -2.028  -1.319   1.174  1.00  0.00     0.167 HD
ATOM     15  C   UNL     1      -1.827  -3.820  -0.144  1.00  0.00     0.028 A 
ATOM     16  C   UNL     1      -1.355  -4.438  -2.440  1.00  0.00     0.041 A 
ATOM     17  C   UNL     1      -1.627  -4.796  -1.123  1.00  0.00     0.022 A 
ATOM     18  Cl  UNL     1      -1.095  -5.668  -3.618  1.00  0.00    -0.084 Cl
BRANCH   9  19
ATOM     19  C   UNL     1      -1.041   0.172  -3.072  1.00  0.00     0.139 C 
BRANCH  19  20
ATOM     20  C   UNL     1       0.404  -0.049  -3.523  1.00  0.00     0.231 C 
ATOM     21  O   UNL     1       0.598  -0.533  -4.645  1.00  0.00    -0.274 OA
BRANCH  20  22
ATOM     22  N   UNL     1       1.441   0.291  -2.643  1.00  0.00    -0.312 N 
BRANCH  22  23
ATOM     23  C   UNL     1       1.289   1.118  -1.427  1.00  0.00     0.122 C 
ATOM     24  C   UNL     1       1.440   0.384  -0.098  1.00  0.00     0.028 C 
ENDBRANCH  22  23
BRANCH  22  25
ATOM     25  C   UNL     1       2.793   0.025  -3.002  1.00  0.00     0.044 A 
ATOM     26  C   UNL     1       3.327   0.483  -4.202  1.00  0.00     0.026 A 
ATOM     27  C   UNL     1       3.636  -0.593  -2.076  1.00  0.00     0.030 A 
ATOM     28  C   UNL     1       4.702   0.387  -4.426  1.00  0.00     0.006 A 
ATOM     29  C   UNL     1       5.020  -0.659  -2.262  1.00  0.00    -0.046 A 
ATOM     30  C   UNL     1       5.563  -0.158  -3.454  1.00  0.00    -0.048 A 
ATOM     31  C   UNL     1       5.849  -1.254  -1.158  1.00  0.00     0.044 C 
ATOM     32  C   UNL     1       7.033  -0.199  -3.754  1.00  0.00     0.044 C 
ENDBRANCH  22  25
ENDBRANCH  20  22
ENDBRANCH  19  20
ENDBRANCH   9  19
ENDBRANCH   6   8
ENDBRANCH   5   6
ENDBRANCH   4   5
ENDBRANCH   3   4
ENDBRANCH   2   3
ENDBRANCH   1   2
BRANCH   1  33
ATOM     33  C   UNL     1      -4.901   1.100  -1.042  1.00  0.00     0.188 C 
BRANCH  33  34
ATOM     34  O   UNL     1      -5.117   1.950  -2.149  1.00  0.00    -0.376 OA
BRANCH  34  35
ATOM     35  C   UNL     1      -6.162   2.904  -2.094  1.00  0.00     0.202 C 
BRANCH  35  36
ATOM     36  C   UNL     1      -7.532   2.610  -1.453  1.00  0.00     0.261 C 
BRANCH  36  37
ATOM     37  O   UNL     1      -7.533   1.845  -0.239  1.00  0.00    -0.460 OA
BRANCH  37  38
ATOM     38  C   UNL     1      -8.013   0.578  -0.339  1.00  0.00     0.338 C 
ATOM     39  O   UNL     1      -8.470   0.050  -1.339  1.00  0.00    -0.246 OA
BRANCH  38  40
ATOM     40  C   UNL     1      -7.704  -0.177   0.898  1.00  0.00     0.060 A 
ATOM     41  C   UNL     1      -6.893  -1.318   0.794  1.00  0.00     0.016 A 
ATOM     42  C   UNL     1      -8.222   0.204   2.136  1.00  0.00     0.016 A 
ATOM     43  C   UNL     1      -6.634  -2.104   1.917  1.00  0.00     0.010 A 
ATOM     44  C   UNL     1      -7.981  -0.600   3.259  1.00  0.00     0.010 A 
ATOM     45  C   UNL     1      -7.222  -1.780   3.146  1.00  0.00    -0.014 A 
BRANCH  45  46
ATOM     46  C   UNL     1      -7.217  -2.789   4.238  1.00  0.00     0.031 A 
ATOM     47  C   UNL     1      -8.432  -3.665   4.408  1.00  0.00     0.074 A 
ATOM     48  C   UNL     1      -6.155  -2.956   5.047  1.00  0.00     0.049 A 
ATOM     49  N   UNL     1      -8.650  -4.625   5.269  1.00  0.00    -0.248 NA
ATOM     50  C   UNL     1      -9.551  -3.423   3.481  1.00  0.00     0.031 C 
ATOM     51  C   UNL     1      -4.918  -2.181   4.994  1.00  0.00     0.029 A 
ATOM     52  N   UNL     1      -5.961  -3.830   6.090  1.00  0.00    -0.354 N 
ATOM     53  C   UNL     1      -9.936  -5.083   5.007  1.00  0.00     0.074 A 
ATOM     54  C   UNL     1     -10.456  -4.286   3.918  1.00  0.00     0.031 C 
ATOM     55  C   UNL     1      -4.102  -2.595   5.980  1.00  0.00     0.029 A 
ATOM     56  C   UNL     1      -4.765  -3.652   6.744  1.00  0.00     0.049 A 
ATOM     57  H   UNL     1      -6.617  -4.518   6.345  1.00  0.00     0.167 HD
ATOM     58  C   UNL     1     -10.622  -6.087   5.604  1.00  0.00     0.034 A 
ATOM     59  C   UNL     1      -4.271  -4.260   7.843  1.00  0.00     0.034 A 
ATOM     60  C   UNL     1     -10.107  -6.893   6.677  1.00  0.00     0.049 A 
ATOM     61  C   UNL     1      -5.065  -5.359   8.507  1.00  0.00     0.074 A 
ATOM     62  C   UNL     1     -10.709  -7.966   7.310  1.00  0.00     0.029 A 
ATOM     63  N   UNL     1      -8.880  -6.705   7.290  1.00  0.00    -0.354 N 
ATOM     64  N   UNL     1      -6.223  -5.869   8.162  1.00  0.00    -0.248 NA
ATOM     65  C   UNL     1      -4.464  -5.992   9.692  1.00  0.00     0.031 C 
ATOM     66  C   UNL     1      -9.859  -8.405   8.331  1.00  0.00     0.029 A 
ATOM     67  C   UNL     1      -8.711  -7.630   8.307  1.00  0.00     0.049 A 
ATOM     68  H   UNL     1      -8.223  -6.015   7.040  1.00  0.00     0.167 HD
ATOM     69  C   UNL     1      -6.471  -6.901   9.064  1.00  0.00     0.074 A 
ATOM     70  C   UNL     1      -5.330  -6.961   9.952  1.00  0.00     0.031 C 
ATOM     71  C   UNL     1      -7.552  -7.715   9.158  1.00  0.00     0.034 A 
BRANCH  58  72
ATOM     72  C   UNL     1     -12.008  -6.383   5.093  1.00  0.00     0.023 A 
ATOM     73  C   UNL     1     -12.175  -6.996   3.835  1.00  0.00     0.012 A 
ATOM     74  C   UNL     1     -13.141  -6.099   5.880  1.00  0.00     0.148 A 
ATOM     75  C   UNL     1     -13.449  -7.291   3.353  1.00  0.00     0.002 A 
ATOM     76  C   UNL     1     -14.404  -6.440   5.414  1.00  0.00     0.091 A 
ATOM     77  F   UNL     1     -12.962  -5.495   7.064  1.00  0.00    -0.205 F 
ATOM     78  C   UNL     1     -14.562  -7.024   4.146  1.00  0.00     0.022 A 
BRANCH  76  79
ATOM     79  S   UNL     1     -15.893  -6.209   6.392  1.00  0.00     0.127 S 
ATOM     80  O   UNL     1     -16.566  -5.139   5.657  1.00  0.00    -0.237 OA
ATOM     81  O   UNL     1     -16.535  -7.520   6.286  1.00  0.00    -0.237 OA
ATOM     82  O   UNL     1     -15.444  -5.858   7.732  1.00  0.00    -0.744 OA
ENDBRANCH  76  79
ENDBRANCH  58  72
BRANCH  59  83
ATOM     83  C   UNL     1      -2.937  -3.866   8.382  1.00  0.00     0.023 A 
ATOM     84  C   UNL     1      -1.862  -4.775   8.322  1.00  0.00     0.012 A 
ATOM     85  C   UNL     1      -2.732  -2.600   8.964  1.00  0.00     0.148 A 
ATOM     86  C   UNL     1      -0.619  -4.444   8.863  1.00  0.00     0.002 A 
ATOM     87  C   UNL     1      -1.476  -2.255   9.448  1.00  0.00     0.091 A 
ATOM     88  F   UNL     1      -3.772  -1.757   9.030  1.00  0.00    -0.205 F 
ATOM     89  C   UNL     1      -0.423  -3.182   9.416  1.00  0.00     0.022 A 
BRANCH  87  90
ATOM     90  S   UNL     1      -1.097  -0.610  10.063  1.00  0.00     0.127 S 
ATOM     91  O   UNL     1      -0.886  -0.863  11.486  1.00  0.00    -0.237 OA
ATOM     92  O   UNL     1       0.112  -0.281   9.308  1.00  0.00    -0.237 OA
ATOM     93  O   UNL     1      -2.254   0.210   9.732  1.00  0.00    -0.744 OA
ENDBRANCH  87  90
ENDBRANCH  59  83
BRANCH  71  94
ATOM     94  C   UNL     1      -7.546  -8.771  10.236  1.00  0.00     0.023 A 
ATOM     95  C   UNL     1      -7.675  -8.398  11.589  1.00  0.00     0.012 A 
ATOM     96  C   UNL     1      -7.475 -10.140   9.904  1.00  0.00     0.148 A 
ATOM     97  C   UNL     1      -7.688  -9.364  12.595  1.00  0.00     0.002 A 
ATOM     98  C   UNL     1      -7.542 -11.099  10.908  1.00  0.00     0.091 A 
ATOM     99  F   UNL     1      -7.338 -10.479   8.614  1.00  0.00    -0.205 F 
ATOM    100  C   UNL     1      -7.633 -10.713  12.254  1.00  0.00     0.022 A 
BRANCH  98 101
ATOM    101  S   UNL     1      -7.576 -12.861  10.555  1.00  0.00     0.127 S 
ATOM    102  O   UNL     1      -6.238 -13.275  10.975  1.00  0.00    -0.237 OA
ATOM    103  O   UNL     1      -8.659 -13.331  11.421  1.00  0.00    -0.237 OA
ATOM    104  O   UNL     1      -7.850 -12.979   9.130  1.00  0.00    -0.744 OA
ENDBRANCH  98 101
ENDBRANCH  71  94
ENDBRANCH  45  46
ENDBRANCH  38  40
ENDBRANCH  37  38
ENDBRANCH  36  37
ENDBRANCH  35  36
ENDBRANCH  34  35
ENDBRANCH  33  34
ENDBRANCH   1  33
TORSDOF 25
