REMARK SMILES CCCc1cc2c(cc1Cl)C=C(C(=O)OCCOCCOCCOC(=O)c1ccc(-c3c4nc(c(-c5cccc(S(=O)(=O)[O-])c5F)c5ccc([nH]5)c(-c5cccc(S(=O)(=O)[O-])c5F)c5nc(c(-c6cccc(S(=O)(=O)[O-])c6F)c6ccc3[nH]6)C=C5)C=C4)cc1)[C@@H](C(F)(F)F)O2
REMARK SMILES IDX 20 1 19 2 18 3 17 4 16 5 15 6 13 7 14 8 12 9 4 10 5 11 9 12
REMARK SMILES IDX 6 13 8 14 10 15 7 16 95 17 11 18 90 19 3 20 2 21 1 22 91 23
REMARK SMILES IDX 92 24 93 25 94 26 21 27 22 28 23 29 24 30 25 31 26 32 27 33
REMARK SMILES IDX 28 34 89 35 29 36 88 37 30 38 31 39 32 40 82 41 33 42 87 43
REMARK SMILES IDX 81 44 83 45 34 46 86 47 80 48 79 49 35 51 67 52 47 53 66 54
REMARK SMILES IDX 48 55 51 56 65 57 84 58 49 59 50 60 64 62 85 63 52 64 36 65
REMARK SMILES IDX 37 66 45 67 38 68 40 69 46 70 39 71 41 72 42 73 43 74 44 75
REMARK SMILES IDX 68 76 69 77 77 78 70 79 72 80 78 81 71 82 73 83 74 84 75 85
REMARK SMILES IDX 76 86 53 87 54 88 62 89 55 90 57 91 63 92 56 93 58 94 59 95
REMARK SMILES IDX 60 96 61 97
REMARK H PARENT 83 50 51 61
REMARK Flexibility Score: inf
ROOT
ATOM      1  C   UNL     1      -2.577   7.257   5.056  1.00  0.00     0.188 C 
ENDROOT
BRANCH   1   2
ATOM      2  C   UNL     1      -2.016   8.466   4.276  1.00  0.00     0.188 C 
BRANCH   2   3
ATOM      3  O   UNL     1      -2.907   9.553   4.196  1.00  0.00    -0.376 OA
BRANCH   3   4
ATOM      4  C   UNL     1      -3.706   9.758   3.047  1.00  0.00     0.202 C 
BRANCH   4   5
ATOM      5  C   UNL     1      -4.225   8.638   2.127  1.00  0.00     0.261 C 
BRANCH   5   6
ATOM      6  O   UNL     1      -3.691   7.328   2.317  1.00  0.00    -0.460 OA
BRANCH   6   7
ATOM      7  C   UNL     1      -2.748   6.934   1.430  1.00  0.00     0.338 C 
ATOM      8  O   UNL     1      -2.296   7.590   0.507  1.00  0.00    -0.246 OA
BRANCH   7   9
ATOM      9  C   UNL     1      -2.254   5.601   1.827  1.00  0.00     0.087 C 
ATOM     10  C   UNL     1       0.535   1.502   2.582  1.00  0.00    -0.026 A 
ATOM     11  C   UNL     1      -0.840   1.789   2.668  1.00  0.00     0.052 A 
ATOM     12  C   UNL     1       1.429   2.570   2.411  1.00  0.00     0.045 A 
ATOM     13  C   UNL     1      -1.314   3.087   2.483  1.00  0.00     0.128 A 
ATOM     14  C   UNL     1       0.953   3.874   2.238  1.00  0.00     0.032 A 
ATOM     15  Cl  UNL     1       3.139   2.339   2.348  1.00  0.00    -0.084 Cl
ATOM     16  C   UNL     1      -0.421   4.127   2.228  1.00  0.00     0.019 A 
ATOM     17  O   UNL     1      -2.669   3.240   2.535  1.00  0.00    -0.475 OA
ATOM     18  C   UNL     1      -0.926   5.444   1.883  1.00  0.00     0.027 C 
ATOM     19  C   UNL     1      -3.247   4.521   2.168  1.00  0.00     0.316 C 
BRANCH  10  20
ATOM     20  C   UNL     1       0.965   0.052   2.567  1.00  0.00     0.037 C 
BRANCH  20  21
ATOM     21  C   UNL     1       0.551  -0.671   1.275  1.00  0.00     0.001 C 
ATOM     22  C   UNL     1       1.137  -0.055   0.009  1.00  0.00     0.004 C 
ENDBRANCH  20  21
ENDBRANCH  10  20
BRANCH  19  23
ATOM     23  C   UNL     1      -4.266   4.282   1.045  1.00  0.00     0.430 C 
ATOM     24  F   UNL     1      -5.135   3.292   1.372  1.00  0.00    -0.167 F 
ATOM     25  F   UNL     1      -5.018   5.383   0.804  1.00  0.00    -0.167 F 
ATOM     26  F   UNL     1      -3.676   3.932  -0.119  1.00  0.00    -0.167 F 
ENDBRANCH  19  23
ENDBRANCH   7   9
ENDBRANCH   6   7
ENDBRANCH   5   6
ENDBRANCH   4   5
ENDBRANCH   3   4
ENDBRANCH   2   3
ENDBRANCH   1   2
BRANCH   1  27
ATOM     27  O   UNL     1      -3.883   7.323   5.617  1.00  0.00    -0.376 OA
BRANCH  27  28
ATOM     28  C   UNL     1      -4.239   8.453   6.409  1.00  0.00     0.202 C 
BRANCH  28  29
ATOM     29  C   UNL     1      -3.364   8.841   7.610  1.00  0.00     0.261 C 
BRANCH  29  30
ATOM     30  O   UNL     1      -1.979   9.053   7.294  1.00  0.00    -0.460 OA
BRANCH  30  31
ATOM     31  C   UNL     1      -1.110   8.169   7.848  1.00  0.00     0.338 C 
ATOM     32  O   UNL     1      -1.379   7.249   8.601  1.00  0.00    -0.246 OA
BRANCH  31  33
ATOM     33  C   UNL     1       0.220   8.355   7.231  1.00  0.00     0.060 A 
ATOM     34  C   UNL     1       0.861   9.594   7.262  1.00  0.00     0.016 A 
ATOM     35  C   UNL     1       0.828   7.254   6.611  1.00  0.00     0.016 A 
ATOM     36  C   UNL     1       2.129   9.722   6.688  1.00  0.00     0.010 A 
ATOM     37  C   UNL     1       2.086   7.390   6.021  1.00  0.00     0.010 A 
ATOM     38  C   UNL     1       2.754   8.621   6.075  1.00  0.00    -0.014 A 
BRANCH  38  39
ATOM     39  C   UNL     1       4.176   8.714   5.666  1.00  0.00     0.031 A 
ATOM     40  C   UNL     1       4.587   8.930   4.242  1.00  0.00     0.074 A 
ATOM     41  C   UNL     1       5.113   8.573   6.623  1.00  0.00     0.049 A 
ATOM     42  N   UNL     1       5.786   9.143   3.765  1.00  0.00    -0.248 NA
ATOM     43  C   UNL     1       3.529   8.898   3.222  1.00  0.00     0.031 C 
ATOM     44  C   UNL     1       4.832   8.286   8.032  1.00  0.00     0.029 A 
ATOM     45  N   UNL     1       6.480   8.645   6.560  1.00  0.00    -0.354 N 
ATOM     46  C   UNL     1       5.635   9.273   2.392  1.00  0.00     0.074 A 
ATOM     47  C   UNL     1       4.225   9.093   2.107  1.00  0.00     0.031 C 
ATOM     48  C   UNL     1       5.992   8.220   8.703  1.00  0.00     0.029 A 
ATOM     49  C   UNL     1       7.094   8.456   7.774  1.00  0.00     0.049 A 
ATOM     50  H   UNL     1       6.974   8.816   5.726  1.00  0.00     0.167 HD
ATOM     51  C   UNL     1       6.583   9.543   1.463  1.00  0.00     0.034 A 
ATOM     52  C   UNL     1       8.397   8.486   8.113  1.00  0.00     0.034 A 
ATOM     53  C   UNL     1       7.980   9.735   1.756  1.00  0.00     0.049 A 
ATOM     54  C   UNL     1       9.424   8.810   7.069  1.00  0.00     0.074 A 
ATOM     55  C   UNL     1       8.996  10.095   0.886  1.00  0.00     0.029 A 
ATOM     56  N   UNL     1       8.563   9.566   3.002  1.00  0.00    -0.354 N 
ATOM     57  N   UNL     1       9.243   9.098   5.804  1.00  0.00    -0.248 NA
ATOM     58  C   UNL     1      10.828   8.848   7.501  1.00  0.00     0.031 C 
ATOM     59  C   UNL     1      10.196  10.129   1.603  1.00  0.00     0.029 A 
ATOM     60  C   UNL     1       9.926   9.802   2.922  1.00  0.00     0.049 A 
ATOM     61  H   UNL     1       8.080   9.316   3.822  1.00  0.00     0.167 HD
ATOM     62  C   UNL     1      10.505   9.368   5.291  1.00  0.00     0.074 A 
ATOM     63  C   UNL     1      11.442   9.225   6.386  1.00  0.00     0.031 C 
ATOM     64  C   UNL     1      10.850   9.693   4.022  1.00  0.00     0.034 A 
BRANCH  51  65
ATOM     65  C   UNL     1       6.147   9.728   0.035  1.00  0.00     0.023 A 
ATOM     66  C   UNL     1       5.566  10.954  -0.343  1.00  0.00     0.012 A 
ATOM     67  C   UNL     1       6.427   8.758  -0.947  1.00  0.00     0.148 A 
ATOM     68  C   UNL     1       5.261  11.212  -1.679  1.00  0.00     0.002 A 
ATOM     69  C   UNL     1       6.145   9.033  -2.281  1.00  0.00     0.091 A 
ATOM     70  F   UNL     1       6.972   7.597  -0.560  1.00  0.00    -0.205 F 
ATOM     71  C   UNL     1       5.560  10.257  -2.647  1.00  0.00     0.022 A 
BRANCH  69  72
ATOM     72  S   UNL     1       6.542   7.898  -3.615  1.00  0.00     0.127 S 
ATOM     73  O   UNL     1       5.210   7.509  -4.076  1.00  0.00    -0.237 OA
ATOM     74  O   UNL     1       7.281   8.757  -4.541  1.00  0.00    -0.237 OA
ATOM     75  O   UNL     1       7.327   6.829  -3.015  1.00  0.00    -0.744 OA
ENDBRANCH  69  72
ENDBRANCH  51  65
BRANCH  52  76
ATOM     76  C   UNL     1       8.770   8.292   9.538  1.00  0.00     0.023 A 
ATOM     77  C   UNL     1       9.098   9.416  10.319  1.00  0.00     0.012 A 
ATOM     78  C   UNL     1       8.698   7.022  10.141  1.00  0.00     0.148 A 
ATOM     79  C   UNL     1       9.351   9.278  11.683  1.00  0.00     0.002 A 
ATOM     80  C   UNL     1       8.915   6.898  11.508  1.00  0.00     0.091 A 
ATOM     81  F   UNL     1       8.379   5.973   9.371  1.00  0.00    -0.205 F 
ATOM     82  C   UNL     1       9.249   8.024  12.278  1.00  0.00     0.022 A 
BRANCH  80  83
ATOM     83  S   UNL     1       8.703   5.347  12.387  1.00  0.00     0.127 S 
ATOM     84  O   UNL     1      10.050   5.110  12.902  1.00  0.00    -0.237 OA
ATOM     85  O   UNL     1       7.712   5.712  13.399  1.00  0.00    -0.237 OA
ATOM     86  O   UNL     1       8.236   4.388  11.396  1.00  0.00    -0.744 OA
ENDBRANCH  80  83
ENDBRANCH  52  76
BRANCH  64  87
ATOM     87  C   UNL     1      12.307   9.918   3.722  1.00  0.00     0.023 A 
ATOM     88  C   UNL     1      13.153   8.806   3.552  1.00  0.00     0.012 A 
ATOM     89  C   UNL     1      12.806  11.215   3.490  1.00  0.00     0.148 A 
ATOM     90  C   UNL     1      14.480   8.981   3.162  1.00  0.00     0.002 A 
ATOM     91  C   UNL     1      14.120  11.380   3.069  1.00  0.00     0.091 A 
ATOM     92  F   UNL     1      11.981  12.257   3.667  1.00  0.00    -0.205 F 
ATOM     93  C   UNL     1      14.960  10.265   2.909  1.00  0.00     0.022 A 
BRANCH  91  94
ATOM     94  S   UNL     1      14.812  12.984   2.649  1.00  0.00     0.127 S 
ATOM     95  O   UNL     1      15.826  13.153   3.690  1.00  0.00    -0.237 OA
ATOM     96  O   UNL     1      15.348  12.748   1.309  1.00  0.00    -0.237 OA
ATOM     97  O   UNL     1      13.706  13.930   2.706  1.00  0.00    -0.744 OA
ENDBRANCH  91  94
ENDBRANCH  64  87
ENDBRANCH  38  39
ENDBRANCH  31  33
ENDBRANCH  30  31
ENDBRANCH  29  30
ENDBRANCH  28  29
ENDBRANCH  27  28
ENDBRANCH   1  27
TORSDOF 23
