REMARK SMILES C[C@H]1C[C@H]1CN(C)c1cccc(F)c1C(=O)OCCOCCOCCOC(=O)c1ccc(-c2c3nc(c(-c4cccc(S(=O)(=O)[O-])c4F)c4ccc([nH]4)c(-c4cccc(S(=O)(=O)[O-])c4F)c4nc(c(-c5cccc(S(=O)(=O)[O-])c5F)c5ccc2[nH]5)C=C4)C=C3)cc1
REMARK SMILES IDX 21 1 20 2 19 3 18 4 17 5 15 6 16 7 14 8 8 9 9 10 10 11 12 12
REMARK SMILES IDX 11 13 13 14 6 15 7 16 5 17 4 18 1 19 2 20 3 21 22 22 23 23
REMARK SMILES IDX 24 24 25 25 26 26 27 27 28 28 29 29 30 30 91 31 31 32 90 33
REMARK SMILES IDX 32 34 33 35 34 36 84 37 35 38 89 39 83 40 85 41 36 42 88 43
REMARK SMILES IDX 82 44 81 45 37 47 69 48 49 49 68 50 50 51 53 52 67 53 86 54
REMARK SMILES IDX 51 55 52 56 66 58 87 59 54 60 38 61 39 62 47 63 40 64 42 65
REMARK SMILES IDX 48 66 41 67 43 68 44 69 45 70 46 71 70 72 71 73 79 74 72 75
REMARK SMILES IDX 74 76 80 77 73 78 75 79 76 80 77 81 78 82 55 83 56 84 64 85
REMARK SMILES IDX 57 86 59 87 65 88 58 89 60 90 61 91 62 92 63 93
REMARK H PARENT 85 46 53 57
REMARK Flexibility Score: inf
ROOT
ATOM      1  C   UNL     1       2.690  -3.533  -6.963  1.00  0.00     0.188 C 
ENDROOT
BRANCH   1   2
ATOM      2  O   UNL     1       2.042  -4.126  -8.088  1.00  0.00    -0.376 OA
BRANCH   2   3
ATOM      3  C   UNL     1       0.798  -4.760  -7.789  1.00  0.00     0.202 C 
BRANCH   3   4
ATOM      4  C   UNL     1      -0.348  -3.756  -7.881  1.00  0.00     0.261 C 
BRANCH   4   5
ATOM      5  O   UNL     1      -0.180  -2.693  -6.933  1.00  0.00    -0.460 OA
BRANCH   5   6
ATOM      6  C   UNL     1      -0.606  -2.889  -5.659  1.00  0.00     0.343 C 
ATOM      7  O   UNL     1      -1.189  -3.871  -5.241  1.00  0.00    -0.246 OA
BRANCH   6   8
ATOM      8  C   UNL     1      -0.102  -1.734  -4.883  1.00  0.00     0.119 A 
ATOM      9  C   UNL     1       0.650  -1.866  -3.700  1.00  0.00     0.054 A 
ATOM     10  C   UNL     1       1.236  -0.689  -3.186  1.00  0.00     0.027 A 
ATOM     11  C   UNL     1       1.028   0.570  -3.755  1.00  0.00     0.005 A 
ATOM     12  C   UNL     1      -0.341  -0.458  -5.426  1.00  0.00     0.139 A 
ATOM     13  C   UNL     1       0.213   0.687  -4.869  1.00  0.00     0.040 A 
ATOM     14  F   UNL     1      -1.120  -0.306  -6.510  1.00  0.00    -0.206 F 
BRANCH   9  15
ATOM     15  N   UNL     1       0.832  -3.034  -2.981  1.00  0.00    -0.374 N 
ATOM     16  C   UNL     1       1.622  -4.143  -3.480  1.00  0.00     0.143 C 
BRANCH  15  17
ATOM     17  C   UNL     1       0.067  -3.232  -1.746  1.00  0.00     0.120 C 
BRANCH  17  18
ATOM     18  C   UNL     1       0.796  -2.626  -0.580  1.00  0.00     0.011 C 
ATOM     19  C   UNL     1      -0.801  -0.516  -0.327  1.00  0.00     0.008 C 
ATOM     20  C   UNL     1       0.387  -1.321   0.090  1.00  0.00    -0.009 C 
ATOM     21  C   UNL     1       0.174  -2.638   0.792  1.00  0.00     0.009 C 
ENDBRANCH  17  18
ENDBRANCH  15  17
ENDBRANCH   9  15
ENDBRANCH   6   8
ENDBRANCH   5   6
ENDBRANCH   4   5
ENDBRANCH   3   4
ENDBRANCH   2   3
ENDBRANCH   1   2
BRANCH   1  22
ATOM     22  C   UNL     1       2.966  -2.029  -7.136  1.00  0.00     0.188 C 
BRANCH  22  23
ATOM     23  O   UNL     1       3.544  -1.521  -8.336  1.00  0.00    -0.376 OA
BRANCH  23  24
ATOM     24  C   UNL     1       4.202  -2.412  -9.220  1.00  0.00     0.202 C 
BRANCH  24  25
ATOM     25  C   UNL     1       5.630  -2.803  -8.833  1.00  0.00     0.261 C 
BRANCH  25  26
ATOM     26  O   UNL     1       5.752  -3.336  -7.504  1.00  0.00    -0.460 OA
BRANCH  26  27
ATOM     27  C   UNL     1       6.204  -2.456  -6.577  1.00  0.00     0.338 C 
ATOM     28  O   UNL     1       6.532  -1.296  -6.767  1.00  0.00    -0.246 OA
BRANCH  27  29
ATOM     29  C   UNL     1       6.159  -3.054  -5.225  1.00  0.00     0.060 A 
ATOM     30  C   UNL     1       5.665  -2.263  -4.180  1.00  0.00     0.016 A 
ATOM     31  C   UNL     1       6.687  -4.321  -4.957  1.00  0.00     0.016 A 
ATOM     32  C   UNL     1       5.755  -2.707  -2.860  1.00  0.00     0.010 A 
ATOM     33  C   UNL     1       6.786  -4.760  -3.630  1.00  0.00     0.010 A 
ATOM     34  C   UNL     1       6.362  -3.937  -2.573  1.00  0.00    -0.014 A 
BRANCH  34  35
ATOM     35  C   UNL     1       6.696  -4.273  -1.165  1.00  0.00     0.031 A 
ATOM     36  C   UNL     1       8.075  -3.965  -0.647  1.00  0.00     0.074 A 
ATOM     37  C   UNL     1       5.783  -4.823  -0.344  1.00  0.00     0.049 A 
ATOM     38  N   UNL     1       8.559  -4.129   0.556  1.00  0.00    -0.248 NA
ATOM     39  C   UNL     1       9.032  -3.392  -1.608  1.00  0.00     0.031 C 
ATOM     40  C   UNL     1       4.417  -5.171  -0.720  1.00  0.00     0.029 A 
ATOM     41  N   UNL     1       5.876  -5.196   0.975  1.00  0.00    -0.354 N 
ATOM     42  C   UNL     1       9.876  -3.689   0.498  1.00  0.00     0.074 A 
ATOM     43  C   UNL     1      10.123  -3.270  -0.865  1.00  0.00     0.031 C 
ATOM     44  C   UNL     1       3.800  -5.723   0.339  1.00  0.00     0.029 A 
ATOM     45  C   UNL     1       4.733  -5.782   1.464  1.00  0.00     0.049 A 
ATOM     46  H   UNL     1       6.685  -5.056   1.518  1.00  0.00     0.167 HD
ATOM     47  C   UNL     1      10.790  -3.616   1.493  1.00  0.00     0.034 A 
ATOM     48  C   UNL     1       4.470  -6.312   2.677  1.00  0.00     0.034 A 
ATOM     49  C   UNL     1      10.547  -4.016   2.851  1.00  0.00     0.049 A 
ATOM     50  C   UNL     1       5.520  -6.258   3.758  1.00  0.00     0.074 A 
ATOM     51  C   UNL     1      11.403  -3.930   3.935  1.00  0.00     0.029 A 
ATOM     52  N   UNL     1       9.373  -4.589   3.312  1.00  0.00    -0.354 N 
ATOM     53  N   UNL     1       6.712  -5.713   3.722  1.00  0.00    -0.248 NA
ATOM     54  C   UNL     1       5.180  -6.862   5.056  1.00  0.00     0.031 C 
ATOM     55  C   UNL     1      10.755  -4.473   5.047  1.00  0.00     0.029 A 
ATOM     56  C   UNL     1       9.487  -4.876   4.661  1.00  0.00     0.049 A 
ATOM     57  H   UNL     1       8.576  -4.765   2.762  1.00  0.00     0.167 HD
ATOM     58  C   UNL     1       7.248  -5.876   4.996  1.00  0.00     0.074 A 
ATOM     59  C   UNL     1       6.247  -6.561   5.786  1.00  0.00     0.031 C 
ATOM     60  C   UNL     1       8.466  -5.503   5.461  1.00  0.00     0.034 A 
BRANCH  47  61
ATOM     61  C   UNL     1      12.138  -3.034   1.166  1.00  0.00     0.023 A 
ATOM     62  C   UNL     1      12.264  -1.639   1.006  1.00  0.00     0.012 A 
ATOM     63  C   UNL     1      13.287  -3.846   1.112  1.00  0.00     0.148 A 
ATOM     64  C   UNL     1      13.512  -1.062   0.780  1.00  0.00     0.002 A 
ATOM     65  C   UNL     1      14.533  -3.259   0.925  1.00  0.00     0.091 A 
ATOM     66  F   UNL     1      13.139  -5.171   1.246  1.00  0.00    -0.205 F 
ATOM     67  C   UNL     1      14.646  -1.869   0.752  1.00  0.00     0.022 A 
BRANCH  65  68
ATOM     68  S   UNL     1      16.061  -4.203   0.949  1.00  0.00     0.127 S 
ATOM     69  O   UNL     1      16.463  -4.146  -0.456  1.00  0.00    -0.237 OA
ATOM     70  O   UNL     1      16.896  -3.414   1.854  1.00  0.00    -0.237 OA
ATOM     71  O   UNL     1      15.708  -5.526   1.444  1.00  0.00    -0.744 OA
ENDBRANCH  65  68
ENDBRANCH  47  61
BRANCH  48  72
ATOM     72  C   UNL     1       3.126  -6.895   2.950  1.00  0.00     0.023 A 
ATOM     73  C   UNL     1       2.246  -6.228   3.822  1.00  0.00     0.012 A 
ATOM     74  C   UNL     1       2.703  -8.082   2.320  1.00  0.00     0.148 A 
ATOM     75  C   UNL     1       0.974  -6.741   4.077  1.00  0.00     0.002 A 
ATOM     76  C   UNL     1       1.416  -8.559   2.537  1.00  0.00     0.091 A 
ATOM     77  F   UNL     1       3.565  -8.711   1.508  1.00  0.00    -0.205 F 
ATOM     78  C   UNL     1       0.555  -7.899   3.426  1.00  0.00     0.022 A 
BRANCH  76  79
ATOM     79  S   UNL     1       0.745  -9.966   1.644  1.00  0.00     0.127 S 
ATOM     80  O   UNL     1       0.615 -10.960   2.706  1.00  0.00    -0.237 OA
ATOM     81  O   UNL     1      -0.520  -9.427   1.145  1.00  0.00    -0.237 OA
ATOM     82  O   UNL     1       1.719 -10.274   0.605  1.00  0.00    -0.744 OA
ENDBRANCH  76  79
ENDBRANCH  48  72
BRANCH  60  83
ATOM     83  C   UNL     1       8.808  -5.792   6.900  1.00  0.00     0.023 A 
ATOM     84  C   UNL     1       9.137  -7.106   7.285  1.00  0.00     0.012 A 
ATOM     85  C   UNL     1       8.947  -4.743   7.832  1.00  0.00     0.148 A 
ATOM     86  C   UNL     1       9.590  -7.374   8.576  1.00  0.00     0.002 A 
ATOM     87  C   UNL     1       9.443  -5.010   9.103  1.00  0.00     0.091 A 
ATOM     88  F   UNL     1       8.616  -3.501   7.449  1.00  0.00    -0.205 F 
ATOM     89  C   UNL     1       9.758  -6.326   9.479  1.00  0.00     0.022 A 
BRANCH  87  90
ATOM     90  S   UNL     1       9.790  -3.714  10.299  1.00  0.00     0.127 S 
ATOM     91  O   UNL     1       8.756  -3.952  11.305  1.00  0.00    -0.237 OA
ATOM     92  O   UNL     1      11.148  -4.045  10.730  1.00  0.00    -0.237 OA
ATOM     93  O   UNL     1       9.675  -2.455   9.574  1.00  0.00    -0.744 OA
ENDBRANCH  87  90
ENDBRANCH  60  83
ENDBRANCH  34  35
ENDBRANCH  27  29
ENDBRANCH  26  27
ENDBRANCH  25  26
ENDBRANCH  24  25
ENDBRANCH  23  24
ENDBRANCH  22  23
ENDBRANCH   1  22
TORSDOF 23
