REMARK SMILES CC1(C)OC(=O)C(/C=N/[C@@H](CCC(N)=O)C(=O)OCCOCCOCCOC(=O)c2ccc(-c3c4nc(c(-c5cccc(S(=O)(=O)[O-])c5F)c5ccc([nH]5)c(-c5cccc(S(=O)(=O)[O-])c5F)c5nc(c(-c6cccc(S(=O)(=O)[O-])c6F)c6ccc3[nH]6)C=C5)C=C4)cc2)C(=O)O1
REMARK SMILES IDX 22 1 21 2 20 3 19 4 18 5 16 6 17 7 10 8 9 9 8 10 7 11 1 12
REMARK SMILES IDX 2 13 3 14 4 15 95 16 5 17 93 18 6 19 94 20 11 21 12 22 13 23
REMARK SMILES IDX 14 24 15 25 23 28 24 29 25 30 26 31 27 32 28 33 29 34 30 35
REMARK SMILES IDX 31 36 92 37 32 38 91 39 33 40 34 41 35 42 85 43 36 44 90 45
REMARK SMILES IDX 84 46 86 47 37 48 89 49 83 50 82 51 38 53 70 54 50 55 69 56
REMARK SMILES IDX 51 57 54 58 68 59 87 60 52 61 53 62 67 64 88 65 55 66 39 67
REMARK SMILES IDX 40 68 48 69 41 70 43 71 49 72 42 73 44 74 45 75 46 76 47 77
REMARK SMILES IDX 71 78 72 79 80 80 73 81 75 82 81 83 74 84 76 85 77 86 78 87
REMARK SMILES IDX 79 88 56 89 57 90 65 91 58 92 60 93 66 94 59 95 61 96 62 97
REMARK SMILES IDX 63 98 64 99
REMARK H PARENT 14 26 14 27 86 52 54 63
REMARK Flexibility Score: inf
ROOT
ATOM      1  C   UNL     1       3.404   4.833   2.765  1.00  0.00     0.188 C 
ENDROOT
BRANCH   1   2
ATOM      2  O   UNL     1       4.254   4.400   3.819  1.00  0.00    -0.376 OA
BRANCH   2   3
ATOM      3  C   UNL     1       3.893   3.257   4.582  1.00  0.00     0.202 C 
BRANCH   3   4
ATOM      4  C   UNL     1       2.456   3.114   5.104  1.00  0.00     0.261 C 
BRANCH   4   5
ATOM      5  O   UNL     1       1.432   3.101   4.085  1.00  0.00    -0.462 OA
BRANCH   5   6
ATOM      6  C   UNL     1       0.466   4.040   4.210  1.00  0.00     0.330 C 
ATOM      7  O   UNL     1       0.422   4.844   5.141  1.00  0.00    -0.250 OA
BRANCH   6   8
ATOM      8  C   UNL     1      -0.658   4.005   3.179  1.00  0.00     0.215 C 
BRANCH   8   9
ATOM      9  N   UNL     1      -0.521   3.361   1.863  1.00  0.00    -0.281 NA
ATOM     10  C   UNL     1      -0.046   2.197   1.630  1.00  0.00     0.106 C 
BRANCH  10  11
ATOM     11  C   UNL     1      -0.173   1.629   0.238  1.00  0.00     0.250 C 
ATOM     12  C   UNL     1      -0.082  -1.994   1.318  1.00  0.00     0.106 C 
ATOM     13  C   UNL     1      -0.015  -1.171   0.036  1.00  0.00     0.252 C 
ATOM     14  C   UNL     1       0.133  -2.094  -1.174  1.00  0.00     0.106 C 
ATOM     15  O   UNL     1       1.155  -0.361   0.092  1.00  0.00    -0.422 OA
ATOM     16  O   UNL     1      -1.266  -0.502  -0.129  1.00  0.00    -0.422 OA
ATOM     17  C   UNL     1       1.043   0.936  -0.238  1.00  0.00     0.329 C 
ATOM     18  C   UNL     1      -1.405   0.811   0.104  1.00  0.00     0.329 C 
ATOM     19  O   UNL     1       1.946   1.516  -0.827  1.00  0.00    -0.251 OA
ATOM     20  O   UNL     1      -2.530   1.298   0.178  1.00  0.00    -0.251 OA
ENDBRANCH  10  11
ENDBRANCH   8   9
BRANCH   8  21
ATOM     21  C   UNL     1      -1.990   3.628   3.836  1.00  0.00     0.049 C 
BRANCH  21  22
ATOM     22  C   UNL     1      -2.241   2.136   4.048  1.00  0.00     0.102 C 
BRANCH  22  23
ATOM     23  C   UNL     1      -1.164   1.395   4.806  1.00  0.00     0.217 C 
ATOM     24  N   UNL     1      -0.888   1.852   6.056  1.00  0.00    -0.370 N 
ATOM     25  O   UNL     1      -0.579   0.420   4.344  1.00  0.00    -0.275 OA
ATOM     26  H   UNL     1      -1.367   2.635   6.411  1.00  0.00     0.159 HD
ATOM     27  H   UNL     1      -0.209   1.399   6.606  1.00  0.00     0.159 HD
ENDBRANCH  22  23
ENDBRANCH  21  22
ENDBRANCH   8  21
ENDBRANCH   6   8
ENDBRANCH   5   6
ENDBRANCH   4   5
ENDBRANCH   3   4
ENDBRANCH   2   3
ENDBRANCH   1   2
BRANCH   1  28
ATOM     28  C   UNL     1       2.890   3.798   1.749  1.00  0.00     0.188 C 
BRANCH  28  29
ATOM     29  O   UNL     1       3.194   2.452   2.041  1.00  0.00    -0.376 OA
BRANCH  29  30
ATOM     30  C   UNL     1       4.260   1.820   1.349  1.00  0.00     0.202 C 
BRANCH  30  31
ATOM     31  C   UNL     1       5.506   2.558   0.822  1.00  0.00     0.261 C 
BRANCH  31  32
ATOM     32  O   UNL     1       5.397   3.963   0.577  1.00  0.00    -0.460 OA
BRANCH  32  33
ATOM     33  C   UNL     1       4.977   4.349  -0.651  1.00  0.00     0.338 C 
ATOM     34  O   UNL     1       4.694   3.633  -1.597  1.00  0.00    -0.246 OA
BRANCH  33  35
ATOM     35  C   UNL     1       4.726   5.804  -0.590  1.00  0.00     0.060 A 
ATOM     36  C   UNL     1       3.416   6.286  -0.731  1.00  0.00     0.016 A 
ATOM     37  C   UNL     1       5.785   6.686  -0.367  1.00  0.00     0.016 A 
ATOM     38  C   UNL     1       3.165   7.658  -0.675  1.00  0.00     0.010 A 
ATOM     39  C   UNL     1       5.536   8.059  -0.337  1.00  0.00     0.010 A 
ATOM     40  C   UNL     1       4.231   8.553  -0.523  1.00  0.00    -0.014 A 
BRANCH  40  41
ATOM     41  C   UNL     1       4.029  10.002  -0.762  1.00  0.00     0.031 A 
ATOM     42  C   UNL     1       4.406  10.556  -2.109  1.00  0.00     0.074 A 
ATOM     43  C   UNL     1       3.557  10.816   0.198  1.00  0.00     0.049 A 
ATOM     44  N   UNL     1       4.400  11.793  -2.529  1.00  0.00    -0.248 NA
ATOM     45  C   UNL     1       4.862   9.580  -3.113  1.00  0.00     0.031 C 
ATOM     46  C   UNL     1       3.151  10.400   1.538  1.00  0.00     0.029 A 
ATOM     47  N   UNL     1       3.374  12.177   0.195  1.00  0.00    -0.354 N 
ATOM     48  C   UNL     1       4.886  11.751  -3.830  1.00  0.00     0.074 A 
ATOM     49  C   UNL     1       5.186  10.368  -4.127  1.00  0.00     0.031 C 
ATOM     50  C   UNL     1       2.800  11.490   2.243  1.00  0.00     0.029 A 
ATOM     51  C   UNL     1       2.984  12.680   1.414  1.00  0.00     0.049 A 
ATOM     52  H   UNL     1       3.508  12.738  -0.602  1.00  0.00     0.167 HD
ATOM     53  C   UNL     1       5.058  12.770  -4.705  1.00  0.00     0.034 A 
ATOM     54  C   UNL     1       2.825  13.956   1.819  1.00  0.00     0.034 A 
ATOM     55  C   UNL     1       4.750  14.142  -4.411  1.00  0.00     0.049 A 
ATOM     56  C   UNL     1       3.050  15.078   0.836  1.00  0.00     0.074 A 
ATOM     57  C   UNL     1       4.840  15.241  -5.246  1.00  0.00     0.029 A 
ATOM     58  N   UNL     1       4.314  14.609  -3.181  1.00  0.00    -0.354 N 
ATOM     59  N   UNL     1       3.396  15.015  -0.427  1.00  0.00    -0.248 NA
ATOM     60  C   UNL     1       2.832  16.448   1.327  1.00  0.00     0.031 C 
ATOM     61  C   UNL     1       4.498  16.379  -4.508  1.00  0.00     0.029 A 
ATOM     62  C   UNL     1       4.149  15.983  -3.227  1.00  0.00     0.049 A 
ATOM     63  H   UNL     1       4.147  14.047  -2.390  1.00  0.00     0.167 HD
ATOM     64  C   UNL     1       3.398  16.328  -0.891  1.00  0.00     0.074 A 
ATOM     65  C   UNL     1       3.003  17.163   0.223  1.00  0.00     0.031 C 
ATOM     66  C   UNL     1       3.708  16.799  -2.125  1.00  0.00     0.034 A 
BRANCH  53  67
ATOM     67  C   UNL     1       5.601  12.431  -6.069  1.00  0.00     0.023 A 
ATOM     68  C   UNL     1       4.801  11.723  -6.989  1.00  0.00     0.012 A 
ATOM     69  C   UNL     1       6.890  12.849  -6.453  1.00  0.00     0.148 A 
ATOM     70  C   UNL     1       5.290  11.401  -8.255  1.00  0.00     0.002 A 
ATOM     71  C   UNL     1       7.351  12.569  -7.733  1.00  0.00     0.091 A 
ATOM     72  F   UNL     1       7.644  13.501  -5.556  1.00  0.00    -0.205 F 
ATOM     73  C   UNL     1       6.559  11.833  -8.629  1.00  0.00     0.022 A 
BRANCH  71  74
ATOM     74  S   UNL     1       8.938  13.152  -8.339  1.00  0.00     0.127 S 
ATOM     75  O   UNL     1       9.694  11.904  -8.436  1.00  0.00    -0.237 OA
ATOM     76  O   UNL     1       8.574  13.745  -9.627  1.00  0.00    -0.237 OA
ATOM     77  O   UNL     1       9.424  14.101  -7.348  1.00  0.00    -0.744 OA
ENDBRANCH  71  74
ENDBRANCH  53  67
BRANCH  54  78
ATOM     78  C   UNL     1       2.404  14.248   3.220  1.00  0.00     0.023 A 
ATOM     79  C   UNL     1       1.125  14.782   3.465  1.00  0.00     0.012 A 
ATOM     80  C   UNL     1       3.261  13.991   4.308  1.00  0.00     0.148 A 
ATOM     81  C   UNL     1       0.717  15.086   4.765  1.00  0.00     0.002 A 
ATOM     82  C   UNL     1       2.829  14.244   5.604  1.00  0.00     0.091 A 
ATOM     83  F   UNL     1       4.481  13.496   4.052  1.00  0.00    -0.205 F 
ATOM     84  C   UNL     1       1.564  14.807   5.834  1.00  0.00     0.022 A 
BRANCH  82  85
ATOM     85  S   UNL     1       3.801  13.811   7.051  1.00  0.00     0.127 S 
ATOM     86  O   UNL     1       4.111  15.125   7.608  1.00  0.00    -0.237 OA
ATOM     87  O   UNL     1       2.844  13.022   7.829  1.00  0.00    -0.237 OA
ATOM     88  O   UNL     1       4.941  13.056   6.552  1.00  0.00    -0.744 OA
ENDBRANCH  82  85
ENDBRANCH  54  78
BRANCH  66  89
ATOM     89  C   UNL     1       3.586  18.284  -2.365  1.00  0.00     0.023 A 
ATOM     90  C   UNL     1       4.511  19.174  -1.783  1.00  0.00     0.012 A 
ATOM     91  C   UNL     1       2.597  18.788  -3.234  1.00  0.00     0.148 A 
ATOM     92  C   UNL     1       4.431  20.544  -2.034  1.00  0.00     0.002 A 
ATOM     93  C   UNL     1       2.557  20.147  -3.522  1.00  0.00     0.091 A 
ATOM     94  F   UNL     1       1.717  17.928  -3.768  1.00  0.00    -0.205 F 
ATOM     95  C   UNL     1       3.464  21.028  -2.912  1.00  0.00     0.022 A 
BRANCH  93  96
ATOM     96  S   UNL     1       1.413  20.848  -4.717  1.00  0.00     0.127 S 
ATOM     97  O   UNL     1       0.506  21.603  -3.853  1.00  0.00    -0.237 OA
ATOM     98  O   UNL     1       2.295  21.672  -5.543  1.00  0.00    -0.237 OA
ATOM     99  O   UNL     1       0.813  19.718  -5.413  1.00  0.00    -0.744 OA
ENDBRANCH  93  96
ENDBRANCH  66  89
ENDBRANCH  40  41
ENDBRANCH  33  35
ENDBRANCH  32  33
ENDBRANCH  31  32
ENDBRANCH  30  31
ENDBRANCH  29  30
ENDBRANCH  28  29
ENDBRANCH   1  28
TORSDOF 25
