REMARK SMILES O=C(CCCC[C@H](O)c1ccc(Cl)s1)OCCOCCOCCOC(=O)c1ccc(-c2c3nc(c(-c4cccc(S(=O)(=O)[O-])c4F)c4ccc([nH]4)c(-c4cccc(S(=O)(=O)[O-])c4F)c4nc(c(-c5cccc(S(=O)(=O)[O-])c5F)c5ccc2[nH]5)C=C4)C=C3)cc1
REMARK SMILES IDX 19 1 18 2 17 3 16 4 15 5 2 6 1 7 3 8 4 9 5 10 6 11 7 12 9 13
REMARK SMILES IDX 10 14 14 15 11 16 12 17 13 18 8 19 20 21 21 22 22 23 23 24
REMARK SMILES IDX 24 25 25 26 26 27 27 28 28 29 89 30 29 31 88 32 30 33 31 34
REMARK SMILES IDX 32 35 82 36 33 37 87 38 81 39 83 40 34 41 86 42 80 43 79 44
REMARK SMILES IDX 35 46 67 47 47 48 66 49 48 50 51 51 65 52 84 53 49 54 50 55
REMARK SMILES IDX 64 57 85 58 52 59 36 60 37 61 45 62 38 63 40 64 46 65 39 66
REMARK SMILES IDX 41 67 42 68 43 69 44 70 68 71 69 72 77 73 70 74 72 75 78 76
REMARK SMILES IDX 71 77 73 78 74 79 75 80 76 81 53 82 54 83 62 84 55 85 57 86
REMARK SMILES IDX 63 87 56 88 58 89 59 90 60 91 61 92
REMARK H PARENT 8 20 83 45 51 56
REMARK Flexibility Score: inf
ROOT
ATOM      1  C   UNL     1       9.265   2.113  -1.563  1.00  0.00     0.188 C 
ENDROOT
BRANCH   1   2
ATOM      2  O   UNL     1       9.017   0.835  -2.142  1.00  0.00    -0.376 OA
BRANCH   2   3
ATOM      3  C   UNL     1       9.242   0.738  -3.540  1.00  0.00     0.202 C 
BRANCH   3   4
ATOM      4  C   UNL     1       7.943   0.878  -4.318  1.00  0.00     0.261 C 
BRANCH   4   5
ATOM      5  O   UNL     1       7.404   2.205  -4.219  1.00  0.00    -0.463 OA
BRANCH   5   6
ATOM      6  C   UNL     1       6.181   2.436  -3.681  1.00  0.00     0.305 C 
ATOM      7  O   UNL     1       5.468   3.322  -4.148  1.00  0.00    -0.252 OA
BRANCH   6   8
ATOM      8  C   UNL     1       5.789   1.684  -2.425  1.00  0.00     0.123 C 
BRANCH   8   9
ATOM      9  C   UNL     1       4.635   0.699  -2.602  1.00  0.00     0.012 C 
BRANCH   9  10
ATOM     10  C   UNL     1       5.006  -0.765  -2.890  1.00  0.00     0.004 C 
BRANCH  10  11
ATOM     11  C   UNL     1       6.070  -1.429  -1.997  1.00  0.00     0.037 C 
BRANCH  11  12
ATOM     12  C   UNL     1       5.639  -1.696  -0.549  1.00  0.00     0.154 C 
BRANCH  12  13
ATOM     13  C   UNL     1       6.764  -2.309   0.245  1.00  0.00     0.035 A 
ATOM     14  C   UNL     1       7.832  -1.678   0.866  1.00  0.00     0.020 A 
ATOM     15  S   UNL     1       6.839  -4.012   0.470  1.00  0.00    -0.126 S 
ATOM     16  C   UNL     1       8.682  -2.592   1.556  1.00  0.00     0.033 A 
ATOM     17  C   UNL     1       8.239  -3.880   1.411  1.00  0.00     0.093 A 
ATOM     18  Cl  UNL     1       8.963  -5.292   2.069  1.00  0.00    -0.072 Cl
ENDBRANCH  12  13
BRANCH  12  19
ATOM     19  O   UNL     1       5.316  -0.470   0.094  1.00  0.00    -0.388 OA
ATOM     20  H   UNL     1       6.099   0.103   0.110  1.00  0.00     0.211 HD
ENDBRANCH  12  19
ENDBRANCH  11  12
ENDBRANCH  10  11
ENDBRANCH   9  10
ENDBRANCH   8   9
ENDBRANCH   6   8
ENDBRANCH   5   6
ENDBRANCH   4   5
ENDBRANCH   3   4
ENDBRANCH   2   3
ENDBRANCH   1   2
BRANCH   1  21
ATOM     21  C   UNL     1      10.702   2.630  -1.707  1.00  0.00     0.188 C 
BRANCH  21  22
ATOM     22  O   UNL     1      11.752   1.669  -1.779  1.00  0.00    -0.376 OA
BRANCH  22  23
ATOM     23  C   UNL     1      11.732   0.553  -0.892  1.00  0.00     0.202 C 
BRANCH  23  24
ATOM     24  C   UNL     1      12.004   0.859   0.578  1.00  0.00     0.261 C 
BRANCH  24  25
ATOM     25  O   UNL     1      10.812   1.282   1.259  1.00  0.00    -0.460 OA
BRANCH  25  26
ATOM     26  C   UNL     1      10.782   2.577   1.642  1.00  0.00     0.338 C 
ATOM     27  O   UNL     1      11.624   3.436   1.417  1.00  0.00    -0.246 OA
BRANCH  26  28
ATOM     28  C   UNL     1       9.513   2.863   2.326  1.00  0.00     0.060 A 
ATOM     29  C   UNL     1       8.793   4.006   1.955  1.00  0.00     0.016 A 
ATOM     30  C   UNL     1       9.107   2.077   3.406  1.00  0.00     0.016 A 
ATOM     31  C   UNL     1       7.697   4.412   2.716  1.00  0.00     0.010 A 
ATOM     32  C   UNL     1       8.017   2.488   4.169  1.00  0.00     0.010 A 
ATOM     33  C   UNL     1       7.343   3.682   3.857  1.00  0.00    -0.014 A 
BRANCH  33  34
ATOM     34  C   UNL     1       6.408   4.241   4.858  1.00  0.00     0.031 A 
ATOM     35  C   UNL     1       6.986   4.897   6.080  1.00  0.00     0.074 A 
ATOM     36  C   UNL     1       5.083   4.071   4.730  1.00  0.00     0.049 A 
ATOM     37  N   UNL     1       6.390   5.281   7.176  1.00  0.00    -0.248 NA
ATOM     38  C   UNL     1       8.441   5.130   6.070  1.00  0.00     0.031 C 
ATOM     39  C   UNL     1       4.419   3.446   3.589  1.00  0.00     0.029 A 
ATOM     40  N   UNL     1       4.065   4.359   5.604  1.00  0.00    -0.354 N 
ATOM     41  C   UNL     1       7.399   5.755   8.006  1.00  0.00     0.074 A 
ATOM     42  C   UNL     1       8.645   5.613   7.286  1.00  0.00     0.031 C 
ATOM     43  C   UNL     1       3.107   3.342   3.857  1.00  0.00     0.029 A 
ATOM     44  C   UNL     1       2.850   3.863   5.199  1.00  0.00     0.049 A 
ATOM     45  H   UNL     1       4.193   4.869   6.436  1.00  0.00     0.167 HD
ATOM     46  C   UNL     1       7.295   6.266   9.255  1.00  0.00     0.034 A 
ATOM     47  C   UNL     1       1.675   3.798   5.857  1.00  0.00     0.034 A 
ATOM     48  C   UNL     1       6.049   6.423   9.952  1.00  0.00     0.049 A 
ATOM     49  C   UNL     1       1.577   4.376   7.244  1.00  0.00     0.074 A 
ATOM     50  C   UNL     1       5.821   6.987  11.194  1.00  0.00     0.029 A 
ATOM     51  N   UNL     1       4.819   6.001   9.469  1.00  0.00    -0.354 N 
ATOM     52  N   UNL     1       2.514   4.931   7.974  1.00  0.00    -0.248 NA
ATOM     53  C   UNL     1       0.255   4.348   7.887  1.00  0.00     0.031 C 
ATOM     54  C   UNL     1       4.453   6.887  11.470  1.00  0.00     0.029 A 
ATOM     55  C   UNL     1       3.827   6.283  10.391  1.00  0.00     0.049 A 
ATOM     56  H   UNL     1       4.673   5.565   8.599  1.00  0.00     0.167 HD
ATOM     57  C   UNL     1       1.891   5.353   9.144  1.00  0.00     0.074 A 
ATOM     58  C   UNL     1       0.493   4.994   9.022  1.00  0.00     0.031 C 
ATOM     59  C   UNL     1       2.429   5.973  10.224  1.00  0.00     0.034 A 
BRANCH  46  60
ATOM     60  C   UNL     1       8.565   6.707   9.932  1.00  0.00     0.023 A 
ATOM     61  C   UNL     1       9.221   7.876   9.495  1.00  0.00     0.012 A 
ATOM     62  C   UNL     1       9.097   5.980  11.014  1.00  0.00     0.148 A 
ATOM     63  C   UNL     1      10.408   8.292  10.097  1.00  0.00     0.002 A 
ATOM     64  C   UNL     1      10.258   6.425  11.638  1.00  0.00     0.091 A 
ATOM     65  F   UNL     1       8.478   4.855  11.399  1.00  0.00    -0.205 F 
ATOM     66  C   UNL     1      10.921   7.572  11.173  1.00  0.00     0.022 A 
BRANCH  64  67
ATOM     67  S   UNL     1      10.946   5.599  13.077  1.00  0.00     0.127 S 
ATOM     68  O   UNL     1      12.042   4.834  12.484  1.00  0.00    -0.237 OA
ATOM     69  O   UNL     1      11.371   6.725  13.911  1.00  0.00    -0.237 OA
ATOM     70  O   UNL     1       9.857   4.814  13.639  1.00  0.00    -0.744 OA
ENDBRANCH  64  67
ENDBRANCH  46  60
BRANCH  47  71
ATOM     71  C   UNL     1       0.498   3.183   5.184  1.00  0.00     0.023 A 
ATOM     72  C   UNL     1      -0.548   4.008   4.730  1.00  0.00     0.012 A 
ATOM     73  C   UNL     1       0.446   1.799   4.925  1.00  0.00     0.148 A 
ATOM     74  C   UNL     1      -1.633   3.464   4.043  1.00  0.00     0.002 A 
ATOM     75  C   UNL     1      -0.611   1.271   4.193  1.00  0.00     0.091 A 
ATOM     76  F   UNL     1       1.448   1.032   5.376  1.00  0.00    -0.205 F 
ATOM     77  C   UNL     1      -1.659   2.099   3.764  1.00  0.00     0.022 A 
BRANCH  75  78
ATOM     78  S   UNL     1      -0.658  -0.447   3.667  1.00  0.00     0.127 S 
ATOM     79  O   UNL     1      -1.776  -0.969   4.449  1.00  0.00    -0.237 OA
ATOM     80  O   UNL     1      -0.916  -0.315   2.233  1.00  0.00    -0.237 OA
ATOM     81  O   UNL     1       0.651  -0.997   3.992  1.00  0.00    -0.744 OA
ENDBRANCH  75  78
ENDBRANCH  47  71
BRANCH  59  82
ATOM     82  C   UNL     1       1.507   6.354  11.352  1.00  0.00     0.023 A 
ATOM     83  C   UNL     1       1.038   5.366  12.238  1.00  0.00     0.012 A 
ATOM     84  C   UNL     1       1.201   7.708  11.597  1.00  0.00     0.148 A 
ATOM     85  C   UNL     1       0.263   5.718  13.343  1.00  0.00     0.002 A 
ATOM     86  C   UNL     1       0.466   8.055  12.724  1.00  0.00     0.091 A 
ATOM     87  F   UNL     1       1.643   8.630  10.729  1.00  0.00    -0.205 F 
ATOM     88  C   UNL     1      -0.011   7.061  13.593  1.00  0.00     0.022 A 
BRANCH  86  89
ATOM     89  S   UNL     1       0.151   9.765  13.177  1.00  0.00     0.127 S 
ATOM     90  O   UNL     1      -1.272   9.897  12.870  1.00  0.00    -0.237 OA
ATOM     91  O   UNL     1       0.471   9.772  14.605  1.00  0.00    -0.237 OA
ATOM     92  O   UNL     1       1.046  10.569  12.355  1.00  0.00    -0.744 OA
ENDBRANCH  86  89
ENDBRANCH  59  82
ENDBRANCH  33  34
ENDBRANCH  26  28
ENDBRANCH  25  26
ENDBRANCH  24  25
ENDBRANCH  23  24
ENDBRANCH  22  23
ENDBRANCH  21  22
ENDBRANCH   1  21
TORSDOF 26
