REMARK SMILES COc1ccc([C@H]2C[NH2+]C[C@@H]2C(=O)OCCOCCOCCOC(=O)c2ccc(-c3c4nc(c(-c5cccc(S(=O)(=O)[O-])c5F)c5ccc([nH]5)c(-c5cccc(S(=O)(=O)[O-])c5F)c5nc(c(-c6cccc(S(=O)(=O)[O-])c6F)c6ccc3[nH]6)C=C5)C=C4)cc2)cc1
REMARK SMILES IDX 19 1 18 2 17 3 16 4 15 5 14 6 12 7 13 8 11 9 7 10 8 11 9 12
REMARK SMILES IDX 10 13 6 16 3 17 4 18 90 19 5 20 89 21 2 22 1 23 20 24 21 25
REMARK SMILES IDX 22 26 23 27 24 28 25 29 26 30 27 31 88 32 28 33 87 34 29 35
REMARK SMILES IDX 30 36 31 37 81 38 32 39 86 40 80 41 82 42 33 43 85 44 79 45
REMARK SMILES IDX 78 46 34 48 66 49 46 50 65 51 47 52 50 53 64 54 83 55 48 56
REMARK SMILES IDX 49 57 63 59 84 60 51 61 35 62 36 63 44 64 37 65 39 66 45 67
REMARK SMILES IDX 38 68 40 69 41 70 42 71 43 72 67 73 68 74 76 75 69 76 71 77
REMARK SMILES IDX 77 78 70 79 72 80 73 81 74 82 75 83 52 84 53 85 61 86 54 87
REMARK SMILES IDX 56 88 62 89 55 90 57 91 58 92 59 93 60 94
REMARK H PARENT 9 14 9 15 82 47 50 58
REMARK Flexibility Score: inf
ROOT
ATOM      1  C   UNL     1       1.648  -1.050  -4.755  1.00  0.00     0.188 C 
ENDROOT
BRANCH   1   2
ATOM      2  C   UNL     1       2.626  -1.195  -3.569  1.00  0.00     0.188 C 
BRANCH   2   3
ATOM      3  O   UNL     1       3.639  -0.209  -3.571  1.00  0.00    -0.376 OA
BRANCH   3   4
ATOM      4  C   UNL     1       4.947  -0.628  -3.921  1.00  0.00     0.202 C 
BRANCH   4   5
ATOM      5  C   UNL     1       5.181  -1.355  -5.258  1.00  0.00     0.261 C 
BRANCH   5   6
ATOM      6  O   UNL     1       4.138  -2.232  -5.716  1.00  0.00    -0.463 OA
BRANCH   6   7
ATOM      7  C   UNL     1       4.176  -3.532  -5.314  1.00  0.00     0.315 C 
ATOM      8  O   UNL     1       5.028  -3.987  -4.567  1.00  0.00    -0.252 OA
BRANCH   7   9
ATOM      9  C   UNL     1       2.992  -4.300  -5.909  1.00  0.00     0.167 C 
ATOM     10  C   UNL     1       2.074  -4.905  -4.829  1.00  0.00     0.094 C 
ATOM     11  C   UNL     1       2.833  -6.217  -4.553  1.00  0.00     0.269 C 
ATOM     12  N   UNL     1       3.235  -6.706  -5.886  1.00  0.00    -0.345 N 
ATOM     13  C   UNL     1       3.508  -5.503  -6.690  1.00  0.00     0.276 C 
ATOM     14  H   UNL     1       2.482  -7.251  -6.306  1.00  0.00     0.346 HD
ATOM     15  H   UNL     1       4.053  -7.313  -5.831  1.00  0.00     0.346 HD
BRANCH  10  16
ATOM     16  C   UNL     1       0.614  -5.198  -5.221  1.00  0.00    -0.038 A 
ATOM     17  C   UNL     1      -2.007  -6.012  -5.932  1.00  0.00     0.118 A 
ATOM     18  C   UNL     1      -1.476  -6.367  -4.698  1.00  0.00     0.047 A 
ATOM     19  C   UNL     1      -1.278  -5.175  -6.771  1.00  0.00     0.047 A 
ATOM     20  C   UNL     1      -0.186  -5.958  -4.343  1.00  0.00     0.008 A 
ATOM     21  C   UNL     1       0.020  -4.770  -6.418  1.00  0.00     0.008 A 
BRANCH  17  22
ATOM     22  O   UNL     1      -3.262  -6.475  -6.216  1.00  0.00    -0.497 OA
ATOM     23  C   UNL     1      -3.403  -6.976  -7.543  1.00  0.00     0.278 C 
ENDBRANCH  17  22
ENDBRANCH  10  16
ENDBRANCH   7   9
ENDBRANCH   6   7
ENDBRANCH   5   6
ENDBRANCH   4   5
ENDBRANCH   3   4
ENDBRANCH   2   3
ENDBRANCH   1   2
BRANCH   1  24
ATOM     24  O   UNL     1       1.809   0.010  -5.691  1.00  0.00    -0.376 OA
BRANCH  24  25
ATOM     25  C   UNL     1       2.084   1.321  -5.211  1.00  0.00     0.202 C 
BRANCH  25  26
ATOM     26  C   UNL     1       1.221   1.952  -4.102  1.00  0.00     0.261 C 
BRANCH  26  27
ATOM     27  O   UNL     1       0.865   1.097  -3.004  1.00  0.00    -0.460 OA
BRANCH  27  28
ATOM     28  C   UNL     1      -0.420   0.676  -2.983  1.00  0.00     0.338 C 
ATOM     29  O   UNL     1      -1.304   0.971  -3.787  1.00  0.00    -0.246 OA
BRANCH  28  30
ATOM     30  C   UNL     1      -0.598  -0.367  -1.956  1.00  0.00     0.060 A 
ATOM     31  C   UNL     1      -1.027  -1.640  -2.364  1.00  0.00     0.016 A 
ATOM     32  C   UNL     1      -0.413  -0.086  -0.601  1.00  0.00     0.016 A 
ATOM     33  C   UNL     1      -1.317  -2.621  -1.419  1.00  0.00     0.010 A 
ATOM     34  C   UNL     1      -0.731  -1.063   0.349  1.00  0.00     0.010 A 
ATOM     35  C   UNL     1      -1.228  -2.317  -0.056  1.00  0.00    -0.014 A 
BRANCH  35  36
ATOM     36  C   UNL     1      -1.883  -3.214   0.928  1.00  0.00     0.031 A 
ATOM     37  C   UNL     1      -3.273  -2.864   1.392  1.00  0.00     0.074 A 
ATOM     38  C   UNL     1      -1.274  -4.319   1.391  1.00  0.00     0.049 A 
ATOM     39  N   UNL     1      -4.038  -3.475   2.257  1.00  0.00    -0.248 NA
ATOM     40  C   UNL     1      -3.877  -1.657   0.801  1.00  0.00     0.031 C 
ATOM     41  C   UNL     1       0.062  -4.773   1.012  1.00  0.00     0.029 A 
ATOM     42  N   UNL     1      -1.701  -5.250   2.305  1.00  0.00    -0.354 N 
ATOM     43  C   UNL     1      -5.198  -2.713   2.339  1.00  0.00     0.074 A 
ATOM     44  C   UNL     1      -5.031  -1.587   1.447  1.00  0.00     0.031 C 
ATOM     45  C   UNL     1       0.360  -5.881   1.714  1.00  0.00     0.029 A 
ATOM     46  C   UNL     1      -0.756  -6.202   2.604  1.00  0.00     0.049 A 
ATOM     47  H   UNL     1      -2.599  -5.237   2.708  1.00  0.00     0.167 HD
ATOM     48  C   UNL     1      -6.311  -2.935   3.078  1.00  0.00     0.034 A 
ATOM     49  C   UNL     1      -0.784  -7.203   3.507  1.00  0.00     0.034 A 
ATOM     50  C   UNL     1      -6.484  -4.061   3.953  1.00  0.00     0.049 A 
ATOM     51  C   UNL     1      -2.028  -7.420   4.332  1.00  0.00     0.074 A 
ATOM     52  C   UNL     1      -7.588  -4.395   4.717  1.00  0.00     0.029 A 
ATOM     53  N   UNL     1      -5.524  -5.032   4.190  1.00  0.00    -0.354 N 
ATOM     54  N   UNL     1      -3.157  -6.754   4.320  1.00  0.00    -0.248 NA
ATOM     55  C   UNL     1      -2.015  -8.555   5.267  1.00  0.00     0.031 C 
ATOM     56  C   UNL     1      -7.284  -5.553   5.440  1.00  0.00     0.029 A 
ATOM     57  C   UNL     1      -6.007  -5.964   5.093  1.00  0.00     0.049 A 
ATOM     58  H   UNL     1      -4.631  -5.056   3.777  1.00  0.00     0.167 HD
ATOM     59  C   UNL     1      -4.004  -7.417   5.203  1.00  0.00     0.074 A 
ATOM     60  C   UNL     1      -3.260  -8.544   5.725  1.00  0.00     0.031 C 
ATOM     61  C   UNL     1      -5.279  -7.117   5.556  1.00  0.00     0.034 A 
BRANCH  48  62
ATOM     62  C   UNL     1      -7.435  -1.940   2.958  1.00  0.00     0.023 A 
ATOM     63  C   UNL     1      -8.199  -1.883   1.774  1.00  0.00     0.012 A 
ATOM     64  C   UNL     1      -7.760  -1.088   4.031  1.00  0.00     0.148 A 
ATOM     65  C   UNL     1      -9.245  -0.970   1.647  1.00  0.00     0.002 A 
ATOM     66  C   UNL     1      -8.834  -0.214   3.915  1.00  0.00     0.091 A 
ATOM     67  F   UNL     1      -7.007  -1.138   5.139  1.00  0.00    -0.205 F 
ATOM     68  C   UNL     1      -9.569  -0.144   2.720  1.00  0.00     0.022 A 
BRANCH  66  69
ATOM     69  S   UNL     1      -9.381   0.832   5.269  1.00  0.00     0.127 S 
ATOM     70  O   UNL     1      -8.996   2.159   4.791  1.00  0.00    -0.237 OA
ATOM     71  O   UNL     1     -10.823   0.584   5.285  1.00  0.00    -0.237 OA
ATOM     72  O   UNL     1      -8.672   0.363   6.451  1.00  0.00    -0.744 OA
ENDBRANCH  66  69
ENDBRANCH  48  62
BRANCH  49  73
ATOM     73  C   UNL     1       0.391  -8.107   3.657  1.00  0.00     0.023 A 
ATOM     74  C   UNL     1       0.291  -9.453   3.254  1.00  0.00     0.012 A 
ATOM     75  C   UNL     1       1.605  -7.641   4.199  1.00  0.00     0.148 A 
ATOM     76  C   UNL     1       1.365 -10.328   3.421  1.00  0.00     0.002 A 
ATOM     77  C   UNL     1       2.688  -8.504   4.313  1.00  0.00     0.091 A 
ATOM     78  F   UNL     1       1.675  -6.361   4.590  1.00  0.00    -0.205 F 
ATOM     79  C   UNL     1       2.566  -9.852   3.942  1.00  0.00     0.022 A 
BRANCH  77  80
ATOM     80  S   UNL     1       4.308  -7.953   4.862  1.00  0.00     0.127 S 
ATOM     81  O   UNL     1       4.434  -8.632   6.149  1.00  0.00    -0.237 OA
ATOM     82  O   UNL     1       5.174  -8.472   3.803  1.00  0.00    -0.237 OA
ATOM     83  O   UNL     1       4.231  -6.500   4.919  1.00  0.00    -0.744 OA
ENDBRANCH  77  80
ENDBRANCH  49  73
BRANCH  61  84
ATOM     84  C   UNL     1      -5.990  -8.056   6.499  1.00  0.00     0.023 A 
ATOM     85  C   UNL     1      -5.622  -8.114   7.857  1.00  0.00     0.012 A 
ATOM     86  C   UNL     1      -7.076  -8.832   6.045  1.00  0.00     0.148 A 
ATOM     87  C   UNL     1      -6.296  -8.958   8.739  1.00  0.00     0.002 A 
ATOM     88  C   UNL     1      -7.777  -9.630   6.940  1.00  0.00     0.091 A 
ATOM     89  F   UNL     1      -7.402  -8.778   4.745  1.00  0.00    -0.205 F 
ATOM     90  C   UNL     1      -7.380  -9.706   8.284  1.00  0.00     0.022 A 
BRANCH  88  91
ATOM     91  S   UNL     1      -9.247 -10.546   6.462  1.00  0.00     0.127 S 
ATOM     92  O   UNL     1      -8.741 -11.916   6.409  1.00  0.00    -0.237 OA
ATOM     93  O   UNL     1     -10.159 -10.275   7.574  1.00  0.00    -0.237 OA
ATOM     94  O   UNL     1      -9.670  -9.984   5.186  1.00  0.00    -0.744 OA
ENDBRANCH  88  91
ENDBRANCH  61  84
ENDBRANCH  35  36
ENDBRANCH  28  30
ENDBRANCH  27  28
ENDBRANCH  26  27
ENDBRANCH  25  26
ENDBRANCH  24  25
ENDBRANCH   1  24
TORSDOF 22
