REMARK SMILES CC1=C(C#N)c2nc(N)c(C#N)c(C)c2/C1=C\c1ccc(OCC(=O)OCCOCCOCCOC(=O)c2ccc(-c3c4nc(c(-c5cccc(S(=O)(=O)[O-])c5F)c5ccc([nH]5)c(-c5cccc(S(=O)(=O)[O-])c5F)c5nc(c(-c6cccc(S(=O)(=O)[O-])c6F)c6ccc3[nH]6)C=C5)C=C4)cc2)c(Cl)c1
REMARK SMILES IDX 30 1 29 2 28 3 27 4 26 5 24 6 25 7 23 8 22 9 21 10 18 11
REMARK SMILES IDX 19 12 103 13 20 14 101 15 102 16 17 17 1 18 2 19 3 20 16 21
REMARK SMILES IDX 6 22 15 23 7 24 13 25 8 26 10 27 14 28 4 29 5 30 9 31 11 34
REMARK SMILES IDX 12 35 31 36 32 37 33 38 34 39 35 40 36 41 37 42 38 43 39 44
REMARK SMILES IDX 100 45 40 46 99 47 41 48 42 49 43 50 93 51 44 52 98 53 92 54
REMARK SMILES IDX 94 55 45 56 97 57 91 58 90 59 46 61 78 62 58 63 77 64 59 65
REMARK SMILES IDX 62 66 76 67 95 68 60 69 61 70 75 72 96 73 63 74 47 75 48 76
REMARK SMILES IDX 56 77 49 78 51 79 57 80 50 81 52 82 53 83 54 84 55 85 79 86
REMARK SMILES IDX 80 87 88 88 81 89 83 90 89 91 82 92 84 93 85 94 86 95 87 96
REMARK SMILES IDX 64 97 65 98 73 99 66 100 68 101 74 102 67 103 69 104 70 105
REMARK SMILES IDX 71 106 72 107
REMARK H PARENT 9 32 9 33 94 60 62 71
REMARK Flexibility Score: inf
ROOT
ATOM      1  C   UNL     1      -1.259   8.056  -4.244  1.00  0.00     0.188 C 
ENDROOT
BRANCH   1   2
ATOM      2  O   UNL     1      -1.165   7.959  -5.639  1.00  0.00    -0.376 OA
BRANCH   2   3
ATOM      3  C   UNL     1      -0.579   9.039  -6.332  1.00  0.00     0.202 C 
BRANCH   3   4
ATOM      4  C   UNL     1       0.515  10.043  -5.799  1.00  0.00     0.261 C 
BRANCH   4   5
ATOM      5  O   UNL     1       1.249   9.910  -4.540  1.00  0.00    -0.461 OA
BRANCH   5   6
ATOM      6  C   UNL     1       0.763  10.394  -3.365  1.00  0.00     0.344 C 
ATOM      7  O   UNL     1      -0.214  11.138  -3.319  1.00  0.00    -0.248 OA
BRANCH   6   8
ATOM      8  C   UNL     1       1.517   9.861  -2.012  1.00  0.00     0.352 C 
BRANCH   8   9
ATOM      9  O   UNL     1       2.381   8.720  -1.802  1.00  0.00    -0.480 OA
BRANCH   9  10
ATOM     10  C   UNL     1       2.116   7.471  -1.259  1.00  0.00     0.138 A 
ATOM     11  C   UNL     1       1.708   4.563  -0.870  1.00  0.00    -0.023 A 
ATOM     12  C   UNL     1       2.855   5.082  -1.464  1.00  0.00     0.012 A 
ATOM     13  C   UNL     1       0.912   5.548  -0.229  1.00  0.00     0.032 A 
ATOM     14  C   UNL     1       3.045   6.488  -1.655  1.00  0.00     0.048 A 
ATOM     15  C   UNL     1       1.110   6.979  -0.419  1.00  0.00     0.083 A 
ATOM     16  Cl  UNL     1       0.059   8.037   0.460  1.00  0.00    -0.080 Cl
BRANCH  11  17
ATOM     17  C   UNL     1       1.393   3.057  -0.895  1.00  0.00     0.017 C 
ATOM     18  C   UNL     1       1.072   0.060  -0.111  1.00  0.00     0.046 C 
ATOM     19  C   UNL     1       0.681   0.694  -1.404  1.00  0.00    -0.023 C 
ATOM     20  C   UNL     1       0.064   0.080  -2.438  1.00  0.00     0.082 C 
ATOM     21  C   UNL     1       1.001   2.101  -1.820  1.00  0.00    -0.011 C 
ATOM     22  C   UNL     1      -0.211   0.967  -3.492  1.00  0.00     0.092 A 
ATOM     23  C   UNL     1       0.625   2.044  -3.312  1.00  0.00     0.014 A 
ATOM     24  N   UNL     1      -0.838   0.458  -4.573  1.00  0.00    -0.228 NA
ATOM     25  C   UNL     1       1.076   2.480  -4.540  1.00  0.00    -0.019 A 
ATOM     26  C   UNL     1      -0.621   1.099  -5.696  1.00  0.00     0.142 A 
ATOM     27  C   UNL     1       0.318   2.131  -5.736  1.00  0.00     0.098 A 
ATOM     28  C   UNL     1       2.419   3.130  -4.518  1.00  0.00     0.046 C 
BRANCH  20  29
ATOM     29  C   UNL     1      -0.265  -1.393  -2.613  1.00  0.00     0.102 C 
ATOM     30  N   UNL     1      -0.538  -2.616  -2.758  1.00  0.00    -0.192 NA
ENDBRANCH  20  29
BRANCH  26  31
ATOM     31  N   UNL     1      -1.254   0.562  -6.795  1.00  0.00    -0.383 N 
ATOM     32  H   UNL     1      -1.906  -0.166  -6.681  1.00  0.00     0.158 HD
ATOM     33  H   UNL     1      -1.054   0.907  -7.696  1.00  0.00     0.158 HD
ENDBRANCH  26  31
BRANCH  27  34
ATOM     34  C   UNL     1       0.306   2.837  -6.972  1.00  0.00     0.103 C 
ATOM     35  N   UNL     1       0.071   3.447  -7.952  1.00  0.00    -0.192 NA
ENDBRANCH  27  34
ENDBRANCH  11  17
ENDBRANCH   9  10
ENDBRANCH   8   9
ENDBRANCH   6   8
ENDBRANCH   5   6
ENDBRANCH   4   5
ENDBRANCH   3   4
ENDBRANCH   2   3
ENDBRANCH   1   2
BRANCH   1  36
ATOM     36  C   UNL     1       0.034   7.618  -3.586  1.00  0.00     0.188 C 
BRANCH  36  37
ATOM     37  O   UNL     1       1.155   7.623  -4.429  1.00  0.00    -0.376 OA
BRANCH  37  38
ATOM     38  C   UNL     1       1.371   6.431  -5.122  1.00  0.00     0.202 C 
BRANCH  38  39
ATOM     39  C   UNL     1       0.164   5.557  -5.533  1.00  0.00     0.261 C 
BRANCH  39  40
ATOM     40  O   UNL     1      -1.027   5.263  -4.703  1.00  0.00    -0.460 OA
BRANCH  40  41
ATOM     41  C   UNL     1      -0.844   4.782  -3.455  1.00  0.00     0.338 C 
ATOM     42  O   UNL     1       0.283   4.597  -3.035  1.00  0.00    -0.246 OA
BRANCH  41  43
ATOM     43  C   UNL     1      -1.955   4.766  -2.454  1.00  0.00     0.060 A 
ATOM     44  C   UNL     1      -2.006   5.836  -1.555  1.00  0.00     0.016 A 
ATOM     45  C   UNL     1      -2.653   3.608  -2.099  1.00  0.00     0.016 A 
ATOM     46  C   UNL     1      -2.682   5.761  -0.337  1.00  0.00     0.010 A 
ATOM     47  C   UNL     1      -3.425   3.564  -0.901  1.00  0.00     0.010 A 
ATOM     48  C   UNL     1      -3.453   4.647  -0.004  1.00  0.00    -0.014 A 
BRANCH  48  49
ATOM     49  C   UNL     1      -4.348   4.758   1.196  1.00  0.00     0.031 A 
ATOM     50  C   UNL     1      -4.219   3.881   2.419  1.00  0.00     0.074 A 
ATOM     51  C   UNL     1      -5.268   5.752   1.205  1.00  0.00     0.049 A 
ATOM     52  N   UNL     1      -4.967   3.861   3.497  1.00  0.00    -0.248 NA
ATOM     53  C   UNL     1      -3.109   2.917   2.455  1.00  0.00     0.031 C 
ATOM     54  C   UNL     1      -5.468   6.712   0.114  1.00  0.00     0.029 A 
ATOM     55  N   UNL     1      -6.194   6.138   2.146  1.00  0.00    -0.354 N 
ATOM     56  C   UNL     1      -4.461   2.853   4.313  1.00  0.00     0.074 A 
ATOM     57  C   UNL     1      -3.314   2.303   3.618  1.00  0.00     0.031 C 
ATOM     58  C   UNL     1      -6.419   7.588   0.455  1.00  0.00     0.029 A 
ATOM     59  C   UNL     1      -6.989   7.186   1.733  1.00  0.00     0.049 A 
ATOM     60  H   UNL     1      -6.281   5.709   3.027  1.00  0.00     0.167 HD
ATOM     61  C   UNL     1      -4.918   2.426   5.518  1.00  0.00     0.034 A 
ATOM     62  C   UNL     1      -8.098   7.735   2.268  1.00  0.00     0.034 A 
ATOM     63  C   UNL     1      -6.041   3.008   6.219  1.00  0.00     0.049 A 
ATOM     64  C   UNL     1      -8.607   7.206   3.575  1.00  0.00     0.074 A 
ATOM     65  C   UNL     1      -6.556   2.651   7.456  1.00  0.00     0.029 A 
ATOM     66  N   UNL     1      -6.826   4.051   5.753  1.00  0.00    -0.354 N 
ATOM     67  N   UNL     1      -8.088   6.280   4.342  1.00  0.00    -0.248 NA
ATOM     68  C   UNL     1      -9.844   7.801   4.100  1.00  0.00     0.031 C 
ATOM     69  C   UNL     1      -7.681   3.438   7.710  1.00  0.00     0.029 A 
ATOM     70  C   UNL     1      -7.836   4.329   6.662  1.00  0.00     0.049 A 
ATOM     71  H   UNL     1      -6.686   4.526   4.902  1.00  0.00     0.167 HD
ATOM     72  C   UNL     1      -8.924   6.189   5.446  1.00  0.00     0.074 A 
ATOM     73  C   UNL     1      -9.964   7.182   5.267  1.00  0.00     0.031 C 
ATOM     74  C   UNL     1      -8.846   5.344   6.501  1.00  0.00     0.034 A 
BRANCH  61  75
ATOM     75  C   UNL     1      -4.236   1.258   6.197  1.00  0.00     0.023 A 
ATOM     76  C   UNL     1      -2.997   1.437   6.842  1.00  0.00     0.012 A 
ATOM     77  C   UNL     1      -4.915   0.027   6.345  1.00  0.00     0.148 A 
ATOM     78  C   UNL     1      -2.440   0.410   7.609  1.00  0.00     0.002 A 
ATOM     79  C   UNL     1      -4.377  -0.972   7.149  1.00  0.00     0.091 A 
ATOM     80  F   UNL     1      -6.095  -0.126   5.726  1.00  0.00    -0.205 F 
ATOM     81  C   UNL     1      -3.135  -0.786   7.774  1.00  0.00     0.022 A 
BRANCH  79  82
ATOM     82  S   UNL     1      -5.239  -2.510   7.506  1.00  0.00     0.127 S 
ATOM     83  O   UNL     1      -4.341  -3.496   6.906  1.00  0.00    -0.237 OA
ATOM     84  O   UNL     1      -5.259  -2.517   8.969  1.00  0.00    -0.237 OA
ATOM     85  O   UNL     1      -6.545  -2.400   6.874  1.00  0.00    -0.744 OA
ENDBRANCH  79  82
ENDBRANCH  61  75
BRANCH  62  86
ATOM     86  C   UNL     1      -8.817   8.818   1.533  1.00  0.00     0.023 A 
ATOM     87  C   UNL     1      -8.892  10.114   2.075  1.00  0.00     0.012 A 
ATOM     88  C   UNL     1      -9.387   8.573   0.265  1.00  0.00     0.148 A 
ATOM     89  C   UNL     1      -9.534  11.139   1.378  1.00  0.00     0.002 A 
ATOM     90  C   UNL     1      -9.955   9.615  -0.457  1.00  0.00     0.091 A 
ATOM     91  F   UNL     1      -9.331   7.327  -0.228  1.00  0.00    -0.205 F 
ATOM     92  C   UNL     1     -10.048  10.895   0.106  1.00  0.00     0.022 A 
BRANCH  90  93
ATOM     93  S   UNL     1     -10.489   9.422  -2.161  1.00  0.00     0.127 S 
ATOM     94  O   UNL     1     -11.940   9.517  -2.032  1.00  0.00    -0.237 OA
ATOM     95  O   UNL     1      -9.850  10.569  -2.808  1.00  0.00    -0.237 OA
ATOM     96  O   UNL     1      -9.974   8.129  -2.591  1.00  0.00    -0.744 OA
ENDBRANCH  90  93
ENDBRANCH  62  86
BRANCH  74  97
ATOM     97  C   UNL     1      -9.900   5.458   7.572  1.00  0.00     0.023 A 
ATOM     98  C   UNL     1     -11.218   5.037   7.307  1.00  0.00     0.012 A 
ATOM     99  C   UNL     1      -9.561   5.894   8.868  1.00  0.00     0.148 A 
ATOM    100  C   UNL     1     -12.189   5.072   8.307  1.00  0.00     0.002 A 
ATOM    101  C   UNL     1     -10.518   5.870   9.875  1.00  0.00     0.091 A 
ATOM    102  F   UNL     1      -8.306   6.309   9.095  1.00  0.00    -0.205 F 
ATOM    103  C   UNL     1     -11.835   5.473   9.594  1.00  0.00     0.022 A 
BRANCH 101 104
ATOM    104  S   UNL     1     -10.132   6.263  11.585  1.00  0.00     0.127 S 
ATOM    105  O   UNL     1     -10.894   7.494  11.788  1.00  0.00    -0.237 OA
ATOM    106  O   UNL     1     -10.658   5.096  12.294  1.00  0.00    -0.237 OA
ATOM    107  O   UNL     1      -8.684   6.413  11.649  1.00  0.00    -0.744 OA
ENDBRANCH 101 104
ENDBRANCH  74  97
ENDBRANCH  48  49
ENDBRANCH  41  43
ENDBRANCH  40  41
ENDBRANCH  39  40
ENDBRANCH  38  39
ENDBRANCH  37  38
ENDBRANCH  36  37
ENDBRANCH   1  36
TORSDOF 26
