REMARK SMILES Cc1ccc(C)c(Oc2cccc(F)c2C(=O)OCCOCCOCCOC(=O)c2ccc(-c3c4nc(c(-c5cccc(S(=O)(=O)[O-])c5F)c5ccc([nH]5)c(-c5cccc(S(=O)(=O)[O-])c5F)c5nc(c(-c6cccc(S(=O)(=O)[O-])c6F)c6ccc3[nH]6)C=C5)C=C4)cc2)c1
REMARK SMILES IDX 23 1 22 2 21 3 20 4 19 5 18 6 16 7 17 8 15 9 9 10 10 11
REMARK SMILES IDX 11 12 13 13 12 14 14 15 8 16 7 17 1 18 2 19 3 20 93 21 4 22
REMARK SMILES IDX 5 23 6 24 24 25 25 26 26 27 27 28 28 29 29 30 30 31 31 32
REMARK SMILES IDX 92 33 32 34 91 35 33 36 34 37 35 38 85 39 36 40 90 41 84 42
REMARK SMILES IDX 86 43 37 44 89 45 83 46 82 47 38 49 70 50 50 51 69 52 51 53
REMARK SMILES IDX 54 54 68 55 87 56 52 57 53 58 67 60 88 61 55 62 39 63 40 64
REMARK SMILES IDX 48 65 41 66 43 67 49 68 42 69 44 70 45 71 46 72 47 73 71 74
REMARK SMILES IDX 72 75 80 76 73 77 75 78 81 79 74 80 76 81 77 82 78 83 79 84
REMARK SMILES IDX 56 85 57 86 65 87 58 88 60 89 66 90 59 91 61 92 62 93 63 94
REMARK SMILES IDX 64 95
REMARK H PARENT 86 48 54 59
REMARK Flexibility Score: inf
ROOT
ATOM      1  C   UNL     1      -6.068   3.587   1.442  1.00  0.00     0.188 C 
ENDROOT
BRANCH   1   2
ATOM      2  C   UNL     1      -5.019   2.469   1.365  1.00  0.00     0.188 C 
BRANCH   2   3
ATOM      3  O   UNL     1      -4.947   1.637   2.531  1.00  0.00    -0.376 OA
BRANCH   3   4
ATOM      4  C   UNL     1      -4.317   2.225   3.677  1.00  0.00     0.202 C 
BRANCH   4   5
ATOM      5  C   UNL     1      -2.781   2.155   3.699  1.00  0.00     0.261 C 
BRANCH   5   6
ATOM      6  O   UNL     1      -2.185   2.646   2.487  1.00  0.00    -0.459 OA
BRANCH   6   7
ATOM      7  C   UNL     1      -0.839   2.505   2.425  1.00  0.00     0.345 C 
ATOM      8  O   UNL     1      -0.124   1.895   3.214  1.00  0.00    -0.246 OA
BRANCH   7   9
ATOM      9  C   UNL     1      -0.333   3.307   1.306  1.00  0.00     0.138 A 
ATOM     10  C   UNL     1      -0.678   3.041  -0.022  1.00  0.00     0.144 A 
ATOM     11  C   UNL     1      -0.251   3.886  -1.055  1.00  0.00     0.048 A 
ATOM     12  C   UNL     1       0.592   4.960  -0.770  1.00  0.00     0.007 A 
ATOM     13  C   UNL     1       0.533   4.364   1.570  1.00  0.00     0.141 A 
ATOM     14  C   UNL     1       0.997   5.188   0.545  1.00  0.00     0.040 A 
ATOM     15  F   UNL     1       0.933   4.627   2.817  1.00  0.00    -0.206 F 
BRANCH  10  16
ATOM     16  O   UNL     1      -1.354   1.901  -0.386  1.00  0.00    -0.456 OA
BRANCH  16  17
ATOM     17  C   UNL     1      -0.641   0.715  -0.278  1.00  0.00     0.130 A 
ATOM     18  C   UNL     1       2.949  -0.544  -0.034  1.00  0.00     0.044 C 
ATOM     19  C   UNL     1       1.452  -0.532  -0.118  1.00  0.00    -0.047 A 
ATOM     20  C   UNL     1       0.719  -1.712   0.009  1.00  0.00     0.004 A 
ATOM     21  C   UNL     1       0.764   0.670  -0.295  1.00  0.00     0.050 A 
ATOM     22  C   UNL     1      -0.679  -1.682  -0.013  1.00  0.00     0.007 A 
ATOM     23  C   UNL     1      -1.375  -0.470  -0.145  1.00  0.00    -0.008 A 
ATOM     24  C   UNL     1      -2.876  -0.491  -0.100  1.00  0.00     0.048 C 
ENDBRANCH  16  17
ENDBRANCH  10  16
ENDBRANCH   7   9
ENDBRANCH   6   7
ENDBRANCH   5   6
ENDBRANCH   4   5
ENDBRANCH   3   4
ENDBRANCH   2   3
ENDBRANCH   1   2
BRANCH   1  25
ATOM     25  O   UNL     1      -5.596   4.622   2.287  1.00  0.00    -0.376 OA
BRANCH  25  26
ATOM     26  C   UNL     1      -6.562   5.572   2.692  1.00  0.00     0.202 C 
BRANCH  26  27
ATOM     27  C   UNL     1      -7.014   6.557   1.607  1.00  0.00     0.261 C 
BRANCH  27  28
ATOM     28  O   UNL     1      -6.154   6.881   0.479  1.00  0.00    -0.460 OA
BRANCH  28  29
ATOM     29  C   UNL     1      -4.827   7.130   0.417  1.00  0.00     0.338 C 
ATOM     30  O   UNL     1      -4.251   7.298  -0.653  1.00  0.00    -0.246 OA
BRANCH  29  31
ATOM     31  C   UNL     1      -4.060   7.054   1.660  1.00  0.00     0.060 A 
ATOM     32  C   UNL     1      -3.095   6.053   1.718  1.00  0.00     0.016 A 
ATOM     33  C   UNL     1      -4.361   7.846   2.776  1.00  0.00     0.016 A 
ATOM     34  C   UNL     1      -2.563   5.737   2.949  1.00  0.00     0.010 A 
ATOM     35  C   UNL     1      -3.827   7.502   4.019  1.00  0.00     0.010 A 
ATOM     36  C   UNL     1      -2.972   6.403   4.107  1.00  0.00    -0.014 A 
BRANCH  36  37
ATOM     37  C   UNL     1      -2.242   6.013   5.315  1.00  0.00     0.031 A 
ATOM     38  C   UNL     1      -0.818   6.426   5.274  1.00  0.00     0.074 A 
ATOM     39  C   UNL     1      -2.741   5.281   6.331  1.00  0.00     0.049 A 
ATOM     40  N   UNL     1       0.222   5.678   5.463  1.00  0.00    -0.248 NA
ATOM     41  C   UNL     1      -0.525   7.799   4.823  1.00  0.00     0.031 C 
ATOM     42  C   UNL     1      -4.138   4.896   6.510  1.00  0.00     0.029 A 
ATOM     43  N   UNL     1      -2.125   4.801   7.467  1.00  0.00    -0.354 N 
ATOM     44  C   UNL     1       1.294   6.550   5.357  1.00  0.00     0.074 A 
ATOM     45  C   UNL     1       0.803   7.788   4.802  1.00  0.00     0.031 C 
ATOM     46  C   UNL     1      -4.305   4.437   7.767  1.00  0.00     0.029 A 
ATOM     47  C   UNL     1      -3.031   4.467   8.470  1.00  0.00     0.049 A 
ATOM     48  H   UNL     1      -1.150   4.704   7.559  1.00  0.00     0.167 HD
ATOM     49  C   UNL     1       2.422   6.369   6.084  1.00  0.00     0.034 A 
ATOM     50  C   UNL     1      -2.790   4.356   9.801  1.00  0.00     0.034 A 
ATOM     51  C   UNL     1       2.693   5.020   6.453  1.00  0.00     0.049 A 
ATOM     52  C   UNL     1      -1.353   4.067  10.020  1.00  0.00     0.074 A 
ATOM     53  C   UNL     1       3.254   3.916   5.856  1.00  0.00     0.029 A 
ATOM     54  N   UNL     1       2.059   4.597   7.584  1.00  0.00    -0.354 N 
ATOM     55  N   UNL     1      -0.785   2.910   9.818  1.00  0.00    -0.248 NA
ATOM     56  C   UNL     1      -0.444   5.167  10.340  1.00  0.00     0.031 C 
ATOM     57  C   UNL     1       2.919   2.796   6.669  1.00  0.00     0.029 A 
ATOM     58  C   UNL     1       2.142   3.238   7.736  1.00  0.00     0.049 A 
ATOM     59  H   UNL     1       1.598   5.196   8.215  1.00  0.00     0.167 HD
ATOM     60  C   UNL     1       0.545   3.222   9.600  1.00  0.00     0.074 A 
ATOM     61  C   UNL     1       0.725   4.573  10.104  1.00  0.00     0.031 C 
ATOM     62  C   UNL     1       1.292   2.546   8.686  1.00  0.00     0.034 A 
BRANCH  49  63
ATOM     63  C   UNL     1       2.969   7.543   6.836  1.00  0.00     0.023 A 
ATOM     64  C   UNL     1       4.333   7.626   7.136  1.00  0.00     0.012 A 
ATOM     65  C   UNL     1       2.109   8.523   7.390  1.00  0.00     0.148 A 
ATOM     66  C   UNL     1       4.828   8.706   7.879  1.00  0.00     0.002 A 
ATOM     67  C   UNL     1       2.615   9.653   8.000  1.00  0.00     0.091 A 
ATOM     68  F   UNL     1       0.783   8.311   7.398  1.00  0.00    -0.205 F 
ATOM     69  C   UNL     1       3.980   9.744   8.266  1.00  0.00     0.022 A 
BRANCH  67  70
ATOM     70  S   UNL     1       1.550  11.066   8.302  1.00  0.00     0.127 S 
ATOM     71  O   UNL     1       1.233  10.910   9.717  1.00  0.00    -0.237 OA
ATOM     72  O   UNL     1       2.433  12.188   7.982  1.00  0.00    -0.237 OA
ATOM     73  O   UNL     1       0.444  10.904   7.364  1.00  0.00    -0.744 OA
ENDBRANCH  67  70
ENDBRANCH  49  63
BRANCH  50  74
ATOM     74  C   UNL     1      -3.677   4.689  10.958  1.00  0.00     0.023 A 
ATOM     75  C   UNL     1      -3.229   4.399  12.268  1.00  0.00     0.012 A 
ATOM     76  C   UNL     1      -4.810   5.523  10.838  1.00  0.00     0.148 A 
ATOM     77  C   UNL     1      -3.836   4.969  13.395  1.00  0.00     0.002 A 
ATOM     78  C   UNL     1      -5.428   6.066  11.961  1.00  0.00     0.091 A 
ATOM     79  F   UNL     1      -5.243   5.887   9.627  1.00  0.00    -0.205 F 
ATOM     80  C   UNL     1      -4.932   5.810  13.242  1.00  0.00     0.022 A 
BRANCH  78  81
ATOM     81  S   UNL     1      -6.843   7.165  11.798  1.00  0.00     0.127 S 
ATOM     82  O   UNL     1      -7.663   6.793  12.951  1.00  0.00    -0.237 OA
ATOM     83  O   UNL     1      -6.217   8.480  11.889  1.00  0.00    -0.237 OA
ATOM     84  O   UNL     1      -7.448   6.832  10.513  1.00  0.00    -0.744 OA
ENDBRANCH  78  81
ENDBRANCH  50  74
BRANCH  62  85
ATOM     85  C   UNL     1       1.064   1.078   8.497  1.00  0.00     0.023 A 
ATOM     86  C   UNL     1      -0.147   0.545   8.026  1.00  0.00     0.012 A 
ATOM     87  C   UNL     1       2.160   0.214   8.698  1.00  0.00     0.148 A 
ATOM     88  C   UNL     1      -0.265  -0.823   7.764  1.00  0.00     0.002 A 
ATOM     89  C   UNL     1       2.056  -1.134   8.385  1.00  0.00     0.091 A 
ATOM     90  F   UNL     1       3.299   0.733   9.185  1.00  0.00    -0.205 F 
ATOM     91  C   UNL     1       0.841  -1.659   7.925  1.00  0.00     0.022 A 
BRANCH  89  92
ATOM     92  S   UNL     1       3.483  -2.223   8.450  1.00  0.00     0.127 S 
ATOM     93  O   UNL     1       3.255  -2.956   9.694  1.00  0.00    -0.237 OA
ATOM     94  O   UNL     1       3.330  -3.023   7.234  1.00  0.00    -0.237 OA
ATOM     95  O   UNL     1       4.651  -1.350   8.441  1.00  0.00    -0.744 OA
ENDBRANCH  89  92
ENDBRANCH  62  85
ENDBRANCH  36  37
ENDBRANCH  29  31
ENDBRANCH  28  29
ENDBRANCH  27  28
ENDBRANCH  26  27
ENDBRANCH  25  26
ENDBRANCH   1  25
TORSDOF 22
