REMARK SMILES CC(C)CSc1cc2c(cc1Cl)C=C(C(=O)OCCOCCOCCOC(=O)c1ccc(-c3c4nc(c(-c5cccc(S(=O)(=O)[O-])c5F)c5ccc([nH]5)c(-c5cccc(S(=O)(=O)[O-])c5F)c5nc(c(-c6cccc(S(=O)(=O)[O-])c6F)c6ccc3[nH]6)C=C5)C=C4)cc1)[C@@H](C(F)(F)F)O2
REMARK SMILES IDX 21 1 20 2 19 3 18 4 17 5 15 6 16 7 14 8 6 9 7 10 11 11 8 12
REMARK SMILES IDX 10 13 12 14 9 15 97 16 13 17 92 18 5 19 4 20 2 21 1 22 3 23
REMARK SMILES IDX 93 24 94 25 95 26 96 27 22 28 23 29 24 30 25 31 26 32 27 33
REMARK SMILES IDX 28 34 29 35 30 36 91 37 31 38 90 39 32 40 33 41 34 42 84 43
REMARK SMILES IDX 35 44 89 45 83 46 85 47 36 48 88 49 82 50 81 51 37 53 69 54
REMARK SMILES IDX 49 55 68 56 50 57 53 58 67 59 86 60 51 61 52 62 66 64 87 65
REMARK SMILES IDX 54 66 38 67 39 68 47 69 40 70 42 71 48 72 41 73 43 74 44 75
REMARK SMILES IDX 45 76 46 77 70 78 71 79 79 80 72 81 74 82 80 83 73 84 75 85
REMARK SMILES IDX 76 86 77 87 78 88 55 89 56 90 64 91 57 92 59 93 65 94 58 95
REMARK SMILES IDX 60 96 61 97 62 98 63 99
REMARK H PARENT 85 52 53 63
REMARK Flexibility Score: inf
ROOT
ATOM      1  C   UNL     1      -0.221   0.171   9.010  1.00  0.00     0.188 C 
ENDROOT
BRANCH   1   2
ATOM      2  O   UNL     1       0.503   0.504  10.183  1.00  0.00    -0.376 OA
BRANCH   2   3
ATOM      3  C   UNL     1       1.916   0.495  10.092  1.00  0.00     0.202 C 
BRANCH   3   4
ATOM      4  C   UNL     1       2.553   1.581   9.215  1.00  0.00     0.261 C 
BRANCH   4   5
ATOM      5  O   UNL     1       1.925   1.786   7.940  1.00  0.00    -0.460 OA
BRANCH   5   6
ATOM      6  C   UNL     1       2.305   0.978   6.928  1.00  0.00     0.338 C 
ATOM      7  O   UNL     1       3.114   0.070   6.990  1.00  0.00    -0.246 OA
BRANCH   6   8
ATOM      8  C   UNL     1       1.482   1.304   5.742  1.00  0.00     0.087 C 
ATOM      9  C   UNL     1      -1.245   1.143   1.518  1.00  0.00     0.030 A 
ATOM     10  C   UNL     1      -0.632   2.167   2.261  1.00  0.00     0.063 A 
ATOM     11  C   UNL     1      -1.325  -0.134   2.093  1.00  0.00     0.055 A 
ATOM     12  C   UNL     1       0.008   1.894   3.472  1.00  0.00     0.129 A 
ATOM     13  C   UNL     1      -0.650  -0.413   3.290  1.00  0.00     0.033 A 
ATOM     14  Cl  UNL     1      -2.255  -1.419   1.411  1.00  0.00    -0.083 Cl
ATOM     15  C   UNL     1       0.058   0.590   3.957  1.00  0.00     0.019 A 
ATOM     16  O   UNL     1       0.600   2.958   4.088  1.00  0.00    -0.475 OA
ATOM     17  C   UNL     1       0.886   0.282   5.112  1.00  0.00     0.027 C 
ATOM     18  C   UNL     1       1.296   2.748   5.348  1.00  0.00     0.316 C 
BRANCH   9  19
ATOM     19  S   UNL     1      -1.812   1.615  -0.114  1.00  0.00    -0.124 SA
BRANCH  19  20
ATOM     20  C   UNL     1      -1.016   0.380  -1.224  1.00  0.00     0.078 C 
BRANCH  20  21
ATOM     21  C   UNL     1       0.512   0.457  -1.423  1.00  0.00    -0.007 C 
ATOM     22  C   UNL     1       1.333   0.108  -0.182  1.00  0.00     0.008 C 
ATOM     23  C   UNL     1       0.907  -0.511  -2.548  1.00  0.00     0.008 C 
ENDBRANCH  20  21
ENDBRANCH  19  20
ENDBRANCH   9  19
BRANCH  18  24
ATOM     24  C   UNL     1       2.616   3.531   5.268  1.00  0.00     0.430 C 
ATOM     25  F   UNL     1       2.397   4.823   4.916  1.00  0.00    -0.167 F 
ATOM     26  F   UNL     1       3.267   3.567   6.454  1.00  0.00    -0.167 F 
ATOM     27  F   UNL     1       3.464   3.003   4.357  1.00  0.00    -0.167 F 
ENDBRANCH  18  24
ENDBRANCH   6   8
ENDBRANCH   5   6
ENDBRANCH   4   5
ENDBRANCH   3   4
ENDBRANCH   2   3
ENDBRANCH   1   2
BRANCH   1  28
ATOM     28  C   UNL     1      -1.030   1.360   8.451  1.00  0.00     0.188 C 
BRANCH  28  29
ATOM     29  O   UNL     1      -1.165   2.542   9.233  1.00  0.00    -0.376 OA
BRANCH  29  30
ATOM     30  C   UNL     1      -1.512   2.421  10.609  1.00  0.00     0.202 C 
BRANCH  30  31
ATOM     31  C   UNL     1      -2.830   1.724  10.965  1.00  0.00     0.261 C 
BRANCH  31  32
ATOM     32  O   UNL     1      -2.922   0.372  10.489  1.00  0.00    -0.460 OA
BRANCH  32  33
ATOM     33  C   UNL     1      -3.877   0.141   9.550  1.00  0.00     0.338 C 
ATOM     34  O   UNL     1      -4.675   0.944   9.100  1.00  0.00    -0.246 OA
BRANCH  33  35
ATOM     35  C   UNL     1      -3.671  -1.209   8.985  1.00  0.00     0.060 A 
ATOM     36  C   UNL     1      -3.642  -2.336   9.808  1.00  0.00     0.016 A 
ATOM     37  C   UNL     1      -3.496  -1.336   7.599  1.00  0.00     0.016 A 
ATOM     38  C   UNL     1      -3.452  -3.597   9.236  1.00  0.00     0.010 A 
ATOM     39  C   UNL     1      -3.286  -2.595   7.033  1.00  0.00     0.010 A 
ATOM     40  C   UNL     1      -3.277  -3.736   7.847  1.00  0.00    -0.014 A 
BRANCH  40  41
ATOM     41  C   UNL     1      -3.256  -5.089   7.244  1.00  0.00     0.031 A 
ATOM     42  C   UNL     1      -1.976  -5.782   6.891  1.00  0.00     0.074 A 
ATOM     43  C   UNL     1      -4.436  -5.695   7.015  1.00  0.00     0.049 A 
ATOM     44  N   UNL     1      -1.802  -7.015   6.489  1.00  0.00    -0.248 NA
ATOM     45  C   UNL     1      -0.735  -5.001   6.994  1.00  0.00     0.031 C 
ATOM     46  C   UNL     1      -5.748  -5.091   7.258  1.00  0.00     0.029 A 
ATOM     47  N   UNL     1      -4.725  -6.945   6.532  1.00  0.00    -0.354 N 
ATOM     48  C   UNL     1      -0.436  -7.166   6.296  1.00  0.00     0.074 A 
ATOM     49  C   UNL     1       0.174  -5.888   6.602  1.00  0.00     0.031 C 
ATOM     50  C   UNL     1      -6.702  -5.977   6.936  1.00  0.00     0.029 A 
ATOM     51  C   UNL     1      -6.072  -7.208   6.467  1.00  0.00     0.049 A 
ATOM     52  H   UNL     1      -4.035  -7.591   6.257  1.00  0.00     0.167 HD
ATOM     53  C   UNL     1       0.242  -8.278   5.925  1.00  0.00     0.034 A 
ATOM     54  C   UNL     1      -6.731  -8.322   6.094  1.00  0.00     0.034 A 
ATOM     55  C   UNL     1      -0.370  -9.549   5.639  1.00  0.00     0.049 A 
ATOM     56  C   UNL     1      -5.953  -9.546   5.709  1.00  0.00     0.074 A 
ATOM     57  C   UNL     1       0.249 -10.749   5.331  1.00  0.00     0.029 A 
ATOM     58  N   UNL     1      -1.735  -9.787   5.609  1.00  0.00    -0.354 N 
ATOM     59  N   UNL     1      -4.654  -9.719   5.692  1.00  0.00    -0.248 NA
ATOM     60  C   UNL     1      -6.726 -10.736   5.327  1.00  0.00     0.031 C 
ATOM     61  C   UNL     1      -0.741 -11.709   5.103  1.00  0.00     0.029 A 
ATOM     62  C   UNL     1      -1.977 -11.109   5.277  1.00  0.00     0.049 A 
ATOM     63  H   UNL     1      -2.430  -9.114   5.795  1.00  0.00     0.167 HD
ATOM     64  C   UNL     1      -4.452 -11.041   5.317  1.00  0.00     0.074 A 
ATOM     65  C   UNL     1      -5.763 -11.629   5.130  1.00  0.00     0.031 C 
ATOM     66  C   UNL     1      -3.283 -11.699   5.131  1.00  0.00     0.034 A 
BRANCH  53  67
ATOM     67  C   UNL     1       1.744  -8.214   5.878  1.00  0.00     0.023 A 
ATOM     68  C   UNL     1       2.464  -8.322   7.085  1.00  0.00     0.012 A 
ATOM     69  C   UNL     1       2.438  -8.194   4.653  1.00  0.00     0.148 A 
ATOM     70  C   UNL     1       3.856  -8.408   7.074  1.00  0.00     0.002 A 
ATOM     71  C   UNL     1       3.824  -8.306   4.649  1.00  0.00     0.091 A 
ATOM     72  F   UNL     1       1.730  -8.083   3.521  1.00  0.00    -0.205 F 
ATOM     73  C   UNL     1       4.534  -8.411   5.858  1.00  0.00     0.022 A 
BRANCH  71  74
ATOM     74  S   UNL     1       4.793  -8.377   3.138  1.00  0.00     0.127 S 
ATOM     75  O   UNL     1       5.558  -7.133   3.220  1.00  0.00    -0.237 OA
ATOM     76  O   UNL     1       5.582  -9.593   3.336  1.00  0.00    -0.237 OA
ATOM     77  O   UNL     1       3.833  -8.441   2.045  1.00  0.00    -0.744 OA
ENDBRANCH  71  74
ENDBRANCH  53  67
BRANCH  54  78
ATOM     78  C   UNL     1      -8.214  -8.338   6.170  1.00  0.00     0.023 A 
ATOM     79  C   UNL     1      -8.839  -8.998   7.245  1.00  0.00     0.012 A 
ATOM     80  C   UNL     1      -8.997  -7.628   5.240  1.00  0.00     0.148 A 
ATOM     81  C   UNL     1     -10.225  -8.953   7.391  1.00  0.00     0.002 A 
ATOM     82  C   UNL     1     -10.373  -7.555   5.414  1.00  0.00     0.091 A 
ATOM     83  F   UNL     1      -8.373  -7.010   4.228  1.00  0.00    -0.205 F 
ATOM     84  C   UNL     1     -10.990  -8.225   6.483  1.00  0.00     0.022 A 
BRANCH  82  85
ATOM     85  S   UNL     1     -11.432  -6.556   4.362  1.00  0.00     0.127 S 
ATOM     86  O   UNL     1     -12.269  -7.573   3.730  1.00  0.00    -0.237 OA
ATOM     87  O   UNL     1     -12.118  -5.715   5.343  1.00  0.00    -0.237 OA
ATOM     88  O   UNL     1     -10.537  -5.837   3.467  1.00  0.00    -0.744 OA
ENDBRANCH  82  85
ENDBRANCH  54  78
BRANCH  66  89
ATOM     89  C   UNL     1      -3.343 -13.137   4.697  1.00  0.00     0.023 A 
ATOM     90  C   UNL     1      -3.598 -13.437   3.345  1.00  0.00     0.012 A 
ATOM     91  C   UNL     1      -3.031 -14.178   5.594  1.00  0.00     0.148 A 
ATOM     92  C   UNL     1      -3.549 -14.754   2.892  1.00  0.00     0.002 A 
ATOM     93  C   UNL     1      -2.952 -15.485   5.128  1.00  0.00     0.091 A 
ATOM     94  F   UNL     1      -2.801 -13.866   6.878  1.00  0.00    -0.205 F 
ATOM     95  C   UNL     1      -3.215 -15.775   3.779  1.00  0.00     0.022 A 
BRANCH  93  96
ATOM     96  S   UNL     1      -2.460 -16.861   6.174  1.00  0.00     0.127 S 
ATOM     97  O   UNL     1      -3.689 -17.652   6.222  1.00  0.00    -0.237 OA
ATOM     98  O   UNL     1      -1.375 -17.464   5.400  1.00  0.00    -0.237 OA
ATOM     99  O   UNL     1      -2.050 -16.277   7.444  1.00  0.00    -0.744 OA
ENDBRANCH  93  96
ENDBRANCH  66  89
ENDBRANCH  40  41
ENDBRANCH  33  35
ENDBRANCH  32  33
ENDBRANCH  31  32
ENDBRANCH  30  31
ENDBRANCH  29  30
ENDBRANCH  28  29
ENDBRANCH   1  28
TORSDOF 24
