REMARK SMILES [NH3+][C@H]1CCCCC[C@H]1C(=O)NC[C@@H]1CCC[C@@H]1C(=O)OCCOCCOCCOC(=O)c1ccc(-c2c3nc(c(-c4cccc(S(=O)(=O)[O-])c4F)c4ccc([nH]4)c(-c4cccc(S(=O)(=O)[O-])c4F)c4nc(c(-c5cccc(S(=O)(=O)[O-])c5F)c5ccc2[nH]5)C=C4)C=C3)cc1
REMARK SMILES IDX 23 1 22 2 21 3 20 4 18 5 19 6 17 7 13 8 14 9 15 10 16 11
REMARK SMILES IDX 12 12 11 13 9 14 10 15 8 17 2 18 1 19 3 23 4 24 7 26 6 27
REMARK SMILES IDX 5 28 24 30 25 31 26 32 27 33 28 34 29 35 30 36 31 37 32 38
REMARK SMILES IDX 33 39 94 40 34 41 93 42 35 43 36 44 37 45 87 46 38 47 92 48
REMARK SMILES IDX 86 49 88 50 39 51 91 52 85 53 84 54 40 56 72 57 52 58 71 59
REMARK SMILES IDX 53 60 56 61 70 62 89 63 54 64 55 65 69 67 90 68 57 69 41 70
REMARK SMILES IDX 42 71 50 72 43 73 45 74 51 75 44 76 46 77 47 78 48 79 49 80
REMARK SMILES IDX 73 81 74 82 82 83 75 84 77 85 83 86 76 87 78 88 79 89 80 90
REMARK SMILES IDX 81 91 58 92 59 93 67 94 60 95 62 96 68 97 61 98 63 99 64 100
REMARK SMILES IDX 65 101 66 102
REMARK H PARENT 11 16 1 20 1 21 1 22 88 55 56 66
REMARK Flexibility Score: 90.00
ROOT
ATOM      1  O   UNL     1      -3.492   0.320  -1.621  1.00  0.00    -0.376 OA
ENDROOT
BRANCH   1   2
ATOM      2  C   UNL     1      -2.580   1.386  -1.411  1.00  0.00     0.202 C 
BRANCH   2   3
ATOM      3  C   UNL     1      -2.760   2.132  -0.079  1.00  0.00     0.261 C 
BRANCH   3   4
ATOM      4  O   UNL     1      -2.251   1.367   1.043  1.00  0.00    -0.463 OA
BRANCH   4   5
ATOM      5  C   UNL     1      -2.660   1.828   2.258  1.00  0.00     0.309 C 
ATOM      6  O   UNL     1      -3.330   2.842   2.416  1.00  0.00    -0.252 OA
BRANCH   5   7
ATOM      7  C   UNL     1      -2.120   1.026   3.437  1.00  0.00     0.104 C 
ATOM      8  C   UNL     1      -0.587   1.083   3.635  1.00  0.00     0.022 C 
ATOM      9  C   UNL     1      -0.101  -0.283   3.148  1.00  0.00     0.006 C 
ATOM     10  C   UNL     1      -1.195  -1.235   3.605  1.00  0.00     0.001 C 
ATOM     11  C   UNL     1      -2.494  -0.464   3.399  1.00  0.00     0.016 C 
BRANCH   8  12
ATOM     12  C   UNL     1       0.107   2.302   3.013  1.00  0.00     0.120 C 
BRANCH  12  13
ATOM     13  N   UNL     1       1.550   2.190   2.958  1.00  0.00    -0.355 N 
ATOM     14  C   UNL     1       2.434   2.519   1.975  1.00  0.00     0.229 C 
ATOM     15  O   UNL     1       3.632   2.321   2.222  1.00  0.00    -0.275 OA
ATOM     16  H   UNL     1       1.962   1.813   3.769  1.00  0.00     0.163 HD
BRANCH  14  17
ATOM     17  C   UNL     1       2.036   3.115   0.609  1.00  0.00     0.136 C 
BRANCH  17  18
ATOM     18  C   UNL     1       1.693   2.043  -0.448  1.00  0.00     0.193 C 
BRANCH  18  19
ATOM     19  N   UNL     1       0.646   1.124  -0.028  1.00  0.00    -0.354 N 
ATOM     20  H   UNL     1       0.470   0.446  -0.770  1.00  0.00     0.344 HD
ATOM     21  H   UNL     1      -0.209   1.647   0.163  1.00  0.00     0.344 HD
ATOM     22  H   UNL     1       0.941   0.635   0.817  1.00  0.00     0.344 HD
ENDBRANCH  18  19
BRANCH  18  23
ATOM     23  C   UNL     1       1.438   2.585  -1.877  1.00  0.00     0.066 C 
BRANCH  23  24
ATOM     24  C   UNL     1       0.228   3.487  -2.127  1.00  0.00     0.006 CG0
ATOM     25  G   UNL     1       0.251   4.924  -1.616  1.00  0.00     0.000 G0
ENDBRANCH  23  24
ENDBRANCH  18  23
ENDBRANCH  17  18
BRANCH  17  26
ATOM     26  C   UNL     1       1.114   4.336   0.700  1.00  0.00     0.020 C 
BRANCH  26  27
ATOM     27  C   UNL     1       1.247   5.250  -0.517  1.00  0.00     0.001 C 
BRANCH  27  28
ATOM     28  C   UNL     1       0.251   4.924  -1.616  1.00  0.00     0.000 CG0
ATOM     29  G   UNL     1       0.228   3.487  -2.127  1.00  0.00     0.000 G0
ENDBRANCH  27  28
ENDBRANCH  26  27
ENDBRANCH  17  26
ENDBRANCH  14  17
ENDBRANCH  12  13
ENDBRANCH   8  12
ENDBRANCH   5   7
ENDBRANCH   4   5
ENDBRANCH   3   4
ENDBRANCH   2   3
ENDBRANCH   1   2
BRANCH   1  30
ATOM     30  C   UNL     1      -3.502  -0.649  -0.597  1.00  0.00     0.188 C 
BRANCH  30  31
ATOM     31  C   UNL     1      -2.267  -1.545  -0.478  1.00  0.00     0.188 C 
BRANCH  31  32
ATOM     32  O   UNL     1      -1.077  -1.256  -1.209  1.00  0.00    -0.376 OA
BRANCH  32  33
ATOM     33  C   UNL     1      -0.146  -2.362  -1.150  1.00  0.00     0.202 C 
BRANCH  33  34
ATOM     34  C   UNL     1      -0.442  -3.509  -2.148  1.00  0.00     0.261 C 
BRANCH  34  35
ATOM     35  O   UNL     1      -1.735  -4.136  -2.011  1.00  0.00    -0.460 OA
BRANCH  35  36
ATOM     36  C   UNL     1      -2.030  -4.737  -0.829  1.00  0.00     0.338 C 
ATOM     37  O   UNL     1      -1.226  -5.046   0.037  1.00  0.00    -0.246 OA
BRANCH  36  38
ATOM     38  C   UNL     1      -3.509  -4.622  -0.614  1.00  0.00     0.060 A 
ATOM     39  C   UNL     1      -3.964  -4.290   0.674  1.00  0.00     0.016 A 
ATOM     40  C   UNL     1      -4.411  -4.614  -1.686  1.00  0.00     0.016 A 
ATOM     41  C   UNL     1      -5.313  -3.981   0.894  1.00  0.00     0.010 A 
ATOM     42  C   UNL     1      -5.762  -4.319  -1.462  1.00  0.00     0.010 A 
ATOM     43  C   UNL     1      -6.228  -4.031  -0.167  1.00  0.00    -0.014 A 
BRANCH  43  44
ATOM     44  C   UNL     1      -7.689  -4.093   0.104  1.00  0.00     0.031 A 
ATOM     45  C   UNL     1      -8.279  -5.465   0.305  1.00  0.00     0.074 A 
ATOM     46  C   UNL     1      -8.489  -3.010   0.127  1.00  0.00     0.049 A 
ATOM     47  N   UNL     1      -9.522  -5.821   0.485  1.00  0.00    -0.248 NA
ATOM     48  C   UNL     1      -7.326  -6.590   0.292  1.00  0.00     0.031 C 
ATOM     49  C   UNL     1      -8.060  -1.625  -0.048  1.00  0.00     0.029 A 
ATOM     50  N   UNL     1      -9.854  -2.921   0.280  1.00  0.00    -0.354 N 
ATOM     51  C   UNL     1      -9.504  -7.207   0.578  1.00  0.00     0.074 A 
ATOM     52  C   UNL     1      -8.131  -7.630   0.430  1.00  0.00     0.031 C 
ATOM     53  C   UNL     1      -9.144  -0.827  -0.025  1.00  0.00     0.029 A 
ATOM     54  C   UNL     1     -10.348  -1.644   0.138  1.00  0.00     0.049 A 
ATOM     55  H   UNL     1     -10.425  -3.700   0.473  1.00  0.00     0.167 HD
ATOM     56  C   UNL     1     -10.533  -8.060   0.778  1.00  0.00     0.034 A 
ATOM     57  C   UNL     1     -11.622  -1.195   0.117  1.00  0.00     0.034 A 
ATOM     58  C   UNL     1     -11.901  -7.656   0.919  1.00  0.00     0.049 A 
ATOM     59  C   UNL     1     -12.761  -2.174   0.298  1.00  0.00     0.074 A 
ATOM     60  C   UNL     1     -13.009  -8.448   1.155  1.00  0.00     0.029 A 
ATOM     61  N   UNL     1     -12.352  -6.351   0.814  1.00  0.00    -0.354 N 
ATOM     62  N   UNL     1     -12.717  -3.466   0.517  1.00  0.00    -0.248 NA
ATOM     63  C   UNL     1     -14.129  -1.627   0.254  1.00  0.00     0.031 C 
ATOM     64  C   UNL     1     -14.138  -7.622   1.164  1.00  0.00     0.029 A 
ATOM     65  C   UNL     1     -13.725  -6.314   0.966  1.00  0.00     0.049 A 
ATOM     66  H   UNL     1     -11.779  -5.566   0.654  1.00  0.00     0.167 HD
ATOM     67  C   UNL     1     -14.040  -3.876   0.675  1.00  0.00     0.074 A 
ATOM     68  C   UNL     1     -14.863  -2.694   0.541  1.00  0.00     0.031 C 
ATOM     69  C   UNL     1     -14.529  -5.121   0.898  1.00  0.00     0.034 A 
BRANCH  56  70
ATOM     70  C   UNL     1     -10.203  -9.524   0.861  1.00  0.00     0.023 A 
ATOM     71  C   UNL     1      -9.562 -10.028   2.011  1.00  0.00     0.012 A 
ATOM     72  C   UNL     1     -10.544 -10.399  -0.186  1.00  0.00     0.148 A 
ATOM     73  C   UNL     1      -9.234 -11.379   2.102  1.00  0.00     0.002 A 
ATOM     74  C   UNL     1     -10.254 -11.752  -0.069  1.00  0.00     0.091 A 
ATOM     75  F   UNL     1     -11.123  -9.890  -1.283  1.00  0.00    -0.205 F 
ATOM     76  C   UNL     1      -9.589 -12.242   1.068  1.00  0.00     0.022 A 
BRANCH  74  77
ATOM     77  S   UNL     1     -10.732 -12.952  -1.315  1.00  0.00     0.127 S 
ATOM     78  O   UNL     1      -9.438 -13.300  -1.901  1.00  0.00    -0.237 OA
ATOM     79  O   UNL     1     -11.339 -14.009  -0.505  1.00  0.00    -0.237 OA
ATOM     80  O   UNL     1     -11.656 -12.262  -2.203  1.00  0.00    -0.744 OA
ENDBRANCH  74  77
ENDBRANCH  56  70
BRANCH  57  81
ATOM     81  C   UNL     1     -11.910   0.260  -0.065  1.00  0.00     0.023 A 
ATOM     82  C   UNL     1     -12.469   0.996   0.999  1.00  0.00     0.012 A 
ATOM     83  C   UNL     1     -11.658   0.912  -1.288  1.00  0.00     0.148 A 
ATOM     84  C   UNL     1     -12.801   2.343   0.840  1.00  0.00     0.002 A 
ATOM     85  C   UNL     1     -11.941   2.267  -1.423  1.00  0.00     0.091 A 
ATOM     86  F   UNL     1     -11.151   0.192  -2.298  1.00  0.00    -0.205 F 
ATOM     87  C   UNL     1     -12.528   2.981  -0.367  1.00  0.00     0.022 A 
BRANCH  85  88
ATOM     88  S   UNL     1     -11.525   3.200  -2.902  1.00  0.00     0.127 S 
ATOM     89  O   UNL     1     -12.846   3.497  -3.450  1.00  0.00    -0.237 OA
ATOM     90  O   UNL     1     -10.818   4.352  -2.341  1.00  0.00    -0.237 OA
ATOM     91  O   UNL     1     -10.693   2.314  -3.705  1.00  0.00    -0.744 OA
ENDBRANCH  85  88
ENDBRANCH  57  81
BRANCH  69  92
ATOM     92  C   UNL     1     -16.018  -5.290   1.064  1.00  0.00     0.023 A 
ATOM     93  C   UNL     1     -16.864  -5.210  -0.058  1.00  0.00     0.012 A 
ATOM     94  C   UNL     1     -16.559  -5.651   2.315  1.00  0.00     0.148 A 
ATOM     95  C   UNL     1     -18.230  -5.469   0.065  1.00  0.00     0.002 A 
ATOM     96  C   UNL     1     -17.912  -5.954   2.420  1.00  0.00     0.091 A 
ATOM     97  F   UNL     1     -15.739  -5.708   3.374  1.00  0.00    -0.205 F 
ATOM     98  C   UNL     1     -18.750  -5.854   1.298  1.00  0.00     0.022 A 
BRANCH  96  99
ATOM     99  S   UNL     1     -18.650  -6.559   3.943  1.00  0.00     0.127 S 
ATOM    100  O   UNL     1     -19.465  -5.417   4.353  1.00  0.00    -0.237 OA
ATOM    101  O   UNL     1     -19.413  -7.718   3.480  1.00  0.00    -0.237 OA
ATOM    102  O   UNL     1     -17.539  -6.881   4.829  1.00  0.00    -0.744 OA
ENDBRANCH  96  99
ENDBRANCH  69  92
ENDBRANCH  43  44
ENDBRANCH  36  38
ENDBRANCH  35  36
ENDBRANCH  34  35
ENDBRANCH  33  34
ENDBRANCH  32  33
ENDBRANCH  31  32
ENDBRANCH  30  31
ENDBRANCH   1  30
TORSDOF 24
