REMARK SMILES C[N@H+](Cc1ncccc1C(=O)OCCOCCOCCOC(=O)c1ccc(-c2c3nc(c(-c4cccc(S(=O)(=O)[O-])c4F)c4ccc([nH]4)c(-c4cccc(S(=O)(=O)[O-])c4F)c4nc(c(-c5cccc(S(=O)(=O)[O-])c5F)c5ccc2[nH]5)C=C4)C=C3)cc1)C[C@@H]1CCN(c2ccccc2)C1
REMARK SMILES IDX 16 1 15 2 14 3 13 4 12 5 10 6 11 7 9 8 4 9 5 10 6 11 8 12
REMARK SMILES IDX 7 13 3 14 2 15 1 16 87 18 88 19 89 20 98 21 90 22 91 23
REMARK SMILES IDX 92 24 93 25 97 26 94 27 96 28 95 29 17 30 18 31 19 32 20 33
REMARK SMILES IDX 21 34 22 35 23 36 24 37 25 38 86 39 26 40 85 41 27 42 28 43
REMARK SMILES IDX 29 44 79 45 30 46 84 47 78 48 80 49 31 50 83 51 77 52 76 53
REMARK SMILES IDX 32 55 64 56 44 57 63 58 45 59 48 60 62 61 81 62 46 63 47 64
REMARK SMILES IDX 61 66 82 67 49 68 33 69 34 70 42 71 35 72 37 73 43 74 36 75
REMARK SMILES IDX 38 76 39 77 40 78 41 79 65 80 66 81 74 82 67 83 69 84 75 85
REMARK SMILES IDX 68 86 70 87 71 88 72 89 73 90 50 91 51 92 59 93 52 94 54 95
REMARK SMILES IDX 60 96 53 97 55 98 56 99 57 100 58 101
REMARK H PARENT 2 17 80 54 48 65
REMARK Flexibility Score: inf
ROOT
ATOM      1  C   UNL     1      -1.867   2.063   2.019  1.00  0.00     0.188 C 
ENDROOT
BRANCH   1   2
ATOM      2  O   UNL     1      -1.060   3.165   2.421  1.00  0.00    -0.376 OA
BRANCH   2   3
ATOM      3  C   UNL     1       0.231   3.237   1.832  1.00  0.00     0.202 C 
BRANCH   3   4
ATOM      4  C   UNL     1       0.209   3.768   0.391  1.00  0.00     0.261 C 
BRANCH   4   5
ATOM      5  O   UNL     1      -0.505   2.939  -0.544  1.00  0.00    -0.460 OA
BRANCH   5   6
ATOM      6  C   UNL     1      -0.057   1.664  -0.663  1.00  0.00     0.340 C 
ATOM      7  O   UNL     1       0.945   1.257  -0.106  1.00  0.00    -0.246 OA
BRANCH   6   8
ATOM      8  C   UNL     1      -1.022   0.860  -1.476  1.00  0.00     0.087 A 
ATOM      9  C   UNL     1      -1.188  -0.531  -1.333  1.00  0.00     0.109 A 
ATOM     10  N   UNL     1      -2.070  -1.226  -2.115  1.00  0.00    -0.254 NA
ATOM     11  C   UNL     1      -2.763  -0.557  -3.061  1.00  0.00     0.111 A 
ATOM     12  C   UNL     1      -1.758   1.514  -2.483  1.00  0.00     0.019 A 
ATOM     13  C   UNL     1      -2.637   0.798  -3.287  1.00  0.00     0.021 A 
BRANCH   9  14
ATOM     14  C   UNL     1      -0.377  -1.396  -0.368  1.00  0.00     0.320 C 
BRANCH  14  15
ATOM     15  N   UNL     1       1.044  -1.493  -0.696  1.00  0.00    -0.332 N 
ATOM     16  C   UNL     1       1.966  -1.412   0.423  1.00  0.00     0.333 C 
ATOM     17  H   UNL     1       1.079  -0.594  -1.175  1.00  0.00     0.348 HD
BRANCH  15  18
ATOM     18  C   UNL     1       1.510  -2.330  -1.799  1.00  0.00     0.267 C 
BRANCH  18  19
ATOM     19  C   UNL     1       1.230  -1.750  -3.199  1.00  0.00     0.065 C 
ATOM     20  C   UNL     1       2.237  -2.144  -4.289  1.00  0.00     0.032 C 
ATOM     21  C   UNL     1       1.281  -0.232  -3.246  1.00  0.00     0.126 C 
ATOM     22  C   UNL     1       3.244  -0.984  -4.384  1.00  0.00     0.117 C 
ATOM     23  N   UNL     1       2.521   0.159  -3.880  1.00  0.00    -0.371 N 
BRANCH  23  24
ATOM     24  C   UNL     1       2.552   1.484  -4.244  1.00  0.00     0.037 A 
ATOM     25  C   UNL     1       2.475   2.479  -3.248  1.00  0.00     0.026 A 
ATOM     26  C   UNL     1       2.435   1.889  -5.572  1.00  0.00     0.026 A 
ATOM     27  C   UNL     1       2.244   3.819  -3.560  1.00  0.00     0.002 A 
ATOM     28  C   UNL     1       2.194   3.231  -5.893  1.00  0.00     0.002 A 
ATOM     29  C   UNL     1       2.090   4.193  -4.889  1.00  0.00     0.000 A 
ENDBRANCH  23  24
ENDBRANCH  18  19
ENDBRANCH  15  18
ENDBRANCH  14  15
ENDBRANCH   9  14
ENDBRANCH   6   8
ENDBRANCH   5   6
ENDBRANCH   4   5
ENDBRANCH   3   4
ENDBRANCH   2   3
ENDBRANCH   1   2
BRANCH   1  30
ATOM     30  C   UNL     1      -2.985   2.427   1.020  1.00  0.00     0.188 C 
BRANCH  30  31
ATOM     31  O   UNL     1      -3.471   3.760   0.948  1.00  0.00    -0.376 OA
BRANCH  31  32
ATOM     32  C   UNL     1      -3.633   4.480   2.159  1.00  0.00     0.202 C 
BRANCH  32  33
ATOM     33  C   UNL     1      -4.655   3.944   3.168  1.00  0.00     0.261 C 
BRANCH  33  34
ATOM     34  O   UNL     1      -4.456   2.567   3.540  1.00  0.00    -0.460 OA
BRANCH  34  35
ATOM     35  C   UNL     1      -5.387   1.698   3.071  1.00  0.00     0.338 C 
ATOM     36  O   UNL     1      -6.391   1.978   2.436  1.00  0.00    -0.246 OA
BRANCH  35  37
ATOM     37  C   UNL     1      -4.937   0.298   3.258  1.00  0.00     0.060 A 
ATOM     38  C   UNL     1      -4.939  -0.545   2.135  1.00  0.00     0.016 A 
ATOM     39  C   UNL     1      -4.611  -0.211   4.516  1.00  0.00     0.016 A 
ATOM     40  C   UNL     1      -4.681  -1.909   2.274  1.00  0.00     0.010 A 
ATOM     41  C   UNL     1      -4.378  -1.587   4.659  1.00  0.00     0.010 A 
ATOM     42  C   UNL     1      -4.464  -2.448   3.547  1.00  0.00    -0.014 A 
BRANCH  42  43
ATOM     43  C   UNL     1      -4.587  -3.917   3.741  1.00  0.00     0.031 A 
ATOM     44  C   UNL     1      -5.930  -4.470   4.148  1.00  0.00     0.074 A 
ATOM     45  C   UNL     1      -3.553  -4.754   3.545  1.00  0.00     0.049 A 
ATOM     46  N   UNL     1      -6.284  -5.707   4.381  1.00  0.00    -0.248 NA
ATOM     47  C   UNL     1      -7.019  -3.492   4.314  1.00  0.00     0.031 C 
ATOM     48  C   UNL     1      -2.207  -4.361   3.135  1.00  0.00     0.029 A 
ATOM     49  N   UNL     1      -3.477  -6.118   3.691  1.00  0.00    -0.354 N 
ATOM     50  C   UNL     1      -7.625  -5.654   4.743  1.00  0.00     0.074 A 
ATOM     51  C   UNL     1      -8.019  -4.263   4.712  1.00  0.00     0.031 C 
ATOM     52  C   UNL     1      -1.428  -5.458   3.094  1.00  0.00     0.029 A 
ATOM     53  C   UNL     1      -2.216  -6.627   3.487  1.00  0.00     0.049 A 
ATOM     54  H   UNL     1      -4.253  -6.679   3.920  1.00  0.00     0.167 HD
ATOM     55  C   UNL     1      -8.464  -6.670   5.055  1.00  0.00     0.034 A 
ATOM     56  C   UNL     1      -1.751  -7.886   3.618  1.00  0.00     0.034 A 
ATOM     57  C   UNL     1      -8.090  -8.056   5.070  1.00  0.00     0.049 A 
ATOM     58  C   UNL     1      -2.699  -8.998   3.998  1.00  0.00     0.074 A 
ATOM     59  C   UNL     1      -8.884  -9.158   5.337  1.00  0.00     0.029 A 
ATOM     60  N   UNL     1      -6.815  -8.534   4.818  1.00  0.00    -0.354 N 
ATOM     61  N   UNL     1      -3.992  -8.948   4.213  1.00  0.00    -0.248 NA
ATOM     62  C   UNL     1      -2.128 -10.349   4.117  1.00  0.00     0.031 C 
ATOM     63  C   UNL     1      -8.082 -10.302   5.265  1.00  0.00     0.029 A 
ATOM     64  C   UNL     1      -6.795  -9.913   4.932  1.00  0.00     0.049 A 
ATOM     65  H   UNL     1      -6.037  -7.974   4.591  1.00  0.00     0.167 HD
ATOM     66  C   UNL     1      -4.393 -10.260   4.451  1.00  0.00     0.074 A 
ATOM     67  C   UNL     1      -3.209 -11.085   4.337  1.00  0.00     0.031 C 
ATOM     68  C   UNL     1      -5.627 -10.736   4.752  1.00  0.00     0.034 A 
BRANCH  55  69
ATOM     69  C   UNL     1      -9.890  -6.314   5.379  1.00  0.00     0.023 A 
ATOM     70  C   UNL     1     -10.764  -5.933   4.341  1.00  0.00     0.012 A 
ATOM     71  C   UNL     1     -10.376  -6.399   6.698  1.00  0.00     0.148 A 
ATOM     72  C   UNL     1     -12.093  -5.614   4.614  1.00  0.00     0.002 A 
ATOM     73  C   UNL     1     -11.713  -6.119   6.957  1.00  0.00     0.091 A 
ATOM     74  F   UNL     1      -9.522  -6.737   7.674  1.00  0.00    -0.205 F 
ATOM     75  C   UNL     1     -12.569  -5.716   5.918  1.00  0.00     0.022 A 
BRANCH  73  76
ATOM     76  S   UNL     1     -12.436  -6.293   8.591  1.00  0.00     0.127 S 
ATOM     77  O   UNL     1     -12.607  -4.896   8.988  1.00  0.00    -0.237 OA
ATOM     78  O   UNL     1     -13.683  -7.003   8.303  1.00  0.00    -0.237 OA
ATOM     79  O   UNL     1     -11.474  -7.054   9.375  1.00  0.00    -0.744 OA
ENDBRANCH  73  76
ENDBRANCH  55  69
BRANCH  56  80
ATOM     80  C   UNL     1      -0.314  -8.184   3.351  1.00  0.00     0.023 A 
ATOM     81  C   UNL     1       0.038  -8.948   2.222  1.00  0.00     0.012 A 
ATOM     82  C   UNL     1       0.701  -7.723   4.212  1.00  0.00     0.148 A 
ATOM     83  C   UNL     1       1.371  -9.275   1.971  1.00  0.00     0.002 A 
ATOM     84  C   UNL     1       2.031  -8.008   3.929  1.00  0.00     0.091 A 
ATOM     85  F   UNL     1       0.344  -7.016   5.294  1.00  0.00    -0.205 F 
ATOM     86  C   UNL     1       2.368  -8.798   2.818  1.00  0.00     0.022 A 
BRANCH  84  87
ATOM     87  S   UNL     1       3.388  -7.340   4.898  1.00  0.00     0.127 S 
ATOM     88  O   UNL     1       3.869  -8.528   5.598  1.00  0.00    -0.237 OA
ATOM     89  O   UNL     1       4.282  -6.833   3.857  1.00  0.00    -0.237 OA
ATOM     90  O   UNL     1       2.797  -6.306   5.737  1.00  0.00    -0.744 OA
ENDBRANCH  84  87
ENDBRANCH  56  80
BRANCH  68  91
ATOM     91  C   UNL     1      -5.787 -12.223   4.941  1.00  0.00     0.023 A 
ATOM     92  C   UNL     1      -5.287 -12.839   6.104  1.00  0.00     0.012 A 
ATOM     93  C   UNL     1      -6.510 -12.995   4.008  1.00  0.00     0.148 A 
ATOM     94  C   UNL     1      -5.476 -14.204   6.322  1.00  0.00     0.002 A 
ATOM     95  C   UNL     1      -6.734 -14.345   4.254  1.00  0.00     0.091 A 
ATOM     96  F   UNL     1      -6.964 -12.397   2.896  1.00  0.00    -0.205 F 
ATOM     97  C   UNL     1      -6.209 -14.954   5.405  1.00  0.00     0.022 A 
BRANCH  95  98
ATOM     98  S   UNL     1      -7.748 -15.362   3.173  1.00  0.00     0.127 S 
ATOM     99  O   UNL     1      -6.737 -16.141   2.461  1.00  0.00    -0.237 OA
ATOM    100  O   UNL     1      -8.550 -16.131   4.127  1.00  0.00    -0.237 OA
ATOM    101  O   UNL     1      -8.516 -14.432   2.357  1.00  0.00    -0.744 OA
ENDBRANCH  95  98
ENDBRANCH  68  91
ENDBRANCH  42  43
ENDBRANCH  35  37
ENDBRANCH  34  35
ENDBRANCH  33  34
ENDBRANCH  32  33
ENDBRANCH  31  32
ENDBRANCH  30  31
ENDBRANCH   1  30
TORSDOF 25
