REMARK SMILES CCc1ccc(S(=O)(=O)c2nnn(-c3ccc(C(=O)OCCOCCOCCOC(=O)c4ccc(-c5c6nc(c(-c7cccc(S(=O)(=O)[O-])c7F)c7ccc([nH]7)c(-c7cccc(S(=O)(=O)[O-])c7F)c7nc(c(-c8cccc(S(=O)(=O)[O-])c8F)c8ccc5[nH]8)C=C7)C=C6)cc4)cc3)c2C)cc1
REMARK SMILES IDX 24 1 23 2 22 3 21 4 20 5 18 6 19 7 17 8 14 9 15 10 96 11
REMARK SMILES IDX 16 12 95 13 13 14 10 15 11 16 97 17 12 18 98 19 7 20 8 21
REMARK SMILES IDX 9 22 6 23 3 24 4 25 100 26 5 27 99 28 2 29 1 30 25 31 26 32
REMARK SMILES IDX 27 33 28 34 29 35 30 36 31 37 32 38 33 39 94 40 34 41 93 42
REMARK SMILES IDX 35 43 36 44 37 45 87 46 38 47 92 48 86 49 88 50 39 51 91 52
REMARK SMILES IDX 85 53 84 54 40 56 72 57 52 58 71 59 53 60 56 61 70 62 89 63
REMARK SMILES IDX 54 64 55 65 69 67 90 68 57 69 41 70 42 71 50 72 43 73 45 74
REMARK SMILES IDX 51 75 44 76 46 77 47 78 48 79 49 80 73 81 74 82 82 83 75 84
REMARK SMILES IDX 77 85 83 86 76 87 78 88 79 89 80 90 81 91 58 92 59 93 67 94
REMARK SMILES IDX 60 95 62 96 68 97 61 98 63 99 64 100 65 101 66 102
REMARK H PARENT 88 55 56 66
REMARK Flexibility Score: inf
ROOT
ATOM      1  C   UNL     1      11.152   0.769  -9.874  1.00  0.00     0.188 C 
ENDROOT
BRANCH   1   2
ATOM      2  O   UNL     1      12.400   1.357  -9.582  1.00  0.00    -0.376 OA
BRANCH   2   3
ATOM      3  C   UNL     1      13.071   1.121  -8.360  1.00  0.00     0.202 C 
BRANCH   3   4
ATOM      4  C   UNL     1      12.381   0.745  -7.035  1.00  0.00     0.261 C 
BRANCH   4   5
ATOM      5  O   UNL     1      11.175  -0.013  -7.131  1.00  0.00    -0.460 OA
BRANCH   5   6
ATOM      6  C   UNL     1      10.036   0.662  -6.861  1.00  0.00     0.338 C 
ATOM      7  O   UNL     1       9.934   1.815  -6.467  1.00  0.00    -0.246 OA
BRANCH   6   8
ATOM      8  C   UNL     1       8.868  -0.155  -7.245  1.00  0.00     0.060 A 
ATOM      9  C   UNL     1       6.514  -1.532  -7.715  1.00  0.00     0.067 A 
ATOM     10  C   UNL     1       6.634  -0.226  -8.195  1.00  0.00     0.029 A 
ATOM     11  C   UNL     1       7.615  -2.203  -7.161  1.00  0.00     0.029 A 
ATOM     12  C   UNL     1       7.810   0.473  -7.924  1.00  0.00     0.018 A 
ATOM     13  C   UNL     1       8.802  -1.514  -6.931  1.00  0.00     0.018 A 
BRANCH   9  14
ATOM     14  N   UNL     1       5.227  -2.091  -7.573  1.00  0.00    -0.216 N 
ATOM     15  C   UNL     1       3.395  -2.929  -6.748  1.00  0.00     0.205 A 
ATOM     16  N   UNL     1       3.151  -2.525  -8.032  1.00  0.00    -0.117 NA
ATOM     17  C   UNL     1       4.689  -2.589  -6.395  1.00  0.00     0.081 A 
ATOM     18  N   UNL     1       4.248  -1.934  -8.491  1.00  0.00    -0.061 NA
ATOM     19  C   UNL     1       5.370  -2.540  -5.076  1.00  0.00     0.070 C 
BRANCH  15  20
ATOM     20  S   UNL     1       2.176  -3.603  -5.730  1.00  0.00     0.227 S 
ATOM     21  O   UNL     1       2.857  -4.681  -5.036  1.00  0.00    -0.217 OA
ATOM     22  O   UNL     1       1.020  -3.833  -6.570  1.00  0.00    -0.217 OA
BRANCH  20  23
ATOM     23  C   UNL     1       1.724  -2.397  -4.508  1.00  0.00     0.073 A 
ATOM     24  C   UNL     1       1.000  -0.605  -2.475  1.00  0.00    -0.048 A 
ATOM     25  C   UNL     1       0.589  -1.944  -2.421  1.00  0.00     0.005 A 
ATOM     26  C   UNL     1       1.778  -0.177  -3.561  1.00  0.00     0.005 A 
ATOM     27  C   UNL     1       0.957  -2.841  -3.426  1.00  0.00     0.021 A 
ATOM     28  C   UNL     1       2.132  -1.064  -4.583  1.00  0.00     0.021 A 
BRANCH  24  29
ATOM     29  C   UNL     1       0.574   0.374  -1.408  1.00  0.00     0.032 C 
ATOM     30  C   UNL     1       1.119   0.035  -0.028  1.00  0.00     0.009 C 
ENDBRANCH  24  29
ENDBRANCH  20  23
ENDBRANCH  15  20
ENDBRANCH   9  14
ENDBRANCH   6   8
ENDBRANCH   5   6
ENDBRANCH   4   5
ENDBRANCH   3   4
ENDBRANCH   2   3
ENDBRANCH   1   2
BRANCH   1  31
ATOM     31  C   UNL     1      10.990  -0.765  -9.954  1.00  0.00     0.188 C 
BRANCH  31  32
ATOM     32  O   UNL     1      11.896  -1.621  -9.290  1.00  0.00    -0.376 OA
BRANCH  32  33
ATOM     33  C   UNL     1      13.200  -1.902  -9.770  1.00  0.00     0.202 C 
BRANCH  33  34
ATOM     34  C   UNL     1      13.752  -1.548 -11.149  1.00  0.00     0.261 C 
BRANCH  34  35
ATOM     35  O   UNL     1      13.108  -0.484 -11.808  1.00  0.00    -0.460 OA
BRANCH  35  36
ATOM     36  C   UNL     1      12.209  -0.899 -12.724  1.00  0.00     0.338 C 
ATOM     37  O   UNL     1      11.778  -2.030 -12.875  1.00  0.00    -0.246 OA
BRANCH  36  38
ATOM     38  C   UNL     1      11.848   0.232 -13.574  1.00  0.00     0.060 A 
ATOM     39  C   UNL     1      10.753   0.040 -14.416  1.00  0.00     0.016 A 
ATOM     40  C   UNL     1      12.781   1.262 -13.758  1.00  0.00     0.016 A 
ATOM     41  C   UNL     1      10.759   0.701 -15.616  1.00  0.00     0.010 A 
ATOM     42  C   UNL     1      12.784   1.921 -14.959  1.00  0.00     0.010 A 
ATOM     43  C   UNL     1      11.846   1.534 -15.908  1.00  0.00    -0.014 A 
BRANCH  43  44
ATOM     44  C   UNL     1      11.982   1.986 -17.269  1.00  0.00     0.031 A 
ATOM     45  C   UNL     1      10.969   2.991 -17.635  1.00  0.00     0.074 A 
ATOM     46  C   UNL     1      12.961   1.534 -18.073  1.00  0.00     0.049 A 
ATOM     47  N   UNL     1       9.944   2.821 -18.400  1.00  0.00    -0.248 NA
ATOM     48  C   UNL     1      10.980   4.262 -16.899  1.00  0.00     0.031 C 
ATOM     49  C   UNL     1      14.150   0.750 -17.718  1.00  0.00     0.029 A 
ATOM     50  N   UNL     1      13.161   1.809 -19.386  1.00  0.00    -0.354 N 
ATOM     51  C   UNL     1       9.321   4.061 -18.440  1.00  0.00     0.074 A 
ATOM     52  C   UNL     1       9.856   4.825 -17.344  1.00  0.00     0.031 C 
ATOM     53  C   UNL     1      15.059   0.854 -18.716  1.00  0.00     0.029 A 
ATOM     54  C   UNL     1      14.459   1.580 -19.822  1.00  0.00     0.049 A 
ATOM     55  H   UNL     1      12.447   2.141 -19.978  1.00  0.00     0.167 HD
ATOM     56  C   UNL     1       8.634   4.460 -19.543  1.00  0.00     0.034 A 
ATOM     57  C   UNL     1      15.004   2.056 -20.969  1.00  0.00     0.034 A 
ATOM     58  C   UNL     1       8.320   3.350 -20.405  1.00  0.00     0.049 A 
ATOM     59  C   UNL     1      13.881   2.407 -21.874  1.00  0.00     0.074 A 
ATOM     60  C   UNL     1       7.611   2.174 -20.261  1.00  0.00     0.029 A 
ATOM     61  N   UNL     1       9.112   3.183 -21.515  1.00  0.00    -0.354 N 
ATOM     62  N   UNL     1      13.069   1.523 -22.382  1.00  0.00    -0.248 NA
ATOM     63  C   UNL     1      13.380   3.772 -21.839  1.00  0.00     0.031 C 
ATOM     64  C   UNL     1       8.355   1.206 -20.996  1.00  0.00     0.029 A 
ATOM     65  C   UNL     1       9.436   1.856 -21.596  1.00  0.00     0.049 A 
ATOM     66  H   UNL     1       9.395   3.890 -22.139  1.00  0.00     0.167 HD
ATOM     67  C   UNL     1      11.816   2.118 -22.295  1.00  0.00     0.074 A 
ATOM     68  C   UNL     1      12.082   3.534 -22.051  1.00  0.00     0.031 C 
ATOM     69  C   UNL     1      10.688   1.366 -22.131  1.00  0.00     0.034 A 
BRANCH  56  70
ATOM     70  C   UNL     1       8.604   5.881 -20.040  1.00  0.00     0.023 A 
ATOM     71  C   UNL     1       7.703   6.181 -21.083  1.00  0.00     0.012 A 
ATOM     72  C   UNL     1       9.594   6.848 -19.745  1.00  0.00     0.148 A 
ATOM     73  C   UNL     1       7.813   7.360 -21.825  1.00  0.00     0.002 A 
ATOM     74  C   UNL     1       9.646   8.055 -20.429  1.00  0.00     0.091 A 
ATOM     75  F   UNL     1      10.586   6.560 -18.899  1.00  0.00    -0.205 F 
ATOM     76  C   UNL     1       8.779   8.303 -21.493  1.00  0.00     0.022 A 
BRANCH  74  77
ATOM     77  S   UNL     1      10.850   9.319 -20.004  1.00  0.00     0.127 S 
ATOM     78  O   UNL     1      11.793   9.206 -21.113  1.00  0.00    -0.237 OA
ATOM     79  O   UNL     1      10.026  10.528 -20.009  1.00  0.00    -0.237 OA
ATOM     80  O   UNL     1      11.355   8.950 -18.688  1.00  0.00    -0.744 OA
ENDBRANCH  74  77
ENDBRANCH  56  70
BRANCH  57  81
ATOM     81  C   UNL     1      16.382   2.545 -21.210  1.00  0.00     0.023 A 
ATOM     82  C   UNL     1      16.865   2.645 -22.530  1.00  0.00     0.012 A 
ATOM     83  C   UNL     1      17.111   3.185 -20.183  1.00  0.00     0.148 A 
ATOM     84  C   UNL     1      18.018   3.385 -22.821  1.00  0.00     0.002 A 
ATOM     85  C   UNL     1      18.258   3.915 -20.476  1.00  0.00     0.091 A 
ATOM     86  F   UNL     1      16.627   3.155 -18.934  1.00  0.00    -0.205 F 
ATOM     87  C   UNL     1      18.709   4.028 -21.797  1.00  0.00     0.022 A 
BRANCH  85  88
ATOM     88  S   UNL     1      19.185   4.798 -19.212  1.00  0.00     0.127 S 
ATOM     89  O   UNL     1      20.548   4.322 -19.451  1.00  0.00    -0.237 OA
ATOM     90  O   UNL     1      18.949   6.191 -19.582  1.00  0.00    -0.237 OA
ATOM     91  O   UNL     1      18.619   4.380 -17.936  1.00  0.00    -0.744 OA
ENDBRANCH  85  88
ENDBRANCH  57  81
BRANCH  69  92
ATOM     92  C   UNL     1      10.805  -0.130 -22.282  1.00  0.00     0.023 A 
ATOM     93  C   UNL     1      11.565  -0.926 -21.399  1.00  0.00     0.012 A 
ATOM     94  C   UNL     1       9.981  -0.763 -23.227  1.00  0.00     0.148 A 
ATOM     95  C   UNL     1      11.518  -2.321 -21.472  1.00  0.00     0.002 A 
ATOM     96  C   UNL     1       9.902  -2.148 -23.267  1.00  0.00     0.091 A 
ATOM     97  F   UNL     1       9.260   0.010 -24.054  1.00  0.00    -0.205 F 
ATOM     98  C   UNL     1      10.675  -2.933 -22.397  1.00  0.00     0.022 A 
BRANCH  96  99
ATOM     99  S   UNL     1       8.742  -2.988 -24.348  1.00  0.00     0.127 S 
ATOM    100  O   UNL     1       9.625  -3.533 -25.377  1.00  0.00    -0.237 OA
ATOM    101  O   UNL     1       8.150  -3.987 -23.457  1.00  0.00    -0.237 OA
ATOM    102  O   UNL     1       7.805  -1.968 -24.802  1.00  0.00    -0.744 OA
ENDBRANCH  96  99
ENDBRANCH  69  92
ENDBRANCH  43  44
ENDBRANCH  36  38
ENDBRANCH  35  36
ENDBRANCH  34  35
ENDBRANCH  33  34
ENDBRANCH  32  33
ENDBRANCH  31  32
ENDBRANCH   1  31
TORSDOF 24
