REMARK SMILES O=C(CSc1nc(O)cc(=O)[nH]1)Nc1cccc(C(=O)OCCOCCOCCOC(=O)c2ccc(-c3c4nc(c(-c5cccc(S(=O)(=O)[O-])c5F)c5ccc([nH]5)c(-c5cccc(S(=O)(=O)[O-])c5F)c5nc(c(-c6cccc(S(=O)(=O)[O-])c6F)c6ccc3[nH]6)C=C5)C=C4)cc2)c1
REMARK SMILES IDX 25 1 24 2 23 3 22 4 21 5 19 6 20 7 18 8 14 9 15 10 96 11
REMARK SMILES IDX 16 12 17 13 13 14 1 15 2 16 3 18 4 19 5 20 6 21 12 22 7 23
REMARK SMILES IDX 10 24 9 26 11 27 8 28 26 30 27 31 28 32 29 33 30 34 31 35
REMARK SMILES IDX 32 36 33 37 34 38 95 39 35 40 94 41 36 42 37 43 38 44 88 45
REMARK SMILES IDX 39 46 93 47 87 48 89 49 40 50 92 51 86 52 85 53 41 55 73 56
REMARK SMILES IDX 53 57 72 58 54 59 57 60 71 61 90 62 55 63 56 64 70 66 91 67
REMARK SMILES IDX 58 68 42 69 43 70 51 71 44 72 46 73 52 74 45 75 47 76 48 77
REMARK SMILES IDX 49 78 50 79 74 80 75 81 83 82 76 83 78 84 84 85 77 86 79 87
REMARK SMILES IDX 80 88 81 89 82 90 59 91 60 92 68 93 61 94 63 95 69 96 62 97
REMARK SMILES IDX 64 98 65 99 66 100 67 101
REMARK H PARENT 13 17 12 25 8 29 89 54 57 65
REMARK Flexibility Score: inf
ROOT
ATOM      1  C   UNL     1      -0.376   4.178   4.907  1.00  0.00     0.188 C 
ENDROOT
BRANCH   1   2
ATOM      2  O   UNL     1      -1.446   3.780   5.728  1.00  0.00    -0.376 OA
BRANCH   2   3
ATOM      3  C   UNL     1      -2.474   2.943   5.226  1.00  0.00     0.202 C 
BRANCH   3   4
ATOM      4  C   UNL     1      -2.527   2.301   3.825  1.00  0.00     0.261 C 
BRANCH   4   5
ATOM      5  O   UNL     1      -1.348   2.341   3.021  1.00  0.00    -0.460 OA
BRANCH   5   6
ATOM      6  C   UNL     1      -1.389   3.169   1.946  1.00  0.00     0.338 C 
ATOM      7  O   UNL     1      -2.316   3.882   1.599  1.00  0.00    -0.246 OA
BRANCH   6   8
ATOM      8  C   UNL     1      -0.040   3.233   1.350  1.00  0.00     0.062 A 
ATOM      9  C   UNL     1       1.943   2.132   0.507  1.00  0.00     0.042 A 
ATOM     10  C   UNL     1       2.573   3.381   0.408  1.00  0.00     0.026 A 
ATOM     11  C   UNL     1       0.646   2.061   1.018  1.00  0.00     0.041 A 
ATOM     12  C   UNL     1       1.884   4.553   0.737  1.00  0.00     0.003 A 
ATOM     13  C   UNL     1       0.567   4.482   1.187  1.00  0.00     0.016 A 
BRANCH   9  14
ATOM     14  N   UNL     1       2.658   0.996   0.077  1.00  0.00    -0.325 N 
ATOM     15  O   UNL     1       0.903  -0.496  -0.284  1.00  0.00    -0.274 OA
ATOM     16  C   UNL     1       2.103  -0.229  -0.248  1.00  0.00     0.234 C 
ATOM     17  H   UNL     1       3.636   1.081   0.003  1.00  0.00     0.169 HD
BRANCH  16  18
ATOM     18  C   UNL     1       3.115  -1.314  -0.554  1.00  0.00     0.178 C 
BRANCH  18  19
ATOM     19  S   UNL     1       4.248  -0.883  -1.895  1.00  0.00    -0.078 SA
BRANCH  19  20
ATOM     20  C   UNL     1       3.131  -0.363  -3.119  1.00  0.00     0.172 A 
ATOM     21  N   UNL     1       3.032   0.888  -3.415  1.00  0.00    -0.189 NA
ATOM     22  N   UNL     1       2.462  -1.365  -3.743  1.00  0.00    -0.301 N 
ATOM     23  C   UNL     1       2.181   1.192  -4.439  1.00  0.00     0.218 A 
ATOM     24  C   UNL     1       1.619  -1.112  -4.782  1.00  0.00     0.255 A 
ATOM     25  H   UNL     1       2.589  -2.293  -3.439  1.00  0.00     0.172 HD
ATOM     26  C   UNL     1       1.476   0.303  -5.141  1.00  0.00     0.139 A 
ATOM     27  O   UNL     1       1.039  -1.998  -5.398  1.00  0.00    -0.269 OA
BRANCH  23  28
ATOM     28  O   UNL     1       2.090   2.521  -4.755  1.00  0.00    -0.493 OA
ATOM     29  H   UNL     1       2.582   3.153  -4.268  1.00  0.00     0.295 HD
ENDBRANCH  23  28
ENDBRANCH  19  20
ENDBRANCH  18  19
ENDBRANCH  16  18
ENDBRANCH   9  14
ENDBRANCH   6   8
ENDBRANCH   5   6
ENDBRANCH   4   5
ENDBRANCH   3   4
ENDBRANCH   2   3
ENDBRANCH   1   2
BRANCH   1  30
ATOM     30  C   UNL     1       0.818   3.203   4.832  1.00  0.00     0.188 C 
BRANCH  30  31
ATOM     31  O   UNL     1       0.737   1.917   5.420  1.00  0.00    -0.376 OA
BRANCH  31  32
ATOM     32  C   UNL     1       0.388   1.790   6.789  1.00  0.00     0.202 C 
BRANCH  32  33
ATOM     33  C   UNL     1       0.899   2.745   7.885  1.00  0.00     0.261 C 
BRANCH  33  34
ATOM     34  O   UNL     1       1.001   4.132   7.547  1.00  0.00    -0.460 OA
BRANCH  34  35
ATOM     35  C   UNL     1       2.264   4.600   7.385  1.00  0.00     0.338 C 
ATOM     36  O   UNL     1       3.303   3.969   7.476  1.00  0.00    -0.246 OA
BRANCH  35  37
ATOM     37  C   UNL     1       2.205   5.988   6.890  1.00  0.00     0.060 A 
ATOM     38  C   UNL     1       2.671   6.264   5.596  1.00  0.00     0.016 A 
ATOM     39  C   UNL     1       1.745   7.015   7.714  1.00  0.00     0.016 A 
ATOM     40  C   UNL     1       2.699   7.576   5.127  1.00  0.00     0.010 A 
ATOM     41  C   UNL     1       1.798   8.332   7.252  1.00  0.00     0.010 A 
ATOM     42  C   UNL     1       2.304   8.621   5.970  1.00  0.00    -0.014 A 
BRANCH  42  43
ATOM     43  C   UNL     1       2.593  10.026   5.595  1.00  0.00     0.031 A 
ATOM     44  C   UNL     1       3.796  10.694   6.202  1.00  0.00     0.074 A 
ATOM     45  C   UNL     1       1.792  10.704   4.755  1.00  0.00     0.049 A 
ATOM     46  N   UNL     1       4.193  11.934   6.106  1.00  0.00    -0.248 NA
ATOM     47  C   UNL     1       4.665   9.846   7.037  1.00  0.00     0.031 C 
ATOM     48  C   UNL     1       0.609  10.162   4.090  1.00  0.00     0.029 A 
ATOM     49  N   UNL     1       1.838  12.015   4.350  1.00  0.00    -0.354 N 
ATOM     50  C   UNL     1       5.330  12.029   6.899  1.00  0.00     0.074 A 
ATOM     51  C   UNL     1       5.559  10.721   7.472  1.00  0.00     0.031 C 
ATOM     52  C   UNL     1       0.017  11.145   3.389  1.00  0.00     0.029 A 
ATOM     53  C   UNL     1       0.758  12.390   3.586  1.00  0.00     0.049 A 
ATOM     54  H   UNL     1       2.572  12.628   4.584  1.00  0.00     0.167 HD
ATOM     55  C   UNL     1       6.118  13.107   7.126  1.00  0.00     0.034 A 
ATOM     56  C   UNL     1       0.393  13.605   3.130  1.00  0.00     0.034 A 
ATOM     57  C   UNL     1       5.893  14.403   6.548  1.00  0.00     0.049 A 
ATOM     58  C   UNL     1       1.266  14.799   3.429  1.00  0.00     0.074 A 
ATOM     59  C   UNL     1       6.658  15.548   6.681  1.00  0.00     0.029 A 
ATOM     60  N   UNL     1       4.813  14.735   5.745  1.00  0.00    -0.354 N 
ATOM     61  N   UNL     1       2.394  14.854   4.094  1.00  0.00    -0.248 NA
ATOM     62  C   UNL     1       0.828  16.095   2.888  1.00  0.00     0.031 C 
ATOM     63  C   UNL     1       6.019  16.582   5.990  1.00  0.00     0.029 A 
ATOM     64  C   UNL     1       4.883  16.070   5.386  1.00  0.00     0.049 A 
ATOM     65  H   UNL     1       4.101  14.113   5.469  1.00  0.00     0.167 HD
ATOM     66  C   UNL     1       2.822  16.176   4.014  1.00  0.00     0.074 A 
ATOM     67  C   UNL     1       1.839  16.885   3.223  1.00  0.00     0.031 C 
ATOM     68  C   UNL     1       3.925  16.752   4.553  1.00  0.00     0.034 A 
BRANCH  55  69
ATOM     69  C   UNL     1       7.301  12.927   8.040  1.00  0.00     0.023 A 
ATOM     70  C   UNL     1       8.411  12.170   7.613  1.00  0.00     0.012 A 
ATOM     71  C   UNL     1       7.333  13.549   9.303  1.00  0.00     0.148 A 
ATOM     72  C   UNL     1       9.519  12.004   8.444  1.00  0.00     0.002 A 
ATOM     73  C   UNL     1       8.460  13.420  10.105  1.00  0.00     0.091 A 
ATOM     74  F   UNL     1       6.258  14.245   9.700  1.00  0.00    -0.205 F 
ATOM     75  C   UNL     1       9.547  12.638   9.684  1.00  0.00     0.022 A 
BRANCH  73  76
ATOM     76  S   UNL     1       8.629  14.263  11.682  1.00  0.00     0.127 S 
ATOM     77  O   UNL     1       8.586  13.143  12.621  1.00  0.00    -0.237 OA
ATOM     78  O   UNL     1       9.940  14.899  11.550  1.00  0.00    -0.237 OA
ATOM     79  O   UNL     1       7.509  15.190  11.766  1.00  0.00    -0.744 OA
ENDBRANCH  73  76
ENDBRANCH  55  69
BRANCH  56  80
ATOM     80  C   UNL     1      -0.855  13.761   2.329  1.00  0.00     0.023 A 
ATOM     81  C   UNL     1      -0.768  14.105   0.966  1.00  0.00     0.012 A 
ATOM     82  C   UNL     1      -2.124  13.574   2.910  1.00  0.00     0.148 A 
ATOM     83  C   UNL     1      -1.922  14.295   0.205  1.00  0.00     0.002 A 
ATOM     84  C   UNL     1      -3.268  13.710   2.134  1.00  0.00     0.091 A 
ATOM     85  F   UNL     1      -2.185  13.262   4.213  1.00  0.00    -0.205 F 
ATOM     86  C   UNL     1      -3.171  14.088   0.786  1.00  0.00     0.022 A 
BRANCH  84  87
ATOM     87  S   UNL     1      -4.911  13.351   2.763  1.00  0.00     0.127 S 
ATOM     88  O   UNL     1      -5.531  14.674   2.751  1.00  0.00    -0.237 OA
ATOM     89  O   UNL     1      -5.421  12.422   1.754  1.00  0.00    -0.237 OA
ATOM     90  O   UNL     1      -4.711  12.762   4.079  1.00  0.00    -0.744 OA
ENDBRANCH  84  87
ENDBRANCH  56  80
BRANCH  68  91
ATOM     91  C   UNL     1       4.173  18.211   4.262  1.00  0.00     0.023 A 
ATOM     92  C   UNL     1       3.362  19.202   4.850  1.00  0.00     0.012 A 
ATOM     93  C   UNL     1       5.268  18.601   3.463  1.00  0.00     0.148 A 
ATOM     94  C   UNL     1       3.615  20.554   4.619  1.00  0.00     0.002 A 
ATOM     95  C   UNL     1       5.546  19.950   3.281  1.00  0.00     0.091 A 
ATOM     96  F   UNL     1       6.019  17.644   2.899  1.00  0.00    -0.205 F 
ATOM     97  C   UNL     1       4.712  20.928   3.846  1.00  0.00     0.022 A 
BRANCH  95  98
ATOM     98  S   UNL     1       6.994  20.525   2.387  1.00  0.00     0.127 S 
ATOM     99  O   UNL     1       6.394  21.093   1.182  1.00  0.00    -0.237 OA
ATOM    100  O   UNL     1       7.557  21.509   3.312  1.00  0.00    -0.237 OA
ATOM    101  O   UNL     1       7.829  19.350   2.172  1.00  0.00    -0.744 OA
ENDBRANCH  95  98
ENDBRANCH  68  91
ENDBRANCH  42  43
ENDBRANCH  35  37
ENDBRANCH  34  35
ENDBRANCH  33  34
ENDBRANCH  32  33
ENDBRANCH  31  32
ENDBRANCH  30  31
ENDBRANCH   1  30
TORSDOF 25
