REMARK SMILES O=C(OCCOCCOCCOC(=O)[C@@H]1CCCCN1c1ccccc1[N+](=O)[O-])c1ccc(-c2c3nc(c(-c4cccc(S(=O)(=O)[O-])c4F)c4ccc([nH]4)c(-c4cccc(S(=O)(=O)[O-])c4F)c4nc(c(-c5cccc(S(=O)(=O)[O-])c5F)c5ccc2[nH]5)C=C4)C=C3)cc1
REMARK SMILES IDX 7 1 6 2 5 3 4 4 3 5 2 6 1 7 30 8 31 9 92 10 32 11 91 12
REMARK SMILES IDX 33 13 34 14 35 15 85 16 36 17 90 18 84 19 86 20 37 21 89 22
REMARK SMILES IDX 83 23 82 24 38 26 70 27 50 28 69 29 51 30 54 31 68 32 87 33
REMARK SMILES IDX 52 34 53 35 67 37 88 38 55 39 39 40 40 41 48 42 41 43 43 44
REMARK SMILES IDX 49 45 42 46 44 47 45 48 46 49 47 50 71 51 72 52 80 53 73 54
REMARK SMILES IDX 75 55 81 56 74 57 76 58 77 59 78 60 79 61 56 62 57 63 65 64
REMARK SMILES IDX 58 65 60 66 66 67 59 68 61 69 62 70 63 71 64 72 8 73 9 74
REMARK SMILES IDX 10 75 11 76 12 77 13 78 14 79 15 80 16 81 20 82 17 83 19 84
REMARK SMILES IDX 18 85 21 86 22 87 26 88 23 89 25 90 24 91 27 92 28 93 29 94
REMARK H PARENT 86 25 54 36
REMARK Flexibility Score: inf
ROOT
ATOM      1  C   UNL     1       2.433   0.948  -2.127  1.00  0.00     0.188 C 
ENDROOT
BRANCH   1   2
ATOM      2  O   UNL     1       3.577   0.350  -2.728  1.00  0.00    -0.376 OA
BRANCH   2   3
ATOM      3  C   UNL     1       4.417  -0.497  -1.949  1.00  0.00     0.202 C 
BRANCH   3   4
ATOM      4  C   UNL     1       3.785  -1.744  -1.354  1.00  0.00     0.261 C 
BRANCH   4   5
ATOM      5  O   UNL     1       2.453  -1.581  -0.844  1.00  0.00    -0.460 OA
BRANCH   5   6
ATOM      6  C   UNL     1       1.986  -0.980   0.261  1.00  0.00     0.338 C 
ATOM      7  O   UNL     1       0.797  -1.089   0.544  1.00  0.00    -0.246 OA
BRANCH   6   8
ATOM      8  C   UNL     1       2.829  -0.264   1.231  1.00  0.00     0.060 A 
ATOM      9  C   UNL     1       4.122   0.972   0.955  1.00  0.00     0.016 A 
ATOM     10  C   UNL     1       2.413  -0.647   2.914  1.00  0.00     0.016 A 
ATOM     11  C   UNL     1       5.038   1.762   2.565  1.00  0.00     0.010 A 
ATOM     12  C   UNL     1       3.215   0.096   4.322  1.00  0.00     0.010 A 
ATOM     13  C   UNL     1       4.511   1.282   4.196  1.00  0.00    -0.014 A 
BRANCH  13  14
ATOM     14  C   UNL     1       5.362   1.743   5.304  1.00  0.00     0.031 A 
ATOM     15  C   UNL     1       5.996   0.718   6.176  1.00  0.00     0.074 A 
ATOM     16  C   UNL     1       5.712   3.044   5.378  1.00  0.00     0.049 A 
ATOM     17  N   UNL     1       6.784   0.895   7.195  1.00  0.00    -0.248 NA
ATOM     18  C   UNL     1       5.749  -0.697   5.854  1.00  0.00     0.031 C 
ATOM     19  C   UNL     1       5.296   4.071   4.433  1.00  0.00     0.029 A 
ATOM     20  N   UNL     1       6.519   3.746   6.230  1.00  0.00    -0.354 N 
ATOM     21  C   UNL     1       7.061  -0.374   7.675  1.00  0.00     0.074 A 
ATOM     22  C   UNL     1       6.358  -1.319   6.847  1.00  0.00     0.031 C 
ATOM     23  C   UNL     1       5.859   5.245   4.709  1.00  0.00     0.029 A 
ATOM     24  C   UNL     1       6.571   5.097   5.946  1.00  0.00     0.049 A 
ATOM     25  H   UNL     1       7.015   3.330   6.972  1.00  0.00     0.167 HD
ATOM     26  C   UNL     1       7.845  -0.703   8.722  1.00  0.00     0.034 A 
ATOM     27  C   UNL     1       7.085   6.134   6.620  1.00  0.00     0.034 A 
ATOM     28  C   UNL     1       8.525   0.292   9.498  1.00  0.00     0.049 A 
ATOM     29  C   UNL     1       7.840   5.761   7.842  1.00  0.00     0.074 A 
ATOM     30  C   UNL     1       9.316   0.126  10.615  1.00  0.00     0.029 A 
ATOM     31  N   UNL     1       8.469   1.659   9.236  1.00  0.00    -0.354 N 
ATOM     32  N   UNL     1       8.048   4.556   8.318  1.00  0.00    -0.248 NA
ATOM     33  C   UNL     1       8.473   6.843   8.588  1.00  0.00     0.031 C 
ATOM     34  C   UNL     1       9.678   1.399  11.068  1.00  0.00     0.029 A 
ATOM     35  C   UNL     1       9.185   2.354  10.188  1.00  0.00     0.049 A 
ATOM     36  H   UNL     1       7.987   2.069   8.482  1.00  0.00     0.167 HD
ATOM     37  C   UNL     1       8.884   4.720   9.397  1.00  0.00     0.074 A 
ATOM     38  C   UNL     1       9.146   6.149   9.495  1.00  0.00     0.031 C 
ATOM     39  C   UNL     1       9.397   3.780  10.225  1.00  0.00     0.034 A 
BRANCH  26  40
ATOM     40  C   UNL     1       7.872  -2.154   9.114  1.00  0.00     0.023 A 
ATOM     41  C   UNL     1       8.451  -3.132   8.277  1.00  0.00     0.012 A 
ATOM     42  C   UNL     1       7.212  -2.557  10.289  1.00  0.00     0.148 A 
ATOM     43  C   UNL     1       8.312  -4.490   8.572  1.00  0.00     0.002 A 
ATOM     44  C   UNL     1       7.131  -3.904  10.608  1.00  0.00     0.091 A 
ATOM     45  F   UNL     1       6.634  -1.616  11.049  1.00  0.00    -0.205 F 
ATOM     46  C   UNL     1       7.657  -4.874   9.739  1.00  0.00     0.022 A 
BRANCH  44  47
ATOM     47  S   UNL     1       6.367  -4.490  12.121  1.00  0.00     0.127 S 
ATOM     48  O   UNL     1       5.260  -5.293  11.602  1.00  0.00    -0.237 OA
ATOM     49  O   UNL     1       7.454  -5.262  12.723  1.00  0.00    -0.237 OA
ATOM     50  O   UNL     1       5.973  -3.302  12.864  1.00  0.00    -0.744 OA
ENDBRANCH  44  47
ENDBRANCH  26  40
BRANCH  27  51
ATOM     51  C   UNL     1       6.907   7.537   6.139  1.00  0.00     0.023 A 
ATOM     52  C   UNL     1       8.015   8.270   5.678  1.00  0.00     0.012 A 
ATOM     53  C   UNL     1       5.625   8.128   6.073  1.00  0.00     0.148 A 
ATOM     54  C   UNL     1       7.859   9.575   5.200  1.00  0.00     0.002 A 
ATOM     55  C   UNL     1       5.470   9.412   5.558  1.00  0.00     0.091 A 
ATOM     56  F   UNL     1       4.572   7.410   6.490  1.00  0.00    -0.205 F 
ATOM     57  C   UNL     1       6.589  10.144   5.137  1.00  0.00     0.022 A 
BRANCH  55  58
ATOM     58  S   UNL     1       3.862  10.185   5.337  1.00  0.00     0.127 S 
ATOM     59  O   UNL     1       3.904  11.248   6.338  1.00  0.00    -0.237 OA
ATOM     60  O   UNL     1       3.934  10.642   3.949  1.00  0.00    -0.237 OA
ATOM     61  O   UNL     1       2.881   9.134   5.571  1.00  0.00    -0.744 OA
ENDBRANCH  55  58
ENDBRANCH  27  51
BRANCH  39  62
ATOM     62  C   UNL     1      10.334   4.295  11.266  1.00  0.00     0.023 A 
ATOM     63  C   UNL     1       9.850   5.054  12.346  1.00  0.00     0.012 A 
ATOM     64  C   UNL     1      11.698   3.979  11.169  1.00  0.00     0.148 A 
ATOM     65  C   UNL     1      10.735   5.538  13.301  1.00  0.00     0.002 A 
ATOM     66  C   UNL     1      12.559   4.397  12.165  1.00  0.00     0.091 A 
ATOM     67  F   UNL     1      12.122   3.280  10.105  1.00  0.00    -0.205 F 
ATOM     68  C   UNL     1      12.085   5.196  13.220  1.00  0.00     0.022 A 
BRANCH  66  69
ATOM     69  S   UNL     1      14.275   3.891  12.203  1.00  0.00     0.127 S 
ATOM     70  O   UNL     1      14.962   5.152  11.932  1.00  0.00    -0.237 OA
ATOM     71  O   UNL     1      14.414   3.397  13.573  1.00  0.00    -0.237 OA
ATOM     72  O   UNL     1      14.421   2.870  11.174  1.00  0.00    -0.744 OA
ENDBRANCH  66  69
ENDBRANCH  39  62
ENDBRANCH  13  14
ENDBRANCH   6   8
ENDBRANCH   5   6
ENDBRANCH   4   5
ENDBRANCH   3   4
ENDBRANCH   2   3
ENDBRANCH   1   2
BRANCH   1  73
ATOM     73  C   UNL     1       1.915   2.215  -2.825  1.00  0.00     0.188 C 
BRANCH  73  74
ATOM     74  O   UNL     1       2.691   2.803  -3.860  1.00  0.00    -0.376 OA
BRANCH  74  75
ATOM     75  C   UNL     1       4.076   3.013  -3.634  1.00  0.00     0.202 C 
BRANCH  75  76
ATOM     76  C   UNL     1       4.498   3.997  -2.546  1.00  0.00     0.261 C 
BRANCH  76  77
ATOM     77  O   UNL     1       3.789   3.883  -1.304  1.00  0.00    -0.462 OA
BRANCH  77  78
ATOM     78  C   UNL     1       2.954   4.912  -1.033  1.00  0.00     0.328 C 
ATOM     79  O   UNL     1       2.579   5.689  -1.915  1.00  0.00    -0.250 OA
BRANCH  78  80
ATOM     80  C   UNL     1       2.502   5.097   0.420  1.00  0.00     0.192 C 
ATOM     81  C   UNL     1       2.821   6.581   0.743  1.00  0.00     0.037 C 
ATOM     82  N   UNL     1       2.932   4.232   1.575  1.00  0.00    -0.353 N 
ATOM     83  C   UNL     1       2.260   7.049   2.078  1.00  0.00     0.005 C 
ATOM     84  C   UNL     1       2.327   4.678   2.861  1.00  0.00     0.118 C 
ATOM     85  C   UNL     1       2.730   6.118   3.171  1.00  0.00     0.022 C 
BRANCH  82  86
ATOM     86  C   UNL     1       3.622   3.016   1.538  1.00  0.00     0.116 A 
ATOM     87  C   UNL     1       5.198   2.996   0.724  1.00  0.00     0.033 A 
ATOM     88  C   UNL     1       3.156   1.530   2.487  1.00  0.00     0.292 A 
ATOM     89  C   UNL     1       6.316   1.616   0.724  1.00  0.00     0.003 A 
ATOM     90  C   UNL     1       4.466  -0.018   2.511  1.00  0.00     0.088 A 
ATOM     91  C   UNL     1       6.008   0.125   1.589  1.00  0.00     0.007 A 
BRANCH  88  92
ATOM     92  N   UNL     1       1.691   1.741   2.893  1.00  0.00     0.064 N 
ATOM     93  O   UNL     1       1.415   1.972   4.081  1.00  0.00    -0.258 OA
ATOM     94  O   UNL     1       0.869   1.773   1.963  1.00  0.00    -0.258 OA
ENDBRANCH  88  92
ENDBRANCH  82  86
ENDBRANCH  78  80
ENDBRANCH  77  78
ENDBRANCH  76  77
ENDBRANCH  75  76
ENDBRANCH  74  75
ENDBRANCH  73  74
ENDBRANCH   1  73
TORSDOF 22
