REMARK SMILES COc1cc(/C=C/C(=O)c2ccc(OCC(=O)OCCOCCOCCOC(=O)c3ccc(-c4c5nc(c(-c6cccc(S(=O)(=O)[O-])c6F)c6ccc([nH]6)c(-c6cccc(S(=O)(=O)[O-])c6F)c6nc(c(-c7cccc(S(=O)(=O)[O-])c7F)c7ccc4[nH]7)C=C6)C=C5)cc3)cc2)cc2c1OCCO2
REMARK SMILES IDX 21 1 20 2 19 3 18 4 16 5 17 6 15 7 14 8 13 9 10 10 11 11
REMARK SMILES IDX 94 12 12 13 93 14 8 15 9 16 7 17 6 18 5 19 3 20 4 21 97 22
REMARK SMILES IDX 96 23 98 24 95 25 101 26 99 27 100 28 2 29 1 30 22 31 23 32
REMARK SMILES IDX 24 33 25 34 26 35 27 36 28 37 29 38 30 39 31 40 92 41 32 42
REMARK SMILES IDX 91 43 33 44 34 45 35 46 85 47 36 48 90 49 84 50 86 51 37 52
REMARK SMILES IDX 89 53 83 54 82 55 38 57 70 58 50 59 69 60 51 61 54 62 68 63
REMARK SMILES IDX 87 64 52 65 53 66 67 68 88 69 55 70 39 71 40 72 48 73 41 74
REMARK SMILES IDX 43 75 49 76 42 77 44 78 45 79 46 80 47 81 71 82 72 83 80 84
REMARK SMILES IDX 73 85 75 86 81 87 74 88 76 89 77 90 78 91 79 92 56 93 57 94
REMARK SMILES IDX 65 95 58 96 60 97 66 98 59 99 61 100 62 101 63 102 64 103
REMARK H PARENT 86 56 54 67
REMARK Flexibility Score: inf
ROOT
ATOM      1  O   UNL     1      -6.269   1.039  -2.864  1.00  0.00    -0.376 OA
ENDROOT
BRANCH   1   2
ATOM      2  C   UNL     1      -7.063   0.447  -3.886  1.00  0.00     0.202 C 
BRANCH   2   3
ATOM      3  C   UNL     1      -8.239   1.323  -4.343  1.00  0.00     0.261 C 
BRANCH   3   4
ATOM      4  O   UNL     1      -7.774   2.545  -4.970  1.00  0.00    -0.461 OA
BRANCH   4   5
ATOM      5  C   UNL     1      -8.321   3.719  -4.553  1.00  0.00     0.344 C 
ATOM      6  O   UNL     1      -9.348   3.793  -3.887  1.00  0.00    -0.248 OA
BRANCH   5   7
ATOM      7  C   UNL     1      -7.429   4.952  -4.861  1.00  0.00     0.351 C 
BRANCH   7   8
ATOM      8  O   UNL     1      -6.561   4.899  -5.990  1.00  0.00    -0.482 OA
BRANCH   8   9
ATOM      9  C   UNL     1      -5.327   5.507  -5.956  1.00  0.00     0.120 A 
ATOM     10  C   UNL     1      -2.559   6.236  -5.954  1.00  0.00     0.022 A 
ATOM     11  C   UNL     1      -3.130   5.545  -7.033  1.00  0.00     0.016 A 
ATOM     12  C   UNL     1      -3.425   6.700  -4.960  1.00  0.00     0.016 A 
ATOM     13  C   UNL     1      -4.490   5.181  -7.027  1.00  0.00     0.047 A 
ATOM     14  C   UNL     1      -4.807   6.349  -4.971  1.00  0.00     0.047 A 
BRANCH  10  15
ATOM     15  C   UNL     1      -1.055   6.351  -5.933  1.00  0.00     0.185 C 
ATOM     16  O   UNL     1      -0.471   6.669  -6.968  1.00  0.00    -0.289 OA
BRANCH  15  17
ATOM     17  C   UNL     1      -0.270   5.910  -4.718  1.00  0.00     0.053 C 
ATOM     18  C   UNL     1       0.717   4.999  -4.886  1.00  0.00     0.012 C 
BRANCH  18  19
ATOM     19  C   UNL     1       1.489   4.247  -3.859  1.00  0.00    -0.018 A 
ATOM     20  C   UNL     1       1.575   2.216  -2.423  1.00  0.00     0.165 A 
ATOM     21  C   UNL     1       0.927   3.097  -3.301  1.00  0.00     0.058 A 
ATOM     22  C   UNL     1       2.905   2.457  -2.128  1.00  0.00     0.203 A 
ATOM     23  C   UNL     1       3.525   3.583  -2.708  1.00  0.00     0.165 A 
ATOM     24  O   UNL     1       3.579   1.546  -1.356  1.00  0.00    -0.483 OA
ATOM     25  C   UNL     1       2.819   4.486  -3.538  1.00  0.00     0.058 A 
ATOM     26  O   UNL     1       4.867   3.842  -2.546  1.00  0.00    -0.486 OA
ATOM     27  C   UNL     1       4.860   2.024  -0.946  1.00  0.00     0.271 C 
ATOM     28  C   UNL     1       5.573   2.672  -2.117  1.00  0.00     0.271 C 
BRANCH  20  29
ATOM     29  O   UNL     1       0.830   1.133  -2.037  1.00  0.00    -0.493 OA
ATOM     30  C   UNL     1       0.960   0.733  -0.672  1.00  0.00     0.278 C 
ENDBRANCH  20  29
ENDBRANCH  18  19
ENDBRANCH  15  17
ENDBRANCH  10  15
ENDBRANCH   8   9
ENDBRANCH   7   8
ENDBRANCH   5   7
ENDBRANCH   4   5
ENDBRANCH   3   4
ENDBRANCH   2   3
ENDBRANCH   1   2
BRANCH   1  31
ATOM     31  C   UNL     1      -5.517   2.192  -3.232  1.00  0.00     0.188 C 
BRANCH  31  32
ATOM     32  C   UNL     1      -4.913   2.193  -4.639  1.00  0.00     0.188 C 
BRANCH  32  33
ATOM     33  O   UNL     1      -4.214   0.978  -4.880  1.00  0.00    -0.376 OA
BRANCH  33  34
ATOM     34  C   UNL     1      -2.867   1.195  -5.239  1.00  0.00     0.202 C 
BRANCH  34  35
ATOM     35  C   UNL     1      -1.966   1.243  -4.003  1.00  0.00     0.261 C 
BRANCH  35  36
ATOM     36  O   UNL     1      -2.291   2.178  -2.926  1.00  0.00    -0.460 OA
BRANCH  36  37
ATOM     37  C   UNL     1      -2.309   3.491  -3.243  1.00  0.00     0.338 C 
ATOM     38  O   UNL     1      -2.203   3.905  -4.384  1.00  0.00    -0.246 OA
BRANCH  37  39
ATOM     39  C   UNL     1      -2.446   4.447  -2.110  1.00  0.00     0.060 A 
ATOM     40  C   UNL     1      -3.586   5.250  -2.071  1.00  0.00     0.016 A 
ATOM     41  C   UNL     1      -1.359   4.797  -1.301  1.00  0.00     0.016 A 
ATOM     42  C   UNL     1      -3.611   6.428  -1.309  1.00  0.00     0.010 A 
ATOM     43  C   UNL     1      -1.404   5.952  -0.492  1.00  0.00     0.010 A 
ATOM     44  C   UNL     1      -2.524   6.797  -0.498  1.00  0.00    -0.014 A 
BRANCH  44  45
ATOM     45  C   UNL     1      -2.630   7.970   0.428  1.00  0.00     0.031 A 
ATOM     46  C   UNL     1      -1.728   9.180   0.337  1.00  0.00     0.074 A 
ATOM     47  C   UNL     1      -3.551   7.920   1.413  1.00  0.00     0.049 A 
ATOM     48  N   UNL     1      -1.647  10.209   1.147  1.00  0.00    -0.248 NA
ATOM     49  C   UNL     1      -0.805   9.253  -0.805  1.00  0.00     0.031 C 
ATOM     50  C   UNL     1      -4.478   6.808   1.633  1.00  0.00     0.029 A 
ATOM     51  N   UNL     1      -3.848   8.802   2.425  1.00  0.00    -0.354 N 
ATOM     52  C   UNL     1      -0.635  11.026   0.649  1.00  0.00     0.074 A 
ATOM     53  C   UNL     1      -0.147  10.382  -0.555  1.00  0.00     0.031 C 
ATOM     54  C   UNL     1      -5.238   7.070   2.703  1.00  0.00     0.029 A 
ATOM     55  C   UNL     1      -4.805   8.330   3.296  1.00  0.00     0.049 A 
ATOM     56  H   UNL     1      -3.420   9.683   2.518  1.00  0.00     0.167 HD
ATOM     57  C   UNL     1      -0.160  12.198   1.145  1.00  0.00     0.034 A 
ATOM     58  C   UNL     1      -5.258   8.814   4.468  1.00  0.00     0.034 A 
ATOM     59  C   UNL     1      -0.673  12.862   2.320  1.00  0.00     0.049 A 
ATOM     60  C   UNL     1      -4.717  10.111   4.991  1.00  0.00     0.074 A 
ATOM     61  C   UNL     1      -0.283  14.079   2.859  1.00  0.00     0.029 A 
ATOM     62  N   UNL     1      -1.676  12.373   3.140  1.00  0.00    -0.354 N 
ATOM     63  N   UNL     1      -3.823  10.903   4.453  1.00  0.00    -0.248 NA
ATOM     64  C   UNL     1      -5.258  10.590   6.271  1.00  0.00     0.031 C 
ATOM     65  C   UNL     1      -1.038  14.315   4.014  1.00  0.00     0.029 A 
ATOM     66  C   UNL     1      -1.911  13.254   4.186  1.00  0.00     0.049 A 
ATOM     67  H   UNL     1      -2.154  11.523   3.002  1.00  0.00     0.167 HD
ATOM     68  C   UNL     1      -3.702  11.981   5.321  1.00  0.00     0.074 A 
ATOM     69  C   UNL     1      -4.639  11.755   6.403  1.00  0.00     0.031 C 
ATOM     70  C   UNL     1      -2.872  13.048   5.238  1.00  0.00     0.034 A 
BRANCH  57  71
ATOM     71  C   UNL     1       0.973  12.883   0.415  1.00  0.00     0.023 A 
ATOM     72  C   UNL     1       0.705  13.615  -0.758  1.00  0.00     0.012 A 
ATOM     73  C   UNL     1       2.274  12.908   0.960  1.00  0.00     0.148 A 
ATOM     74  C   UNL     1       1.715  14.346  -1.386  1.00  0.00     0.002 A 
ATOM     75  C   UNL     1       3.268  13.665   0.347  1.00  0.00     0.091 A 
ATOM     76  F   UNL     1       2.515  12.197   2.072  1.00  0.00    -0.205 F 
ATOM     77  C   UNL     1       2.992  14.379  -0.830  1.00  0.00     0.022 A 
BRANCH  75  78
ATOM     78  S   UNL     1       4.923  13.830   1.032  1.00  0.00     0.127 S 
ATOM     79  O   UNL     1       5.704  12.993   0.123  1.00  0.00    -0.237 OA
ATOM     80  O   UNL     1       5.172  15.266   0.903  1.00  0.00    -0.237 OA
ATOM     81  O   UNL     1       4.835  13.353   2.405  1.00  0.00    -0.744 OA
ENDBRANCH  75  78
ENDBRANCH  57  71
BRANCH  58  82
ATOM     82  C   UNL     1      -6.293   8.047   5.217  1.00  0.00     0.023 A 
ATOM     83  C   UNL     1      -7.606   8.544   5.300  1.00  0.00     0.012 A 
ATOM     84  C   UNL     1      -5.998   6.785   5.770  1.00  0.00     0.148 A 
ATOM     85  C   UNL     1      -8.606   7.799   5.927  1.00  0.00     0.002 A 
ATOM     86  C   UNL     1      -7.013   6.020   6.330  1.00  0.00     0.091 A 
ATOM     87  F   UNL     1      -4.734   6.340   5.707  1.00  0.00    -0.205 F 
ATOM     88  C   UNL     1      -8.315   6.531   6.423  1.00  0.00     0.022 A 
BRANCH  86  89
ATOM     89  S   UNL     1      -6.738   4.313   6.820  1.00  0.00     0.127 S 
ATOM     90  O   UNL     1      -6.545   4.441   8.261  1.00  0.00    -0.237 OA
ATOM     91  O   UNL     1      -7.990   3.669   6.420  1.00  0.00    -0.237 OA
ATOM     92  O   UNL     1      -5.578   3.880   6.051  1.00  0.00    -0.744 OA
ENDBRANCH  86  89
ENDBRANCH  58  82
BRANCH  70  93
ATOM     93  C   UNL     1      -2.944  14.066   6.345  1.00  0.00     0.023 A 
ATOM     94  C   UNL     1      -2.383  13.765   7.602  1.00  0.00     0.012 A 
ATOM     95  C   UNL     1      -3.526  15.331   6.132  1.00  0.00     0.148 A 
ATOM     96  C   UNL     1      -2.426  14.695   8.639  1.00  0.00     0.002 A 
ATOM     97  C   UNL     1      -3.530  16.268   7.160  1.00  0.00     0.091 A 
ATOM     98  F   UNL     1      -4.078  15.589   4.938  1.00  0.00    -0.205 F 
ATOM     99  C   UNL     1      -2.990  15.949   8.416  1.00  0.00     0.022 A 
BRANCH  97 100
ATOM    100  S   UNL     1      -4.167  17.933   6.933  1.00  0.00     0.127 S 
ATOM    101  O   UNL     1      -5.466  17.849   7.596  1.00  0.00    -0.237 OA
ATOM    102  O   UNL     1      -3.175  18.748   7.636  1.00  0.00    -0.237 OA
ATOM    103  O   UNL     1      -4.208  18.148   5.492  1.00  0.00    -0.744 OA
ENDBRANCH  97 100
ENDBRANCH  70  93
ENDBRANCH  44  45
ENDBRANCH  37  39
ENDBRANCH  36  37
ENDBRANCH  35  36
ENDBRANCH  34  35
ENDBRANCH  33  34
ENDBRANCH  32  33
ENDBRANCH  31  32
ENDBRANCH   1  31
TORSDOF 26
