REMARK SMILES C[C@H]1[C@@H](C(=O)OCCOCCOCCOC(=O)c2ccc(-c3c4nc(c(-c5cccc(S(=O)(=O)[O-])c5F)c5ccc([nH]5)c(-c5cccc(S(=O)(=O)[O-])c5F)c5nc(c(-c6cccc(S(=O)(=O)[O-])c6F)c6ccc3[nH]6)C=C5)C=C4)cc2)CCN1C(=O)c1cncc(O)c1
REMARK SMILES IDX 10 1 9 2 8 3 7 4 6 5 4 6 5 7 3 8 1 9 2 10 83 11 81 12 82 13
REMARK SMILES IDX 84 14 85 15 86 16 87 17 92 18 88 19 90 20 89 21 91 22 11 24
REMARK SMILES IDX 12 25 13 26 14 27 15 28 16 29 17 30 18 31 19 32 80 33 20 34
REMARK SMILES IDX 79 35 21 36 22 37 23 38 73 39 24 40 78 41 72 42 74 43 25 44
REMARK SMILES IDX 77 45 71 46 70 47 26 49 58 50 38 51 57 52 39 53 42 54 56 55
REMARK SMILES IDX 75 56 40 57 41 58 55 60 76 61 43 62 27 63 28 64 36 65 29 66
REMARK SMILES IDX 31 67 37 68 30 69 32 70 33 71 34 72 35 73 59 74 60 75 68 76
REMARK SMILES IDX 61 77 63 78 69 79 62 80 64 81 65 82 66 83 67 84 44 85 45 86
REMARK SMILES IDX 53 87 46 88 48 89 54 90 47 91 49 92 50 93 51 94 52 95
REMARK H PARENT 91 23 74 48 42 59
REMARK Flexibility Score: inf
ROOT
ATOM      1  C   UNL     1      -0.411   1.596  -3.344  1.00  0.00     0.188 C 
ENDROOT
BRANCH   1   2
ATOM      2  O   UNL     1       0.370   2.470  -4.136  1.00  0.00    -0.376 OA
BRANCH   2   3
ATOM      3  C   UNL     1       1.670   2.824  -3.696  1.00  0.00     0.202 C 
BRANCH   3   4
ATOM      4  C   UNL     1       1.878   3.255  -2.241  1.00  0.00     0.261 C 
BRANCH   4   5
ATOM      5  O   UNL     1       1.522   2.232  -1.288  1.00  0.00    -0.463 OA
BRANCH   5   6
ATOM      6  C   UNL     1       0.781   2.621  -0.225  1.00  0.00     0.311 C 
ATOM      7  O   UNL     1       0.410   3.775  -0.037  1.00  0.00    -0.252 OA
BRANCH   6   8
ATOM      8  C   UNL     1       0.359   1.505   0.723  1.00  0.00     0.123 C 
ATOM      9  C   UNL     1       2.460   0.047   0.136  1.00  0.00     0.032 C 
ATOM     10  C   UNL     1       1.168   0.210   0.932  1.00  0.00     0.096 C 
ATOM     11  N   UNL     1       0.207  -0.897   0.758  1.00  0.00    -0.335 N 
ATOM     12  C   UNL     1      -1.096   1.078   0.487  1.00  0.00     0.039 C 
ATOM     13  C   UNL     1      -1.109  -0.434   0.386  1.00  0.00     0.121 C 
BRANCH  11  14
ATOM     14  C   UNL     1       0.388  -2.266   0.922  1.00  0.00     0.255 C 
ATOM     15  O   UNL     1      -0.447  -3.104   0.594  1.00  0.00    -0.269 OA
BRANCH  14  16
ATOM     16  C   UNL     1       1.622  -2.749   1.550  1.00  0.00     0.062 A 
ATOM     17  C   UNL     1       2.411  -3.684   0.895  1.00  0.00     0.125 A 
ATOM     18  C   UNL     1       2.018  -2.282   2.803  1.00  0.00     0.063 A 
ATOM     19  N   UNL     1       3.603  -4.115   1.378  1.00  0.00    -0.260 NA
ATOM     20  C   UNL     1       3.241  -2.693   3.304  1.00  0.00     0.134 A 
ATOM     21  C   UNL     1       3.996  -3.595   2.567  1.00  0.00     0.157 A 
BRANCH  20  22
ATOM     22  O   UNL     1       3.722  -2.213   4.483  1.00  0.00    -0.506 OA
ATOM     23  H   UNL     1       4.553  -2.505   4.804  1.00  0.00     0.293 HD
ENDBRANCH  20  22
ENDBRANCH  14  16
ENDBRANCH  11  14
ENDBRANCH   6   8
ENDBRANCH   5   6
ENDBRANCH   4   5
ENDBRANCH   3   4
ENDBRANCH   2   3
ENDBRANCH   1   2
BRANCH   1  24
ATOM     24  C   UNL     1       0.170   0.235  -2.916  1.00  0.00     0.188 C 
BRANCH  24  25
ATOM     25  O   UNL     1       1.372  -0.270  -3.457  1.00  0.00    -0.376 OA
BRANCH  25  26
ATOM     26  C   UNL     1       1.498  -0.440  -4.856  1.00  0.00     0.202 C 
BRANCH  26  27
ATOM     27  C   UNL     1       0.381  -1.068  -5.698  1.00  0.00     0.261 C 
BRANCH  27  28
ATOM     28  O   UNL     1      -0.945  -0.605  -5.421  1.00  0.00    -0.460 OA
BRANCH  28  29
ATOM     29  C   UNL     1      -1.757  -1.503  -4.812  1.00  0.00     0.338 C 
ATOM     30  O   UNL     1      -1.468  -2.635  -4.446  1.00  0.00    -0.246 OA
BRANCH  29  31
ATOM     31  C   UNL     1      -3.029  -0.843  -4.479  1.00  0.00     0.060 A 
ATOM     32  C   UNL     1      -3.387  -0.680  -3.133  1.00  0.00     0.016 A 
ATOM     33  C   UNL     1      -3.876  -0.417  -5.499  1.00  0.00     0.016 A 
ATOM     34  C   UNL     1      -4.602  -0.083  -2.797  1.00  0.00     0.010 A 
ATOM     35  C   UNL     1      -5.105   0.148  -5.163  1.00  0.00     0.010 A 
ATOM     36  C   UNL     1      -5.481   0.299  -3.814  1.00  0.00    -0.014 A 
BRANCH  36  37
ATOM     37  C   UNL     1      -6.878   0.682  -3.512  1.00  0.00     0.031 A 
ATOM     38  C   UNL     1      -7.948  -0.351  -3.718  1.00  0.00     0.074 A 
ATOM     39  C   UNL     1      -7.196   1.937  -3.151  1.00  0.00     0.049 A 
ATOM     40  N   UNL     1      -9.244  -0.205  -3.760  1.00  0.00    -0.248 NA
ATOM     41  C   UNL     1      -7.487  -1.736  -3.919  1.00  0.00     0.031 C 
ATOM     42  C   UNL     1      -6.240   3.007  -2.878  1.00  0.00     0.029 A 
ATOM     43  N   UNL     1      -8.425   2.533  -3.007  1.00  0.00    -0.354 N 
ATOM     44  C   UNL     1      -9.752  -1.464  -4.052  1.00  0.00     0.074 A 
ATOM     45  C   UNL     1      -8.627  -2.365  -4.161  1.00  0.00     0.031 C 
ATOM     46  C   UNL     1      -6.918   4.146  -2.650  1.00  0.00     0.029 A 
ATOM     47  C   UNL     1      -8.348   3.893  -2.816  1.00  0.00     0.049 A 
ATOM     48  H   UNL     1      -9.275   2.037  -3.036  1.00  0.00     0.167 HD
ATOM     49  C   UNL     1     -11.043  -1.832  -4.221  1.00  0.00     0.034 A 
ATOM     50  C   UNL     1      -9.318   4.830  -2.834  1.00  0.00     0.034 A 
ATOM     51  C   UNL     1     -12.152  -0.927  -4.101  1.00  0.00     0.049 A 
ATOM     52  C   UNL     1     -10.745   4.406  -3.075  1.00  0.00     0.074 A 
ATOM     53  C   UNL     1     -13.502  -1.202  -4.218  1.00  0.00     0.029 A 
ATOM     54  N   UNL     1     -12.038   0.432  -3.853  1.00  0.00    -0.354 N 
ATOM     55  N   UNL     1     -11.226   3.203  -3.281  1.00  0.00    -0.248 NA
ATOM     56  C   UNL     1     -11.769   5.463  -3.066  1.00  0.00     0.031 C 
ATOM     57  C   UNL     1     -14.202  -0.001  -4.083  1.00  0.00     0.029 A 
ATOM     58  C   UNL     1     -13.292   1.012  -3.826  1.00  0.00     0.049 A 
ATOM     59  H   UNL     1     -11.190   0.913  -3.716  1.00  0.00     0.167 HD
ATOM     60  C   UNL     1     -12.606   3.352  -3.374  1.00  0.00     0.074 A 
ATOM     61  C   UNL     1     -12.887   4.762  -3.203  1.00  0.00     0.031 C 
ATOM     62  C   UNL     1     -13.556   2.408  -3.584  1.00  0.00     0.034 A 
BRANCH  49  63
ATOM     63  C   UNL     1     -11.324  -3.268  -4.567  1.00  0.00     0.023 A 
ATOM     64  C   UNL     1     -11.144  -4.277  -3.600  1.00  0.00     0.012 A 
ATOM     65  C   UNL     1     -11.816  -3.611  -5.842  1.00  0.00     0.148 A 
ATOM     66  C   UNL     1     -11.414  -5.610  -3.909  1.00  0.00     0.002 A 
ATOM     67  C   UNL     1     -12.131  -4.934  -6.126  1.00  0.00     0.091 A 
ATOM     68  F   UNL     1     -11.959  -2.639  -6.755  1.00  0.00    -0.205 F 
ATOM     69  C   UNL     1     -11.918  -5.936  -5.166  1.00  0.00     0.022 A 
BRANCH  67  70
ATOM     70  S   UNL     1     -12.863  -5.441  -7.685  1.00  0.00     0.127 S 
ATOM     71  O   UNL     1     -11.777  -6.218  -8.282  1.00  0.00    -0.237 OA
ATOM     72  O   UNL     1     -14.008  -6.236  -7.241  1.00  0.00    -0.237 OA
ATOM     73  O   UNL     1     -13.209  -4.214  -8.388  1.00  0.00    -0.744 OA
ENDBRANCH  67  70
ENDBRANCH  49  63
BRANCH  50  74
ATOM     74  C   UNL     1      -8.977   6.266  -2.622  1.00  0.00     0.023 A 
ATOM     75  C   UNL     1      -9.414   6.916  -1.451  1.00  0.00     0.012 A 
ATOM     76  C   UNL     1      -8.223   6.989  -3.567  1.00  0.00     0.148 A 
ATOM     77  C   UNL     1      -9.135   8.267  -1.241  1.00  0.00     0.002 A 
ATOM     78  C   UNL     1      -7.901   8.320  -3.325  1.00  0.00     0.091 A 
ATOM     79  F   UNL     1      -7.829   6.357  -4.681  1.00  0.00    -0.205 F 
ATOM     80  C   UNL     1      -8.372   8.966  -2.172  1.00  0.00     0.022 A 
BRANCH  78  81
ATOM     81  S   UNL     1      -6.826   9.268  -4.408  1.00  0.00     0.127 S 
ATOM     82  O   UNL     1      -7.747  10.267  -4.944  1.00  0.00    -0.237 OA
ATOM     83  O   UNL     1      -5.835   9.786  -3.464  1.00  0.00    -0.237 OA
ATOM     84  O   UNL     1      -6.298   8.315  -5.375  1.00  0.00    -0.744 OA
ENDBRANCH  78  81
ENDBRANCH  50  74
BRANCH  62  85
ATOM     85  C   UNL     1     -15.002   2.828  -3.557  1.00  0.00     0.023 A 
ATOM     86  C   UNL     1     -15.561   3.531  -4.640  1.00  0.00     0.012 A 
ATOM     87  C   UNL     1     -15.835   2.395  -2.504  1.00  0.00     0.148 A 
ATOM     88  C   UNL     1     -16.928   3.811  -4.668  1.00  0.00     0.002 A 
ATOM     89  C   UNL     1     -17.202   2.630  -2.566  1.00  0.00     0.091 A 
ATOM     90  F   UNL     1     -15.276   1.739  -1.477  1.00  0.00    -0.205 F 
ATOM     91  C   UNL     1     -17.749   3.346  -3.642  1.00  0.00     0.022 A 
BRANCH  89  92
ATOM     92  S   UNL     1     -18.350   1.977  -1.348  1.00  0.00     0.127 S 
ATOM     93  O   UNL     1     -18.845   3.201  -0.720  1.00  0.00    -0.237 OA
ATOM     94  O   UNL     1     -19.326   1.283  -2.187  1.00  0.00    -0.237 OA
ATOM     95  O   UNL     1     -17.568   1.108  -0.478  1.00  0.00    -0.744 OA
ENDBRANCH  89  92
ENDBRANCH  62  85
ENDBRANCH  36  37
ENDBRANCH  29  31
ENDBRANCH  28  29
ENDBRANCH  27  28
ENDBRANCH  26  27
ENDBRANCH  25  26
ENDBRANCH  24  25
ENDBRANCH   1  24
TORSDOF 23
