REMARK SMILES CC1(C)[C@@H](C(=O)NCCc2ccc(S(N)(=O)=O)cc2)[C@@H]1C(=O)OCCOCCOCCOC(=O)c1ccc(-c2c3nc(c(-c4cccc(S(=O)(=O)[O-])c4F)c4ccc([nH]4)c(-c4cccc(S(=O)(=O)[O-])c4F)c4nc(c(-c5cccc(S(=O)(=O)[O-])c5F)c5ccc2[nH]5)C=C4)C=C3)cc1
REMARK SMILES IDX 26 1 25 2 24 3 23 4 21 5 22 6 20 7 1 8 2 9 3 10 4 11 5 12
REMARK SMILES IDX 6 13 7 14 8 16 9 17 10 18 11 19 19 20 12 21 18 22 13 23
REMARK SMILES IDX 14 24 16 25 17 26 15 27 27 30 28 31 29 32 30 33 31 34 32 35
REMARK SMILES IDX 33 36 34 37 35 38 36 39 97 40 37 41 96 42 38 43 39 44 40 45
REMARK SMILES IDX 90 46 41 47 95 48 89 49 91 50 42 51 94 52 88 53 87 54 43 56
REMARK SMILES IDX 75 57 55 58 74 59 56 60 59 61 73 62 92 63 57 64 58 65 72 67
REMARK SMILES IDX 93 68 60 69 44 70 45 71 53 72 46 73 48 74 54 75 47 76 49 77
REMARK SMILES IDX 50 78 51 79 52 80 76 81 77 82 85 83 78 84 80 85 86 86 79 87
REMARK SMILES IDX 81 88 82 89 83 90 84 91 61 92 62 93 70 94 63 95 65 96 71 97
REMARK SMILES IDX 64 98 66 99 67 100 68 101 69 102
REMARK H PARENT 7 15 15 28 15 29 91 55 59 66
REMARK Flexibility Score: inf
ROOT
ATOM      1  O   UNL     1      -2.465   2.093   4.303  1.00  0.00    -0.376 OA
ENDROOT
BRANCH   1   2
ATOM      2  C   UNL     1      -3.026   3.057   3.425  1.00  0.00     0.202 C 
BRANCH   2   3
ATOM      3  C   UNL     1      -2.567   3.252   1.967  1.00  0.00     0.261 C 
BRANCH   3   4
ATOM      4  O   UNL     1      -2.269   2.064   1.220  1.00  0.00    -0.463 OA
BRANCH   4   5
ATOM      5  C   UNL     1      -0.951   1.868   0.947  1.00  0.00     0.310 C 
ATOM      6  O   UNL     1      -0.047   2.635   1.235  1.00  0.00    -0.252 OA
BRANCH   5   7
ATOM      7  C   UNL     1      -0.701   0.519   0.369  1.00  0.00     0.118 C 
ATOM      8  C   UNL     1       1.212  -1.063  -0.241  1.00  0.00     0.013 C 
ATOM      9  C   UNL     1       0.496   0.244  -0.511  1.00  0.00    -0.009 C 
ATOM     10  C   UNL     1       1.431   1.362  -0.892  1.00  0.00     0.013 C 
ATOM     11  C   UNL     1      -0.929   0.240  -1.099  1.00  0.00     0.100 C 
BRANCH  11  12
ATOM     12  C   UNL     1      -1.390  -1.046  -1.688  1.00  0.00     0.224 C 
ATOM     13  O   UNL     1      -0.793  -1.505  -2.657  1.00  0.00    -0.275 OA
ATOM     14  N   UNL     1      -2.450  -1.742  -1.181  1.00  0.00    -0.355 N 
ATOM     15  H   UNL     1      -2.548  -2.651  -1.544  1.00  0.00     0.163 HD
BRANCH  14  16
ATOM     16  C   UNL     1      -3.455  -1.378  -0.203  1.00  0.00     0.120 C 
BRANCH  16  17
ATOM     17  C   UNL     1      -4.887  -1.247  -0.748  1.00  0.00     0.056 C 
BRANCH  17  18
ATOM     18  C   UNL     1      -5.597  -2.500  -1.225  1.00  0.00    -0.046 A 
ATOM     19  C   UNL     1      -6.876  -2.815  -0.727  1.00  0.00     0.005 A 
ATOM     20  C   UNL     1      -5.070  -3.298  -2.250  1.00  0.00     0.005 A 
ATOM     21  C   UNL     1      -7.601  -3.900  -1.235  1.00  0.00     0.022 A 
ATOM     22  C   UNL     1      -5.773  -4.401  -2.740  1.00  0.00     0.022 A 
ATOM     23  C   UNL     1      -7.040  -4.692  -2.238  1.00  0.00     0.082 A 
BRANCH  23  24
ATOM     24  S   UNL     1      -7.957  -6.038  -2.923  1.00  0.00     0.238 S 
ATOM     25  O   UNL     1      -9.254  -5.548  -3.342  1.00  0.00    -0.207 OA
ATOM     26  O   UNL     1      -7.107  -6.809  -3.794  1.00  0.00    -0.207 OA
BRANCH  24  27
ATOM     27  N   UNL     1      -8.234  -7.019  -1.591  1.00  0.00    -0.225 NA
ATOM     28  H   UNL     1      -8.835  -6.529  -0.927  1.00  0.00     0.137 HD
ATOM     29  H   UNL     1      -7.346  -7.244  -1.143  1.00  0.00     0.137 HD
ENDBRANCH  24  27
ENDBRANCH  23  24
ENDBRANCH  17  18
ENDBRANCH  16  17
ENDBRANCH  14  16
ENDBRANCH  11  12
ENDBRANCH   5   7
ENDBRANCH   4   5
ENDBRANCH   3   4
ENDBRANCH   2   3
ENDBRANCH   1   2
BRANCH   1  30
ATOM     30  C   UNL     1      -2.065   0.824   3.825  1.00  0.00     0.188 C 
BRANCH  30  31
ATOM     31  C   UNL     1      -3.076  -0.036   3.052  1.00  0.00     0.188 C 
BRANCH  31  32
ATOM     32  O   UNL     1      -4.269   0.599   2.665  1.00  0.00    -0.376 OA
BRANCH  32  33
ATOM     33  C   UNL     1      -5.397   0.517   3.520  1.00  0.00     0.202 C 
BRANCH  33  34
ATOM     34  C   UNL     1      -5.370   0.102   5.011  1.00  0.00     0.261 C 
BRANCH  34  35
ATOM     35  O   UNL     1      -4.172  -0.458   5.560  1.00  0.00    -0.460 OA
BRANCH  35  36
ATOM     36  C   UNL     1      -4.059  -1.809   5.521  1.00  0.00     0.338 C 
ATOM     37  O   UNL     1      -4.857  -2.590   5.034  1.00  0.00    -0.246 OA
BRANCH  36  38
ATOM     38  C   UNL     1      -2.688  -2.179   5.941  1.00  0.00     0.060 A 
ATOM     39  C   UNL     1      -1.834  -2.780   5.003  1.00  0.00     0.016 A 
ATOM     40  C   UNL     1      -2.251  -1.956   7.247  1.00  0.00     0.016 A 
ATOM     41  C   UNL     1      -0.556  -3.194   5.379  1.00  0.00     0.010 A 
ATOM     42  C   UNL     1      -0.978  -2.394   7.629  1.00  0.00     0.010 A 
ATOM     43  C   UNL     1      -0.139  -3.049   6.707  1.00  0.00    -0.014 A 
BRANCH  43  44
ATOM     44  C   UNL     1       1.087  -3.748   7.171  1.00  0.00     0.031 A 
ATOM     45  C   UNL     1       0.936  -5.046   7.921  1.00  0.00     0.074 A 
ATOM     46  C   UNL     1       2.314  -3.255   6.923  1.00  0.00     0.049 A 
ATOM     47  N   UNL     1       1.855  -5.817   8.440  1.00  0.00    -0.248 NA
ATOM     48  C   UNL     1      -0.440  -5.537   8.113  1.00  0.00     0.031 C 
ATOM     49  C   UNL     1       2.599  -2.018   6.198  1.00  0.00     0.029 A 
ATOM     50  N   UNL     1       3.553  -3.731   7.279  1.00  0.00    -0.354 N 
ATOM     51  C   UNL     1       1.172  -6.863   9.049  1.00  0.00     0.074 A 
ATOM     52  C   UNL     1      -0.240  -6.623   8.845  1.00  0.00     0.031 C 
ATOM     53  C   UNL     1       3.928  -1.816   6.188  1.00  0.00     0.029 A 
ATOM     54  C   UNL     1       4.585  -2.893   6.928  1.00  0.00     0.049 A 
ATOM     55  H   UNL     1       3.688  -4.589   7.742  1.00  0.00     0.167 HD
ATOM     56  C   UNL     1       1.671  -7.935   9.709  1.00  0.00     0.034 A 
ATOM     57  C   UNL     1       5.905  -2.974   7.194  1.00  0.00     0.034 A 
ATOM     58  C   UNL     1       3.075  -8.180   9.904  1.00  0.00     0.049 A 
ATOM     59  C   UNL     1       6.435  -4.161   7.958  1.00  0.00     0.074 A 
ATOM     60  C   UNL     1       3.681  -9.261  10.520  1.00  0.00     0.029 A 
ATOM     61  N   UNL     1       4.091  -7.327   9.504  1.00  0.00    -0.354 N 
ATOM     62  N   UNL     1       5.785  -5.196   8.434  1.00  0.00    -0.248 NA
ATOM     63  C   UNL     1       7.887  -4.209   8.190  1.00  0.00     0.031 C 
ATOM     64  C   UNL     1       5.061  -9.040  10.532  1.00  0.00     0.029 A 
ATOM     65  C   UNL     1       5.319  -7.848   9.873  1.00  0.00     0.049 A 
ATOM     66  H   UNL     1       3.959  -6.476   9.028  1.00  0.00     0.167 HD
ATOM     67  C   UNL     1       6.752  -6.037   8.979  1.00  0.00     0.074 A 
ATOM     68  C   UNL     1       8.032  -5.397   8.761  1.00  0.00     0.031 C 
ATOM     69  C   UNL     1       6.593  -7.229   9.607  1.00  0.00     0.034 A 
BRANCH  56  70
ATOM     70  C   UNL     1       0.690  -8.933  10.268  1.00  0.00     0.023 A 
ATOM     71  C   UNL     1      -0.037  -9.770   9.398  1.00  0.00     0.012 A 
ATOM     72  C   UNL     1       0.528  -9.077  11.660  1.00  0.00     0.148 A 
ATOM     73  C   UNL     1      -0.936 -10.710   9.902  1.00  0.00     0.002 A 
ATOM     74  C   UNL     1      -0.331 -10.050  12.156  1.00  0.00     0.091 A 
ATOM     75  F   UNL     1       1.212  -8.258  12.472  1.00  0.00    -0.205 F 
ATOM     76  C   UNL     1      -1.074 -10.857  11.279  1.00  0.00     0.022 A 
BRANCH  74  77
ATOM     77  S   UNL     1      -0.518 -10.374  13.913  1.00  0.00     0.127 S 
ATOM     78  O   UNL     1      -1.885  -9.916  14.153  1.00  0.00    -0.237 OA
ATOM     79  O   UNL     1      -0.341 -11.825  13.976  1.00  0.00    -0.237 OA
ATOM     80  O   UNL     1       0.523  -9.604  14.578  1.00  0.00    -0.744 OA
ENDBRANCH  74  77
ENDBRANCH  56  70
BRANCH  57  81
ATOM     81  C   UNL     1       6.831  -1.907   6.717  1.00  0.00     0.023 A 
ATOM     82  C   UNL     1       7.780  -2.200   5.718  1.00  0.00     0.012 A 
ATOM     83  C   UNL     1       6.776  -0.605   7.251  1.00  0.00     0.148 A 
ATOM     84  C   UNL     1       8.681  -1.226   5.285  1.00  0.00     0.002 A 
ATOM     85  C   UNL     1       7.638   0.376   6.775  1.00  0.00     0.091 A 
ATOM     86  F   UNL     1       5.877  -0.351   8.212  1.00  0.00    -0.205 F 
ATOM     87  C   UNL     1       8.604   0.063   5.806  1.00  0.00     0.022 A 
BRANCH  85  88
ATOM     88  S   UNL     1       7.532   2.090   7.299  1.00  0.00     0.127 S 
ATOM     89  O   UNL     1       8.785   2.256   8.032  1.00  0.00    -0.237 OA
ATOM     90  O   UNL     1       7.471   2.791   6.016  1.00  0.00    -0.237 OA
ATOM     91  O   UNL     1       6.318   2.185   8.097  1.00  0.00    -0.744 OA
ENDBRANCH  85  88
ENDBRANCH  57  81
BRANCH  69  92
ATOM     92  C   UNL     1       7.833  -7.963  10.053  1.00  0.00     0.023 A 
ATOM     93  C   UNL     1       8.601  -7.478  11.129  1.00  0.00     0.012 A 
ATOM     94  C   UNL     1       8.197  -9.179   9.439  1.00  0.00     0.148 A 
ATOM     95  C   UNL     1       9.734  -8.169  11.560  1.00  0.00     0.002 A 
ATOM     96  C   UNL     1       9.294  -9.891   9.910  1.00  0.00     0.091 A 
ATOM     97  F   UNL     1       7.463  -9.619   8.406  1.00  0.00    -0.205 F 
ATOM     98  C   UNL     1      10.073  -9.379  10.959  1.00  0.00     0.022 A 
BRANCH  96  99
ATOM     99  S   UNL     1       9.744 -11.506   9.265  1.00  0.00     0.127 S 
ATOM    100  O   UNL     1      10.975 -11.204   8.538  1.00  0.00    -0.237 OA
ATOM    101  O   UNL     1       9.934 -12.285  10.489  1.00  0.00    -0.237 OA
ATOM    102  O   UNL     1       8.623 -11.938   8.442  1.00  0.00    -0.744 OA
ENDBRANCH  96  99
ENDBRANCH  69  92
ENDBRANCH  43  44
ENDBRANCH  36  38
ENDBRANCH  35  36
ENDBRANCH  34  35
ENDBRANCH  33  34
ENDBRANCH  32  33
ENDBRANCH  31  32
ENDBRANCH  30  31
ENDBRANCH   1  30
TORSDOF 26
