REMARK SMILES Cc1c(CC(=O)N[C@@H](CCO)C(=O)OCCOCCOCCOC(=O)c2ccc(-c3c4nc(c(-c5cccc(S(=O)(=O)[O-])c5F)c5ccc([nH]5)c(-c5cccc(S(=O)(=O)[O-])c5F)c5nc(c(-c6cccc(S(=O)(=O)[O-])c6F)c6ccc3[nH]6)C=C5)C=C4)cc2)cc(-c2ccc(S(C)(=O)=O)cc2)n1-c1ccc(F)cc1
REMARK SMILES IDX 18 1 17 2 16 3 15 4 14 5 12 6 13 7 8 8 7 9 5 10 6 11 4 13
REMARK SMILES IDX 3 14 1 15 2 16 101 17 89 18 90 19 102 20 103 21 108 22
REMARK SMILES IDX 104 23 107 24 105 25 106 26 91 27 92 28 100 29 93 30 99 31
REMARK SMILES IDX 94 32 95 33 96 34 97 35 98 36 9 37 10 38 11 39 19 41 20 42
REMARK SMILES IDX 21 43 22 44 23 45 24 46 25 47 26 48 27 49 88 50 28 51 87 52
REMARK SMILES IDX 29 53 30 54 31 55 81 56 32 57 86 58 80 59 82 60 33 61 85 62
REMARK SMILES IDX 79 63 78 64 34 66 66 67 46 68 65 69 47 70 50 71 64 72 83 73
REMARK SMILES IDX 48 74 49 75 63 77 84 78 51 79 35 80 36 81 44 82 37 83 39 84
REMARK SMILES IDX 45 85 38 86 40 87 41 88 42 89 43 90 67 91 68 92 76 93 69 94
REMARK SMILES IDX 71 95 77 96 70 97 72 98 73 99 74 100 75 101 52 102 53 103
REMARK SMILES IDX 61 104 54 105 56 106 62 107 55 108 57 109 58 110 59 111
REMARK SMILES IDX 60 112
REMARK H PARENT 7 12 11 40 82 65 50 76
REMARK Flexibility Score: inf
ROOT
ATOM      1  C   UNL     1       2.526  -5.877  -3.874  1.00  0.00     0.188 C 
ENDROOT
BRANCH   1   2
ATOM      2  O   UNL     1       3.334  -6.488  -4.864  1.00  0.00    -0.376 OA
BRANCH   2   3
ATOM      3  C   UNL     1       4.686  -6.098  -5.064  1.00  0.00     0.202 C 
BRANCH   3   4
ATOM      4  C   UNL     1       5.098  -4.630  -5.204  1.00  0.00     0.261 C 
BRANCH   4   5
ATOM      5  O   UNL     1       4.570  -3.769  -4.191  1.00  0.00    -0.462 OA
BRANCH   5   6
ATOM      6  C   UNL     1       3.707  -2.826  -4.662  1.00  0.00     0.328 C 
ATOM      7  O   UNL     1       3.416  -2.656  -5.841  1.00  0.00    -0.250 OA
BRANCH   6   8
ATOM      8  C   UNL     1       3.128  -1.958  -3.544  1.00  0.00     0.194 C 
BRANCH   8   9
ATOM      9  N   UNL     1       3.371  -2.373  -2.158  1.00  0.00    -0.342 N 
ATOM     10  C   UNL     1       2.476  -2.499  -1.129  1.00  0.00     0.225 C 
ATOM     11  O   UNL     1       2.927  -2.581   0.015  1.00  0.00    -0.275 OA
ATOM     12  H   UNL     1       4.306  -2.590  -1.937  1.00  0.00     0.164 HD
BRANCH  10  13
ATOM     13  C   UNL     1       0.977  -2.600  -1.405  1.00  0.00     0.137 C 
BRANCH  13  14
ATOM     14  C   UNL     1       0.389  -1.329  -1.928  1.00  0.00    -0.017 A 
ATOM     15  C   UNL     1       0.890   0.255   0.048  1.00  0.00     0.065 C 
ATOM     16  C   UNL     1       0.427  -0.078  -1.334  1.00  0.00     0.024 A 
ATOM     17  N   UNL     1      -0.081   0.847  -2.238  1.00  0.00    -0.314 N 
ATOM     18  C   UNL     1      -0.309  -1.181  -3.154  1.00  0.00     0.033 A 
ATOM     19  C   UNL     1      -0.511   0.168  -3.379  1.00  0.00     0.053 A 
BRANCH  17  20
ATOM     20  C   UNL     1      -0.105   2.256  -2.062  1.00  0.00     0.046 A 
ATOM     21  C   UNL     1      -1.275   2.969  -2.351  1.00  0.00     0.029 A 
ATOM     22  C   UNL     1       1.054   2.922  -1.641  1.00  0.00     0.029 A 
ATOM     23  C   UNL     1      -1.285   4.356  -2.209  1.00  0.00     0.041 A 
ATOM     24  C   UNL     1       1.040   4.310  -1.521  1.00  0.00     0.041 A 
ATOM     25  C   UNL     1      -0.127   5.013  -1.803  1.00  0.00     0.123 A 
ATOM     26  F   UNL     1      -0.135   6.347  -1.687  1.00  0.00    -0.207 F 
ENDBRANCH  17  20
BRANCH  19  27
ATOM     27  C   UNL     1      -0.907   0.790  -4.649  1.00  0.00    -0.001 A 
ATOM     28  C   UNL     1      -0.026   1.656  -5.317  1.00  0.00     0.011 A 
ATOM     29  C   UNL     1      -2.134   0.473  -5.243  1.00  0.00     0.011 A 
ATOM     30  C   UNL     1      -0.378   2.224  -6.543  1.00  0.00     0.021 A 
ATOM     31  C   UNL     1      -2.495   1.040  -6.469  1.00  0.00     0.021 A 
ATOM     32  C   UNL     1      -1.619   1.921  -7.107  1.00  0.00     0.067 A 
BRANCH  32  33
ATOM     33  S   UNL     1      -2.040   2.634  -8.679  1.00  0.00     0.175 S 
ATOM     34  C   UNL     1      -2.165   4.371  -8.345  1.00  0.00     0.163 C 
ATOM     35  O   UNL     1      -0.931   2.420  -9.564  1.00  0.00    -0.224 OA
ATOM     36  O   UNL     1      -3.386   2.172  -9.027  1.00  0.00    -0.224 OA
ENDBRANCH  32  33
ENDBRANCH  19  27
ENDBRANCH  13  14
ENDBRANCH  10  13
ENDBRANCH   8   9
BRANCH   8  37
ATOM     37  C   UNL     1       3.575  -0.504  -3.754  1.00  0.00     0.065 C 
BRANCH  37  38
ATOM     38  C   UNL     1       5.057  -0.252  -3.479  1.00  0.00     0.159 C 
BRANCH  38  39
ATOM     39  O   UNL     1       5.893  -1.001  -4.346  1.00  0.00    -0.396 OA
ATOM     40  H   UNL     1       5.732  -1.948  -4.211  1.00  0.00     0.210 HD
ENDBRANCH  38  39
ENDBRANCH  37  38
ENDBRANCH   8  37
ENDBRANCH   6   8
ENDBRANCH   5   6
ENDBRANCH   4   5
ENDBRANCH   3   4
ENDBRANCH   2   3
ENDBRANCH   1   2
BRANCH   1  41
ATOM     41  C   UNL     1       2.852  -6.020  -2.381  1.00  0.00     0.188 C 
BRANCH  41  42
ATOM     42  O   UNL     1       4.183  -6.309  -2.027  1.00  0.00    -0.376 OA
BRANCH  42  43
ATOM     43  C   UNL     1       4.556  -7.689  -2.017  1.00  0.00     0.202 C 
BRANCH  43  44
ATOM     44  C   UNL     1       3.616  -8.808  -1.473  1.00  0.00     0.261 C 
BRANCH  44  45
ATOM     45  O   UNL     1       2.588  -9.426  -2.332  1.00  0.00    -0.460 OA
BRANCH  45  46
ATOM     46  C   UNL     1       1.329  -9.562  -1.771  1.00  0.00     0.338 C 
ATOM     47  O   UNL     1       0.913  -8.776  -0.928  1.00  0.00    -0.246 OA
BRANCH  46  48
ATOM     48  C   UNL     1       0.442 -10.712  -2.294  1.00  0.00     0.060 A 
ATOM     49  C   UNL     1      -0.675 -10.434  -3.077  1.00  0.00     0.016 A 
ATOM     50  C   UNL     1       0.472 -12.031  -1.788  1.00  0.00     0.016 A 
ATOM     51  C   UNL     1      -1.662 -11.449  -3.389  1.00  0.00     0.010 A 
ATOM     52  C   UNL     1      -0.570 -13.047  -2.063  1.00  0.00     0.010 A 
ATOM     53  C   UNL     1      -1.686 -12.808  -2.886  1.00  0.00    -0.014 A 
BRANCH  53  54
ATOM     54  C   UNL     1      -3.134 -13.604  -2.910  1.00  0.00     0.031 A 
ATOM     55  C   UNL     1      -4.078 -12.531  -2.471  1.00  0.00     0.074 A 
ATOM     56  C   UNL     1      -3.745 -14.868  -3.073  1.00  0.00     0.049 A 
ATOM     57  N   UNL     1      -3.836 -11.834  -1.392  1.00  0.00    -0.248 NA
ATOM     58  C   UNL     1      -5.083 -11.927  -3.350  1.00  0.00     0.031 C 
ATOM     59  C   UNL     1      -3.081 -16.173  -3.259  1.00  0.00     0.029 A 
ATOM     60  N   UNL     1      -5.127 -15.325  -3.113  1.00  0.00    -0.354 N 
ATOM     61  C   UNL     1      -4.920 -11.023  -1.232  1.00  0.00     0.074 A 
ATOM     62  C   UNL     1      -5.455 -10.897  -2.579  1.00  0.00     0.031 C 
ATOM     63  C   UNL     1      -3.966 -17.182  -3.528  1.00  0.00     0.029 A 
ATOM     64  C   UNL     1      -5.354 -16.714  -3.505  1.00  0.00     0.049 A 
ATOM     65  H   UNL     1      -5.874 -14.725  -2.886  1.00  0.00     0.167 HD
ATOM     66  C   UNL     1      -5.598 -11.187  -0.057  1.00  0.00     0.034 A 
ATOM     67  C   UNL     1      -6.520 -17.473  -3.712  1.00  0.00     0.034 A 
ATOM     68  C   UNL     1      -6.884 -11.799  -0.235  1.00  0.00     0.049 A 
ATOM     69  C   UNL     1      -7.576 -16.825  -2.921  1.00  0.00     0.074 A 
ATOM     70  C   UNL     1      -7.885 -11.642  -1.174  1.00  0.00     0.029 A 
ATOM     71  N   UNL     1      -7.075 -13.034   0.348  1.00  0.00    -0.354 N 
ATOM     72  N   UNL     1      -7.694 -17.056  -1.648  1.00  0.00    -0.248 NA
ATOM     73  C   UNL     1      -8.655 -16.039  -3.508  1.00  0.00     0.031 C 
ATOM     74  C   UNL     1      -8.312 -12.952  -1.474  1.00  0.00     0.029 A 
ATOM     75  C   UNL     1      -7.868 -13.808  -0.477  1.00  0.00     0.049 A 
ATOM     76  H   UNL     1      -6.705 -13.319   1.215  1.00  0.00     0.167 HD
ATOM     77  C   UNL     1      -8.444 -16.004  -1.225  1.00  0.00     0.074 A 
ATOM     78  C   UNL     1      -9.231 -15.615  -2.380  1.00  0.00     0.031 C 
ATOM     79  C   UNL     1      -7.886 -15.233  -0.260  1.00  0.00     0.034 A 
BRANCH  66  80
ATOM     80  C   UNL     1      -4.718 -11.369   1.158  1.00  0.00     0.023 A 
ATOM     81  C   UNL     1      -4.630 -10.297   2.060  1.00  0.00     0.012 A 
ATOM     82  C   UNL     1      -3.848 -12.477   1.326  1.00  0.00     0.148 A 
ATOM     83  C   UNL     1      -3.661 -10.297   3.067  1.00  0.00     0.002 A 
ATOM     84  C   UNL     1      -2.816 -12.420   2.255  1.00  0.00     0.091 A 
ATOM     85  F   UNL     1      -4.035 -13.569   0.568  1.00  0.00    -0.205 F 
ATOM     86  C   UNL     1      -2.732 -11.336   3.139  1.00  0.00     0.022 A 
BRANCH  84  87
ATOM     87  S   UNL     1      -1.434 -13.578   2.226  1.00  0.00     0.127 S 
ATOM     88  O   UNL     1      -0.274 -12.686   2.318  1.00  0.00    -0.237 OA
ATOM     89  O   UNL     1      -1.664 -14.386   3.419  1.00  0.00    -0.237 OA
ATOM     90  O   UNL     1      -1.519 -14.290   0.956  1.00  0.00    -0.744 OA
ENDBRANCH  84  87
ENDBRANCH  66  80
BRANCH  67  91
ATOM     91  C   UNL     1      -7.130 -18.844  -4.238  1.00  0.00     0.023 A 
ATOM     92  C   UNL     1      -8.263 -19.410  -3.535  1.00  0.00     0.012 A 
ATOM     93  C   UNL     1      -6.959 -19.357  -5.543  1.00  0.00     0.148 A 
ATOM     94  C   UNL     1      -9.206 -20.292  -4.102  1.00  0.00     0.002 A 
ATOM     95  C   UNL     1      -7.899 -20.274  -6.104  1.00  0.00     0.091 A 
ATOM     96  F   UNL     1      -5.942 -18.889  -6.277  1.00  0.00    -0.205 F 
ATOM     97  C   UNL     1      -9.031 -20.714  -5.399  1.00  0.00     0.022 A 
BRANCH  95  98
ATOM     98  S   UNL     1      -7.804 -20.897  -7.801  1.00  0.00     0.127 S 
ATOM     99  O   UNL     1      -8.190 -22.302  -7.652  1.00  0.00    -0.237 OA
ATOM    100  O   UNL     1      -8.799 -20.069  -8.481  1.00  0.00    -0.237 OA
ATOM    101  O   UNL     1      -6.421 -20.693  -8.206  1.00  0.00    -0.744 OA
ENDBRANCH  95  98
ENDBRANCH  67  91
BRANCH  79 102
ATOM    102  C   UNL     1      -7.127 -15.950   0.845  1.00  0.00     0.023 A 
ATOM    103  C   UNL     1      -6.136 -16.940   0.640  1.00  0.00     0.012 A 
ATOM    104  C   UNL     1      -7.468 -15.644   2.170  1.00  0.00     0.148 A 
ATOM    105  C   UNL     1      -5.562 -17.640   1.707  1.00  0.00     0.002 A 
ATOM    106  C   UNL     1      -6.857 -16.301   3.235  1.00  0.00     0.091 A 
ATOM    107  F   UNL     1      -8.419 -14.720   2.377  1.00  0.00    -0.205 F 
ATOM    108  C   UNL     1      -5.915 -17.312   3.010  1.00  0.00     0.022 A 
BRANCH 106 109
ATOM    109  S   UNL     1      -7.266 -15.857   4.922  1.00  0.00     0.127 S 
ATOM    110  O   UNL     1      -8.306 -16.832   5.247  1.00  0.00    -0.237 OA
ATOM    111  O   UNL     1      -6.008 -16.049   5.639  1.00  0.00    -0.237 OA
ATOM    112  O   UNL     1      -7.711 -14.468   4.851  1.00  0.00    -0.744 OA
ENDBRANCH 106 109
ENDBRANCH  79 102
ENDBRANCH  53  54
ENDBRANCH  46  48
ENDBRANCH  45  46
ENDBRANCH  44  45
ENDBRANCH  43  44
ENDBRANCH  42  43
ENDBRANCH  41  42
ENDBRANCH   1  41
TORSDOF 29
