REMARK SMILES CC[C@H](C)[C@H](NC(=O)[C@H](C(C)C)n1c(=O)[nH]c2ccccc2c1=O)C(=O)OCCOCCOCCOC(=O)c1ccc(-c2c3nc(c(-c4cccc(S(=O)(=O)[O-])c4F)c4ccc([nH]4)c(-c4cccc(S(=O)(=O)[O-])c4F)c4nc(c(-c5cccc(S(=O)(=O)[O-])c5F)c5ccc2[nH]5)C=C4)C=C3)cc1
REMARK SMILES IDX 31 1 30 2 29 3 28 4 27 5 25 6 26 7 5 8 3 9 4 10 2 11 1 12
REMARK SMILES IDX 6 13 7 14 8 16 9 17 13 18 14 19 23 20 15 21 16 22 22 23
REMARK SMILES IDX 24 24 17 25 21 27 18 28 20 29 19 30 10 31 11 32 12 33 32 34
REMARK SMILES IDX 33 35 34 36 35 37 36 38 37 39 38 40 39 41 40 42 101 43 41 44
REMARK SMILES IDX 100 45 42 46 43 47 44 48 94 49 45 50 99 51 93 52 95 53 46 54
REMARK SMILES IDX 98 55 92 56 91 57 47 59 79 60 59 61 78 62 60 63 63 64 77 65
REMARK SMILES IDX 96 66 61 67 62 68 76 70 97 71 64 72 48 73 49 74 57 75 50 76
REMARK SMILES IDX 52 77 58 78 51 79 53 80 54 81 55 82 56 83 80 84 81 85 89 86
REMARK SMILES IDX 82 87 84 88 90 89 83 90 85 91 86 92 87 93 88 94 65 95 66 96
REMARK SMILES IDX 74 97 67 98 69 99 75 100 68 101 70 102 71 103 72 104 73 105
REMARK H PARENT 6 15 16 26 95 58 63 69
REMARK Flexibility Score: inf
ROOT
ATOM      1  C   UNL     1       0.377   5.520  -8.077  1.00  0.00     0.188 C 
ENDROOT
BRANCH   1   2
ATOM      2  O   UNL     1      -0.763   6.093  -7.479  1.00  0.00    -0.376 OA
BRANCH   2   3
ATOM      3  C   UNL     1      -1.181   5.625  -6.210  1.00  0.00     0.202 C 
BRANCH   3   4
ATOM      4  C   UNL     1      -0.250   4.985  -5.158  1.00  0.00     0.261 C 
BRANCH   4   5
ATOM      5  O   UNL     1       1.156   4.886  -5.429  1.00  0.00    -0.462 OA
BRANCH   5   6
ATOM      6  C   UNL     1       1.586   3.637  -5.756  1.00  0.00     0.328 C 
ATOM      7  O   UNL     1       0.830   2.687  -5.946  1.00  0.00    -0.250 OA
BRANCH   6   8
ATOM      8  C   UNL     1       3.113   3.450  -5.642  1.00  0.00     0.195 C 
BRANCH   8   9
ATOM      9  C   UNL     1       3.381   3.152  -4.133  1.00  0.00     0.019 C 
ATOM     10  C   UNL     1       3.158   1.647  -3.883  1.00  0.00     0.010 C 
BRANCH   9  11
ATOM     11  C   UNL     1       4.727   3.639  -3.538  1.00  0.00     0.002 C 
ATOM     12  C   UNL     1       4.534   4.501  -2.299  1.00  0.00     0.004 C 
ENDBRANCH   9  11
ENDBRANCH   8   9
BRANCH   8  13
ATOM     13  N   UNL     1       4.022   4.447  -6.200  1.00  0.00    -0.341 N 
ATOM     14  C   UNL     1       5.294   4.196  -6.695  1.00  0.00     0.244 C 
ATOM     15  H   UNL     1       3.705   5.379  -6.228  1.00  0.00     0.164 HD
ATOM     16  O   UNL     1       6.009   5.162  -6.963  1.00  0.00    -0.273 OA
BRANCH  14  17
ATOM     17  C   UNL     1       5.803   2.713  -6.751  1.00  0.00     0.187 C 
BRANCH  17  18
ATOM     18  N   UNL     1       5.136   1.903  -7.784  1.00  0.00    -0.247 N 
ATOM     19  C   UNL     1       4.635   0.670  -7.384  1.00  0.00     0.329 A 
ATOM     20  C   UNL     1       5.151   2.329  -9.111  1.00  0.00     0.264 A 
ATOM     21  O   UNL     1       4.764   0.217  -6.246  1.00  0.00    -0.248 OA
ATOM     22  N   UNL     1       3.960  -0.058  -8.309  1.00  0.00    -0.307 N 
ATOM     23  C   UNL     1       4.461   1.467 -10.097  1.00  0.00     0.064 A 
ATOM     24  O   UNL     1       5.678   3.372  -9.487  1.00  0.00    -0.268 OA
ATOM     25  C   UNL     1       3.857   0.298  -9.646  1.00  0.00     0.055 A 
ATOM     26  H   UNL     1       3.519  -0.887  -8.014  1.00  0.00     0.171 HD
ATOM     27  C   UNL     1       4.415   1.796 -11.455  1.00  0.00     0.016 A 
ATOM     28  C   UNL     1       3.193  -0.550 -10.528  1.00  0.00     0.027 A 
ATOM     29  C   UNL     1       3.772   0.939 -12.348  1.00  0.00     0.001 A 
ATOM     30  C   UNL     1       3.170  -0.231 -11.883  1.00  0.00     0.002 A 
ENDBRANCH  17  18
BRANCH  17  31
ATOM     31  C   UNL     1       7.349   2.552  -6.645  1.00  0.00     0.016 C 
ATOM     32  C   UNL     1       7.756   2.585  -5.157  1.00  0.00     0.010 C 
ATOM     33  C   UNL     1       7.890   1.245  -7.237  1.00  0.00     0.010 C 
ENDBRANCH  17  31
ENDBRANCH  14  17
ENDBRANCH   8  13
ENDBRANCH   6   8
ENDBRANCH   5   6
ENDBRANCH   4   5
ENDBRANCH   3   4
ENDBRANCH   2   3
ENDBRANCH   1   2
BRANCH   1  34
ATOM     34  C   UNL     1       1.667   6.321  -7.828  1.00  0.00     0.188 C 
BRANCH  34  35
ATOM     35  O   UNL     1       1.720   7.292  -6.795  1.00  0.00    -0.376 OA
BRANCH  35  36
ATOM     36  C   UNL     1       0.774   8.357  -6.799  1.00  0.00     0.202 C 
BRANCH  36  37
ATOM     37  C   UNL     1       0.274   9.052  -8.087  1.00  0.00     0.261 C 
BRANCH  37  38
ATOM     38  O   UNL     1       0.199   8.256  -9.275  1.00  0.00    -0.460 OA
BRANCH  38  39
ATOM     39  C   UNL     1       1.202   8.446 -10.181  1.00  0.00     0.338 C 
ATOM     40  O   UNL     1       2.103   9.246 -10.113  1.00  0.00    -0.246 OA
BRANCH  39  41
ATOM     41  C   UNL     1       1.132   7.328 -11.157  1.00  0.00     0.060 A 
ATOM     42  C   UNL     1      -0.018   7.120 -11.917  1.00  0.00     0.016 A 
ATOM     43  C   UNL     1       2.219   6.445 -11.259  1.00  0.00     0.016 A 
ATOM     44  C   UNL     1      -0.069   6.037 -12.798  1.00  0.00     0.010 A 
ATOM     45  C   UNL     1       2.151   5.341 -12.113  1.00  0.00     0.010 A 
ATOM     46  C   UNL     1       1.015   5.146 -12.909  1.00  0.00    -0.014 A 
BRANCH  46  47
ATOM     47  C   UNL     1       1.038   4.160 -14.016  1.00  0.00     0.031 A 
ATOM     48  C   UNL     1       0.666   2.721 -13.830  1.00  0.00     0.074 A 
ATOM     49  C   UNL     1       1.396   4.614 -15.232  1.00  0.00     0.049 A 
ATOM     50  N   UNL     1       0.575   1.780 -14.735  1.00  0.00    -0.248 NA
ATOM     51  C   UNL     1       0.362   2.275 -12.464  1.00  0.00     0.031 C 
ATOM     52  C   UNL     1       1.807   5.991 -15.520  1.00  0.00     0.029 A 
ATOM     53  N   UNL     1       1.455   3.984 -16.447  1.00  0.00    -0.354 N 
ATOM     54  C   UNL     1       0.226   0.622 -14.055  1.00  0.00     0.074 A 
ATOM     55  C   UNL     1       0.107   0.984 -12.656  1.00  0.00     0.031 C 
ATOM     56  C   UNL     1       2.036   6.112 -16.835  1.00  0.00     0.029 A 
ATOM     57  C   UNL     1       1.810   4.821 -17.478  1.00  0.00     0.049 A 
ATOM     58  H   UNL     1       1.263   3.026 -16.570  1.00  0.00     0.167 HD
ATOM     59  C   UNL     1       0.032  -0.623 -14.556  1.00  0.00     0.034 A 
ATOM     60  C   UNL     1       1.924   4.586 -18.799  1.00  0.00     0.034 A 
ATOM     61  C   UNL     1       0.115  -0.961 -15.955  1.00  0.00     0.049 A 
ATOM     62  C   UNL     1       1.618   3.221 -19.336  1.00  0.00     0.074 A 
ATOM     63  C   UNL     1      -0.119  -2.188 -16.554  1.00  0.00     0.029 A 
ATOM     64  N   UNL     1       0.444  -0.079 -16.973  1.00  0.00    -0.354 N 
ATOM     65  N   UNL     1       1.228   2.154 -18.684  1.00  0.00    -0.248 NA
ATOM     66  C   UNL     1       1.739   3.031 -20.788  1.00  0.00     0.031 C 
ATOM     67  C   UNL     1       0.072  -2.050 -17.931  1.00  0.00     0.029 A 
ATOM     68  C   UNL     1       0.406  -0.732 -18.194  1.00  0.00     0.049 A 
ATOM     69  H   UNL     1       0.670   0.870 -16.846  1.00  0.00     0.167 HD
ATOM     70  C   UNL     1       1.043   1.169 -19.645  1.00  0.00     0.074 A 
ATOM     71  C   UNL     1       1.346   1.771 -20.927  1.00  0.00     0.031 C 
ATOM     72  C   UNL     1       0.670  -0.121 -19.471  1.00  0.00     0.034 A 
BRANCH  59  73
ATOM     73  C   UNL     1      -0.330  -1.735 -13.605  1.00  0.00     0.023 A 
ATOM     74  C   UNL     1      -1.635  -1.804 -13.082  1.00  0.00     0.012 A 
ATOM     75  C   UNL     1       0.577  -2.780 -13.335  1.00  0.00     0.148 A 
ATOM     76  C   UNL     1      -2.026  -2.885 -12.293  1.00  0.00     0.002 A 
ATOM     77  C   UNL     1       0.177  -3.862 -12.560  1.00  0.00     0.091 A 
ATOM     78  F   UNL     1       1.811  -2.702 -13.853  1.00  0.00    -0.205 F 
ATOM     79  C   UNL     1      -1.125  -3.917 -12.039  1.00  0.00     0.022 A 
BRANCH  77  80
ATOM     80  S   UNL     1       1.260  -5.247 -12.191  1.00  0.00     0.127 S 
ATOM     81  O   UNL     1       1.440  -5.093 -10.747  1.00  0.00    -0.237 OA
ATOM     82  O   UNL     1       0.443  -6.392 -12.590  1.00  0.00    -0.237 OA
ATOM     83  O   UNL     1       2.462  -5.040 -12.986  1.00  0.00    -0.744 OA
ENDBRANCH  77  80
ENDBRANCH  59  73
BRANCH  60  84
ATOM     84  C   UNL     1       2.264   5.718 -19.698  1.00  0.00     0.023 A 
ATOM     85  C   UNL     1       1.243   6.328 -20.451  1.00  0.00     0.012 A 
ATOM     86  C   UNL     1       3.565   6.256 -19.726  1.00  0.00     0.148 A 
ATOM     87  C   UNL     1       1.513   7.458 -21.222  1.00  0.00     0.002 A 
ATOM     88  C   UNL     1       3.818   7.403 -20.466  1.00  0.00     0.091 A 
ATOM     89  F   UNL     1       4.512   5.656 -18.991  1.00  0.00    -0.205 F 
ATOM     90  C   UNL     1       2.796   8.001 -21.221  1.00  0.00     0.022 A 
BRANCH  88  91
ATOM     91  S   UNL     1       5.409   8.235 -20.450  1.00  0.00     0.127 S 
ATOM     92  O   UNL     1       5.805   8.144 -21.854  1.00  0.00    -0.237 OA
ATOM     93  O   UNL     1       5.037   9.576 -20.000  1.00  0.00    -0.237 OA
ATOM     94  O   UNL     1       6.240   7.486 -19.519  1.00  0.00    -0.744 OA
ENDBRANCH  88  91
ENDBRANCH  60  84
BRANCH  72  95
ATOM     95  C   UNL     1       0.552  -0.996 -20.688  1.00  0.00     0.023 A 
ATOM     96  C   UNL     1       1.717  -1.525 -21.276  1.00  0.00     0.012 A 
ATOM     97  C   UNL     1      -0.712  -1.396 -21.166  1.00  0.00     0.148 A 
ATOM     98  C   UNL     1       1.626  -2.437 -22.328  1.00  0.00     0.002 A 
ATOM     99  C   UNL     1      -0.795  -2.328 -22.193  1.00  0.00     0.091 A 
ATOM    100  F   UNL     1      -1.805  -0.872 -20.592  1.00  0.00    -0.205 F 
ATOM    101  C   UNL     1       0.373  -2.847 -22.777  1.00  0.00     0.022 A 
BRANCH  99 102
ATOM    102  S   UNL     1      -2.360  -2.970 -22.799  1.00  0.00     0.127 S 
ATOM    103  O   UNL     1      -2.368  -2.481 -24.177  1.00  0.00    -0.237 OA
ATOM    104  O   UNL     1      -2.173  -4.414 -22.664  1.00  0.00    -0.237 OA
ATOM    105  O   UNL     1      -3.391  -2.405 -21.938  1.00  0.00    -0.744 OA
ENDBRANCH  99 102
ENDBRANCH  72  95
ENDBRANCH  46  47
ENDBRANCH  39  41
ENDBRANCH  38  39
ENDBRANCH  37  38
ENDBRANCH  36  37
ENDBRANCH  35  36
ENDBRANCH  34  35
ENDBRANCH   1  34
TORSDOF 26
