REMARK SMILES Cc1nc(NC(=O)[C@H]2[C@@H]3CC[C@@H](C3)[C@@H]2C(=O)OCCOCCOCCOC(=O)c2ccc(-c3c4nc(c(-c5cccc(S(=O)(=O)[O-])c5F)c5ccc([nH]5)c(-c5cccc(S(=O)(=O)[O-])c5F)c5nc(c(-c6cccc(S(=O)(=O)[O-])c6F)c6ccc3[nH]6)C=C5)C=C4)cc2)sc1-c1ccccc1
REMARK SMILES IDX 21 1 20 2 19 3 18 4 17 5 15 6 16 7 14 8 8 9 9 10 10 11 13 12
REMARK SMILES IDX 12 13 11 14 6 15 5 16 7 18 4 19 1 20 2 21 3 22 93 23 92 24
REMARK SMILES IDX 94 25 95 26 99 27 96 28 98 29 97 30 22 31 23 32 24 33 25 34
REMARK SMILES IDX 26 35 27 36 28 37 29 38 30 39 91 40 31 41 90 42 32 43 33 44
REMARK SMILES IDX 34 45 84 46 35 47 89 48 83 49 85 50 36 51 88 52 82 53 81 54
REMARK SMILES IDX 37 56 69 57 49 58 68 59 50 60 53 61 67 62 86 63 51 64 52 65
REMARK SMILES IDX 66 67 87 68 54 69 38 70 39 71 47 72 40 73 42 74 48 75 41 76
REMARK SMILES IDX 43 77 44 78 45 79 46 80 70 81 71 82 79 83 72 84 74 85 80 86
REMARK SMILES IDX 73 87 75 88 76 89 77 90 78 91 55 92 56 93 64 94 57 95 59 96
REMARK SMILES IDX 65 97 58 98 60 99 61 100 62 101 63 102
REMARK H PARENT 5 17 85 55 53 66
REMARK Flexibility Score: inf
ROOT
ATOM      1  C   UNL     1      -1.240   1.318   3.108  1.00  0.00     0.188 C 
ENDROOT
BRANCH   1   2
ATOM      2  O   UNL     1      -2.287   1.534   4.041  1.00  0.00    -0.376 OA
BRANCH   2   3
ATOM      3  C   UNL     1      -3.549   0.944   3.754  1.00  0.00     0.202 C 
BRANCH   3   4
ATOM      4  C   UNL     1      -4.370   1.587   2.628  1.00  0.00     0.261 C 
BRANCH   4   5
ATOM      5  O   UNL     1      -3.684   1.658   1.369  1.00  0.00    -0.463 OA
BRANCH   5   6
ATOM      6  C   UNL     1      -3.153   2.880   1.048  1.00  0.00     0.310 C 
ATOM      7  O   UNL     1      -3.307   3.905   1.694  1.00  0.00    -0.252 OA
BRANCH   6   8
ATOM      8  C   UNL     1      -2.303   2.748  -0.211  1.00  0.00     0.115 C 
ATOM      9  C   UNL     1      -1.089   3.691  -0.286  1.00  0.00     0.096 C 
ATOM     10  C   UNL     1      -1.468   4.619  -1.470  1.00  0.00     0.003 C 
ATOM     11  C   UNL     1      -2.736   5.436  -1.118  1.00  0.00     0.005 C 
ATOM     12  C   UNL     1      -2.026   3.612  -2.469  1.00  0.00     0.009 C 
ATOM     13  C   UNL     1      -3.099   3.102  -1.497  1.00  0.00     0.004 C 
ATOM     14  C   UNL     1      -3.874   4.415  -1.290  1.00  0.00     0.005 C 
BRANCH   9  15
ATOM     15  C   UNL     1       0.367   3.178  -0.465  1.00  0.00     0.230 C 
ATOM     16  N   UNL     1       0.842   2.016  -0.981  1.00  0.00    -0.302 N 
ATOM     17  H   UNL     1       1.824   1.970  -1.025  1.00  0.00     0.172 HD
ATOM     18  O   UNL     1       1.269   3.964  -0.120  1.00  0.00    -0.274 OA
BRANCH  16  19
ATOM     19  C   UNL     1       0.212   0.903  -1.448  1.00  0.00     0.190 A 
ATOM     20  C   UNL     1      -2.801  -0.923  -1.565  1.00  0.00     0.068 C 
ATOM     21  C   UNL     1      -1.353  -0.612  -1.703  1.00  0.00     0.058 A 
ATOM     22  N   UNL     1      -1.047   0.731  -1.703  1.00  0.00    -0.225 NA
ATOM     23  C   UNL     1      -0.256  -1.472  -1.728  1.00  0.00     0.059 A 
ATOM     24  S   UNL     1       1.178  -0.489  -1.679  1.00  0.00    -0.096 S 
BRANCH  23  25
ATOM     25  C   UNL     1      -0.228  -2.950  -1.652  1.00  0.00    -0.006 A 
ATOM     26  C   UNL     1       0.764  -3.642  -0.949  1.00  0.00     0.009 A 
ATOM     27  C   UNL     1      -1.310  -3.702  -2.133  1.00  0.00     0.009 A 
ATOM     28  C   UNL     1       0.590  -4.980  -0.574  1.00  0.00     0.001 A 
ATOM     29  C   UNL     1      -1.487  -5.042  -1.773  1.00  0.00     0.001 A 
ATOM     30  C   UNL     1      -0.554  -5.670  -0.957  1.00  0.00     0.000 A 
ENDBRANCH  23  25
ENDBRANCH  16  19
ENDBRANCH   9  15
ENDBRANCH   6   8
ENDBRANCH   5   6
ENDBRANCH   4   5
ENDBRANCH   3   4
ENDBRANCH   2   3
ENDBRANCH   1   2
BRANCH   1  31
ATOM     31  C   UNL     1      -0.752  -0.113   2.931  1.00  0.00     0.188 C 
BRANCH  31  32
ATOM     32  O   UNL     1      -1.742  -1.100   2.654  1.00  0.00    -0.376 OA
BRANCH  32  33
ATOM     33  C   UNL     1      -1.185  -2.378   2.309  1.00  0.00     0.202 C 
BRANCH  33  34
ATOM     34  C   UNL     1      -0.277  -3.018   3.385  1.00  0.00     0.261 C 
BRANCH  34  35
ATOM     35  O   UNL     1       0.914  -2.255   3.696  1.00  0.00    -0.460 OA
BRANCH  35  36
ATOM     36  C   UNL     1       1.780  -2.082   2.683  1.00  0.00     0.338 C 
ATOM     37  O   UNL     1       1.758  -2.680   1.609  1.00  0.00    -0.246 OA
BRANCH  36  38
ATOM     38  C   UNL     1       2.656  -0.923   2.900  1.00  0.00     0.060 A 
ATOM     39  C   UNL     1       2.643   0.100   1.939  1.00  0.00     0.016 A 
ATOM     40  C   UNL     1       3.558  -0.886   3.959  1.00  0.00     0.016 A 
ATOM     41  C   UNL     1       3.570   1.134   1.994  1.00  0.00     0.010 A 
ATOM     42  C   UNL     1       4.498   0.147   4.007  1.00  0.00     0.010 A 
ATOM     43  C   UNL     1       4.535   1.135   3.003  1.00  0.00    -0.014 A 
BRANCH  43  44
ATOM     44  C   UNL     1       5.677   2.076   2.927  1.00  0.00     0.031 A 
ATOM     45  C   UNL     1       7.030   1.543   2.548  1.00  0.00     0.074 A 
ATOM     46  C   UNL     1       5.509   3.383   3.189  1.00  0.00     0.049 A 
ATOM     47  N   UNL     1       8.194   2.133   2.582  1.00  0.00    -0.248 NA
ATOM     48  C   UNL     1       7.075   0.150   2.071  1.00  0.00     0.031 C 
ATOM     49  C   UNL     1       4.233   4.023   3.505  1.00  0.00     0.029 A 
ATOM     50  N   UNL     1       6.427   4.400   3.262  1.00  0.00    -0.354 N 
ATOM     51  C   UNL     1       9.118   1.167   2.203  1.00  0.00     0.074 A 
ATOM     52  C   UNL     1       8.377  -0.043   1.920  1.00  0.00     0.031 C 
ATOM     53  C   UNL     1       4.454   5.319   3.781  1.00  0.00     0.029 A 
ATOM     54  C   UNL     1       5.889   5.582   3.713  1.00  0.00     0.049 A 
ATOM     55  H   UNL     1       7.375   4.294   3.017  1.00  0.00     0.167 HD
ATOM     56  C   UNL     1      10.464   1.280   2.107  1.00  0.00     0.034 A 
ATOM     57  C   UNL     1       6.492   6.729   4.080  1.00  0.00     0.034 A 
ATOM     58  C   UNL     1      11.182   2.503   2.347  1.00  0.00     0.049 A 
ATOM     59  C   UNL     1       7.989   6.833   3.968  1.00  0.00     0.074 A 
ATOM     60  C   UNL     1      12.540   2.740   2.239  1.00  0.00     0.029 A 
ATOM     61  N   UNL     1      10.598   3.696   2.748  1.00  0.00    -0.354 N 
ATOM     62  N   UNL     1       8.850   5.932   3.561  1.00  0.00    -0.248 NA
ATOM     63  C   UNL     1       8.595   8.118   4.343  1.00  0.00     0.031 C 
ATOM     64  C   UNL     1      12.780   4.071   2.599  1.00  0.00     0.029 A 
ATOM     65  C   UNL     1      11.567   4.671   2.901  1.00  0.00     0.049 A 
ATOM     66  H   UNL     1       9.634   3.828   2.900  1.00  0.00     0.167 HD
ATOM     67  C   UNL     1      10.097   6.546   3.605  1.00  0.00     0.074 A 
ATOM     68  C   UNL     1       9.874   7.904   4.059  1.00  0.00     0.031 C 
ATOM     69  C   UNL     1      11.317   6.030   3.312  1.00  0.00     0.034 A 
BRANCH  56  70
ATOM     70  C   UNL     1      11.244   0.044   1.743  1.00  0.00     0.023 A 
ATOM     71  C   UNL     1      11.203  -0.460   0.427  1.00  0.00     0.012 A 
ATOM     72  C   UNL     1      12.040  -0.607   2.706  1.00  0.00     0.148 A 
ATOM     73  C   UNL     1      11.911  -1.613   0.087  1.00  0.00     0.002 A 
ATOM     74  C   UNL     1      12.777  -1.730   2.349  1.00  0.00     0.091 A 
ATOM     75  F   UNL     1      12.045  -0.131   3.960  1.00  0.00    -0.205 F 
ATOM     76  C   UNL     1      12.704  -2.242   1.044  1.00  0.00     0.022 A 
BRANCH  74  77
ATOM     77  S   UNL     1      13.882  -2.562   3.495  1.00  0.00     0.127 S 
ATOM     78  O   UNL     1      13.127  -3.775   3.805  1.00  0.00    -0.237 OA
ATOM     79  O   UNL     1      15.073  -2.780   2.674  1.00  0.00    -0.237 OA
ATOM     80  O   UNL     1      14.074  -1.640   4.605  1.00  0.00    -0.744 OA
ENDBRANCH  74  77
ENDBRANCH  56  70
BRANCH  57  81
ATOM     81  C   UNL     1       5.667   7.860   4.591  1.00  0.00     0.023 A 
ATOM     82  C   UNL     1       5.508   9.018   3.809  1.00  0.00     0.012 A 
ATOM     83  C   UNL     1       4.991   7.763   5.825  1.00  0.00     0.148 A 
ATOM     84  C   UNL     1       4.701  10.068   4.253  1.00  0.00     0.002 A 
ATOM     85  C   UNL     1       4.145   8.786   6.234  1.00  0.00     0.091 A 
ATOM     86  F   UNL     1       5.174   6.659   6.564  1.00  0.00    -0.205 F 
ATOM     87  C   UNL     1       4.009   9.946   5.456  1.00  0.00     0.022 A 
BRANCH  85  88
ATOM     88  S   UNL     1       3.116   8.657   7.701  1.00  0.00     0.127 S 
ATOM     89  O   UNL     1       3.748   9.625   8.594  1.00  0.00    -0.237 OA
ATOM     90  O   UNL     1       1.806   9.056   7.188  1.00  0.00    -0.237 OA
ATOM     91  O   UNL     1       3.200   7.264   8.120  1.00  0.00    -0.744 OA
ENDBRANCH  85  88
ENDBRANCH  57  81
BRANCH  69  92
ATOM     92  C   UNL     1      12.506   6.946   3.441  1.00  0.00     0.023 A 
ATOM     93  C   UNL     1      12.980   7.305   4.718  1.00  0.00     0.012 A 
ATOM     94  C   UNL     1      13.196   7.391   2.296  1.00  0.00     0.148 A 
ATOM     95  C   UNL     1      14.102   8.121   4.853  1.00  0.00     0.002 A 
ATOM     96  C   UNL     1      14.342   8.163   2.439  1.00  0.00     0.091 A 
ATOM     97  F   UNL     1      12.718   7.054   1.089  1.00  0.00    -0.205 F 
ATOM     98  C   UNL     1      14.789   8.540   3.716  1.00  0.00     0.022 A 
BRANCH  96  99
ATOM     99  S   UNL     1      15.342   8.662   1.033  1.00  0.00     0.127 S 
ATOM    100  O   UNL     1      14.987  10.074   0.899  1.00  0.00    -0.237 OA
ATOM    101  O   UNL     1      16.703   8.418   1.514  1.00  0.00    -0.237 OA
ATOM    102  O   UNL     1      14.933   7.804  -0.071  1.00  0.00    -0.744 OA
ENDBRANCH  96  99
ENDBRANCH  69  92
ENDBRANCH  43  44
ENDBRANCH  36  38
ENDBRANCH  35  36
ENDBRANCH  34  35
ENDBRANCH  33  34
ENDBRANCH  32  33
ENDBRANCH  31  32
ENDBRANCH   1  31
TORSDOF 23
