REMARK SMILES O=C(OCCOCCOCCOC(=O)[C@@H]1[C@@H](C(=O)Nc2cccc(C(F)(F)F)c2)[C@@H]2C=C[C@H]1O2)c1ccc(-c2c3nc(c(-c4cccc(S(=O)(=O)[O-])c4F)c4ccc([nH]4)c(-c4cccc(S(=O)(=O)[O-])c4F)c4nc(c(-c5cccc(S(=O)(=O)[O-])c5F)c5ccc2[nH]5)C=C4)C=C3)cc1
REMARK SMILES IDX 7 1 6 2 5 3 4 4 3 5 2 6 1 7 35 8 36 9 97 10 37 11 96 12
REMARK SMILES IDX 38 13 39 14 40 15 90 16 41 17 95 18 89 19 91 20 42 21 94 22
REMARK SMILES IDX 88 23 87 24 43 26 75 27 55 28 74 29 56 30 59 31 73 32 92 33
REMARK SMILES IDX 57 34 58 35 72 37 93 38 60 39 44 40 45 41 53 42 46 43 48 44
REMARK SMILES IDX 54 45 47 46 49 47 50 48 51 49 52 50 76 51 77 52 85 53 78 54
REMARK SMILES IDX 80 55 86 56 79 57 81 58 82 59 83 60 84 61 61 62 62 63 70 64
REMARK SMILES IDX 63 65 65 66 71 67 64 68 66 69 67 70 68 71 69 72 8 73 9 74
REMARK SMILES IDX 10 75 11 76 12 77 13 78 14 79 15 80 16 81 33 82 30 83 32 84
REMARK SMILES IDX 34 85 31 86 17 87 18 88 19 89 20 91 21 92 29 93 22 94 24 95
REMARK SMILES IDX 23 96 25 97 26 98 27 99 28 100
REMARK H PARENT 91 25 59 36 19 90
REMARK Flexibility Score: inf
ROOT
ATOM      1  C   UNL     1       2.389  -1.438   0.353  1.00  0.00     0.188 C 
ENDROOT
BRANCH   1   2
ATOM      2  O   UNL     1       3.720  -1.321  -0.168  1.00  0.00    -0.376 OA
BRANCH   2   3
ATOM      3  C   UNL     1       4.715  -1.120   0.844  1.00  0.00     0.202 C 
BRANCH   3   4
ATOM      4  C   UNL     1       4.736   0.257   1.533  1.00  0.00     0.261 C 
BRANCH   4   5
ATOM      5  O   UNL     1       3.444   0.862   1.672  1.00  0.00    -0.460 OA
BRANCH   5   6
ATOM      6  C   UNL     1       2.751   1.627   0.794  1.00  0.00     0.338 C 
ATOM      7  O   UNL     1       1.633   2.010   1.139  1.00  0.00    -0.246 OA
BRANCH   6   8
ATOM      8  C   UNL     1       3.237   2.023  -0.571  1.00  0.00     0.060 A 
ATOM      9  C   UNL     1       4.365   1.523  -1.229  1.00  0.00     0.016 A 
ATOM     10  C   UNL     1       2.461   2.981  -1.252  1.00  0.00     0.016 A 
ATOM     11  C   UNL     1       4.775   2.030  -2.459  1.00  0.00     0.010 A 
ATOM     12  C   UNL     1       2.849   3.480  -2.498  1.00  0.00     0.010 A 
ATOM     13  C   UNL     1       4.043   3.041  -3.073  1.00  0.00    -0.014 A 
BRANCH  13  14
ATOM     14  C   UNL     1       4.653   3.769  -4.202  1.00  0.00     0.031 A 
ATOM     15  C   UNL     1       5.416   5.005  -3.888  1.00  0.00     0.074 A 
ATOM     16  C   UNL     1       4.543   3.316  -5.459  1.00  0.00     0.049 A 
ATOM     17  N   UNL     1       6.029   5.811  -4.704  1.00  0.00    -0.248 NA
ATOM     18  C   UNL     1       5.494   5.387  -2.468  1.00  0.00     0.031 C 
ATOM     19  C   UNL     1       3.819   2.111  -5.802  1.00  0.00     0.029 A 
ATOM     20  N   UNL     1       5.000   3.778  -6.660  1.00  0.00    -0.354 N 
ATOM     21  C   UNL     1       6.494   6.845  -3.909  1.00  0.00     0.074 A 
ATOM     22  C   UNL     1       6.144   6.535  -2.542  1.00  0.00     0.031 C 
ATOM     23  C   UNL     1       3.860   1.914  -7.126  1.00  0.00     0.029 A 
ATOM     24  C   UNL     1       4.609   3.001  -7.731  1.00  0.00     0.049 A 
ATOM     25  H   UNL     1       5.553   4.587  -6.753  1.00  0.00     0.167 HD
ATOM     26  C   UNL     1       7.116   7.974  -4.309  1.00  0.00     0.034 A 
ATOM     27  C   UNL     1       4.822   3.160  -9.050  1.00  0.00     0.034 A 
ATOM     28  C   UNL     1       7.390   8.265  -5.687  1.00  0.00     0.049 A 
ATOM     29  C   UNL     1       5.571   4.391  -9.466  1.00  0.00     0.074 A 
ATOM     30  C   UNL     1       7.982   9.387  -6.229  1.00  0.00     0.029 A 
ATOM     31  N   UNL     1       7.052   7.431  -6.748  1.00  0.00    -0.354 N 
ATOM     32  N   UNL     1       6.061   5.338  -8.699  1.00  0.00    -0.248 NA
ATOM     33  C   UNL     1       5.798   4.593 -10.900  1.00  0.00     0.031 C 
ATOM     34  C   UNL     1       7.968   9.248  -7.621  1.00  0.00     0.029 A 
ATOM     35  C   UNL     1       7.414   8.016  -7.946  1.00  0.00     0.049 A 
ATOM     36  H   UNL     1       6.618   6.552  -6.658  1.00  0.00     0.167 HD
ATOM     37  C   UNL     1       6.651   6.254  -9.552  1.00  0.00     0.074 A 
ATOM     38  C   UNL     1       6.489   5.727 -10.897  1.00  0.00     0.031 C 
ATOM     39  C   UNL     1       7.251   7.433  -9.257  1.00  0.00     0.034 A 
BRANCH  26  40
ATOM     40  C   UNL     1       7.416   8.979  -3.235  1.00  0.00     0.023 A 
ATOM     41  C   UNL     1       8.407   8.713  -2.266  1.00  0.00     0.012 A 
ATOM     42  C   UNL     1       6.635  10.144  -3.126  1.00  0.00     0.148 A 
ATOM     43  C   UNL     1       8.571   9.562  -1.171  1.00  0.00     0.002 A 
ATOM     44  C   UNL     1       6.837  11.009  -2.059  1.00  0.00     0.091 A 
ATOM     45  F   UNL     1       5.670  10.354  -4.032  1.00  0.00    -0.205 F 
ATOM     46  C   UNL     1       7.789  10.711  -1.071  1.00  0.00     0.022 A 
BRANCH  44  47
ATOM     47  S   UNL     1       5.917  12.538  -1.875  1.00  0.00     0.127 S 
ATOM     48  O   UNL     1       5.042  12.222  -0.748  1.00  0.00    -0.237 OA
ATOM     49  O   UNL     1       6.980  13.498  -1.574  1.00  0.00    -0.237 OA
ATOM     50  O   UNL     1       5.246  12.758  -3.149  1.00  0.00    -0.744 OA
ENDBRANCH  44  47
ENDBRANCH  26  40
BRANCH  27  51
ATOM     51  C   UNL     1       4.359   2.123 -10.020  1.00  0.00     0.023 A 
ATOM     52  C   UNL     1       5.308   1.329 -10.695  1.00  0.00     0.012 A 
ATOM     53  C   UNL     1       2.988   1.847 -10.207  1.00  0.00     0.148 A 
ATOM     54  C   UNL     1       4.902   0.285 -11.531  1.00  0.00     0.002 A 
ATOM     55  C   UNL     1       2.591   0.774 -11.000  1.00  0.00     0.091 A 
ATOM     56  F   UNL     1       2.096   2.628  -9.580  1.00  0.00    -0.205 F 
ATOM     57  C   UNL     1       3.547  -0.004 -11.669  1.00  0.00     0.022 A 
BRANCH  55  58
ATOM     58  S   UNL     1       0.872   0.268 -11.152  1.00  0.00     0.127 S 
ATOM     59  O   UNL     1       0.563   0.686 -12.518  1.00  0.00    -0.237 OA
ATOM     60  O   UNL     1       0.957  -1.180 -10.963  1.00  0.00    -0.237 OA
ATOM     61  O   UNL     1       0.160   0.980 -10.100  1.00  0.00    -0.744 OA
ENDBRANCH  55  58
ENDBRANCH  27  51
BRANCH  39  62
ATOM     62  C   UNL     1       7.801   8.223 -10.407  1.00  0.00     0.023 A 
ATOM     63  C   UNL     1       6.933   8.955 -11.238  1.00  0.00     0.012 A 
ATOM     64  C   UNL     1       9.194   8.334 -10.570  1.00  0.00     0.148 A 
ATOM     65  C   UNL     1       7.450   9.786 -12.229  1.00  0.00     0.002 A 
ATOM     66  C   UNL     1       9.701   9.203 -11.522  1.00  0.00     0.091 A 
ATOM     67  F   UNL     1       9.989   7.605  -9.773  1.00  0.00    -0.205 F 
ATOM     68  C   UNL     1       8.832   9.923 -12.360  1.00  0.00     0.022 A 
BRANCH  66  69
ATOM     69  S   UNL     1      11.458   9.526 -11.682  1.00  0.00     0.127 S 
ATOM     70  O   UNL     1      11.746   8.958 -12.998  1.00  0.00    -0.237 OA
ATOM     71  O   UNL     1      11.508  10.987 -11.620  1.00  0.00    -0.237 OA
ATOM     72  O   UNL     1      12.098   8.848 -10.562  1.00  0.00    -0.744 OA
ENDBRANCH  66  69
ENDBRANCH  39  62
ENDBRANCH  13  14
ENDBRANCH   6   8
ENDBRANCH   5   6
ENDBRANCH   4   5
ENDBRANCH   3   4
ENDBRANCH   2   3
ENDBRANCH   1   2
BRANCH   1  73
ATOM     73  C   UNL     1       1.619  -2.676  -0.104  1.00  0.00     0.188 C 
BRANCH  73  74
ATOM     74  O   UNL     1       2.124  -3.941   0.299  1.00  0.00    -0.376 OA
BRANCH  74  75
ATOM     75  C   UNL     1       3.426  -4.272  -0.152  1.00  0.00     0.202 C 
BRANCH  75  76
ATOM     76  C   UNL     1       3.683  -4.419  -1.655  1.00  0.00     0.261 C 
BRANCH  76  77
ATOM     77  O   UNL     1       3.219  -3.372  -2.524  1.00  0.00    -0.463 OA
BRANCH  77  78
ATOM     78  C   UNL     1       2.153  -3.695  -3.305  1.00  0.00     0.312 C 
ATOM     79  O   UNL     1       1.512  -4.738  -3.192  1.00  0.00    -0.252 OA
BRANCH  78  80
ATOM     80  C   UNL     1       1.830  -2.682  -4.366  1.00  0.00     0.147 C 
ATOM     81  C   UNL     1       2.607  -1.345  -4.421  1.00  0.00     0.129 C 
ATOM     82  C   UNL     1       0.375  -2.208  -4.216  1.00  0.00     0.157 C 
ATOM     83  C   UNL     1       1.426  -0.338  -4.496  1.00  0.00     0.155 C 
ATOM     84  C   UNL     1       0.126  -1.390  -2.976  1.00  0.00     0.004 C 
ATOM     85  O   UNL     1       0.399  -1.121  -5.160  1.00  0.00    -0.365 OA
ATOM     86  C   UNL     1       0.784  -0.236  -3.144  1.00  0.00     0.004 C 
BRANCH  81  87
ATOM     87  C   UNL     1       3.432  -1.214  -5.698  1.00  0.00     0.231 C 
ATOM     88  O   UNL     1       2.937  -1.244  -6.820  1.00  0.00    -0.274 OA
ATOM     89  N   UNL     1       4.763  -0.904  -5.562  1.00  0.00    -0.326 N 
ATOM     90  H   UNL     1       5.085  -0.134  -6.084  1.00  0.00     0.169 HD
BRANCH  89  91
ATOM     91  C   UNL     1       5.712  -1.553  -4.769  1.00  0.00     0.041 A 
ATOM     92  C   UNL     1       6.866  -0.864  -4.397  1.00  0.00     0.026 A 
ATOM     93  C   UNL     1       5.598  -2.915  -4.496  1.00  0.00     0.039 A 
ATOM     94  C   UNL     1       7.862  -1.515  -3.667  1.00  0.00     0.003 A 
ATOM     95  C   UNL     1       6.622  -3.596  -3.824  1.00  0.00     0.058 A 
ATOM     96  C   UNL     1       7.740  -2.876  -3.380  1.00  0.00     0.013 A 
BRANCH  95  97
ATOM     97  C   UNL     1       6.551  -5.090  -3.639  1.00  0.00     0.416 C 
ATOM     98  F   UNL     1       7.427  -5.763  -4.432  1.00  0.00    -0.166 F 
ATOM     99  F   UNL     1       6.839  -5.471  -2.360  1.00  0.00    -0.166 F 
ATOM    100  F   UNL     1       5.323  -5.616  -3.906  1.00  0.00    -0.166 F 
ENDBRANCH  95  97
ENDBRANCH  89  91
ENDBRANCH  81  87
ENDBRANCH  78  80
ENDBRANCH  77  78
ENDBRANCH  76  77
ENDBRANCH  75  76
ENDBRANCH  74  75
ENDBRANCH  73  74
ENDBRANCH   1  73
TORSDOF 23
