REMARK SMILES CCCCCC[C@@H](C)N1C[C@H](C(=O)OCCOCCOCCOC(=O)c2ccc(-c3c4nc(c(-c5cccc(S(=O)(=O)[O-])c5F)c5ccc([nH]5)c(-c5cccc(S(=O)(=O)[O-])c5F)c5nc(c(-c6cccc(S(=O)(=O)[O-])c6F)c6ccc3[nH]6)C=C5)C=C4)cc2)CC1=O
REMARK SMILES IDX 17 1 16 2 15 3 14 4 12 5 13 6 11 7 9 8 10 9 90 10 89 11
REMARK SMILES IDX 91 12 7 13 8 14 6 15 5 16 4 17 3 18 2 19 1 20 18 21 19 22
REMARK SMILES IDX 20 23 21 24 22 25 23 26 24 27 25 28 26 29 27 30 88 31 28 32
REMARK SMILES IDX 87 33 29 34 30 35 31 36 81 37 32 38 86 39 80 40 82 41 33 42
REMARK SMILES IDX 85 43 79 44 78 45 34 47 66 48 46 49 65 50 47 51 50 52 64 53
REMARK SMILES IDX 83 54 48 55 49 56 63 58 84 59 51 60 35 61 36 62 44 63 37 64
REMARK SMILES IDX 39 65 45 66 38 67 40 68 41 69 42 70 43 71 67 72 68 73 76 74
REMARK SMILES IDX 69 75 71 76 77 77 70 78 72 79 73 80 74 81 75 82 52 83 53 84
REMARK SMILES IDX 61 85 54 86 56 87 62 88 55 89 57 90 58 91 59 92 60 93
REMARK H PARENT 82 46 50 57
REMARK Flexibility Score: inf
ROOT
ATOM      1  O   UNL     1       1.100  -4.602 -10.731  1.00  0.00    -0.376 OA
ENDROOT
BRANCH   1   2
ATOM      2  C   UNL     1       2.057  -3.902  -9.955  1.00  0.00     0.202 C 
BRANCH   2   3
ATOM      3  C   UNL     1       1.843  -3.643  -8.451  1.00  0.00     0.261 C 
BRANCH   3   4
ATOM      4  O   UNL     1       0.481  -3.567  -8.016  1.00  0.00    -0.463 OA
BRANCH   4   5
ATOM      5  C   UNL     1      -0.108  -2.342  -7.938  1.00  0.00     0.311 C 
ATOM      6  O   UNL     1       0.463  -1.288  -8.166  1.00  0.00    -0.252 OA
BRANCH   5   7
ATOM      7  C   UNL     1      -1.605  -2.501  -7.678  1.00  0.00     0.128 C 
ATOM      8  N   UNL     1      -1.805  -2.548  -5.354  1.00  0.00    -0.339 N 
ATOM      9  C   UNL     1      -1.873  -3.425  -6.505  1.00  0.00     0.135 C 
ATOM     10  C   UNL     1      -1.925  -1.213  -5.764  1.00  0.00     0.223 C 
ATOM     11  C   UNL     1      -2.246  -1.204  -7.232  1.00  0.00     0.117 C 
ATOM     12  O   UNL     1      -1.806  -0.199  -5.093  1.00  0.00    -0.275 OA
BRANCH   8  13
ATOM     13  C   UNL     1      -1.260  -3.002  -4.061  1.00  0.00     0.082 C 
ATOM     14  C   UNL     1      -1.593  -4.476  -3.768  1.00  0.00     0.031 C 
BRANCH  13  15
ATOM     15  C   UNL     1      -1.707  -2.129  -2.869  1.00  0.00     0.025 C 
BRANCH  15  16
ATOM     16  C   UNL     1      -0.954  -2.379  -1.557  1.00  0.00     0.002 C 
BRANCH  16  17
ATOM     17  C   UNL     1       0.572  -2.260  -1.658  1.00  0.00     0.000 C 
BRANCH  17  18
ATOM     18  C   UNL     1       1.097  -0.919  -2.188  1.00  0.00    -0.000 C 
BRANCH  18  19
ATOM     19  C   UNL     1       0.657   0.315  -1.395  1.00  0.00    -0.003 C 
ATOM     20  C   UNL     1       1.054   0.261   0.071  1.00  0.00     0.004 C 
ENDBRANCH  18  19
ENDBRANCH  17  18
ENDBRANCH  16  17
ENDBRANCH  15  16
ENDBRANCH  13  15
ENDBRANCH   8  13
ENDBRANCH   5   7
ENDBRANCH   4   5
ENDBRANCH   3   4
ENDBRANCH   2   3
ENDBRANCH   1   2
BRANCH   1  21
ATOM     21  C   UNL     1      -0.267  -4.292 -10.561  1.00  0.00     0.188 C 
BRANCH  21  22
ATOM     22  C   UNL     1      -1.018  -5.357  -9.725  1.00  0.00     0.188 C 
BRANCH  22  23
ATOM     23  O   UNL     1      -0.309  -6.467  -9.195  1.00  0.00    -0.376 OA
BRANCH  23  24
ATOM     24  C   UNL     1       0.553  -7.198 -10.057  1.00  0.00     0.202 C 
BRANCH  24  25
ATOM     25  C   UNL     1       0.116  -7.601 -11.483  1.00  0.00     0.261 C 
BRANCH  25  26
ATOM     26  O   UNL     1      -0.609  -6.626 -12.252  1.00  0.00    -0.460 OA
BRANCH  26  27
ATOM     27  C   UNL     1      -1.936  -6.862 -12.416  1.00  0.00     0.338 C 
ATOM     28  O   UNL     1      -2.568  -7.811 -11.982  1.00  0.00    -0.246 OA
BRANCH  27  29
ATOM     29  C   UNL     1      -2.584  -5.683 -13.034  1.00  0.00     0.060 A 
ATOM     30  C   UNL     1      -3.534  -4.966 -12.288  1.00  0.00     0.016 A 
ATOM     31  C   UNL     1      -2.301  -5.314 -14.348  1.00  0.00     0.016 A 
ATOM     32  C   UNL     1      -4.217  -3.892 -12.860  1.00  0.00     0.010 A 
ATOM     33  C   UNL     1      -3.009  -4.254 -14.930  1.00  0.00     0.010 A 
ATOM     34  C   UNL     1      -3.991  -3.557 -14.200  1.00  0.00    -0.014 A 
BRANCH  34  35
ATOM     35  C   UNL     1      -4.898  -2.605 -14.890  1.00  0.00     0.031 A 
ATOM     36  C   UNL     1      -5.990  -3.157 -15.768  1.00  0.00     0.074 A 
ATOM     37  C   UNL     1      -4.753  -1.274 -14.756  1.00  0.00     0.049 A 
ATOM     38  N   UNL     1      -6.847  -2.523 -16.525  1.00  0.00    -0.248 NA
ATOM     39  C   UNL     1      -6.128  -4.623 -15.799  1.00  0.00     0.031 C 
ATOM     40  C   UNL     1      -3.750  -0.612 -13.925  1.00  0.00     0.029 A 
ATOM     41  N   UNL     1      -5.437  -0.241 -15.349  1.00  0.00    -0.354 N 
ATOM     42  C   UNL     1      -7.601  -3.509 -17.151  1.00  0.00     0.074 A 
ATOM     43  C   UNL     1      -7.095  -4.784 -16.690  1.00  0.00     0.031 C 
ATOM     44  C   UNL     1      -3.858   0.718 -14.092  1.00  0.00     0.029 A 
ATOM     45  C   UNL     1      -4.914   0.999 -15.063  1.00  0.00     0.049 A 
ATOM     46  H   UNL     1      -6.225  -0.374 -15.924  1.00  0.00     0.167 HD
ATOM     47  C   UNL     1      -8.626  -3.369 -18.024  1.00  0.00     0.034 A 
ATOM     48  C   UNL     1      -5.229   2.215 -15.554  1.00  0.00     0.034 A 
ATOM     49  C   UNL     1      -9.134  -2.102 -18.476  1.00  0.00     0.049 A 
ATOM     50  C   UNL     1      -6.349   2.344 -16.556  1.00  0.00     0.074 A 
ATOM     51  C   UNL     1     -10.199  -1.857 -19.326  1.00  0.00     0.029 A 
ATOM     52  N   UNL     1      -8.605  -0.868 -18.134  1.00  0.00    -0.354 N 
ATOM     53  N   UNL     1      -7.122   1.411 -17.058  1.00  0.00    -0.248 NA
ATOM     54  C   UNL     1      -6.660   3.699 -17.037  1.00  0.00     0.031 C 
ATOM     55  C   UNL     1     -10.286  -0.476 -19.531  1.00  0.00     0.029 A 
ATOM     56  C   UNL     1      -9.308   0.142 -18.769  1.00  0.00     0.049 A 
ATOM     57  H   UNL     1      -7.840  -0.729 -17.530  1.00  0.00     0.167 HD
ATOM     58  C   UNL     1      -8.034   2.069 -17.878  1.00  0.00     0.074 A 
ATOM     59  C   UNL     1      -7.728   3.481 -17.793  1.00  0.00     0.031 C 
ATOM     60  C   UNL     1      -9.029   1.550 -18.639  1.00  0.00     0.034 A 
BRANCH  47  61
ATOM     61  C   UNL     1      -9.276  -4.624 -18.547  1.00  0.00     0.023 A 
ATOM     62  C   UNL     1     -10.075  -5.410 -17.692  1.00  0.00     0.012 A 
ATOM     63  C   UNL     1      -9.137  -4.995 -19.898  1.00  0.00     0.148 A 
ATOM     64  C   UNL     1     -10.696  -6.566 -18.165  1.00  0.00     0.002 A 
ATOM     65  C   UNL     1      -9.798  -6.121 -20.374  1.00  0.00     0.091 A 
ATOM     66  F   UNL     1      -8.356  -4.247 -20.690  1.00  0.00    -0.205 F 
ATOM     67  C   UNL     1     -10.566  -6.915 -19.506  1.00  0.00     0.022 A 
BRANCH  65  68
ATOM     68  S   UNL     1      -9.761  -6.609 -22.102  1.00  0.00     0.127 S 
ATOM     69  O   UNL     1      -8.981  -7.845 -22.042  1.00  0.00    -0.237 OA
ATOM     70  O   UNL     1     -11.182  -6.798 -22.396  1.00  0.00    -0.237 OA
ATOM     71  O   UNL     1      -9.131  -5.509 -22.819  1.00  0.00    -0.744 OA
ENDBRANCH  65  68
ENDBRANCH  47  61
BRANCH  48  72
ATOM     72  C   UNL     1      -4.479   3.422 -15.101  1.00  0.00     0.023 A 
ATOM     73  C   UNL     1      -5.131   4.399 -14.324  1.00  0.00     0.012 A 
ATOM     74  C   UNL     1      -3.124   3.606 -15.440  1.00  0.00     0.148 A 
ATOM     75  C   UNL     1      -4.457   5.553 -13.922  1.00  0.00     0.002 A 
ATOM     76  C   UNL     1      -2.443   4.730 -14.989  1.00  0.00     0.091 A 
ATOM     77  F   UNL     1      -2.527   2.672 -16.194  1.00  0.00    -0.205 F 
ATOM     78  C   UNL     1      -3.113   5.714 -14.245  1.00  0.00     0.022 A 
BRANCH  76  79
ATOM     79  S   UNL     1      -0.683   4.964 -15.255  1.00  0.00     0.127 S 
ATOM     80  O   UNL     1      -0.667   6.110 -16.161  1.00  0.00    -0.237 OA
ATOM     81  O   UNL     1      -0.210   5.244 -13.899  1.00  0.00    -0.237 OA
ATOM     82  O   UNL     1      -0.198   3.711 -15.816  1.00  0.00    -0.744 OA
ENDBRANCH  76  79
ENDBRANCH  48  72
BRANCH  60  83
ATOM     83  C   UNL     1      -9.907   2.508 -19.405  1.00  0.00     0.023 A 
ATOM     84  C   UNL     1      -9.399   3.198 -20.524  1.00  0.00     0.012 A 
ATOM     85  C   UNL     1     -11.264   2.665 -19.057  1.00  0.00     0.148 A 
ATOM     86  C   UNL     1     -10.216   4.056 -21.260  1.00  0.00     0.002 A 
ATOM     87  C   UNL     1     -12.086   3.479 -19.827  1.00  0.00     0.091 A 
ATOM     88  F   UNL     1     -11.727   2.012 -17.981  1.00  0.00    -0.205 F 
ATOM     89  C   UNL     1     -11.561   4.187 -20.920  1.00  0.00     0.022 A 
BRANCH  87  90
ATOM     90  S   UNL     1     -13.851   3.631 -19.526  1.00  0.00     0.127 S 
ATOM     91  O   UNL     1     -13.952   5.004 -19.035  1.00  0.00    -0.237 OA
ATOM     92  O   UNL     1     -14.412   3.418 -20.860  1.00  0.00    -0.237 OA
ATOM     93  O   UNL     1     -14.186   2.597 -18.556  1.00  0.00    -0.744 OA
ENDBRANCH  87  90
ENDBRANCH  60  83
ENDBRANCH  34  35
ENDBRANCH  27  29
ENDBRANCH  26  27
ENDBRANCH  25  26
ENDBRANCH  24  25
ENDBRANCH  23  24
ENDBRANCH  22  23
ENDBRANCH  21  22
ENDBRANCH   1  21
TORSDOF 26
