REMARK SMILES Cc1cc2nc(S/C(=C\c3ccc(O)cc3)C(=O)OCCOCCOCCOC(=O)c3ccc(-c4c5nc(c(-c6cccc(S(=O)(=O)[O-])c6F)c6ccc([nH]6)c(-c6cccc(S(=O)(=O)[O-])c6F)c6nc(c(-c7cccc(S(=O)(=O)[O-])c7F)c7ccc4[nH]7)C=C6)C=C5)cc3)[nH]c2cc1C
REMARK SMILES IDX 24 1 23 2 22 3 21 4 20 5 19 6 17 7 18 8 8 9 9 10 7 11 6 12
REMARK SMILES IDX 1 13 2 14 3 15 97 16 4 17 96 18 98 19 5 20 95 21 94 22 10 24
REMARK SMILES IDX 11 25 16 26 12 27 15 28 13 29 14 30 25 32 26 33 27 34 28 35
REMARK SMILES IDX 29 36 30 37 31 38 32 39 93 40 33 41 92 42 34 43 35 44 36 45
REMARK SMILES IDX 86 46 37 47 91 48 85 49 87 50 38 51 90 52 84 53 83 54 39 56
REMARK SMILES IDX 71 57 51 58 70 59 52 60 55 61 69 62 88 63 53 64 54 65 68 67
REMARK SMILES IDX 89 68 56 69 40 70 41 71 49 72 42 73 44 74 50 75 43 76 45 77
REMARK SMILES IDX 46 78 47 79 48 80 72 81 73 82 81 83 74 84 76 85 82 86 75 87
REMARK SMILES IDX 77 88 78 89 79 90 80 91 57 92 58 93 66 94 59 95 61 96 67 97
REMARK SMILES IDX 60 98 62 99 63 100 64 101 65 102
REMARK H PARENT 94 23 14 31 87 55 55 66
REMARK Flexibility Score: inf
ROOT
ATOM      1  C   UNL     1      -7.001  -2.085   2.250  1.00  0.00     0.188 C 
ENDROOT
BRANCH   1   2
ATOM      2  C   UNL     1      -7.931  -1.124   1.479  1.00  0.00     0.188 C 
BRANCH   2   3
ATOM      3  O   UNL     1      -9.228  -1.561   1.109  1.00  0.00    -0.376 OA
BRANCH   3   4
ATOM      4  C   UNL     1      -9.383  -2.751   0.350  1.00  0.00     0.202 C 
BRANCH   4   5
ATOM      5  C   UNL     1      -8.449  -3.065  -0.830  1.00  0.00     0.261 C 
BRANCH   5   6
ATOM      6  O   UNL     1      -7.053  -2.899  -0.540  1.00  0.00    -0.459 OA
BRANCH   6   7
ATOM      7  C   UNL     1      -6.349  -2.083  -1.376  1.00  0.00     0.345 C 
ATOM      8  O   UNL     1      -6.769  -1.608  -2.420  1.00  0.00    -0.246 OA
BRANCH   7   9
ATOM      9  C   UNL     1      -4.981  -1.784  -0.806  1.00  0.00     0.101 C 
ATOM     10  C   UNL     1      -4.331  -2.839  -0.273  1.00  0.00     0.031 C 
BRANCH   9  11
ATOM     11  S   UNL     1      -4.593  -0.096  -0.903  1.00  0.00    -0.044 SA
BRANCH  11  12
ATOM     12  C   UNL     1      -2.886   0.095  -0.853  1.00  0.00     0.171 A 
ATOM     13  C   UNL     1       2.667   1.853   0.231  1.00  0.00     0.044 C 
ATOM     14  C   UNL     1       1.485   1.005  -0.160  1.00  0.00    -0.046 A 
ATOM     15  C   UNL     1       0.197   1.567  -0.012  1.00  0.00     0.034 A 
ATOM     16  C   UNL     1       1.627  -0.282  -0.724  1.00  0.00    -0.046 A 
ATOM     17  C   UNL     1      -0.927   0.847  -0.443  1.00  0.00     0.090 A 
ATOM     18  C   UNL     1       0.514  -0.942  -1.282  1.00  0.00     0.032 A 
ATOM     19  C   UNL     1       2.952  -0.999  -0.741  1.00  0.00     0.044 C 
ATOM     20  N   UNL     1      -2.266   1.111  -0.292  1.00  0.00    -0.222 NA
ATOM     21  C   UNL     1      -0.737  -0.349  -1.118  1.00  0.00     0.066 A 
ATOM     22  N   UNL     1      -2.005  -0.733  -1.484  1.00  0.00    -0.333 N 
ATOM     23  H   UNL     1      -2.235  -1.472  -2.092  1.00  0.00     0.169 HD
ENDBRANCH  11  12
ENDBRANCH   9  11
BRANCH  10  24
ATOM     24  C   UNL     1      -3.009  -2.949   0.347  1.00  0.00    -0.024 A 
ATOM     25  C   UNL     1      -2.611  -2.189   1.452  1.00  0.00     0.012 A 
ATOM     26  C   UNL     1      -2.103  -3.851  -0.233  1.00  0.00     0.012 A 
ATOM     27  C   UNL     1      -1.287  -2.246   1.896  1.00  0.00     0.047 A 
ATOM     28  C   UNL     1      -0.788  -3.920   0.220  1.00  0.00     0.047 A 
ATOM     29  C   UNL     1      -0.382  -3.088   1.254  1.00  0.00     0.115 A 
BRANCH  29  30
ATOM     30  O   UNL     1       0.942  -3.077   1.579  1.00  0.00    -0.508 OA
ATOM     31  H   UNL     1       1.250  -2.527   2.272  1.00  0.00     0.293 HD
ENDBRANCH  29  30
ENDBRANCH  10  24
ENDBRANCH   7   9
ENDBRANCH   6   7
ENDBRANCH   5   6
ENDBRANCH   4   5
ENDBRANCH   3   4
ENDBRANCH   2   3
ENDBRANCH   1   2
BRANCH   1  32
ATOM     32  O   UNL     1      -7.464  -3.400   2.436  1.00  0.00    -0.376 OA
BRANCH  32  33
ATOM     33  C   UNL     1      -8.306  -3.708   3.534  1.00  0.00     0.202 C 
BRANCH  33  34
ATOM     34  C   UNL     1      -8.907  -2.705   4.544  1.00  0.00     0.261 C 
BRANCH  34  35
ATOM     35  O   UNL     1      -8.671  -1.310   4.357  1.00  0.00    -0.460 OA
BRANCH  35  36
ATOM     36  C   UNL     1      -7.700  -0.757   5.124  1.00  0.00     0.338 C 
ATOM     37  O   UNL     1      -6.976  -1.334   5.922  1.00  0.00    -0.246 OA
BRANCH  36  38
ATOM     38  C   UNL     1      -7.510   0.642   4.700  1.00  0.00     0.060 A 
ATOM     39  C   UNL     1      -6.327   0.994   4.034  1.00  0.00     0.016 A 
ATOM     40  C   UNL     1      -8.490   1.600   4.960  1.00  0.00     0.016 A 
ATOM     41  C   UNL     1      -6.116   2.314   3.636  1.00  0.00     0.010 A 
ATOM     42  C   UNL     1      -8.264   2.927   4.584  1.00  0.00     0.010 A 
ATOM     43  C   UNL     1      -7.066   3.296   3.944  1.00  0.00    -0.014 A 
BRANCH  43  44
ATOM     44  C   UNL     1      -6.741   4.729   3.748  1.00  0.00     0.031 A 
ATOM     45  C   UNL     1      -6.303   5.538   4.938  1.00  0.00     0.074 A 
ATOM     46  C   UNL     1      -6.847   5.310   2.539  1.00  0.00     0.049 A 
ATOM     47  N   UNL     1      -6.027   6.813   5.019  1.00  0.00    -0.248 NA
ATOM     48  C   UNL     1      -6.163   4.809   6.210  1.00  0.00     0.031 C 
ATOM     49  C   UNL     1      -7.246   4.633   1.307  1.00  0.00     0.029 A 
ATOM     50  N   UNL     1      -6.653   6.616   2.160  1.00  0.00    -0.354 N 
ATOM     51  C   UNL     1      -5.713   7.047   6.353  1.00  0.00     0.074 A 
ATOM     52  C   UNL     1      -5.843   5.785   7.047  1.00  0.00     0.031 C 
ATOM     53  C   UNL     1      -7.301   5.537   0.313  1.00  0.00     0.029 A 
ATOM     54  C   UNL     1      -6.968   6.858   0.844  1.00  0.00     0.049 A 
ATOM     55  H   UNL     1      -6.320   7.311   2.772  1.00  0.00     0.167 HD
ATOM     56  C   UNL     1      -5.340   8.206   6.945  1.00  0.00     0.034 A 
ATOM     57  C   UNL     1      -7.011   8.017   0.157  1.00  0.00     0.034 A 
ATOM     58  C   UNL     1      -5.200   9.458   6.251  1.00  0.00     0.049 A 
ATOM     59  C   UNL     1      -6.627   9.302   0.849  1.00  0.00     0.074 A 
ATOM     60  C   UNL     1      -4.781  10.677   6.755  1.00  0.00     0.029 A 
ATOM     61  N   UNL     1      -5.496   9.659   4.912  1.00  0.00    -0.354 N 
ATOM     62  N   UNL     1      -6.221   9.490   2.082  1.00  0.00    -0.248 NA
ATOM     63  C   UNL     1      -6.678  10.532   0.043  1.00  0.00     0.031 C 
ATOM     64  C   UNL     1      -4.863  11.624   5.729  1.00  0.00     0.029 A 
ATOM     65  C   UNL     1      -5.289  10.986   4.575  1.00  0.00     0.049 A 
ATOM     66  H   UNL     1      -5.807   8.961   4.291  1.00  0.00     0.167 HD
ATOM     67  C   UNL     1      -5.934  10.847   2.188  1.00  0.00     0.074 A 
ATOM     68  C   UNL     1      -6.193  11.431   0.889  1.00  0.00     0.031 C 
ATOM     69  C   UNL     1      -5.505  11.549   3.267  1.00  0.00     0.034 A 
BRANCH  56  70
ATOM     70  C   UNL     1      -5.048   8.172   8.422  1.00  0.00     0.023 A 
ATOM     71  C   UNL     1      -3.887   7.527   8.895  1.00  0.00     0.012 A 
ATOM     72  C   UNL     1      -5.898   8.824   9.338  1.00  0.00     0.148 A 
ATOM     73  C   UNL     1      -3.595   7.498  10.258  1.00  0.00     0.002 A 
ATOM     74  C   UNL     1      -5.575   8.833  10.689  1.00  0.00     0.091 A 
ATOM     75  F   UNL     1      -7.008   9.414   8.872  1.00  0.00    -0.205 F 
ATOM     76  C   UNL     1      -4.433   8.160  11.152  1.00  0.00     0.022 A 
BRANCH  74  77
ATOM     77  S   UNL     1      -6.543   9.724  11.911  1.00  0.00     0.127 S 
ATOM     78  O   UNL     1      -7.124   8.627  12.684  1.00  0.00    -0.237 OA
ATOM     79  O   UNL     1      -5.515  10.489  12.617  1.00  0.00    -0.237 OA
ATOM     80  O   UNL     1      -7.496  10.530  11.162  1.00  0.00    -0.744 OA
ENDBRANCH  74  77
ENDBRANCH  56  70
BRANCH  57  81
ATOM     81  C   UNL     1      -7.418   8.022  -1.278  1.00  0.00     0.023 A 
ATOM     82  C   UNL     1      -6.470   8.338  -2.270  1.00  0.00     0.012 A 
ATOM     83  C   UNL     1      -8.739   7.719  -1.663  1.00  0.00     0.148 A 
ATOM     84  C   UNL     1      -6.837   8.387  -3.615  1.00  0.00     0.002 A 
ATOM     85  C   UNL     1      -9.085   7.715  -3.009  1.00  0.00     0.091 A 
ATOM     86  F   UNL     1      -9.631   7.437  -0.702  1.00  0.00    -0.205 F 
ATOM     87  C   UNL     1      -8.141   8.067  -3.985  1.00  0.00     0.022 A 
BRANCH  85  88
ATOM     88  S   UNL     1     -10.708   7.209  -3.589  1.00  0.00     0.127 S 
ATOM     89  O   UNL     1     -11.242   8.463  -4.115  1.00  0.00    -0.237 OA
ATOM     90  O   UNL     1     -10.366   6.212  -4.604  1.00  0.00    -0.237 OA
ATOM     91  O   UNL     1     -11.397   6.672  -2.424  1.00  0.00    -0.744 OA
ENDBRANCH  85  88
ENDBRANCH  57  81
BRANCH  69  92
ATOM     92  C   UNL     1      -5.244  13.025   3.090  1.00  0.00     0.023 A 
ATOM     93  C   UNL     1      -6.321  13.916   2.916  1.00  0.00     0.012 A 
ATOM     94  C   UNL     1      -3.933  13.536   3.172  1.00  0.00     0.148 A 
ATOM     95  C   UNL     1      -6.095  15.287   2.789  1.00  0.00     0.002 A 
ATOM     96  C   UNL     1      -3.719  14.908   3.099  1.00  0.00     0.091 A 
ATOM     97  F   UNL     1      -2.918  12.672   3.325  1.00  0.00    -0.205 F 
ATOM     98  C   UNL     1      -4.797  15.783   2.893  1.00  0.00     0.022 A 
BRANCH  96  99
ATOM     99  S   UNL     1      -2.097  15.647   3.320  1.00  0.00     0.127 S 
ATOM    100  O   UNL     1      -1.804  16.131   1.972  1.00  0.00    -0.237 OA
ATOM    101  O   UNL     1      -2.368  16.700   4.300  1.00  0.00    -0.237 OA
ATOM    102  O   UNL     1      -1.229  14.581   3.801  1.00  0.00    -0.744 OA
ENDBRANCH  96  99
ENDBRANCH  69  92
ENDBRANCH  43  44
ENDBRANCH  36  38
ENDBRANCH  35  36
ENDBRANCH  34  35
ENDBRANCH  33  34
ENDBRANCH  32  33
ENDBRANCH   1  32
TORSDOF 24
