REMARK SMILES CC[NH+]1CCC(CC(=O)N[C@H](C(=O)OCCOCCOCCOC(=O)c2ccc(-c3c4nc(c(-c5cccc(S(=O)(=O)[O-])c5F)c5ccc([nH]5)c(-c5cccc(S(=O)(=O)[O-])c5F)c5nc(c(-c6cccc(S(=O)(=O)[O-])c6F)c6ccc3[nH]6)C=C5)C=C4)cc2)c2ccc(F)cc2F)CC1
REMARK SMILES IDX 18 1 17 2 16 3 15 4 14 5 12 6 13 7 11 8 10 9 8 10 9 11 7 13
REMARK SMILES IDX 6 14 3 15 4 16 98 17 5 19 97 20 2 21 1 22 89 23 90 24 95 25
REMARK SMILES IDX 91 26 94 27 96 28 92 29 93 30 19 31 20 32 21 33 22 34 23 35
REMARK SMILES IDX 24 36 25 37 26 38 27 39 88 40 28 41 87 42 29 43 30 44 31 45
REMARK SMILES IDX 81 46 32 47 86 48 80 49 82 50 33 51 85 52 79 53 78 54 34 56
REMARK SMILES IDX 66 57 46 58 65 59 47 60 50 61 64 62 83 63 48 64 49 65 63 67
REMARK SMILES IDX 84 68 51 69 35 70 36 71 44 72 37 73 39 74 45 75 38 76 40 77
REMARK SMILES IDX 41 78 42 79 43 80 67 81 68 82 76 83 69 84 71 85 77 86 70 87
REMARK SMILES IDX 72 88 73 89 74 90 75 91 52 92 53 93 61 94 54 95 56 96 62 97
REMARK SMILES IDX 55 98 57 99 58 100 59 101 60 102
REMARK H PARENT 10 12 3 18 82 55 50 66
REMARK Flexibility Score: inf
ROOT
ATOM      1  C   UNL     1      -1.050  -6.228  -5.707  1.00  0.00     0.188 C 
ENDROOT
BRANCH   1   2
ATOM      2  O   UNL     1      -1.374  -6.022  -7.078  1.00  0.00    -0.376 OA
BRANCH   2   3
ATOM      3  C   UNL     1      -0.312  -5.734  -7.989  1.00  0.00     0.202 C 
BRANCH   3   4
ATOM      4  C   UNL     1       0.584  -4.512  -7.705  1.00  0.00     0.261 C 
BRANCH   4   5
ATOM      5  O   UNL     1       1.501  -4.638  -6.581  1.00  0.00    -0.461 OA
BRANCH   5   6
ATOM      6  C   UNL     1       1.167  -3.881  -5.512  1.00  0.00     0.333 C 
ATOM      7  O   UNL     1       0.182  -3.142  -5.536  1.00  0.00    -0.249 OA
BRANCH   6   8
ATOM      8  C   UNL     1       2.099  -3.869  -4.296  1.00  0.00     0.226 C 
BRANCH   8   9
ATOM      9  N   UNL     1       1.335  -3.785  -3.027  1.00  0.00    -0.339 N 
ATOM     10  C   UNL     1       0.596  -2.812  -2.410  1.00  0.00     0.221 C 
ATOM     11  O   UNL     1       0.245  -3.080  -1.254  1.00  0.00    -0.275 OA
ATOM     12  H   UNL     1       1.367  -4.622  -2.510  1.00  0.00     0.164 HD
BRANCH  10  13
ATOM     13  C   UNL     1       0.153  -1.466  -3.029  1.00  0.00     0.104 C 
BRANCH  13  14
ATOM     14  C   UNL     1       1.175  -0.298  -3.070  1.00  0.00     0.009 C 
ATOM     15  N   UNL     1       3.075   0.986  -4.956  1.00  0.00    -0.335 N 
ATOM     16  C   UNL     1       3.580   0.155  -3.867  1.00  0.00     0.262 C 
ATOM     17  C   UNL     1       1.929   1.765  -4.455  1.00  0.00     0.262 C 
ATOM     18  H   UNL     1       2.733   0.412  -5.726  1.00  0.00     0.348 HD
ATOM     19  C   UNL     1       2.491  -0.830  -3.560  1.00  0.00     0.066 C 
ATOM     20  C   UNL     1       0.752   0.845  -4.026  1.00  0.00     0.066 C 
BRANCH  15  21
ATOM     21  C   UNL     1       4.145   1.780  -5.559  1.00  0.00     0.258 C 
ATOM     22  C   UNL     1       5.170   0.902  -6.294  1.00  0.00     0.071 C 
ENDBRANCH  15  21
ENDBRANCH  13  14
ENDBRANCH  10  13
ENDBRANCH   8   9
BRANCH   8  23
ATOM     23  C   UNL     1       3.379  -4.687  -4.120  1.00  0.00     0.022 A 
ATOM     24  C   UNL     1       3.441  -6.077  -4.097  1.00  0.00     0.012 A 
ATOM     25  C   UNL     1       4.583  -4.010  -3.802  1.00  0.00     0.131 A 
ATOM     26  C   UNL     1       4.653  -6.744  -3.831  1.00  0.00     0.040 A 
ATOM     27  C   UNL     1       5.780  -4.656  -3.509  1.00  0.00     0.078 A 
ATOM     28  F   UNL     1       4.612  -2.675  -3.746  1.00  0.00    -0.206 F 
ATOM     29  C   UNL     1       5.808  -6.030  -3.539  1.00  0.00     0.126 A 
ATOM     30  F   UNL     1       6.952  -6.674  -3.272  1.00  0.00    -0.207 F 
ENDBRANCH   8  23
ENDBRANCH   6   8
ENDBRANCH   5   6
ENDBRANCH   4   5
ENDBRANCH   3   4
ENDBRANCH   2   3
ENDBRANCH   1   2
BRANCH   1  31
ATOM     31  C   UNL     1      -0.027  -7.333  -5.425  1.00  0.00     0.188 C 
BRANCH  31  32
ATOM     32  O   UNL     1       1.133  -7.193  -6.229  1.00  0.00    -0.376 OA
BRANCH  32  33
ATOM     33  C   UNL     1       2.003  -8.286  -6.494  1.00  0.00     0.202 C 
BRANCH  33  34
ATOM     34  C   UNL     1       1.472  -9.713  -6.352  1.00  0.00     0.261 C 
BRANCH  34  35
ATOM     35  O   UNL     1       0.929 -10.010  -5.055  1.00  0.00    -0.460 OA
BRANCH  35  36
ATOM     36  C   UNL     1       1.688  -9.728  -3.973  1.00  0.00     0.338 C 
ATOM     37  O   UNL     1       2.889  -9.515  -3.961  1.00  0.00    -0.246 OA
BRANCH  36  38
ATOM     38  C   UNL     1       0.775  -9.471  -2.835  1.00  0.00     0.060 A 
ATOM     39  C   UNL     1       1.087  -8.436  -1.941  1.00  0.00     0.016 A 
ATOM     40  C   UNL     1      -0.417 -10.187  -2.693  1.00  0.00     0.016 A 
ATOM     41  C   UNL     1       0.226  -8.143  -0.881  1.00  0.00     0.010 A 
ATOM     42  C   UNL     1      -1.272  -9.900  -1.629  1.00  0.00     0.010 A 
ATOM     43  C   UNL     1      -0.935  -8.904  -0.697  1.00  0.00    -0.014 A 
BRANCH  43  44
ATOM     44  C   UNL     1      -1.687  -8.822   0.578  1.00  0.00     0.031 A 
ATOM     45  C   UNL     1      -1.424  -9.877   1.618  1.00  0.00     0.074 A 
ATOM     46  C   UNL     1      -2.607  -7.865   0.799  1.00  0.00     0.049 A 
ATOM     47  N   UNL     1      -2.001 -10.062   2.775  1.00  0.00    -0.248 NA
ATOM     48  C   UNL     1      -0.374 -10.864   1.306  1.00  0.00     0.031 C 
ATOM     49  C   UNL     1      -2.956  -6.788  -0.125  1.00  0.00     0.029 A 
ATOM     50  N   UNL     1      -3.442  -7.673   1.873  1.00  0.00    -0.354 N 
ATOM     51  C   UNL     1      -1.417 -11.204   3.309  1.00  0.00     0.074 A 
ATOM     52  C   UNL     1      -0.439 -11.672   2.353  1.00  0.00     0.031 C 
ATOM     53  C   UNL     1      -3.964  -6.071   0.404  1.00  0.00     0.029 A 
ATOM     54  C   UNL     1      -4.345  -6.651   1.692  1.00  0.00     0.049 A 
ATOM     55  H   UNL     1      -3.399  -8.214   2.694  1.00  0.00     0.167 HD
ATOM     56  C   UNL     1      -1.665 -11.804   4.494  1.00  0.00     0.034 A 
ATOM     57  C   UNL     1      -5.375  -6.251   2.465  1.00  0.00     0.034 A 
ATOM     58  C   UNL     1      -2.606 -11.320   5.464  1.00  0.00     0.049 A 
ATOM     59  C   UNL     1      -5.626  -6.944   3.783  1.00  0.00     0.074 A 
ATOM     60  C   UNL     1      -2.864 -11.819   6.728  1.00  0.00     0.029 A 
ATOM     61  N   UNL     1      -3.453 -10.242   5.275  1.00  0.00    -0.354 N 
ATOM     62  N   UNL     1      -4.963  -7.927   4.342  1.00  0.00    -0.248 NA
ATOM     63  C   UNL     1      -6.749  -6.447   4.594  1.00  0.00     0.031 C 
ATOM     64  C   UNL     1      -3.896 -11.064   7.291  1.00  0.00     0.029 A 
ATOM     65  C   UNL     1      -4.252 -10.073   6.391  1.00  0.00     0.049 A 
ATOM     66  H   UNL     1      -3.482  -9.681   4.467  1.00  0.00     0.167 HD
ATOM     67  C   UNL     1      -5.560  -8.136   5.582  1.00  0.00     0.074 A 
ATOM     68  C   UNL     1      -6.625  -7.165   5.703  1.00  0.00     0.031 C 
ATOM     69  C   UNL     1      -5.264  -9.059   6.530  1.00  0.00     0.034 A 
BRANCH  56  70
ATOM     70  C   UNL     1      -0.896 -13.052   4.827  1.00  0.00     0.023 A 
ATOM     71  C   UNL     1       0.455 -12.962   5.216  1.00  0.00     0.012 A 
ATOM     72  C   UNL     1      -1.545 -14.302   4.845  1.00  0.00     0.148 A 
ATOM     73  C   UNL     1       1.154 -14.103   5.606  1.00  0.00     0.002 A 
ATOM     74  C   UNL     1      -0.855 -15.426   5.277  1.00  0.00     0.091 A 
ATOM     75  F   UNL     1      -2.823 -14.363   4.444  1.00  0.00    -0.205 F 
ATOM     76  C   UNL     1       0.496 -15.330   5.650  1.00  0.00     0.022 A 
BRANCH  74  77
ATOM     77  S   UNL     1      -1.634 -17.035   5.446  1.00  0.00     0.127 S 
ATOM     78  O   UNL     1      -0.941 -17.807   4.415  1.00  0.00    -0.237 OA
ATOM     79  O   UNL     1      -1.286 -17.399   6.819  1.00  0.00    -0.237 OA
ATOM     80  O   UNL     1      -3.055 -16.823   5.211  1.00  0.00    -0.744 OA
ENDBRANCH  74  77
ENDBRANCH  56  70
BRANCH  57  81
ATOM     81  C   UNL     1      -6.256  -5.129   2.029  1.00  0.00     0.023 A 
ATOM     82  C   UNL     1      -6.258  -3.920   2.752  1.00  0.00     0.012 A 
ATOM     83  C   UNL     1      -7.121  -5.268   0.926  1.00  0.00     0.148 A 
ATOM     84  C   UNL     1      -7.138  -2.890   2.415  1.00  0.00     0.002 A 
ATOM     85  C   UNL     1      -7.954  -4.218   0.561  1.00  0.00     0.091 A 
ATOM     86  F   UNL     1      -7.125  -6.434   0.264  1.00  0.00    -0.205 F 
ATOM     87  C   UNL     1      -7.980  -3.035   1.315  1.00  0.00     0.022 A 
BRANCH  85  88
ATOM     88  S   UNL     1      -8.984  -4.281  -0.910  1.00  0.00     0.127 S 
ATOM     89  O   UNL     1     -10.310  -4.497  -0.339  1.00  0.00    -0.237 OA
ATOM     90  O   UNL     1      -8.772  -2.954  -1.489  1.00  0.00    -0.237 OA
ATOM     91  O   UNL     1      -8.449  -5.374  -1.711  1.00  0.00    -0.744 OA
ENDBRANCH  85  88
ENDBRANCH  57  81
BRANCH  69  92
ATOM     92  C   UNL     1      -6.058  -9.043   7.811  1.00  0.00     0.023 A 
ATOM     93  C   UNL     1      -7.396  -9.482   7.815  1.00  0.00     0.012 A 
ATOM     94  C   UNL     1      -5.446  -8.682   9.029  1.00  0.00     0.148 A 
ATOM     95  C   UNL     1      -8.123  -9.530   9.004  1.00  0.00     0.002 A 
ATOM     96  C   UNL     1      -6.160  -8.782  10.217  1.00  0.00     0.091 A 
ATOM     97  F   UNL     1      -4.175  -8.254   9.004  1.00  0.00    -0.205 F 
ATOM     98  C   UNL     1      -7.503  -9.193  10.205  1.00  0.00     0.022 A 
BRANCH  96  99
ATOM     99  S   UNL     1      -5.411  -8.467  11.819  1.00  0.00     0.127 S 
ATOM    100  O   UNL     1      -6.019  -7.190  12.188  1.00  0.00    -0.237 OA
ATOM    101  O   UNL     1      -5.872  -9.611  12.608  1.00  0.00    -0.237 OA
ATOM    102  O   UNL     1      -3.973  -8.433  11.591  1.00  0.00    -0.744 OA
ENDBRANCH  96  99
ENDBRANCH  69  92
ENDBRANCH  43  44
ENDBRANCH  36  38
ENDBRANCH  35  36
ENDBRANCH  34  35
ENDBRANCH  33  34
ENDBRANCH  32  33
ENDBRANCH  31  32
ENDBRANCH   1  31
TORSDOF 25
