REMARK SMILES CCC[NH+]1CCC([NH2+]CC(C)(C)C(=O)OCCOCCOCCOC(=O)c2ccc(-c3c4nc(c(-c5cccc(S(=O)(=O)[O-])c5F)c5ccc([nH]5)c(-c5cccc(S(=O)(=O)[O-])c5F)c5nc(c(-c6cccc(S(=O)(=O)[O-])c6F)c6ccc3[nH]6)C=C5)C=C4)cc2)CC1
REMARK SMILES IDX 19 1 18 2 17 3 16 4 15 5 13 6 14 7 10 8 11 9 12 10 9 11 8 12
REMARK SMILES IDX 7 15 4 16 5 17 91 18 6 20 90 21 3 22 2 23 1 24 20 25 21 26
REMARK SMILES IDX 22 27 23 28 24 29 25 30 26 31 27 32 28 33 89 34 29 35 88 36
REMARK SMILES IDX 30 37 31 38 32 39 82 40 33 41 87 42 81 43 83 44 34 45 86 46
REMARK SMILES IDX 80 47 79 48 35 50 67 51 47 52 66 53 48 54 51 55 65 56 84 57
REMARK SMILES IDX 49 58 50 59 64 61 85 62 52 63 36 64 37 65 45 66 38 67 40 68
REMARK SMILES IDX 46 69 39 70 41 71 42 72 43 73 44 74 68 75 69 76 77 77 70 78
REMARK SMILES IDX 72 79 78 80 71 81 73 82 74 83 75 84 76 85 53 86 54 87 62 88
REMARK SMILES IDX 55 89 57 90 63 91 56 92 58 93 59 94 60 95 61 96
REMARK H PARENT 8 13 8 14 4 19 83 49 51 60
REMARK Flexibility Score: inf
ROOT
ATOM      1  C   UNL     1       4.371  -3.969  -2.163  1.00  0.00     0.188 C 
ENDROOT
BRANCH   1   2
ATOM      2  O   UNL     1       4.451  -2.961  -1.164  1.00  0.00    -0.376 OA
BRANCH   2   3
ATOM      3  C   UNL     1       3.223  -2.452  -0.676  1.00  0.00     0.202 C 
BRANCH   3   4
ATOM      4  C   UNL     1       2.466  -3.295   0.375  1.00  0.00     0.261 C 
BRANCH   4   5
ATOM      5  O   UNL     1       1.462  -4.317   0.066  1.00  0.00    -0.463 OA
BRANCH   5   6
ATOM      6  C   UNL     1       1.141  -4.691  -1.190  1.00  0.00     0.317 C 
ATOM      7  O   UNL     1       1.699  -4.234  -2.171  1.00  0.00    -0.251 OA
BRANCH   6   8
ATOM      8  C   UNL     1       0.068  -5.777  -1.314  1.00  0.00     0.111 C 
ATOM      9  C   UNL     1      -1.092  -5.627  -0.320  1.00  0.00     0.029 C 
ATOM     10  C   UNL     1       0.793  -7.103  -0.976  1.00  0.00     0.029 C 
BRANCH   8  11
ATOM     11  C   UNL     1      -0.451  -5.843  -2.814  1.00  0.00     0.279 C 
BRANCH  11  12
ATOM     12  N   UNL     1      -1.289  -4.783  -3.459  1.00  0.00    -0.343 N 
ATOM     13  H   UNL     1      -1.535  -5.097  -4.397  1.00  0.00     0.346 HD
ATOM     14  H   UNL     1      -2.103  -4.649  -2.858  1.00  0.00     0.346 HD
BRANCH  12  15
ATOM     15  C   UNL     1      -0.629  -3.469  -3.571  1.00  0.00     0.193 C 
ATOM     16  N   UNL     1      -0.305  -0.550  -3.084  1.00  0.00    -0.335 N 
ATOM     17  C   UNL     1      -0.300  -1.072  -4.488  1.00  0.00     0.268 C 
ATOM     18  C   UNL     1       0.196  -1.619  -2.249  1.00  0.00     0.268 C 
ATOM     19  H   UNL     1      -1.256  -0.264  -2.850  1.00  0.00     0.348 HD
ATOM     20  C   UNL     1      -1.066  -2.447  -4.655  1.00  0.00     0.126 C 
ATOM     21  C   UNL     1      -0.822  -2.719  -2.263  1.00  0.00     0.126 C 
BRANCH  16  22
ATOM     22  C   UNL     1       0.534   0.645  -2.887  1.00  0.00     0.261 C 
BRANCH  22  23
ATOM     23  C   UNL     1       0.243   1.399  -1.558  1.00  0.00     0.058 C 
ATOM     24  C   UNL     1       0.750   0.793  -0.247  1.00  0.00     0.010 C 
ENDBRANCH  22  23
ENDBRANCH  16  22
ENDBRANCH  12  15
ENDBRANCH  11  12
ENDBRANCH   8  11
ENDBRANCH   6   8
ENDBRANCH   5   6
ENDBRANCH   4   5
ENDBRANCH   3   4
ENDBRANCH   2   3
ENDBRANCH   1   2
BRANCH   1  25
ATOM     25  C   UNL     1       4.250  -5.375  -1.551  1.00  0.00     0.188 C 
BRANCH  25  26
ATOM     26  O   UNL     1       4.993  -5.672  -0.375  1.00  0.00    -0.376 OA
BRANCH  26  27
ATOM     27  C   UNL     1       6.260  -5.055  -0.250  1.00  0.00     0.202 C 
BRANCH  27  28
ATOM     28  C   UNL     1       7.332  -5.394  -1.302  1.00  0.00     0.261 C 
BRANCH  28  29
ATOM     29  O   UNL     1       6.898  -5.455  -2.678  1.00  0.00    -0.460 OA
BRANCH  29  30
ATOM     30  C   UNL     1       6.605  -6.684  -3.174  1.00  0.00     0.338 C 
ATOM     31  O   UNL     1       6.735  -7.751  -2.584  1.00  0.00    -0.246 OA
BRANCH  30  32
ATOM     32  C   UNL     1       5.896  -6.567  -4.479  1.00  0.00     0.060 A 
ATOM     33  C   UNL     1       4.623  -7.153  -4.621  1.00  0.00     0.016 A 
ATOM     34  C   UNL     1       6.491  -5.947  -5.576  1.00  0.00     0.016 A 
ATOM     35  C   UNL     1       3.960  -7.147  -5.852  1.00  0.00     0.010 A 
ATOM     36  C   UNL     1       5.844  -5.979  -6.821  1.00  0.00     0.010 A 
ATOM     37  C   UNL     1       4.593  -6.610  -6.977  1.00  0.00    -0.014 A 
BRANCH  37  38
ATOM     38  C   UNL     1       4.080  -6.900  -8.344  1.00  0.00     0.031 A 
ATOM     39  C   UNL     1       4.749  -7.996  -9.134  1.00  0.00     0.074 A 
ATOM     40  C   UNL     1       3.077  -6.198  -8.903  1.00  0.00     0.049 A 
ATOM     41  N   UNL     1       4.604  -8.328 -10.390  1.00  0.00    -0.248 NA
ATOM     42  C   UNL     1       5.723  -8.825  -8.402  1.00  0.00     0.031 C 
ATOM     43  C   UNL     1       2.307  -5.146  -8.246  1.00  0.00     0.029 A 
ATOM     44  N   UNL     1       2.567  -6.243 -10.181  1.00  0.00    -0.354 N 
ATOM     45  C   UNL     1       5.504  -9.363 -10.614  1.00  0.00     0.074 A 
ATOM     46  C   UNL     1       6.186  -9.610  -9.363  1.00  0.00     0.031 C 
ATOM     47  C   UNL     1       1.458  -4.606  -9.139  1.00  0.00     0.029 A 
ATOM     48  C   UNL     1       1.652  -5.248 -10.440  1.00  0.00     0.049 A 
ATOM     49  H   UNL     1       2.830  -6.921 -10.844  1.00  0.00     0.167 HD
ATOM     50  C   UNL     1       5.743 -10.050 -11.757  1.00  0.00     0.034 A 
ATOM     51  C   UNL     1       1.074  -4.869 -11.600  1.00  0.00     0.034 A 
ATOM     52  C   UNL     1       5.053  -9.823 -12.997  1.00  0.00     0.049 A 
ATOM     53  C   UNL     1       1.390  -5.618 -12.873  1.00  0.00     0.074 A 
ATOM     54  C   UNL     1       5.194 -10.502 -14.195  1.00  0.00     0.029 A 
ATOM     55  N   UNL     1       4.104  -8.835 -13.206  1.00  0.00    -0.354 N 
ATOM     56  N   UNL     1       2.177  -6.651 -13.053  1.00  0.00    -0.248 NA
ATOM     57  C   UNL     1       0.716  -5.163 -14.101  1.00  0.00     0.031 C 
ATOM     58  C   UNL     1       4.362  -9.896 -15.141  1.00  0.00     0.029 A 
ATOM     59  C   UNL     1       3.666  -8.873 -14.519  1.00  0.00     0.049 A 
ATOM     60  H   UNL     1       3.789  -8.201 -12.523  1.00  0.00     0.167 HD
ATOM     61  C   UNL     1       2.059  -6.995 -14.398  1.00  0.00     0.074 A 
ATOM     62  C   UNL     1       1.116  -6.067 -14.985  1.00  0.00     0.031 C 
ATOM     63  C   UNL     1       2.683  -7.984 -15.084  1.00  0.00     0.034 A 
BRANCH  50  64
ATOM     64  C   UNL     1       6.804 -11.120 -11.722  1.00  0.00     0.023 A 
ATOM     65  C   UNL     1       6.569 -12.325 -11.029  1.00  0.00     0.012 A 
ATOM     66  C   UNL     1       8.013 -10.952 -12.426  1.00  0.00     0.148 A 
ATOM     67  C   UNL     1       7.535 -13.330 -11.007  1.00  0.00     0.002 A 
ATOM     68  C   UNL     1       8.950 -11.978 -12.441  1.00  0.00     0.091 A 
ATOM     69  F   UNL     1       8.226  -9.792 -13.063  1.00  0.00    -0.205 F 
ATOM     70  C   UNL     1       8.718 -13.162 -11.722  1.00  0.00     0.022 A 
BRANCH  68  71
ATOM     71  S   UNL     1      10.467 -11.892 -13.398  1.00  0.00     0.127 S 
ATOM     72  O   UNL     1      11.476 -11.807 -12.344  1.00  0.00    -0.237 OA
ATOM     73  O   UNL     1      10.445 -13.164 -14.121  1.00  0.00    -0.237 OA
ATOM     74  O   UNL     1      10.346 -10.711 -14.241  1.00  0.00    -0.744 OA
ENDBRANCH  68  71
ENDBRANCH  50  64
BRANCH  51  75
ATOM     75  C   UNL     1       0.127  -3.716 -11.622  1.00  0.00     0.023 A 
ATOM     76  C   UNL     1      -1.237  -3.940 -11.894  1.00  0.00     0.012 A 
ATOM     77  C   UNL     1       0.570  -2.401 -11.382  1.00  0.00     0.148 A 
ATOM     78  C   UNL     1      -2.135  -2.874 -11.959  1.00  0.00     0.002 A 
ATOM     79  C   UNL     1      -0.339  -1.350 -11.390  1.00  0.00     0.091 A 
ATOM     80  F   UNL     1       1.875  -2.204 -11.146  1.00  0.00    -0.205 F 
ATOM     81  C   UNL     1      -1.689  -1.581 -11.698  1.00  0.00     0.022 A 
BRANCH  79  82
ATOM     82  S   UNL     1       0.118   0.330 -10.946  1.00  0.00     0.127 S 
ATOM     83  O   UNL     1      -0.061   1.034 -12.213  1.00  0.00    -0.237 OA
ATOM     84  O   UNL     1      -0.873   0.647  -9.918  1.00  0.00    -0.237 OA
ATOM     85  O   UNL     1       1.489   0.251 -10.459  1.00  0.00    -0.744 OA
ENDBRANCH  79  82
ENDBRANCH  51  75
BRANCH  63  86
ATOM     86  C   UNL     1       2.334  -8.173 -16.540  1.00  0.00     0.023 A 
ATOM     87  C   UNL     1       2.776  -7.245 -17.503  1.00  0.00     0.012 A 
ATOM     88  C   UNL     1       1.645  -9.329 -16.962  1.00  0.00     0.148 A 
ATOM     89  C   UNL     1       2.513  -7.449 -18.858  1.00  0.00     0.002 A 
ATOM     90  C   UNL     1       1.432  -9.552 -18.318  1.00  0.00     0.091 A 
ATOM     91  F   UNL     1       1.220 -10.195 -16.031  1.00  0.00    -0.205 F 
ATOM     92  C   UNL     1       1.854  -8.607 -19.266  1.00  0.00     0.022 A 
BRANCH  90  93
ATOM     93  S   UNL     1       0.682 -11.060 -18.945  1.00  0.00     0.127 S 
ATOM     94  O   UNL     1      -0.595 -10.566 -19.459  1.00  0.00    -0.237 OA
ATOM     95  O   UNL     1       1.635 -11.473 -19.975  1.00  0.00    -0.237 OA
ATOM     96  O   UNL     1       0.585 -11.966 -17.809  1.00  0.00    -0.744 OA
ENDBRANCH  90  93
ENDBRANCH  63  86
ENDBRANCH  37  38
ENDBRANCH  30  32
ENDBRANCH  29  30
ENDBRANCH  28  29
ENDBRANCH  27  28
ENDBRANCH  26  27
ENDBRANCH  25  26
ENDBRANCH   1  25
TORSDOF 25
