REMARK SMILES Cc1c(CC(=O)OCCOCCOCCOC(=O)c2ccc(-c3c4nc(c(-c5cccc(S(=O)(=O)[O-])c5F)c5ccc([nH]5)c(-c5cccc(S(=O)(=O)[O-])c5F)c5nc(c(-c6cccc(S(=O)(=O)[O-])c6F)c6ccc3[nH]6)C=C5)C=C4)cc2)c2ccccc2n1C(=O)c1ccc(Cl)cc1
REMARK SMILES IDX 11 1 10 2 9 3 8 4 7 5 5 6 6 7 4 8 3 9 1 10 2 11 88 12 82 13
REMARK SMILES IDX 87 14 83 15 86 16 84 17 85 18 89 19 90 20 91 21 92 22 97 23
REMARK SMILES IDX 93 24 96 25 94 26 95 27 12 28 13 29 14 30 15 31 16 32 17 33
REMARK SMILES IDX 18 34 19 35 20 36 81 37 21 38 80 39 22 40 23 41 24 42 74 43
REMARK SMILES IDX 25 44 79 45 73 46 75 47 26 48 78 49 72 50 71 51 27 53 59 54
REMARK SMILES IDX 39 55 58 56 40 57 43 58 57 59 76 60 41 61 42 62 56 64 77 65
REMARK SMILES IDX 44 66 28 67 29 68 37 69 30 70 32 71 38 72 31 73 33 74 34 75
REMARK SMILES IDX 35 76 36 77 60 78 61 79 69 80 62 81 64 82 70 83 63 84 65 85
REMARK SMILES IDX 66 86 67 87 68 88 45 89 46 90 54 91 47 92 49 93 55 94 48 95
REMARK SMILES IDX 50 96 51 97 52 98 53 99
REMARK H PARENT 75 52 43 63
REMARK Flexibility Score: inf
ROOT
ATOM      1  C   UNL     1       2.784  -4.183   4.031  1.00  0.00     0.188 C 
ENDROOT
BRANCH   1   2
ATOM      2  O   UNL     1       4.159  -4.512   4.031  1.00  0.00    -0.376 OA
BRANCH   2   3
ATOM      3  C   UNL     1       5.054  -3.559   3.478  1.00  0.00     0.202 C 
BRANCH   3   4
ATOM      4  C   UNL     1       4.680  -2.992   2.101  1.00  0.00     0.261 C 
BRANCH   4   5
ATOM      5  O   UNL     1       3.565  -2.073   2.199  1.00  0.00    -0.463 OA
BRANCH   5   6
ATOM      6  C   UNL     1       2.760  -2.003   1.102  1.00  0.00     0.310 C 
ATOM      7  O   UNL     1       3.114  -2.427   0.005  1.00  0.00    -0.252 OA
BRANCH   6   8
ATOM      8  C   UNL     1       1.315  -1.641   1.417  1.00  0.00     0.160 C 
BRANCH   8   9
ATOM      9  C   UNL     1       0.902  -0.308   1.956  1.00  0.00    -0.008 A 
ATOM     10  C   UNL     1       1.216   1.053  -0.220  1.00  0.00     0.065 C 
ATOM     11  C   UNL     1       0.862   0.866   1.220  1.00  0.00     0.028 A 
ATOM     12  N   UNL     1       0.322   1.869   2.019  1.00  0.00    -0.280 N 
ATOM     13  C   UNL     1       0.107  -0.063   3.126  1.00  0.00     0.004 A 
ATOM     14  C   UNL     1      -0.369   1.242   3.063  1.00  0.00     0.056 A 
ATOM     15  C   UNL     1      -0.373  -0.861   4.182  1.00  0.00     0.010 A 
ATOM     16  C   UNL     1      -1.357   1.692   3.974  1.00  0.00     0.027 A 
ATOM     17  C   UNL     1      -1.264  -0.389   5.148  1.00  0.00     0.001 A 
ATOM     18  C   UNL     1      -1.776   0.881   5.026  1.00  0.00     0.002 A 
BRANCH  12  19
ATOM     19  C   UNL     1       0.492   3.268   1.867  1.00  0.00     0.262 C 
ATOM     20  O   UNL     1       1.209   3.709   0.976  1.00  0.00    -0.268 OA
BRANCH  19  21
ATOM     21  C   UNL     1      -0.035   4.222   2.856  1.00  0.00     0.040 A 
ATOM     22  C   UNL     1       0.602   4.305   4.101  1.00  0.00     0.015 A 
ATOM     23  C   UNL     1      -1.268   4.838   2.624  1.00  0.00     0.015 A 
ATOM     24  C   UNL     1      -0.033   4.969   5.148  1.00  0.00     0.021 A 
ATOM     25  C   UNL     1      -1.899   5.499   3.681  1.00  0.00     0.021 A 
ATOM     26  C   UNL     1      -1.286   5.549   4.938  1.00  0.00     0.041 A 
ATOM     27  Cl  UNL     1      -2.108   6.284   6.260  1.00  0.00    -0.084 Cl
ENDBRANCH  19  21
ENDBRANCH  12  19
ENDBRANCH   8   9
ENDBRANCH   6   8
ENDBRANCH   5   6
ENDBRANCH   4   5
ENDBRANCH   3   4
ENDBRANCH   2   3
ENDBRANCH   1   2
BRANCH   1  28
ATOM     28  C   UNL     1       2.342  -2.834   4.618  1.00  0.00     0.188 C 
BRANCH  28  29
ATOM     29  O   UNL     1       3.182  -2.135   5.508  1.00  0.00    -0.376 OA
BRANCH  29  30
ATOM     30  C   UNL     1       3.369  -2.711   6.790  1.00  0.00     0.202 C 
BRANCH  30  31
ATOM     31  C   UNL     1       2.128  -3.292   7.500  1.00  0.00     0.261 C 
BRANCH  31  32
ATOM     32  O   UNL     1       1.551  -4.418   6.788  1.00  0.00    -0.460 OA
BRANCH  32  33
ATOM     33  C   UNL     1       0.189  -4.519   6.866  1.00  0.00     0.338 C 
ATOM     34  O   UNL     1      -0.499  -4.041   7.749  1.00  0.00    -0.246 OA
BRANCH  33  35
ATOM     35  C   UNL     1      -0.354  -4.920   5.528  1.00  0.00     0.060 A 
ATOM     36  C   UNL     1       0.065  -6.023   4.780  1.00  0.00     0.016 A 
ATOM     37  C   UNL     1      -1.208  -3.995   4.929  1.00  0.00     0.016 A 
ATOM     38  C   UNL     1      -0.265  -6.110   3.408  1.00  0.00     0.010 A 
ATOM     39  C   UNL     1      -1.466  -4.036   3.557  1.00  0.00     0.010 A 
ATOM     40  C   UNL     1      -0.969  -5.076   2.769  1.00  0.00    -0.014 A 
BRANCH  40  41
ATOM     41  C   UNL     1      -1.529  -5.198   1.411  1.00  0.00     0.031 A 
ATOM     42  C   UNL     1      -2.785  -5.956   1.404  1.00  0.00     0.074 A 
ATOM     43  C   UNL     1      -1.141  -4.703   0.214  1.00  0.00     0.049 A 
ATOM     44  N   UNL     1      -2.829  -7.230   1.206  1.00  0.00    -0.248 NA
ATOM     45  C   UNL     1      -4.060  -5.334   1.755  1.00  0.00     0.031 C 
ATOM     46  C   UNL     1       0.071  -3.983  -0.116  1.00  0.00     0.029 A 
ATOM     47  N   UNL     1      -1.808  -4.703  -0.989  1.00  0.00    -0.354 N 
ATOM     48  C   UNL     1      -4.170  -7.521   1.113  1.00  0.00     0.074 A 
ATOM     49  C   UNL     1      -4.872  -6.394   1.685  1.00  0.00     0.031 C 
ATOM     50  C   UNL     1      -0.043  -3.384  -1.327  1.00  0.00     0.029 A 
ATOM     51  C   UNL     1      -1.280  -3.832  -1.940  1.00  0.00     0.049 A 
ATOM     52  H   UNL     1      -2.593  -5.271  -1.163  1.00  0.00     0.167 HD
ATOM     53  C   UNL     1      -4.604  -8.528   0.312  1.00  0.00     0.034 A 
ATOM     54  C   UNL     1      -1.588  -3.710  -3.257  1.00  0.00     0.034 A 
ATOM     55  C   UNL     1      -3.530  -9.314  -0.243  1.00  0.00     0.049 A 
ATOM     56  C   UNL     1      -1.990  -5.063  -3.694  1.00  0.00     0.074 A 
ATOM     57  C   UNL     1      -2.435  -9.982   0.276  1.00  0.00     0.029 A 
ATOM     58  N   UNL     1      -3.264  -9.151  -1.583  1.00  0.00    -0.354 N 
ATOM     59  N   UNL     1      -1.152  -6.057  -3.800  1.00  0.00    -0.248 NA
ATOM     60  C   UNL     1      -3.396  -5.425  -3.649  1.00  0.00     0.031 C 
ATOM     61  C   UNL     1      -1.385  -9.774  -0.667  1.00  0.00     0.029 A 
ATOM     62  C   UNL     1      -1.905  -9.033  -1.729  1.00  0.00     0.049 A 
ATOM     63  H   UNL     1      -3.930  -9.123  -2.308  1.00  0.00     0.167 HD
ATOM     64  C   UNL     1      -1.874  -7.152  -3.350  1.00  0.00     0.074 A 
ATOM     65  C   UNL     1      -3.270  -6.729  -3.393  1.00  0.00     0.031 C 
ATOM     66  C   UNL     1      -1.259  -8.192  -2.716  1.00  0.00     0.034 A 
BRANCH  53  67
ATOM     67  C   UNL     1      -5.990  -8.577  -0.234  1.00  0.00     0.023 A 
ATOM     68  C   UNL     1      -6.535  -9.831  -0.556  1.00  0.00     0.012 A 
ATOM     69  C   UNL     1      -6.714  -7.424  -0.604  1.00  0.00     0.148 A 
ATOM     70  C   UNL     1      -7.777  -9.933  -1.185  1.00  0.00     0.002 A 
ATOM     71  C   UNL     1      -7.989  -7.531  -1.135  1.00  0.00     0.091 A 
ATOM     72  F   UNL     1      -6.120  -6.223  -0.548  1.00  0.00    -0.205 F 
ATOM     73  C   UNL     1      -8.520  -8.784  -1.446  1.00  0.00     0.022 A 
BRANCH  71  74
ATOM     74  S   UNL     1      -9.007  -6.076  -1.383  1.00  0.00     0.127 S 
ATOM     75  O   UNL     1      -8.840  -5.839  -2.812  1.00  0.00    -0.237 OA
ATOM     76  O   UNL     1     -10.328  -6.555  -0.978  1.00  0.00    -0.237 OA
ATOM     77  O   UNL     1      -8.440  -5.071  -0.488  1.00  0.00    -0.744 OA
ENDBRANCH  71  74
ENDBRANCH  53  67
BRANCH  54  78
ATOM     78  C   UNL     1      -1.857  -2.480  -4.056  1.00  0.00     0.023 A 
ATOM     79  C   UNL     1      -2.203  -2.610  -5.423  1.00  0.00     0.012 A 
ATOM     80  C   UNL     1      -2.012  -1.207  -3.465  1.00  0.00     0.148 A 
ATOM     81  C   UNL     1      -2.746  -1.542  -6.150  1.00  0.00     0.002 A 
ATOM     82  C   UNL     1      -2.554  -0.144  -4.194  1.00  0.00     0.091 A 
ATOM     83  F   UNL     1      -1.698  -1.051  -2.171  1.00  0.00    -0.205 F 
ATOM     84  C   UNL     1      -2.935  -0.312  -5.532  1.00  0.00     0.022 A 
BRANCH  82  85
ATOM     85  S   UNL     1      -2.826   1.476  -3.456  1.00  0.00     0.127 S 
ATOM     86  O   UNL     1      -2.504   2.385  -4.557  1.00  0.00    -0.237 OA
ATOM     87  O   UNL     1      -4.244   1.421  -3.109  1.00  0.00    -0.237 OA
ATOM     88  O   UNL     1      -1.899   1.551  -2.333  1.00  0.00    -0.744 OA
ENDBRANCH  82  85
ENDBRANCH  54  78
BRANCH  66  89
ATOM     89  C   UNL     1       0.244  -8.305  -2.803  1.00  0.00     0.023 A 
ATOM     90  C   UNL     1       1.103  -7.357  -2.211  1.00  0.00     0.012 A 
ATOM     91  C   UNL     1       0.794  -9.497  -3.309  1.00  0.00     0.148 A 
ATOM     92  C   UNL     1       2.478  -7.594  -2.118  1.00  0.00     0.002 A 
ATOM     93  C   UNL     1       2.155  -9.748  -3.179  1.00  0.00     0.091 A 
ATOM     94  F   UNL     1      -0.038 -10.387  -3.870  1.00  0.00    -0.205 F 
ATOM     95  C   UNL     1       3.002  -8.797  -2.586  1.00  0.00     0.022 A 
BRANCH  93  96
ATOM     96  S   UNL     1       2.883 -11.320  -3.651  1.00  0.00     0.127 S 
ATOM     97  O   UNL     1       3.747 -10.937  -4.766  1.00  0.00    -0.237 OA
ATOM     98  O   UNL     1       3.594 -11.710  -2.433  1.00  0.00    -0.237 OA
ATOM     99  O   UNL     1       1.771 -12.195  -4.002  1.00  0.00    -0.744 OA
ENDBRANCH  93  96
ENDBRANCH  66  89
ENDBRANCH  40  41
ENDBRANCH  33  35
ENDBRANCH  32  33
ENDBRANCH  31  32
ENDBRANCH  30  31
ENDBRANCH  29  30
ENDBRANCH  28  29
ENDBRANCH   1  28
TORSDOF 23
