REMARK SMILES CC(C)C[C@@H](CNC(=O)N(C)CCC#N)C(=O)OCCOCCOCCOC(=O)c1ccc(-c2c3nc(c(-c4cccc(S(=O)(=O)[O-])c4F)c4ccc([nH]4)c(-c4cccc(S(=O)(=O)[O-])c4F)c4nc(c(-c5cccc(S(=O)(=O)[O-])c5F)c5ccc2[nH]5)C=C4)C=C3)cc1
REMARK SMILES IDX 21 1 20 2 19 3 18 4 16 5 17 6 5 7 4 8 2 9 1 10 3 11 6 12
REMARK SMILES IDX 7 13 8 14 9 16 10 17 11 18 12 19 13 20 14 21 15 22 22 23
REMARK SMILES IDX 23 24 24 25 25 26 26 27 27 28 28 29 29 30 30 31 31 32 92 33
REMARK SMILES IDX 32 34 91 35 33 36 34 37 35 38 85 39 36 40 90 41 84 42 86 43
REMARK SMILES IDX 37 44 89 45 83 46 82 47 38 49 70 50 50 51 69 52 51 53 54 54
REMARK SMILES IDX 68 55 87 56 52 57 53 58 67 60 88 61 55 62 39 63 40 64 48 65
REMARK SMILES IDX 41 66 43 67 49 68 42 69 44 70 45 71 46 72 47 73 71 74 72 75
REMARK SMILES IDX 80 76 73 77 75 78 81 79 74 80 76 81 77 82 78 83 79 84 56 85
REMARK SMILES IDX 57 86 65 87 58 88 60 89 66 90 59 91 61 92 62 93 63 94 64 95
REMARK H PARENT 7 15 86 48 54 59
REMARK Flexibility Score: inf
ROOT
ATOM      1  O   UNL     1      -6.174  -0.268   0.601  1.00  0.00    -0.376 OA
ENDROOT
BRANCH   1   2
ATOM      2  C   UNL     1      -6.075   1.001   1.238  1.00  0.00     0.202 C 
BRANCH   2   3
ATOM      3  C   UNL     1      -4.900   1.229   2.194  1.00  0.00     0.261 C 
BRANCH   3   4
ATOM      4  O   UNL     1      -3.580   1.274   1.588  1.00  0.00    -0.463 OA
BRANCH   4   5
ATOM      5  C   UNL     1      -2.695   0.336   2.020  1.00  0.00     0.310 C 
ATOM      6  O   UNL     1      -3.004  -0.656   2.675  1.00  0.00    -0.252 OA
BRANCH   5   7
ATOM      7  C   UNL     1      -1.229   0.650   1.745  1.00  0.00     0.119 C 
BRANCH   7   8
ATOM      8  C   UNL     1      -0.906   1.589   0.563  1.00  0.00     0.020 C 
BRANCH   8   9
ATOM      9  C   UNL     1       0.602   1.629   0.183  1.00  0.00    -0.017 C 
ATOM     10  C   UNL     1       1.191   0.237  -0.072  1.00  0.00     0.007 C 
ATOM     11  C   UNL     1       0.832   2.506  -1.050  1.00  0.00     0.007 C 
ENDBRANCH   8   9
ENDBRANCH   7   8
BRANCH   7  12
ATOM     12  C   UNL     1      -0.578   1.120   3.055  1.00  0.00     0.133 C 
BRANCH  12  13
ATOM     13  N   UNL     1      -1.260   2.265   3.611  1.00  0.00    -0.337 N 
ATOM     14  C   UNL     1      -2.480   2.335   4.175  1.00  0.00     0.317 C 
ATOM     15  H   UNL     1      -0.763   3.114   3.571  1.00  0.00     0.165 HD
ATOM     16  O   UNL     1      -3.194   3.264   3.792  1.00  0.00    -0.249 OA
BRANCH  14  17
ATOM     17  N   UNL     1      -2.836   1.549   5.235  1.00  0.00    -0.327 N 
ATOM     18  C   UNL     1      -2.308   0.257   5.645  1.00  0.00     0.148 C 
BRANCH  17  19
ATOM     19  C   UNL     1      -3.710   2.203   6.208  1.00  0.00     0.136 C 
BRANCH  19  20
ATOM     20  C   UNL     1      -2.940   3.274   6.982  1.00  0.00     0.141 C 
BRANCH  20  21
ATOM     21  C   UNL     1      -2.724   4.512   6.128  1.00  0.00     0.064 C 
ATOM     22  N   UNL     1      -2.546   5.539   5.418  1.00  0.00    -0.198 NA
ENDBRANCH  20  21
ENDBRANCH  19  20
ENDBRANCH  17  19
ENDBRANCH  14  17
ENDBRANCH  12  13
ENDBRANCH   7  12
ENDBRANCH   5   7
ENDBRANCH   4   5
ENDBRANCH   3   4
ENDBRANCH   2   3
ENDBRANCH   1   2
BRANCH   1  23
ATOM     23  C   UNL     1      -4.998  -0.785  -0.001  1.00  0.00     0.188 C 
BRANCH  23  24
ATOM     24  C   UNL     1      -4.293   0.095  -1.040  1.00  0.00     0.188 C 
BRANCH  24  25
ATOM     25  O   UNL     1      -4.825   1.404  -1.139  1.00  0.00    -0.376 OA
BRANCH  25  26
ATOM     26  C   UNL     1      -4.702   2.087  -2.378  1.00  0.00     0.202 C 
BRANCH  26  27
ATOM     27  C   UNL     1      -5.521   1.455  -3.518  1.00  0.00     0.261 C 
BRANCH  27  28
ATOM     28  O   UNL     1      -5.052   0.167  -3.966  1.00  0.00    -0.460 OA
BRANCH  28  29
ATOM     29  C   UNL     1      -3.741   0.057  -4.292  1.00  0.00     0.338 C 
ATOM     30  O   UNL     1      -2.972   0.975  -4.524  1.00  0.00    -0.246 OA
BRANCH  29  31
ATOM     31  C   UNL     1      -3.318  -1.347  -4.031  1.00  0.00     0.060 A 
ATOM     32  C   UNL     1      -2.086  -1.563  -3.395  1.00  0.00     0.016 A 
ATOM     33  C   UNL     1      -4.163  -2.429  -4.297  1.00  0.00     0.016 A 
ATOM     34  C   UNL     1      -1.673  -2.861  -3.078  1.00  0.00     0.010 A 
ATOM     35  C   UNL     1      -3.747  -3.728  -3.985  1.00  0.00     0.010 A 
ATOM     36  C   UNL     1      -2.484  -3.955  -3.410  1.00  0.00    -0.014 A 
BRANCH  36  37
ATOM     37  C   UNL     1      -1.933  -5.335  -3.382  1.00  0.00     0.031 A 
ATOM     38  C   UNL     1      -1.393  -5.899  -4.670  1.00  0.00     0.074 A 
ATOM     39  C   UNL     1      -1.930  -6.091  -2.268  1.00  0.00     0.049 A 
ATOM     40  N   UNL     1      -0.911  -7.088  -4.920  1.00  0.00    -0.248 NA
ATOM     41  C   UNL     1      -1.404  -4.997  -5.836  1.00  0.00     0.031 C 
ATOM     42  C   UNL     1      -2.421  -5.678  -0.956  1.00  0.00     0.029 A 
ATOM     43  N   UNL     1      -1.519  -7.391  -2.079  1.00  0.00    -0.354 N 
ATOM     44  C   UNL     1      -0.589  -7.087  -6.272  1.00  0.00     0.074 A 
ATOM     45  C   UNL     1      -0.939  -5.785  -6.793  1.00  0.00     0.031 C 
ATOM     46  C   UNL     1      -2.314  -6.715  -0.104  1.00  0.00     0.029 A 
ATOM     47  C   UNL     1      -1.766  -7.871  -0.814  1.00  0.00     0.049 A 
ATOM     48  H   UNL     1      -1.089  -7.926  -2.784  1.00  0.00     0.167 HD
ATOM     49  C   UNL     1      -0.037  -8.073  -7.016  1.00  0.00     0.034 A 
ATOM     50  C   UNL     1      -1.591  -9.106  -0.298  1.00  0.00     0.034 A 
ATOM     51  C   UNL     1       0.331  -9.364  -6.507  1.00  0.00     0.049 A 
ATOM     52  C   UNL     1      -0.998 -10.199  -1.158  1.00  0.00     0.074 A 
ATOM     53  C   UNL     1       0.941 -10.409  -7.179  1.00  0.00     0.029 A 
ATOM     54  N   UNL     1       0.112  -9.794  -5.210  1.00  0.00    -0.354 N 
ATOM     55  N   UNL     1      -0.573 -10.139  -2.397  1.00  0.00    -0.248 NA
ATOM     56  C   UNL     1      -0.832 -11.523  -0.536  1.00  0.00     0.031 C 
ATOM     57  C   UNL     1       1.070 -11.481  -6.292  1.00  0.00     0.029 A 
ATOM     58  C   UNL     1       0.565 -11.094  -5.062  1.00  0.00     0.049 A 
ATOM     59  H   UNL     1      -0.304  -9.256  -4.498  1.00  0.00     0.167 HD
ATOM     60  C   UNL     1      -0.056 -11.399  -2.687  1.00  0.00     0.074 A 
ATOM     61  C   UNL     1      -0.202 -12.197  -1.489  1.00  0.00     0.031 C 
ATOM     62  C   UNL     1       0.479 -11.859  -3.846  1.00  0.00     0.034 A 
BRANCH  49  63
ATOM     63  C   UNL     1       0.233  -7.780  -8.466  1.00  0.00     0.023 A 
ATOM     64  C   UNL     1       1.309  -6.940  -8.816  1.00  0.00     0.012 A 
ATOM     65  C   UNL     1      -0.540  -8.379  -9.479  1.00  0.00     0.148 A 
ATOM     66  C   UNL     1       1.598  -6.681 -10.154  1.00  0.00     0.002 A 
ATOM     67  C   UNL     1      -0.219  -8.150 -10.810  1.00  0.00     0.091 A 
ATOM     68  F   UNL     1      -1.575  -9.152  -9.120  1.00  0.00    -0.205 F 
ATOM     69  C   UNL     1       0.843  -7.295 -11.150  1.00  0.00     0.022 A 
BRANCH  67  70
ATOM     70  S   UNL     1      -1.083  -8.953 -12.165  1.00  0.00     0.127 S 
ATOM     71  O   UNL     1      -1.816  -7.832 -12.751  1.00  0.00    -0.237 OA
ATOM     72  O   UNL     1       0.023  -9.452 -12.982  1.00  0.00    -0.237 OA
ATOM     73  O   UNL     1      -1.907  -9.989 -11.558  1.00  0.00    -0.744 OA
ENDBRANCH  67  70
ENDBRANCH  49  63
BRANCH  50  74
ATOM     74  C   UNL     1      -1.951  -9.389   1.123  1.00  0.00     0.023 A 
ATOM     75  C   UNL     1      -0.932  -9.674   2.054  1.00  0.00     0.012 A 
ATOM     76  C   UNL     1      -3.292  -9.401   1.551  1.00  0.00     0.148 A 
ATOM     77  C   UNL     1      -1.244 -10.001   3.374  1.00  0.00     0.002 A 
ATOM     78  C   UNL     1      -3.593  -9.674   2.881  1.00  0.00     0.091 A 
ATOM     79  F   UNL     1      -4.250  -9.154   0.647  1.00  0.00    -0.205 F 
ATOM     80  C   UNL     1      -2.572  -9.992   3.790  1.00  0.00     0.022 A 
BRANCH  78  81
ATOM     81  S   UNL     1      -5.264  -9.571   3.532  1.00  0.00     0.127 S 
ATOM     82  O   UNL     1      -5.590 -10.978   3.744  1.00  0.00    -0.237 OA
ATOM     83  O   UNL     1      -5.064  -8.793   4.755  1.00  0.00    -0.237 OA
ATOM     84  O   UNL     1      -6.040  -8.887   2.507  1.00  0.00    -0.744 OA
ENDBRANCH  78  81
ENDBRANCH  50  74
BRANCH  62  85
ATOM     85  C   UNL     1       0.996 -13.275  -3.879  1.00  0.00     0.023 A 
ATOM     86  C   UNL     1       0.089 -14.353  -3.897  1.00  0.00     0.012 A 
ATOM     87  C   UNL     1       2.377 -13.533  -3.989  1.00  0.00     0.148 A 
ATOM     88  C   UNL     1       0.551 -15.666  -3.994  1.00  0.00     0.002 A 
ATOM     89  C   UNL     1       2.827 -14.841  -4.133  1.00  0.00     0.091 A 
ATOM     90  F   UNL     1       3.227 -12.495  -3.955  1.00  0.00    -0.205 F 
ATOM     91  C   UNL     1       1.917 -15.909  -4.125  1.00  0.00     0.022 A 
BRANCH  89  92
ATOM     92  S   UNL     1       4.559 -15.239  -4.404  1.00  0.00     0.127 S 
ATOM     93  O   UNL     1       4.943 -15.794  -3.108  1.00  0.00    -0.237 OA
ATOM     94  O   UNL     1       4.488 -16.217  -5.490  1.00  0.00    -0.237 OA
ATOM     95  O   UNL     1       5.206 -13.985  -4.765  1.00  0.00    -0.744 OA
ENDBRANCH  89  92
ENDBRANCH  62  85
ENDBRANCH  36  37
ENDBRANCH  29  31
ENDBRANCH  28  29
ENDBRANCH  27  28
ENDBRANCH  26  27
ENDBRANCH  25  26
ENDBRANCH  24  25
ENDBRANCH  23  24
ENDBRANCH   1  23
TORSDOF 28
