REMARK SMILES O=C(OCCOCCOCCOC(=O)c1ccccc1Nc1nc(Cl)nc(Nc2ccc(N3CCOCC3=O)cc2)n1)c1ccc(-c2c3nc(c(-c4cccc(S(=O)(=O)[O-])c4F)c4ccc([nH]4)c(-c4cccc(S(=O)(=O)[O-])c4F)c4nc(c(-c5cccc(S(=O)(=O)[O-])c5F)c5ccc2[nH]5)C=C4)C=C3)cc1
REMARK SMILES IDX 8 1 7 2 6 3 5 4 4 5 3 6 2 7 1 8 43 9 44 10 105 11 45 12
REMARK SMILES IDX 104 13 46 14 47 15 48 16 98 17 49 18 103 19 97 20 99 21
REMARK SMILES IDX 50 22 102 23 96 24 95 25 51 27 83 28 63 29 82 30 64 31 67 32
REMARK SMILES IDX 81 33 100 34 65 35 66 36 80 38 101 39 68 40 52 41 53 42
REMARK SMILES IDX 61 43 54 44 56 45 62 46 55 47 57 48 58 49 59 50 60 51 84 52
REMARK SMILES IDX 85 53 93 54 86 55 88 56 94 57 87 58 89 59 90 60 91 61 92 62
REMARK SMILES IDX 69 63 70 64 78 65 71 66 73 67 79 68 72 69 74 70 75 71 76 72
REMARK SMILES IDX 77 73 9 74 10 75 11 76 12 77 13 78 14 79 15 80 16 81 20 82
REMARK SMILES IDX 17 83 19 84 18 85 21 86 22 88 23 89 42 90 24 91 27 92 25 93
REMARK SMILES IDX 26 94 28 95 29 97 30 98 41 99 31 100 40 101 32 102 33 103
REMARK SMILES IDX 34 104 38 105 35 106 37 107 39 108 36 109
REMARK H PARENT 99 26 67 37 21 87 28 96
REMARK Flexibility Score: inf
ROOT
ATOM      1  C   UNL     1       1.873  -0.476   3.182  1.00  0.00     0.188 C 
ENDROOT
BRANCH   1   2
ATOM      2  C   UNL     1       2.486   0.456   2.137  1.00  0.00     0.188 C 
BRANCH   2   3
ATOM      3  O   UNL     1       3.712  -0.087   1.634  1.00  0.00    -0.376 OA
BRANCH   3   4
ATOM      4  C   UNL     1       4.648   0.905   1.208  1.00  0.00     0.202 C 
BRANCH   4   5
ATOM      5  C   UNL     1       4.441   1.402  -0.229  1.00  0.00     0.261 C 
BRANCH   5   6
ATOM      6  O   UNL     1       3.062   1.365  -0.629  1.00  0.00    -0.460 OA
BRANCH   6   7
ATOM      7  C   UNL     1       2.446   0.407  -1.371  1.00  0.00     0.338 C 
ATOM      8  O   UNL     1       1.268   0.571  -1.685  1.00  0.00    -0.246 OA
BRANCH   7   9
ATOM      9  C   UNL     1       3.151  -0.811  -1.872  1.00  0.00     0.060 A 
ATOM     10  C   UNL     1       4.163  -1.479  -1.180  1.00  0.00     0.016 A 
ATOM     11  C   UNL     1       2.709  -1.359  -3.086  1.00  0.00     0.016 A 
ATOM     12  C   UNL     1       4.810  -2.581  -1.731  1.00  0.00     0.010 A 
ATOM     13  C   UNL     1       3.303  -2.514  -3.609  1.00  0.00     0.010 A 
ATOM     14  C   UNL     1       4.383  -3.112  -2.948  1.00  0.00    -0.014 A 
BRANCH  14  15
ATOM     15  C   UNL     1       5.092  -4.278  -3.520  1.00  0.00     0.031 A 
ATOM     16  C   UNL     1       5.919  -4.107  -4.756  1.00  0.00     0.074 A 
ATOM     17  C   UNL     1       5.029  -5.473  -2.903  1.00  0.00     0.049 A 
ATOM     18  N   UNL     1       6.584  -5.009  -5.426  1.00  0.00    -0.248 NA
ATOM     19  C   UNL     1       6.031  -2.744  -5.300  1.00  0.00     0.031 C 
ATOM     20  C   UNL     1       4.316  -5.731  -1.653  1.00  0.00     0.029 A 
ATOM     21  N   UNL     1       5.565  -6.692  -3.237  1.00  0.00    -0.354 N 
ATOM     22  C   UNL     1       7.156  -4.335  -6.494  1.00  0.00     0.074 A 
ATOM     23  C   UNL     1       6.774  -2.945  -6.379  1.00  0.00     0.031 C 
ATOM     24  C   UNL     1       4.459  -7.025  -1.335  1.00  0.00     0.029 A 
ATOM     25  C   UNL     1       5.193  -7.704  -2.384  1.00  0.00     0.049 A 
ATOM     26  H   UNL     1       6.158  -6.828  -4.011  1.00  0.00     0.167 HD
ATOM     27  C   UNL     1       7.934  -4.837  -7.479  1.00  0.00     0.034 A 
ATOM     28  C   UNL     1       5.375  -9.037  -2.449  1.00  0.00     0.034 A 
ATOM     29  C   UNL     1       8.329  -6.215  -7.566  1.00  0.00     0.049 A 
ATOM     30  C   UNL     1       6.183  -9.574  -3.592  1.00  0.00     0.074 A 
ATOM     31  C   UNL     1       9.147  -6.818  -8.503  1.00  0.00     0.029 A 
ATOM     32  N   UNL     1       7.917  -7.210  -6.691  1.00  0.00    -0.354 N 
ATOM     33  N   UNL     1       6.795  -8.909  -4.541  1.00  0.00    -0.248 NA
ATOM     34  C   UNL     1       6.349 -11.030  -3.666  1.00  0.00     0.031 C 
ATOM     35  C   UNL     1       9.203  -8.185  -8.214  1.00  0.00     0.029 A 
ATOM     36  C   UNL     1       8.435  -8.430  -7.086  1.00  0.00     0.049 A 
ATOM     37  H   UNL     1       7.341  -7.069  -5.905  1.00  0.00     0.167 HD
ATOM     38  C   UNL     1       7.439  -9.862  -5.315  1.00  0.00     0.074 A 
ATOM     39  C   UNL     1       7.166 -11.149  -4.705  1.00  0.00     0.031 C 
ATOM     40  C   UNL     1       8.174  -9.691  -6.440  1.00  0.00     0.034 A 
BRANCH  27  41
ATOM     41  C   UNL     1       8.391  -3.888  -8.548  1.00  0.00     0.023 A 
ATOM     42  C   UNL     1       9.456  -3.001  -8.296  1.00  0.00     0.012 A 
ATOM     43  C   UNL     1       7.774  -3.897  -9.814  1.00  0.00     0.148 A 
ATOM     44  C   UNL     1       9.889  -2.120  -9.287  1.00  0.00     0.002 A 
ATOM     45  C   UNL     1       8.231  -3.039 -10.805  1.00  0.00     0.091 A 
ATOM     46  F   UNL     1       6.747  -4.734 -10.016  1.00  0.00    -0.205 F 
ATOM     47  C   UNL     1       9.283  -2.145 -10.541  1.00  0.00     0.022 A 
BRANCH  45  48
ATOM     48  S   UNL     1       7.547  -3.020 -12.464  1.00  0.00     0.127 S 
ATOM     49  O   UNL     1       6.976  -1.675 -12.532  1.00  0.00    -0.237 OA
ATOM     50  O   UNL     1       8.739  -3.219 -13.287  1.00  0.00    -0.237 OA
ATOM     51  O   UNL     1       6.577  -4.105 -12.515  1.00  0.00    -0.744 OA
ENDBRANCH  45  48
ENDBRANCH  27  41
BRANCH  28  52
ATOM     52  C   UNL     1       4.780  -9.937  -1.416  1.00  0.00     0.023 A 
ATOM     53  C   UNL     1       5.620 -10.659  -0.547  1.00  0.00     0.012 A 
ATOM     54  C   UNL     1       3.382 -10.062  -1.269  1.00  0.00     0.148 A 
ATOM     55  C   UNL     1       5.084 -11.496   0.435  1.00  0.00     0.002 A 
ATOM     56  C   UNL     1       2.854 -10.862  -0.261  1.00  0.00     0.091 A 
ATOM     57  F   UNL     1       2.589  -9.384  -2.111  1.00  0.00    -0.205 F 
ATOM     58  C   UNL     1       3.703 -11.590   0.585  1.00  0.00     0.022 A 
BRANCH  56  59
ATOM     59  S   UNL     1       1.091 -10.939   0.081  1.00  0.00     0.127 S 
ATOM     60  O   UNL     1       0.736 -12.249  -0.454  1.00  0.00    -0.237 OA
ATOM     61  O   UNL     1       1.063 -10.839   1.541  1.00  0.00    -0.237 OA
ATOM     62  O   UNL     1       0.514  -9.791  -0.605  1.00  0.00    -0.744 OA
ENDBRANCH  56  59
ENDBRANCH  28  52
BRANCH  40  63
ATOM     63  C   UNL     1       8.730 -10.928  -7.082  1.00  0.00     0.023 A 
ATOM     64  C   UNL     1       7.868 -11.778  -7.802  1.00  0.00     0.012 A 
ATOM     65  C   UNL     1      10.107 -11.211  -7.029  1.00  0.00     0.148 A 
ATOM     66  C   UNL     1       8.367 -12.910  -8.441  1.00  0.00     0.002 A 
ATOM     67  C   UNL     1      10.604 -12.315  -7.708  1.00  0.00     0.091 A 
ATOM     68  F   UNL     1      10.901 -10.397  -6.318  1.00  0.00    -0.205 F 
ATOM     69  C   UNL     1       9.735 -13.171  -8.405  1.00  0.00     0.022 A 
BRANCH  67  70
ATOM     70  S   UNL     1      12.361 -12.675  -7.795  1.00  0.00     0.127 S 
ATOM     71  O   UNL     1      12.469 -13.841  -6.921  1.00  0.00    -0.237 OA
ATOM     72  O   UNL     1      12.548 -12.959  -9.218  1.00  0.00    -0.237 OA
ATOM     73  O   UNL     1      13.040 -11.475  -7.325  1.00  0.00    -0.744 OA
ENDBRANCH  67  70
ENDBRANCH  40  63
ENDBRANCH  14  15
ENDBRANCH   7   9
ENDBRANCH   6   7
ENDBRANCH   5   6
ENDBRANCH   4   5
ENDBRANCH   3   4
ENDBRANCH   2   3
ENDBRANCH   1   2
BRANCH   1  74
ATOM     74  O   UNL     1       2.563  -0.531   4.432  1.00  0.00    -0.376 OA
BRANCH  74  75
ATOM     75  C   UNL     1       3.916  -0.976   4.418  1.00  0.00     0.202 C 
BRANCH  75  76
ATOM     76  C   UNL     1       4.175  -2.478   4.247  1.00  0.00     0.261 C 
BRANCH  76  77
ATOM     77  O   UNL     1       3.667  -3.078   3.046  1.00  0.00    -0.460 OA
BRANCH  77  78
ATOM     78  C   UNL     1       2.476  -3.701   3.211  1.00  0.00     0.340 C 
ATOM     79  O   UNL     1       1.729  -3.619   4.188  1.00  0.00    -0.246 OA
BRANCH  78  80
ATOM     80  C   UNL     1       2.179  -4.573   2.073  1.00  0.00     0.083 A 
ATOM     81  C   UNL     1       1.138  -4.232   1.203  1.00  0.00     0.018 A 
ATOM     82  C   UNL     1       2.814  -5.827   2.021  1.00  0.00     0.055 A 
ATOM     83  C   UNL     1       0.673  -5.182   0.300  1.00  0.00     0.001 A 
ATOM     84  C   UNL     1       2.220  -6.809   1.229  1.00  0.00     0.027 A 
ATOM     85  C   UNL     1       1.180  -6.480   0.349  1.00  0.00     0.002 A 
BRANCH  82  86
ATOM     86  N   UNL     1       3.999  -6.034   2.760  1.00  0.00    -0.323 N 
ATOM     87  H   UNL     1       4.283  -5.285   3.332  1.00  0.00     0.170 HD
BRANCH  86  88
ATOM     88  C   UNL     1       4.819  -7.157   2.785  1.00  0.00     0.233 A 
ATOM     89  N   UNL     1       5.884  -7.136   2.003  1.00  0.00    -0.182 NA
ATOM     90  N   UNL     1       4.599  -8.069   3.722  1.00  0.00    -0.176 NA
ATOM     91  C   UNL     1       6.679  -8.178   2.172  1.00  0.00     0.228 A 
ATOM     92  C   UNL     1       5.517  -9.017   3.858  1.00  0.00     0.233 A 
ATOM     93  Cl  UNL     1       8.046  -8.253   1.150  1.00  0.00    -0.041 Cl
ATOM     94  N   UNL     1       6.589  -9.123   3.090  1.00  0.00    -0.182 NA
BRANCH  92  95
ATOM     95  N   UNL     1       5.272  -9.925   4.883  1.00  0.00    -0.324 N 
ATOM     96  H   UNL     1       4.432  -9.769   5.373  1.00  0.00     0.170 HD
BRANCH  95  97
ATOM     97  C   UNL     1       6.011 -11.016   5.337  1.00  0.00     0.041 A 
ATOM     98  C   UNL     1       5.322 -12.164   5.738  1.00  0.00     0.028 A 
ATOM     99  C   UNL     1       7.407 -11.065   5.295  1.00  0.00     0.028 A 
ATOM    100  C   UNL     1       6.006 -13.349   6.018  1.00  0.00     0.028 A 
ATOM    101  C   UNL     1       8.100 -12.236   5.621  1.00  0.00     0.028 A 
ATOM    102  C   UNL     1       7.401 -13.403   5.941  1.00  0.00     0.044 A 
BRANCH 102 103
ATOM    103  N   UNL     1       8.077 -14.649   6.081  1.00  0.00    -0.308 N 
ATOM    104  C   UNL     1       7.600 -15.742   5.222  1.00  0.00     0.154 C 
ATOM    105  C   UNL     1       9.328 -14.738   6.700  1.00  0.00     0.253 C 
ATOM    106  C   UNL     1       8.120 -17.105   5.654  1.00  0.00     0.183 C 
ATOM    107  C   UNL     1       9.981 -16.133   6.665  1.00  0.00     0.260 C 
ATOM    108  O   UNL     1       9.862 -13.834   7.346  1.00  0.00    -0.272 OA
ATOM    109  O   UNL     1       9.544 -17.075   5.699  1.00  0.00    -0.370 OA
ENDBRANCH 102 103
ENDBRANCH  95  97
ENDBRANCH  92  95
ENDBRANCH  86  88
ENDBRANCH  82  86
ENDBRANCH  78  80
ENDBRANCH  77  78
ENDBRANCH  76  77
ENDBRANCH  75  76
ENDBRANCH  74  75
ENDBRANCH   1  74
TORSDOF 25
