REMARK SMILES O=C(OCCOCCOCCOC(=O)c1ccc(-c2c3nc(c(-c4cccc(S(=O)(=O)[O-])c4F)c4ccc([nH]4)c(-c4cccc(S(=O)(=O)[O-])c4F)c4nc(c(-c5cccc(S(=O)(=O)[O-])c5F)c5ccc2[nH]5)C=C4)C=C3)cc1)C1=Cc2cc(Cl)cc(-c3ccc(Cl)cc3)c2O[C@@H]1C(F)(F)F
REMARK SMILES IDX 8 1 7 2 6 3 5 4 4 5 3 6 2 7 1 8 78 9 79 10 95 11 80 12 94 13
REMARK SMILES IDX 81 14 93 15 82 16 85 17 83 18 84 19 96 20 97 21 98 22 99 23
REMARK SMILES IDX 86 24 87 25 92 26 88 27 91 28 89 29 90 30 9 31 10 32 11 33
REMARK SMILES IDX 12 34 13 35 14 36 15 37 16 38 77 39 17 40 76 41 18 42 19 43
REMARK SMILES IDX 20 44 70 45 21 46 75 47 69 48 71 49 22 50 74 51 68 52 67 53
REMARK SMILES IDX 23 55 55 56 35 57 54 58 36 59 39 60 53 61 72 62 37 63 38 64
REMARK SMILES IDX 52 66 73 67 40 68 24 69 25 70 33 71 26 72 28 73 34 74 27 75
REMARK SMILES IDX 29 76 30 77 31 78 32 79 56 80 57 81 65 82 58 83 60 84 66 85
REMARK SMILES IDX 59 86 61 87 62 88 63 89 64 90 41 91 42 92 50 93 43 94 45 95
REMARK SMILES IDX 51 96 44 97 46 98 47 99 48 100 49 101
REMARK H PARENT 71 54 39 65
REMARK Flexibility Score: inf
ROOT
ATOM      1  C   UNL     1       1.523  -2.228   2.625  1.00  0.00     0.188 C 
ENDROOT
BRANCH   1   2
ATOM      2  C   UNL     1       2.143  -1.806   1.282  1.00  0.00     0.188 C 
BRANCH   2   3
ATOM      3  O   UNL     1       3.625  -1.886   0.971  1.00  0.00    -0.376 OA
BRANCH   3   4
ATOM      4  C   UNL     1       4.538  -0.802  -0.100  1.00  0.00     0.202 C 
BRANCH   4   5
ATOM      5  C   UNL     1       3.974   1.283  -0.365  1.00  0.00     0.261 C 
BRANCH   5   6
ATOM      6  O   UNL     1       3.043   1.834  -1.442  1.00  0.00    -0.460 OA
BRANCH   6   7
ATOM      7  C   UNL     1       3.193   1.192  -2.613  1.00  0.00     0.338 C 
ATOM      8  O   UNL     1       2.483   1.267  -3.586  1.00  0.00    -0.246 OA
BRANCH   7   9
ATOM      9  C   UNL     1       4.028   0.113  -2.105  1.00  0.00     0.087 C 
ATOM     10  C   UNL     1       5.423   0.416  -1.882  1.00  0.00     0.027 C 
ATOM     11  C   UNL     1       2.779  -0.345  -0.736  1.00  0.00     0.316 C 
ATOM     12  C   UNL     1       6.137   0.730  -0.276  1.00  0.00     0.019 A 
ATOM     13  O   UNL     1       3.472   0.165   1.037  1.00  0.00    -0.475 OA
ATOM     14  C   UNL     1       7.438   1.161  -0.257  1.00  0.00     0.032 A 
ATOM     15  C   UNL     1       5.226   0.684   1.200  1.00  0.00     0.135 A 
ATOM     16  C   UNL     1       7.941   1.475   1.005  1.00  0.00     0.042 A 
ATOM     17  C   UNL     1       5.831   0.973   2.416  1.00  0.00     0.026 A 
ATOM     18  Cl  UNL     1       9.578   2.037   1.096  1.00  0.00    -0.084 Cl
ATOM     19  C   UNL     1       7.200   1.370   2.239  1.00  0.00     0.033 A 
BRANCH  11  20
ATOM     20  C   UNL     1       2.500  -1.890  -1.472  1.00  0.00     0.430 C 
ATOM     21  F   UNL     1       2.854  -3.021  -0.838  1.00  0.00    -0.167 F 
ATOM     22  F   UNL     1       1.189  -1.998  -1.800  1.00  0.00    -0.167 F 
ATOM     23  F   UNL     1       3.173  -1.992  -2.659  1.00  0.00    -0.167 F 
ENDBRANCH  11  20
BRANCH  17  24
ATOM     24  C   UNL     1       5.388   0.886   3.805  1.00  0.00    -0.015 A 
ATOM     25  C   UNL     1       4.713   1.939   4.432  1.00  0.00     0.010 A 
ATOM     26  C   UNL     1       5.855  -0.168   4.622  1.00  0.00     0.010 A 
ATOM     27  C   UNL     1       4.409   1.884   5.800  1.00  0.00     0.021 A 
ATOM     28  C   UNL     1       5.530  -0.242   5.983  1.00  0.00     0.021 A 
ATOM     29  C   UNL     1       4.779   0.775   6.559  1.00  0.00     0.041 A 
ATOM     30  Cl  UNL     1       4.297   0.656   8.206  1.00  0.00    -0.084 Cl
ENDBRANCH  17  24
ENDBRANCH   7   9
ENDBRANCH   6   7
ENDBRANCH   5   6
ENDBRANCH   4   5
ENDBRANCH   3   4
ENDBRANCH   2   3
ENDBRANCH   1   2
BRANCH   1  31
ATOM     31  O   UNL     1       2.097  -1.776   3.819  1.00  0.00    -0.376 OA
BRANCH  31  32
ATOM     32  C   UNL     1       3.490  -1.971   3.905  1.00  0.00     0.202 C 
BRANCH  32  33
ATOM     33  C   UNL     1       4.079  -3.384   3.888  1.00  0.00     0.261 C 
BRANCH  33  34
ATOM     34  O   UNL     1       3.795  -4.135   2.705  1.00  0.00    -0.460 OA
BRANCH  34  35
ATOM     35  C   UNL     1       2.819  -5.066   2.810  1.00  0.00     0.338 C 
ATOM     36  O   UNL     1       2.164  -5.356   3.795  1.00  0.00    -0.246 OA
BRANCH  35  37
ATOM     37  C   UNL     1       2.537  -5.553   1.451  1.00  0.00     0.060 A 
ATOM     38  C   UNL     1       1.310  -5.257   0.833  1.00  0.00     0.016 A 
ATOM     39  C   UNL     1       3.501  -6.324   0.809  1.00  0.00     0.016 A 
ATOM     40  C   UNL     1       1.048  -5.726  -0.448  1.00  0.00     0.010 A 
ATOM     41  C   UNL     1       3.217  -6.838  -0.449  1.00  0.00     0.010 A 
ATOM     42  C   UNL     1       1.982  -6.563  -1.063  1.00  0.00    -0.014 A 
BRANCH  42  43
ATOM     43  C   UNL     1       1.570  -7.411  -2.194  1.00  0.00     0.031 A 
ATOM     44  C   UNL     1       1.039  -8.771  -1.861  1.00  0.00     0.074 A 
ATOM     45  C   UNL     1       1.770  -7.025  -3.462  1.00  0.00     0.049 A 
ATOM     46  N   UNL     1       0.787  -9.778  -2.648  1.00  0.00    -0.248 NA
ATOM     47  C   UNL     1       0.783  -9.036  -0.433  1.00  0.00     0.031 C 
ATOM     48  C   UNL     1       2.274  -5.719  -3.877  1.00  0.00     0.029 A 
ATOM     49  N   UNL     1       1.627  -7.729  -4.629  1.00  0.00    -0.354 N 
ATOM     50  C   UNL     1       0.399 -10.814  -1.810  1.00  0.00     0.074 A 
ATOM     51  C   UNL     1       0.444 -10.313  -0.455  1.00  0.00     0.031 C 
ATOM     52  C   UNL     1       2.456  -5.733  -5.209  1.00  0.00     0.029 A 
ATOM     53  C   UNL     1       2.123  -7.062  -5.722  1.00  0.00     0.049 A 
ATOM     54  H   UNL     1       1.212  -8.621  -4.678  1.00  0.00     0.167 HD
ATOM     55  C   UNL     1       0.052 -12.077  -2.141  1.00  0.00     0.034 A 
ATOM     56  C   UNL     1       2.337  -7.502  -6.978  1.00  0.00     0.034 A 
ATOM     57  C   UNL     1       0.053 -12.565  -3.490  1.00  0.00     0.049 A 
ATOM     58  C   UNL     1       1.974  -8.920  -7.328  1.00  0.00     0.074 A 
ATOM     59  C   UNL     1      -0.328 -13.808  -3.955  1.00  0.00     0.029 A 
ATOM     60  N   UNL     1       0.502 -11.842  -4.587  1.00  0.00    -0.354 N 
ATOM     61  N   UNL     1       1.507  -9.868  -6.550  1.00  0.00    -0.248 NA
ATOM     62  C   UNL     1       2.141  -9.325  -8.730  1.00  0.00     0.031 C 
ATOM     63  C   UNL     1      -0.042 -13.861  -5.323  1.00  0.00     0.029 A 
ATOM     64  C   UNL     1       0.435 -12.622  -5.725  1.00  0.00     0.049 A 
ATOM     65  H   UNL     1       0.821 -10.911  -4.558  1.00  0.00     0.167 HD
ATOM     66  C   UNL     1       1.283 -10.966  -7.373  1.00  0.00     0.074 A 
ATOM     67  C   UNL     1       1.669 -10.565  -8.711  1.00  0.00     0.031 C 
ATOM     68  C   UNL     1       0.794 -12.191  -7.053  1.00  0.00     0.034 A 
BRANCH  55  69
ATOM     69  C   UNL     1      -0.296 -13.013  -1.015  1.00  0.00     0.023 A 
ATOM     70  C   UNL     1      -1.443 -12.787  -0.225  1.00  0.00     0.012 A 
ATOM     71  C   UNL     1       0.535 -14.111  -0.724  1.00  0.00     0.148 A 
ATOM     72  C   UNL     1      -1.719 -13.600   0.875  1.00  0.00     0.002 A 
ATOM     73  C   UNL     1       0.220 -14.952   0.334  1.00  0.00     0.091 A 
ATOM     74  F   UNL     1       1.636 -14.296  -1.468  1.00  0.00    -0.205 F 
ATOM     75  C   UNL     1      -0.893 -14.686   1.148  1.00  0.00     0.022 A 
BRANCH  73  76
ATOM     76  S   UNL     1       1.173 -16.426   0.709  1.00  0.00     0.127 S 
ATOM     77  O   UNL     1       1.807 -16.053   1.973  1.00  0.00    -0.237 OA
ATOM     78  O   UNL     1       0.127 -17.442   0.828  1.00  0.00    -0.237 OA
ATOM     79  O   UNL     1       2.081 -16.617  -0.413  1.00  0.00    -0.744 OA
ENDBRANCH  73  76
ENDBRANCH  55  69
BRANCH  56  80
ATOM     80  C   UNL     1       2.931  -6.577  -7.981  1.00  0.00     0.023 A 
ATOM     81  C   UNL     1       2.134  -6.071  -9.025  1.00  0.00     0.012 A 
ATOM     82  C   UNL     1       4.267  -6.147  -7.861  1.00  0.00     0.148 A 
ATOM     83  C   UNL     1       2.664  -5.163  -9.943  1.00  0.00     0.002 A 
ATOM     84  C   UNL     1       4.771  -5.200  -8.743  1.00  0.00     0.091 A 
ATOM     85  F   UNL     1       5.006  -6.650  -6.863  1.00  0.00    -0.205 F 
ATOM     86  C   UNL     1       3.976  -4.718  -9.795  1.00  0.00     0.022 A 
BRANCH  84  87
ATOM     87  S   UNL     1       6.403  -4.475  -8.554  1.00  0.00     0.127 S 
ATOM     88  O   UNL     1       7.058  -4.883  -9.796  1.00  0.00    -0.237 OA
ATOM     89  O   UNL     1       6.088  -3.050  -8.463  1.00  0.00    -0.237 OA
ATOM     90  O   UNL     1       6.960  -5.051  -7.338  1.00  0.00    -0.744 OA
ENDBRANCH  84  87
ENDBRANCH  56  80
BRANCH  68  91
ATOM     91  C   UNL     1       0.570 -13.178  -8.168  1.00  0.00     0.023 A 
ATOM     92  C   UNL     1       1.656 -13.810  -8.801  1.00  0.00     0.012 A 
ATOM     93  C   UNL     1      -0.746 -13.561  -8.501  1.00  0.00     0.148 A 
ATOM     94  C   UNL     1       1.435 -14.794  -9.766  1.00  0.00     0.002 A 
ATOM     95  C   UNL     1      -0.958 -14.581  -9.417  1.00  0.00     0.091 A 
ATOM     96  F   UNL     1      -1.765 -12.935  -7.894  1.00  0.00    -0.205 F 
ATOM     97  C   UNL     1       0.131 -15.190 -10.062  1.00  0.00     0.022 A 
BRANCH  95  98
ATOM     98  S   UNL     1      -2.594 -15.228  -9.777  1.00  0.00     0.127 S 
ATOM     99  O   UNL     1      -2.767 -14.834 -11.175  1.00  0.00    -0.237 OA
ATOM    100  O   UNL     1      -2.410 -16.663  -9.565  1.00  0.00    -0.237 OA
ATOM    101  O   UNL     1      -3.502 -14.585  -8.837  1.00  0.00    -0.744 OA
ENDBRANCH  95  98
ENDBRANCH  68  91
ENDBRANCH  42  43
ENDBRANCH  35  37
ENDBRANCH  34  35
ENDBRANCH  33  34
ENDBRANCH  32  33
ENDBRANCH  31  32
ENDBRANCH   1  31
TORSDOF 22
