REMARK SMILES CC(C)N(CC(F)(F)F)C(=O)N(CC(=O)OCCOCCOCCOC(=O)c1ccc(-c2c3nc(c(-c4cccc(S(=O)(=O)[O-])c4F)c4ccc([nH]4)c(-c4cccc(S(=O)(=O)[O-])c4F)c4nc(c(-c5cccc(S(=O)(=O)[O-])c5F)c5ccc2[nH]5)C=C4)C=C3)cc1)C(C)(C)C
REMARK SMILES IDX 20 1 19 2 18 3 17 4 16 5 14 6 15 7 13 8 12 9 10 10 11 11
REMARK SMILES IDX 4 12 2 13 1 14 3 15 5 16 6 17 7 18 8 19 9 20 91 21 92 22
REMARK SMILES IDX 93 23 94 24 21 25 22 26 23 27 24 28 25 29 26 30 27 31 28 32
REMARK SMILES IDX 29 33 90 34 30 35 89 36 31 37 32 38 33 39 83 40 34 41 88 42
REMARK SMILES IDX 82 43 84 44 35 45 87 46 81 47 80 48 36 50 68 51 48 52 67 53
REMARK SMILES IDX 49 54 52 55 66 56 85 57 50 58 51 59 65 61 86 62 53 63 37 64
REMARK SMILES IDX 38 65 46 66 39 67 41 68 47 69 40 70 42 71 43 72 44 73 45 74
REMARK SMILES IDX 69 75 70 76 78 77 71 78 73 79 79 80 72 81 74 82 75 83 76 84
REMARK SMILES IDX 77 85 54 86 55 87 63 88 56 89 58 90 64 91 57 92 59 93 60 94
REMARK SMILES IDX 61 95 62 96
REMARK H PARENT 84 49 52 60
REMARK Flexibility Score: inf
ROOT
ATOM      1  C   UNL     1      -6.640  -0.520   3.820  1.00  0.00     0.188 C 
ENDROOT
BRANCH   1   2
ATOM      2  O   UNL     1      -6.616  -1.722   4.586  1.00  0.00    -0.376 OA
BRANCH   2   3
ATOM      3  C   UNL     1      -5.354  -2.379   4.702  1.00  0.00     0.202 C 
BRANCH   3   4
ATOM      4  C   UNL     1      -4.811  -2.937   3.382  1.00  0.00     0.261 C 
BRANCH   4   5
ATOM      5  O   UNL     1      -4.194  -1.909   2.564  1.00  0.00    -0.462 OA
BRANCH   5   6
ATOM      6  C   UNL     1      -4.191  -2.156   1.228  1.00  0.00     0.325 C 
ATOM      7  O   UNL     1      -4.716  -3.138   0.712  1.00  0.00    -0.250 OA
BRANCH   6   8
ATOM      8  C   UNL     1      -3.465  -1.097   0.374  1.00  0.00     0.244 C 
BRANCH   8   9
ATOM      9  N   UNL     1      -2.594  -0.091   1.017  1.00  0.00    -0.309 N 
BRANCH   9  10
ATOM     10  C   UNL     1      -1.250  -0.273   1.335  1.00  0.00     0.321 C 
ATOM     11  O   UNL     1      -0.612   0.678   1.798  1.00  0.00    -0.248 OA
BRANCH  10  12
ATOM     12  N   UNL     1      -0.548  -1.439   1.061  1.00  0.00    -0.313 N 
BRANCH  12  13
ATOM     13  C   UNL     1       0.939  -1.332   1.054  1.00  0.00     0.081 C 
ATOM     14  C   UNL     1       1.453  -0.356  -0.015  1.00  0.00     0.031 C 
ATOM     15  C   UNL     1       1.554  -1.037   2.428  1.00  0.00     0.031 C 
ENDBRANCH  12  13
BRANCH  12  16
ATOM     16  C   UNL     1      -1.038  -2.836   1.097  1.00  0.00     0.237 C 
BRANCH  16  17
ATOM     17  C   UNL     1      -1.082  -3.485   2.482  1.00  0.00     0.406 C 
ATOM     18  F   UNL     1      -1.560  -2.655   3.430  1.00  0.00    -0.169 F 
ATOM     19  F   UNL     1      -1.882  -4.578   2.460  1.00  0.00    -0.169 F 
ATOM     20  F   UNL     1       0.146  -3.900   2.866  1.00  0.00    -0.169 F 
ENDBRANCH  16  17
ENDBRANCH  12  16
ENDBRANCH  10  12
ENDBRANCH   9  10
BRANCH   9  21
ATOM     21  C   UNL     1      -3.090   1.357   1.055  1.00  0.00     0.037 C 
ATOM     22  C   UNL     1      -2.867   2.017   2.444  1.00  0.00     0.034 C 
ATOM     23  C   UNL     1      -2.361   2.197  -0.025  1.00  0.00     0.034 C 
ATOM     24  C   UNL     1      -4.590   1.508   0.731  1.00  0.00     0.034 C 
ENDBRANCH   9  21
ENDBRANCH   8   9
ENDBRANCH   6   8
ENDBRANCH   5   6
ENDBRANCH   4   5
ENDBRANCH   3   4
ENDBRANCH   2   3
ENDBRANCH   1   2
BRANCH   1  25
ATOM     25  C   UNL     1      -5.528   0.482   4.152  1.00  0.00     0.188 C 
BRANCH  25  26
ATOM     26  O   UNL     1      -5.295   0.726   5.536  1.00  0.00    -0.376 OA
BRANCH  26  27
ATOM     27  C   UNL     1      -6.409   1.214   6.281  1.00  0.00     0.202 C 
BRANCH  27  28
ATOM     28  C   UNL     1      -6.890   2.587   5.815  1.00  0.00     0.261 C 
BRANCH  28  29
ATOM     29  O   UNL     1      -7.703   2.441   4.635  1.00  0.00    -0.460 OA
BRANCH  29  30
ATOM     30  C   UNL     1      -7.739   3.522   3.836  1.00  0.00     0.338 C 
ATOM     31  O   UNL     1      -7.193   4.612   4.037  1.00  0.00    -0.246 OA
BRANCH  30  32
ATOM     32  C   UNL     1      -8.478   3.219   2.608  1.00  0.00     0.060 A 
ATOM     33  C   UNL     1      -7.858   2.465   1.612  1.00  0.00     0.016 A 
ATOM     34  C   UNL     1      -9.713   3.813   2.368  1.00  0.00     0.016 A 
ATOM     35  C   UNL     1      -8.415   2.378   0.336  1.00  0.00     0.010 A 
ATOM     36  C   UNL     1     -10.305   3.672   1.110  1.00  0.00     0.010 A 
ATOM     37  C   UNL     1      -9.639   3.001   0.065  1.00  0.00    -0.014 A 
BRANCH  37  38
ATOM     38  C   UNL     1     -10.180   3.075  -1.321  1.00  0.00     0.031 A 
ATOM     39  C   UNL     1     -10.374   4.428  -1.955  1.00  0.00     0.074 A 
ATOM     40  C   UNL     1     -10.513   1.968  -2.013  1.00  0.00     0.049 A 
ATOM     41  N   UNL     1     -11.073   4.759  -3.008  1.00  0.00    -0.248 NA
ATOM     42  C   UNL     1      -9.697   5.563  -1.302  1.00  0.00     0.031 C 
ATOM     43  C   UNL     1     -10.314   0.591  -1.563  1.00  0.00     0.029 A 
ATOM     44  N   UNL     1     -11.115   1.833  -3.241  1.00  0.00    -0.354 N 
ATOM     45  C   UNL     1     -11.002   6.146  -3.087  1.00  0.00     0.074 A 
ATOM     46  C   UNL     1     -10.163   6.592  -1.997  1.00  0.00     0.031 C 
ATOM     47  C   UNL     1     -10.787  -0.249  -2.498  1.00  0.00     0.029 A 
ATOM     48  C   UNL     1     -11.396   0.528  -3.573  1.00  0.00     0.049 A 
ATOM     49  H   UNL     1     -11.325   2.596  -3.827  1.00  0.00     0.167 HD
ATOM     50  C   UNL     1     -11.586   6.972  -3.987  1.00  0.00     0.034 A 
ATOM     51  C   UNL     1     -12.112   0.017  -4.596  1.00  0.00     0.034 A 
ATOM     52  C   UNL     1     -12.348   6.520  -5.118  1.00  0.00     0.049 A 
ATOM     53  C   UNL     1     -12.757   0.953  -5.583  1.00  0.00     0.074 A 
ATOM     54  C   UNL     1     -12.971   7.276  -6.095  1.00  0.00     0.029 A 
ATOM     55  N   UNL     1     -12.569   5.190  -5.438  1.00  0.00    -0.354 N 
ATOM     56  N   UNL     1     -12.692   2.262  -5.643  1.00  0.00    -0.248 NA
ATOM     57  C   UNL     1     -13.575   0.344  -6.642  1.00  0.00     0.031 C 
ATOM     58  C   UNL     1     -13.569   6.401  -7.008  1.00  0.00     0.029 A 
ATOM     59  C   UNL     1     -13.312   5.101  -6.602  1.00  0.00     0.049 A 
ATOM     60  H   UNL     1     -12.246   4.422  -4.915  1.00  0.00     0.167 HD
ATOM     61  C   UNL     1     -13.445   2.630  -6.753  1.00  0.00     0.074 A 
ATOM     62  C   UNL     1     -13.933   1.405  -7.353  1.00  0.00     0.031 C 
ATOM     63  C   UNL     1     -13.734   3.870  -7.218  1.00  0.00     0.034 A 
BRANCH  50  64
ATOM     64  C   UNL     1     -11.416   8.453  -3.788  1.00  0.00     0.023 A 
ATOM     65  C   UNL     1     -10.201   9.073  -4.137  1.00  0.00     0.012 A 
ATOM     66  C   UNL     1     -12.478   9.237  -3.295  1.00  0.00     0.148 A 
ATOM     67  C   UNL     1     -10.037  10.449  -3.976  1.00  0.00     0.002 A 
ATOM     68  C   UNL     1     -12.319  10.612  -3.170  1.00  0.00     0.091 A 
ATOM     69  F   UNL     1     -13.616   8.622  -2.941  1.00  0.00    -0.205 F 
ATOM     70  C   UNL     1     -11.098  11.219  -3.502  1.00  0.00     0.022 A 
BRANCH  68  71
ATOM     71  S   UNL     1     -13.653  11.689  -2.631  1.00  0.00     0.127 S 
ATOM     72  O   UNL     1     -13.252  11.990  -1.258  1.00  0.00    -0.237 OA
ATOM     73  O   UNL     1     -13.540  12.814  -3.560  1.00  0.00    -0.237 OA
ATOM     74  O   UNL     1     -14.875  10.910  -2.774  1.00  0.00    -0.744 OA
ENDBRANCH  68  71
ENDBRANCH  50  64
BRANCH  51  75
ATOM     75  C   UNL     1     -12.261  -1.461  -4.736  1.00  0.00     0.023 A 
ATOM     76  C   UNL     1     -11.638  -2.117  -5.815  1.00  0.00     0.012 A 
ATOM     77  C   UNL     1     -12.981  -2.222  -3.795  1.00  0.00     0.148 A 
ATOM     78  C   UNL     1     -11.742  -3.502  -5.962  1.00  0.00     0.002 A 
ATOM     79  C   UNL     1     -13.030  -3.607  -3.913  1.00  0.00     0.091 A 
ATOM     80  F   UNL     1     -13.599  -1.580  -2.793  1.00  0.00    -0.205 F 
ATOM     81  C   UNL     1     -12.424  -4.248  -5.003  1.00  0.00     0.022 A 
BRANCH  79  82
ATOM     82  S   UNL     1     -13.761  -4.641  -2.638  1.00  0.00     0.127 S 
ATOM     83  O   UNL     1     -15.061  -4.962  -3.220  1.00  0.00    -0.237 OA
ATOM     84  O   UNL     1     -12.821  -5.761  -2.573  1.00  0.00    -0.237 OA
ATOM     85  O   UNL     1     -13.780  -3.813  -1.440  1.00  0.00    -0.744 OA
ENDBRANCH  79  82
ENDBRANCH  51  75
BRANCH  63  86
ATOM     86  C   UNL     1     -14.594   3.972  -8.448  1.00  0.00     0.023 A 
ATOM     87  C   UNL     1     -15.984   3.773  -8.338  1.00  0.00     0.012 A 
ATOM     88  C   UNL     1     -14.043   4.347  -9.687  1.00  0.00     0.148 A 
ATOM     89  C   UNL     1     -16.811   3.926  -9.450  1.00  0.00     0.002 A 
ATOM     90  C   UNL     1     -14.877   4.536 -10.783  1.00  0.00     0.091 A 
ATOM     91  F   UNL     1     -12.714   4.510  -9.775  1.00  0.00    -0.205 F 
ATOM     92  C   UNL     1     -16.260   4.319 -10.668  1.00  0.00     0.022 A 
BRANCH  90  93
ATOM     93  S   UNL     1     -14.258   5.124 -12.364  1.00  0.00     0.127 S 
ATOM     94  O   UNL     1     -14.213   3.889 -13.144  1.00  0.00    -0.237 OA
ATOM     95  O   UNL     1     -15.296   6.069 -12.777  1.00  0.00    -0.237 OA
ATOM     96  O   UNL     1     -12.968   5.738 -12.079  1.00  0.00    -0.744 OA
ENDBRANCH  90  93
ENDBRANCH  63  86
ENDBRANCH  37  38
ENDBRANCH  30  32
ENDBRANCH  29  30
ENDBRANCH  28  29
ENDBRANCH  27  28
ENDBRANCH  26  27
ENDBRANCH  25  26
ENDBRANCH   1  25
TORSDOF 27
