REMARK SMILES CCc1ccc2[nH]c(C(=O)c3cc(C)ccn3)c(CC(=O)OCCOCCOCCOC(=O)c3ccc(-c4c5nc(c(-c6cccc(S(=O)(=O)[O-])c6F)c6ccc([nH]6)c(-c6cccc(S(=O)(=O)[O-])c6F)c6nc(c(-c7cccc(S(=O)(=O)[O-])c7F)c7ccc4[nH]7)C=C6)C=C5)cc3)c2c1
REMARK SMILES IDX 26 1 25 2 24 3 23 4 22 5 20 6 21 7 19 8 18 9 3 10 4 11 98 12
REMARK SMILES IDX 5 13 97 14 6 15 7 16 8 17 2 19 1 20 9 21 10 22 11 23 12 24
REMARK SMILES IDX 17 25 13 26 16 27 14 28 15 29 27 30 28 31 29 32 30 33 31 34
REMARK SMILES IDX 32 35 33 36 34 37 35 38 96 39 36 40 95 41 37 42 38 43 39 44
REMARK SMILES IDX 89 45 40 46 94 47 88 48 90 49 41 50 93 51 87 52 86 53 42 55
REMARK SMILES IDX 74 56 54 57 73 58 55 59 58 60 72 61 91 62 56 63 57 64 71 66
REMARK SMILES IDX 92 67 59 68 43 69 44 70 52 71 45 72 47 73 53 74 46 75 48 76
REMARK SMILES IDX 49 77 50 78 51 79 75 80 76 81 84 82 77 83 79 84 85 85 78 86
REMARK SMILES IDX 80 87 81 88 82 89 83 90 60 91 61 92 69 93 62 94 64 95 70 96
REMARK SMILES IDX 63 97 65 98 66 99 67 100 68 101
REMARK H PARENT 7 18 90 54 58 65
REMARK Flexibility Score: inf
ROOT
ATOM      1  C   UNL     1       1.825   9.737   0.283  1.00  0.00     0.188 C 
ENDROOT
BRANCH   1   2
ATOM      2  O   UNL     1       2.318  10.089   1.573  1.00  0.00    -0.376 OA
BRANCH   2   3
ATOM      3  C   UNL     1       2.957   9.082   2.347  1.00  0.00     0.202 C 
BRANCH   3   4
ATOM      4  C   UNL     1       2.118   7.837   2.662  1.00  0.00     0.261 C 
BRANCH   4   5
ATOM      5  O   UNL     1       1.668   7.166   1.464  1.00  0.00    -0.463 OA
BRANCH   5   6
ATOM      6  C   UNL     1       0.411   6.649   1.476  1.00  0.00     0.310 C 
ATOM      7  O   UNL     1      -0.232   6.472   2.507  1.00  0.00    -0.252 OA
BRANCH   6   8
ATOM      8  C   UNL     1      -0.199   6.474   0.085  1.00  0.00     0.161 C 
BRANCH   8   9
ATOM      9  C   UNL     1       0.620   5.767  -0.972  1.00  0.00     0.000 A 
ATOM     10  C   UNL     1       1.147   2.020  -0.361  1.00  0.00    -0.048 A 
ATOM     11  C   UNL     1       1.816   1.782  -1.568  1.00  0.00     0.006 A 
ATOM     12  C   UNL     1       0.808   3.343  -0.010  1.00  0.00     0.014 A 
ATOM     13  C   UNL     1       2.132   2.820  -2.449  1.00  0.00     0.027 A 
ATOM     14  C   UNL     1       1.038   4.394  -0.918  1.00  0.00     0.004 A 
ATOM     15  C   UNL     1       1.696   4.101  -2.108  1.00  0.00     0.046 A 
ATOM     16  N   UNL     1       1.757   5.269  -2.823  1.00  0.00    -0.352 N 
ATOM     17  C   UNL     1       0.853   6.166  -2.299  1.00  0.00     0.093 A 
ATOM     18  H   UNL     1       2.352   5.440  -3.589  1.00  0.00     0.167 HD
BRANCH  10  19
ATOM     19  C   UNL     1       0.684   0.918   0.565  1.00  0.00     0.032 C 
ATOM     20  C   UNL     1       1.028  -0.509   0.159  1.00  0.00     0.009 C 
ENDBRANCH  10  19
BRANCH  17  21
ATOM     21  C   UNL     1       0.225   7.218  -3.087  1.00  0.00     0.227 C 
ATOM     22  O   UNL     1      -0.808   7.777  -2.748  1.00  0.00    -0.285 OA
BRANCH  21  23
ATOM     23  C   UNL     1       0.822   7.575  -4.413  1.00  0.00     0.113 A 
ATOM     24  C   UNL     1       0.214   7.162  -5.596  1.00  0.00     0.036 A 
ATOM     25  N   UNL     1       1.952   8.324  -4.364  1.00  0.00    -0.253 NA
ATOM     26  C   UNL     1       0.778   7.577  -6.810  1.00  0.00    -0.047 A 
ATOM     27  C   UNL     1       2.423   8.774  -5.548  1.00  0.00     0.112 A 
ATOM     28  C   UNL     1       0.235   7.133  -8.136  1.00  0.00     0.044 C 
ATOM     29  C   UNL     1       1.878   8.436  -6.776  1.00  0.00     0.023 A 
ENDBRANCH  21  23
ENDBRANCH  17  21
ENDBRANCH   8   9
ENDBRANCH   6   8
ENDBRANCH   5   6
ENDBRANCH   4   5
ENDBRANCH   3   4
ENDBRANCH   2   3
ENDBRANCH   1   2
BRANCH   1  30
ATOM     30  C   UNL     1       2.684   8.813  -0.611  1.00  0.00     0.188 C 
BRANCH  30  31
ATOM     31  O   UNL     1       4.075   8.874  -0.325  1.00  0.00    -0.376 OA
BRANCH  31  32
ATOM     32  C   UNL     1       4.861   9.415  -1.375  1.00  0.00     0.202 C 
BRANCH  32  33
ATOM     33  C   UNL     1       4.615  10.909  -1.587  1.00  0.00     0.261 C 
BRANCH  33  34
ATOM     34  O   UNL     1       3.248  11.182  -1.967  1.00  0.00    -0.460 OA
BRANCH  34  35
ATOM     35  C   UNL     1       2.987  11.447  -3.259  1.00  0.00     0.338 C 
ATOM     36  O   UNL     1       3.821  11.525  -4.160  1.00  0.00    -0.246 OA
BRANCH  35  37
ATOM     37  C   UNL     1       1.536  11.686  -3.470  1.00  0.00     0.060 A 
ATOM     38  C   UNL     1       0.547  10.823  -2.986  1.00  0.00     0.016 A 
ATOM     39  C   UNL     1       1.153  12.765  -4.263  1.00  0.00     0.016 A 
ATOM     40  C   UNL     1      -0.799  10.998  -3.333  1.00  0.00     0.010 A 
ATOM     41  C   UNL     1      -0.201  12.981  -4.552  1.00  0.00     0.010 A 
ATOM     42  C   UNL     1      -1.195  12.090  -4.110  1.00  0.00    -0.014 A 
BRANCH  42  43
ATOM     43  C   UNL     1      -2.622  12.325  -4.478  1.00  0.00     0.031 A 
ATOM     44  C   UNL     1      -3.019  12.422  -5.929  1.00  0.00     0.074 A 
ATOM     45  C   UNL     1      -3.558  12.534  -3.529  1.00  0.00     0.049 A 
ATOM     46  N   UNL     1      -4.114  12.903  -6.460  1.00  0.00    -0.248 NA
ATOM     47  C   UNL     1      -2.046  11.920  -6.913  1.00  0.00     0.031 C 
ATOM     48  C   UNL     1      -3.348  12.422  -2.086  1.00  0.00     0.029 A 
ATOM     49  N   UNL     1      -4.871  12.933  -3.643  1.00  0.00    -0.354 N 
ATOM     50  C   UNL     1      -3.934  12.834  -7.837  1.00  0.00     0.074 A 
ATOM     51  C   UNL     1      -2.630  12.242  -8.059  1.00  0.00     0.031 C 
ATOM     52  C   UNL     1      -4.476  12.768  -1.448  1.00  0.00     0.029 A 
ATOM     53  C   UNL     1      -5.463  13.205  -2.430  1.00  0.00     0.049 A 
ATOM     54  H   UNL     1      -5.340  13.015  -4.505  1.00  0.00     0.167 HD
ATOM     55  C   UNL     1      -4.775  13.229  -8.824  1.00  0.00     0.034 A 
ATOM     56  C   UNL     1      -6.637  13.799  -2.131  1.00  0.00     0.034 A 
ATOM     57  C   UNL     1      -6.091  13.770  -8.603  1.00  0.00     0.049 A 
ATOM     58  C   UNL     1      -7.535  14.270  -3.243  1.00  0.00     0.074 A 
ATOM     59  C   UNL     1      -7.025  14.167  -9.546  1.00  0.00     0.029 A 
ATOM     60  N   UNL     1      -6.664  13.989  -7.361  1.00  0.00    -0.354 N 
ATOM     61  N   UNL     1      -7.370  14.168  -4.539  1.00  0.00    -0.248 NA
ATOM     62  C   UNL     1      -8.789  14.929  -2.849  1.00  0.00     0.031 C 
ATOM     63  C   UNL     1      -8.152  14.652  -8.872  1.00  0.00     0.029 A 
ATOM     64  C   UNL     1      -7.933  14.526  -7.510  1.00  0.00     0.049 A 
ATOM     65  H   UNL     1      -6.233  13.792  -6.498  1.00  0.00     0.167 HD
ATOM     66  C   UNL     1      -8.509  14.721  -5.113  1.00  0.00     0.074 A 
ATOM     67  C   UNL     1      -9.368  15.135  -4.024  1.00  0.00     0.031 C 
ATOM     68  C   UNL     1      -8.808  14.887  -6.425  1.00  0.00     0.034 A 
BRANCH  55  69
ATOM     69  C   UNL     1      -4.304  13.092 -10.249  1.00  0.00     0.023 A 
ATOM     70  C   UNL     1      -4.252  11.821 -10.854  1.00  0.00     0.012 A 
ATOM     71  C   UNL     1      -3.986  14.234 -11.011  1.00  0.00     0.148 A 
ATOM     72  C   UNL     1      -3.864  11.685 -12.187  1.00  0.00     0.002 A 
ATOM     73  C   UNL     1      -3.641  14.095 -12.351  1.00  0.00     0.091 A 
ATOM     74  F   UNL     1      -4.025  15.434 -10.413  1.00  0.00    -0.205 F 
ATOM     75  C   UNL     1      -3.569  12.822 -12.937  1.00  0.00     0.022 A 
BRANCH  73  76
ATOM     76  S   UNL     1      -3.319  15.503 -13.421  1.00  0.00     0.127 S 
ATOM     77  O   UNL     1      -1.875  15.392 -13.624  1.00  0.00    -0.237 OA
ATOM     78  O   UNL     1      -4.126  15.185 -14.599  1.00  0.00    -0.237 OA
ATOM     79  O   UNL     1      -3.759  16.678 -12.682  1.00  0.00    -0.744 OA
ENDBRANCH  73  76
ENDBRANCH  55  69
BRANCH  56  80
ATOM     80  C   UNL     1      -7.028  13.997  -0.706  1.00  0.00     0.023 A 
ATOM     81  C   UNL     1      -8.118  13.277  -0.181  1.00  0.00     0.012 A 
ATOM     82  C   UNL     1      -6.319  14.878   0.135  1.00  0.00     0.148 A 
ATOM     83  C   UNL     1      -8.511  13.449   1.147  1.00  0.00     0.002 A 
ATOM     84  C   UNL     1      -6.676  14.998   1.472  1.00  0.00     0.091 A 
ATOM     85  F   UNL     1      -5.301  15.575  -0.389  1.00  0.00    -0.205 F 
ATOM     86  C   UNL     1      -7.783  14.298   1.976  1.00  0.00     0.022 A 
BRANCH  84  87
ATOM     87  S   UNL     1      -5.714  15.964   2.642  1.00  0.00     0.127 S 
ATOM     88  O   UNL     1      -6.600  17.098   2.893  1.00  0.00    -0.237 OA
ATOM     89  O   UNL     1      -5.574  15.032   3.761  1.00  0.00    -0.237 OA
ATOM     90  O   UNL     1      -4.465  16.276   1.960  1.00  0.00    -0.744 OA
ENDBRANCH  84  87
ENDBRANCH  56  80
BRANCH  68  91
ATOM     91  C   UNL     1     -10.139  15.506  -6.768  1.00  0.00     0.023 A 
ATOM     92  C   UNL     1     -10.353  16.881  -6.550  1.00  0.00     0.012 A 
ATOM     93  C   UNL     1     -11.157  14.736  -7.367  1.00  0.00     0.148 A 
ATOM     94  C   UNL     1     -11.570  17.474  -6.889  1.00  0.00     0.002 A 
ATOM     95  C   UNL     1     -12.349  15.343  -7.747  1.00  0.00     0.091 A 
ATOM     96  F   UNL     1     -10.943  13.425  -7.551  1.00  0.00    -0.205 F 
ATOM     97  C   UNL     1     -12.562  16.708  -7.497  1.00  0.00     0.022 A 
BRANCH  95  98
ATOM     98  S   UNL     1     -13.647  14.459  -8.620  1.00  0.00     0.127 S 
ATOM     99  O   UNL     1     -14.680  14.353  -7.591  1.00  0.00    -0.237 OA
ATOM    100  O   UNL     1     -13.967  15.377  -9.713  1.00  0.00    -0.237 OA
ATOM    101  O   UNL     1     -13.058  13.196  -9.045  1.00  0.00    -0.744 OA
ENDBRANCH  95  98
ENDBRANCH  68  91
ENDBRANCH  42  43
ENDBRANCH  35  37
ENDBRANCH  34  35
ENDBRANCH  33  34
ENDBRANCH  32  33
ENDBRANCH  31  32
ENDBRANCH  30  31
ENDBRANCH   1  30
TORSDOF 24
