REMARK SMILES Cc1cc(OC(F)(F)F)cc2c1O[C@H](C(F)(F)F)C(C(=O)OCCOCCOCCOC(=O)c1ccc(-c3c4nc(c(-c5cccc(S(=O)(=O)[O-])c5F)c5ccc([nH]5)c(-c5cccc(S(=O)(=O)[O-])c5F)c5nc(c(-c6cccc(S(=O)(=O)[O-])c6F)c6ccc3[nH]6)C=C5)C=C4)cc1)=C2
REMARK SMILES IDX 27 1 26 2 25 3 24 4 23 5 22 6 20 7 21 8 19 9 1 10 2 11 3 12
REMARK SMILES IDX 12 13 4 14 11 15 13 16 10 17 97 18 14 19 5 20 6 21 7 22 8 23
REMARK SMILES IDX 9 24 15 25 16 26 17 27 18 28 28 29 29 30 30 31 31 32 32 33
REMARK SMILES IDX 33 34 34 35 35 36 96 37 36 38 95 39 37 40 38 41 39 42 89 43
REMARK SMILES IDX 40 44 94 45 88 46 90 47 41 48 93 49 87 50 86 51 42 53 74 54
REMARK SMILES IDX 54 55 73 56 55 57 58 58 72 59 91 60 56 61 57 62 71 64 92 65
REMARK SMILES IDX 59 66 43 67 44 68 52 69 45 70 47 71 53 72 46 73 48 74 49 75
REMARK SMILES IDX 50 76 51 77 75 78 76 79 84 80 77 81 79 82 85 83 78 84 80 85
REMARK SMILES IDX 81 86 82 87 83 88 60 89 61 90 69 91 62 92 64 93 70 94 63 95
REMARK SMILES IDX 65 96 66 97 67 98 68 99
REMARK H PARENT 90 52 58 63
REMARK Flexibility Score: inf
ROOT
ATOM      1  C   UNL     1       3.083  -5.807   3.385  1.00  0.00     0.188 C 
ENDROOT
BRANCH   1   2
ATOM      2  C   UNL     1       2.158  -6.675   4.269  1.00  0.00     0.188 C 
BRANCH   2   3
ATOM      3  O   UNL     1       2.312  -8.053   4.011  1.00  0.00    -0.376 OA
BRANCH   3   4
ATOM      4  C   UNL     1       1.301  -8.737   3.299  1.00  0.00     0.202 C 
BRANCH   4   5
ATOM      5  C   UNL     1       0.679  -8.161   2.013  1.00  0.00     0.261 C 
BRANCH   5   6
ATOM      6  O   UNL     1       0.765  -6.743   1.821  1.00  0.00    -0.460 OA
BRANCH   6   7
ATOM      7  C   UNL     1      -0.306  -6.005   2.189  1.00  0.00     0.338 C 
ATOM      8  O   UNL     1      -1.336  -6.417   2.692  1.00  0.00    -0.246 OA
BRANCH   7   9
ATOM      9  C   UNL     1       0.004  -4.574   1.972  1.00  0.00     0.087 C 
ATOM     10  C   UNL     1       1.140  -0.020  -0.084  1.00  0.00     0.048 C 
ATOM     11  C   UNL     1       0.605  -0.504   1.236  1.00  0.00    -0.005 A 
ATOM     12  C   UNL     1       0.233   0.432   2.216  1.00  0.00     0.054 A 
ATOM     13  C   UNL     1       0.486  -1.876   1.513  1.00  0.00     0.131 A 
ATOM     14  C   UNL     1      -0.265   0.012   3.450  1.00  0.00     0.130 A 
ATOM     15  C   UNL     1      -0.043  -2.304   2.732  1.00  0.00     0.021 A 
ATOM     16  O   UNL     1       0.914  -2.737   0.542  1.00  0.00    -0.475 OA
ATOM     17  C   UNL     1      -0.391  -1.358   3.704  1.00  0.00     0.058 A 
ATOM     18  C   UNL     1      -0.289  -3.721   2.962  1.00  0.00     0.027 C 
ATOM     19  C   UNL     1       0.644  -4.157   0.674  1.00  0.00     0.316 C 
BRANCH  14  20
ATOM     20  O   UNL     1      -0.664   0.820   4.476  1.00  0.00    -0.406 OA
BRANCH  20  21
ATOM     21  C   UNL     1      -0.805   2.206   4.211  1.00  0.00     0.573 C 
ATOM     22  F   UNL     1       0.390   2.771   3.931  1.00  0.00    -0.132 F 
ATOM     23  F   UNL     1      -1.649   2.420   3.176  1.00  0.00    -0.132 F 
ATOM     24  F   UNL     1      -1.316   2.816   5.300  1.00  0.00    -0.132 F 
ENDBRANCH  20  21
ENDBRANCH  14  20
BRANCH  19  25
ATOM     25  C   UNL     1      -0.170  -4.599  -0.548  1.00  0.00     0.430 C 
ATOM     26  F   UNL     1       0.402  -4.170  -1.701  1.00  0.00    -0.167 F 
ATOM     27  F   UNL     1      -0.253  -5.947  -0.641  1.00  0.00    -0.167 F 
ATOM     28  F   UNL     1      -1.433  -4.117  -0.522  1.00  0.00    -0.167 F 
ENDBRANCH  19  25
ENDBRANCH   7   9
ENDBRANCH   6   7
ENDBRANCH   5   6
ENDBRANCH   4   5
ENDBRANCH   3   4
ENDBRANCH   2   3
ENDBRANCH   1   2
BRANCH   1  29
ATOM     29  O   UNL     1       3.972  -6.436   2.469  1.00  0.00    -0.376 OA
BRANCH  29  30
ATOM     30  C   UNL     1       4.790  -7.502   2.943  1.00  0.00     0.202 C 
BRANCH  30  31
ATOM     31  C   UNL     1       5.639  -7.316   4.213  1.00  0.00     0.261 C 
BRANCH  31  32
ATOM     32  O   UNL     1       4.944  -6.798   5.359  1.00  0.00    -0.460 OA
BRANCH  32  33
ATOM     33  C   UNL     1       5.309  -5.557   5.769  1.00  0.00     0.338 C 
ATOM     34  O   UNL     1       6.166  -4.838   5.279  1.00  0.00    -0.246 OA
BRANCH  33  35
ATOM     35  C   UNL     1       4.373  -5.103   6.815  1.00  0.00     0.060 A 
ATOM     36  C   UNL     1       3.446  -4.095   6.509  1.00  0.00     0.016 A 
ATOM     37  C   UNL     1       4.423  -5.653   8.095  1.00  0.00     0.016 A 
ATOM     38  C   UNL     1       2.547  -3.653   7.477  1.00  0.00     0.010 A 
ATOM     39  C   UNL     1       3.550  -5.178   9.078  1.00  0.00     0.010 A 
ATOM     40  C   UNL     1       2.617  -4.171   8.776  1.00  0.00    -0.014 A 
BRANCH  40  41
ATOM     41  C   UNL     1       1.828  -3.535   9.854  1.00  0.00     0.031 A 
ATOM     42  C   UNL     1       2.449  -2.404  10.623  1.00  0.00     0.074 A 
ATOM     43  C   UNL     1       0.581  -3.950  10.142  1.00  0.00     0.049 A 
ATOM     44  N   UNL     1       1.944  -1.698  11.598  1.00  0.00    -0.248 NA
ATOM     45  C   UNL     1       3.817  -2.014  10.238  1.00  0.00     0.031 C 
ATOM     46  C   UNL     1      -0.130  -5.029   9.458  1.00  0.00     0.029 A 
ATOM     47  N   UNL     1      -0.300  -3.519  11.102  1.00  0.00    -0.354 N 
ATOM     48  C   UNL     1       2.933  -0.790  11.953  1.00  0.00     0.074 A 
ATOM     49  C   UNL     1       4.070  -1.035  11.096  1.00  0.00     0.031 C 
ATOM     50  C   UNL     1      -1.332  -5.192  10.038  1.00  0.00     0.029 A 
ATOM     51  C   UNL     1      -1.470  -4.240  11.139  1.00  0.00     0.049 A 
ATOM     52  H   UNL     1      -0.112  -2.766  11.706  1.00  0.00     0.167 HD
ATOM     53  C   UNL     1       2.889   0.173  12.900  1.00  0.00     0.034 A 
ATOM     54  C   UNL     1      -2.526  -4.147  11.973  1.00  0.00     0.034 A 
ATOM     55  C   UNL     1       1.758   0.423  13.746  1.00  0.00     0.049 A 
ATOM     56  C   UNL     1      -2.534  -3.091  13.048  1.00  0.00     0.074 A 
ATOM     57  C   UNL     1       1.613   1.407  14.708  1.00  0.00     0.029 A 
ATOM     58  N   UNL     1       0.590  -0.319  13.744  1.00  0.00    -0.354 N 
ATOM     59  N   UNL     1      -1.633  -2.174  13.304  1.00  0.00    -0.248 NA
ATOM     60  C   UNL     1      -3.710  -3.038  13.932  1.00  0.00     0.031 C 
ATOM     61  C   UNL     1       0.361   1.247  15.303  1.00  0.00     0.029 A 
ATOM     62  C   UNL     1      -0.280   0.178  14.696  1.00  0.00     0.049 A 
ATOM     63  H   UNL     1       0.406  -1.085  13.154  1.00  0.00     0.167 HD
ATOM     64  C   UNL     1      -2.143  -1.418  14.354  1.00  0.00     0.074 A 
ATOM     65  C   UNL     1      -3.434  -1.981  14.689  1.00  0.00     0.031 C 
ATOM     66  C   UNL     1      -1.585  -0.357  14.984  1.00  0.00     0.034 A 
BRANCH  53  67
ATOM     67  C   UNL     1       4.086   1.065  13.053  1.00  0.00     0.023 A 
ATOM     68  C   UNL     1       4.274   2.122  12.142  1.00  0.00     0.012 A 
ATOM     69  C   UNL     1       4.955   0.925  14.151  1.00  0.00     0.148 A 
ATOM     70  C   UNL     1       5.316   3.029  12.320  1.00  0.00     0.002 A 
ATOM     71  C   UNL     1       5.973   1.850  14.338  1.00  0.00     0.091 A 
ATOM     72  F   UNL     1       4.758  -0.100  14.993  1.00  0.00    -0.205 F 
ATOM     73  C   UNL     1       6.157   2.900  13.423  1.00  0.00     0.022 A 
BRANCH  71  74
ATOM     74  S   UNL     1       7.080   1.805  15.752  1.00  0.00     0.127 S 
ATOM     75  O   UNL     1       8.370   1.562  15.108  1.00  0.00    -0.237 OA
ATOM     76  O   UNL     1       6.918   3.148  16.309  1.00  0.00    -0.237 OA
ATOM     77  O   UNL     1       6.604   0.725  16.605  1.00  0.00    -0.744 OA
ENDBRANCH  71  74
ENDBRANCH  53  67
BRANCH  54  78
ATOM     78  C   UNL     1      -3.689  -5.055  11.784  1.00  0.00     0.023 A 
ATOM     79  C   UNL     1      -4.868  -4.552  11.202  1.00  0.00     0.012 A 
ATOM     80  C   UNL     1      -3.612  -6.420  12.122  1.00  0.00     0.148 A 
ATOM     81  C   UNL     1      -5.955  -5.393  10.964  1.00  0.00     0.002 A 
ATOM     82  C   UNL     1      -4.687  -7.260  11.852  1.00  0.00     0.091 A 
ATOM     83  F   UNL     1      -2.480  -6.871  12.679  1.00  0.00    -0.205 F 
ATOM     84  C   UNL     1      -5.862  -6.747  11.280  1.00  0.00     0.022 A 
BRANCH  82  85
ATOM     85  S   UNL     1      -4.635  -9.031  12.144  1.00  0.00     0.127 S 
ATOM     86  O   UNL     1      -5.709  -9.205  13.119  1.00  0.00    -0.237 OA
ATOM     87  O   UNL     1      -4.923  -9.560  10.810  1.00  0.00    -0.237 OA
ATOM     88  O   UNL     1      -3.295  -9.315  12.636  1.00  0.00    -0.744 OA
ENDBRANCH  82  85
ENDBRANCH  54  78
BRANCH  66  89
ATOM     89  C   UNL     1      -2.346   0.315  16.094  1.00  0.00     0.023 A 
ATOM     90  C   UNL     1      -2.310  -0.238  17.387  1.00  0.00     0.012 A 
ATOM     91  C   UNL     1      -2.915   1.589  15.894  1.00  0.00     0.148 A 
ATOM     92  C   UNL     1      -2.822   0.474  18.471  1.00  0.00     0.002 A 
ATOM     93  C   UNL     1      -3.392   2.306  16.983  1.00  0.00     0.091 A 
ATOM     94  F   UNL     1      -2.930   2.091  14.650  1.00  0.00    -0.205 F 
ATOM     95  C   UNL     1      -3.348   1.750  18.273  1.00  0.00     0.022 A 
BRANCH  93  96
ATOM     96  S   UNL     1      -4.010   3.988  16.845  1.00  0.00     0.127 S 
ATOM     97  O   UNL     1      -5.395   3.834  17.289  1.00  0.00    -0.237 OA
ATOM     98  O   UNL     1      -3.147   4.710  17.778  1.00  0.00    -0.237 OA
ATOM     99  O   UNL     1      -3.853   4.365  15.447  1.00  0.00    -0.744 OA
ENDBRANCH  93  96
ENDBRANCH  66  89
ENDBRANCH  40  41
ENDBRANCH  33  35
ENDBRANCH  32  33
ENDBRANCH  31  32
ENDBRANCH  30  31
ENDBRANCH  29  30
ENDBRANCH   1  29
TORSDOF 23
