REMARK SMILES CC[NH2+]C[C@@H](C)C(=O)N1CCO[C@@H](CC(=O)OCCOCCOCCOC(=O)c2ccc(-c3c4nc(c(-c5cccc(S(=O)(=O)[O-])c5F)c5ccc([nH]5)c(-c5cccc(S(=O)(=O)[O-])c5F)c5nc(c(-c6cccc(S(=O)(=O)[O-])c6F)c6ccc3[nH]6)C=C5)C=C4)cc2)C1
REMARK SMILES IDX 20 1 19 2 18 3 17 4 15 5 16 6 14 7 13 8 9 9 10 10 92 11
REMARK SMILES IDX 11 12 12 13 7 14 8 15 5 16 6 17 4 18 3 19 2 22 1 23 21 24
REMARK SMILES IDX 22 25 23 26 24 27 25 28 26 29 27 30 28 31 29 32 30 33 91 34
REMARK SMILES IDX 31 35 90 36 32 37 33 38 34 39 84 40 35 41 89 42 83 43 85 44
REMARK SMILES IDX 36 45 88 46 82 47 81 48 37 50 69 51 49 52 68 53 50 54 53 55
REMARK SMILES IDX 67 56 86 57 51 58 52 59 66 61 87 62 54 63 38 64 39 65 47 66
REMARK SMILES IDX 40 67 42 68 48 69 41 70 43 71 44 72 45 73 46 74 70 75 71 76
REMARK SMILES IDX 79 77 72 78 74 79 80 80 73 81 75 82 76 83 77 84 78 85 55 86
REMARK SMILES IDX 56 87 64 88 57 89 59 90 65 91 58 92 60 93 61 94 62 95 63 96
REMARK H PARENT 3 20 3 21 85 49 53 60
REMARK Flexibility Score: inf
ROOT
ATOM      1  O   UNL     1       4.611   2.522 -10.463  1.00  0.00    -0.376 OA
ENDROOT
BRANCH   1   2
ATOM      2  C   UNL     1       3.267   2.993 -10.498  1.00  0.00     0.202 C 
BRANCH   2   3
ATOM      3  C   UNL     1       2.235   2.012 -11.066  1.00  0.00     0.261 C 
BRANCH   3   4
ATOM      4  O   UNL     1       2.119   0.809 -10.275  1.00  0.00    -0.463 OA
BRANCH   4   5
ATOM      5  C   UNL     1       2.155  -0.352 -10.971  1.00  0.00     0.308 C 
ATOM      6  O   UNL     1       2.139  -0.427 -12.195  1.00  0.00    -0.252 OA
BRANCH   5   7
ATOM      7  C   UNL     1       2.322  -1.585 -10.122  1.00  0.00     0.156 C 
BRANCH   7   8
ATOM      8  C   UNL     1       2.101  -1.559  -8.612  1.00  0.00     0.148 C 
ATOM      9  N   UNL     1       0.546  -1.238  -6.716  1.00  0.00    -0.337 N 
ATOM     10  C   UNL     1       0.627  -2.661  -6.420  1.00  0.00     0.148 C 
ATOM     11  C   UNL     1       0.750  -0.954  -8.150  1.00  0.00     0.152 C 
ATOM     12  C   UNL     1       1.989  -3.195  -6.837  1.00  0.00     0.182 C 
ATOM     13  O   UNL     1       2.193  -2.966  -8.235  1.00  0.00    -0.374 OA
BRANCH   9  14
ATOM     14  C   UNL     1       0.291  -0.202  -5.841  1.00  0.00     0.231 C 
ATOM     15  O   UNL     1      -0.251   0.834  -6.251  1.00  0.00    -0.274 OA
BRANCH  14  16
ATOM     16  C   UNL     1       0.854  -0.199  -4.401  1.00  0.00     0.130 C 
ATOM     17  C   UNL     1       2.373  -0.084  -4.466  1.00  0.00     0.024 C 
BRANCH  16  18
ATOM     18  C   UNL     1       0.402  -1.290  -3.425  1.00  0.00     0.273 C 
BRANCH  18  19
ATOM     19  N   UNL     1       0.854  -1.164  -2.030  1.00  0.00    -0.346 N 
ATOM     20  H   UNL     1       0.522  -1.980  -1.514  1.00  0.00     0.346 HD
ATOM     21  H   UNL     1       1.871  -1.096  -2.060  1.00  0.00     0.346 HD
BRANCH  19  22
ATOM     22  C   UNL     1       0.380   0.031  -1.343  1.00  0.00     0.257 C 
ATOM     23  C   UNL     1       0.885   0.006   0.093  1.00  0.00     0.071 C 
ENDBRANCH  19  22
ENDBRANCH  18  19
ENDBRANCH  16  18
ENDBRANCH  14  16
ENDBRANCH   9  14
ENDBRANCH   7   8
ENDBRANCH   5   7
ENDBRANCH   4   5
ENDBRANCH   3   4
ENDBRANCH   2   3
ENDBRANCH   1   2
BRANCH   1  24
ATOM     24  C   UNL     1       4.859   1.355  -9.688  1.00  0.00     0.188 C 
BRANCH  24  25
ATOM     25  C   UNL     1       4.582   1.502  -8.193  1.00  0.00     0.188 C 
BRANCH  25  26
ATOM     26  O   UNL     1       3.264   1.823  -7.795  1.00  0.00    -0.376 OA
BRANCH  26  27
ATOM     27  C   UNL     1       3.035   2.880  -6.858  1.00  0.00     0.202 C 
BRANCH  27  28
ATOM     28  C   UNL     1       4.103   3.547  -5.946  1.00  0.00     0.261 C 
BRANCH  28  29
ATOM     29  O   UNL     1       5.442   3.045  -5.974  1.00  0.00    -0.460 OA
BRANCH  29  30
ATOM     30  C   UNL     1       5.694   1.935  -5.248  1.00  0.00     0.338 C 
ATOM     31  O   UNL     1       4.966   1.432  -4.410  1.00  0.00    -0.246 OA
BRANCH  30  32
ATOM     32  C   UNL     1       6.902   1.275  -5.801  1.00  0.00     0.060 A 
ATOM     33  C   UNL     1       6.807  -0.080  -6.151  1.00  0.00     0.016 A 
ATOM     34  C   UNL     1       8.094   1.971  -6.013  1.00  0.00     0.016 A 
ATOM     35  C   UNL     1       7.907  -0.751  -6.686  1.00  0.00     0.010 A 
ATOM     36  C   UNL     1       9.207   1.288  -6.518  1.00  0.00     0.010 A 
ATOM     37  C   UNL     1       9.129  -0.084  -6.825  1.00  0.00    -0.014 A 
BRANCH  37  38
ATOM     38  C   UNL     1      10.371  -0.858  -7.076  1.00  0.00     0.031 A 
ATOM     39  C   UNL     1      11.236  -1.210  -5.894  1.00  0.00     0.074 A 
ATOM     40  C   UNL     1      10.740  -1.236  -8.313  1.00  0.00     0.049 A 
ATOM     41  N   UNL     1      12.401  -1.800  -5.861  1.00  0.00    -0.248 NA
ATOM     42  C   UNL     1      10.713  -0.837  -4.568  1.00  0.00     0.031 C 
ATOM     43  C   UNL     1       9.985  -0.984  -9.538  1.00  0.00     0.029 A 
ATOM     44  N   UNL     1      11.871  -1.889  -8.741  1.00  0.00    -0.354 N 
ATOM     45  C   UNL     1      12.769  -1.835  -4.521  1.00  0.00     0.074 A 
ATOM     46  C   UNL     1      11.705  -1.203  -3.772  1.00  0.00     0.031 C 
ATOM     47  C   UNL     1      10.693  -1.443 -10.586  1.00  0.00     0.029 A 
ATOM     48  C   UNL     1      11.962  -1.990 -10.110  1.00  0.00     0.049 A 
ATOM     49  H   UNL     1      12.551  -2.250  -8.127  1.00  0.00     0.167 HD
ATOM     50  C   UNL     1      13.888  -2.350  -3.960  1.00  0.00     0.034 A 
ATOM     51  C   UNL     1      12.969  -2.441 -10.887  1.00  0.00     0.034 A 
ATOM     52  C   UNL     1      14.941  -2.989  -4.701  1.00  0.00     0.049 A 
ATOM     53  C   UNL     1      14.225  -2.974 -10.242  1.00  0.00     0.074 A 
ATOM     54  C   UNL     1      16.095  -3.580  -4.218  1.00  0.00     0.029 A 
ATOM     55  N   UNL     1      14.980  -3.105  -6.082  1.00  0.00    -0.354 N 
ATOM     56  N   UNL     1      14.515  -3.093  -8.969  1.00  0.00    -0.248 NA
ATOM     57  C   UNL     1      15.281  -3.463 -11.143  1.00  0.00     0.031 C 
ATOM     58  C   UNL     1      16.850  -4.019  -5.309  1.00  0.00     0.029 A 
ATOM     59  C   UNL     1      16.145  -3.743  -6.470  1.00  0.00     0.049 A 
ATOM     60  H   UNL     1      14.282  -2.780  -6.696  1.00  0.00     0.167 HD
ATOM     61  C   UNL     1      15.765  -3.705  -8.916  1.00  0.00     0.074 A 
ATOM     62  C   UNL     1      16.168  -3.948 -10.285  1.00  0.00     0.031 C 
ATOM     63  C   UNL     1      16.514  -4.029  -7.832  1.00  0.00     0.034 A 
BRANCH  50  64
ATOM     64  C   UNL     1      14.029  -2.249  -2.464  1.00  0.00     0.023 A 
ATOM     65  C   UNL     1      13.221  -3.043  -1.626  1.00  0.00     0.012 A 
ATOM     66  C   UNL     1      14.998  -1.401  -1.891  1.00  0.00     0.148 A 
ATOM     67  C   UNL     1      13.350  -2.970  -0.239  1.00  0.00     0.002 A 
ATOM     68  C   UNL     1      15.154  -1.370  -0.511  1.00  0.00     0.091 A 
ATOM     69  F   UNL     1      15.740  -0.637  -2.704  1.00  0.00    -0.205 F 
ATOM     70  C   UNL     1      14.323  -2.143   0.317  1.00  0.00     0.022 A 
BRANCH  68  71
ATOM     71  S   UNL     1      16.430  -0.400   0.298  1.00  0.00     0.127 S 
ATOM     72  O   UNL     1      15.636   0.629   0.969  1.00  0.00    -0.237 OA
ATOM     73  O   UNL     1      17.038  -1.382   1.195  1.00  0.00    -0.237 OA
ATOM     74  O   UNL     1      17.304   0.080  -0.763  1.00  0.00    -0.744 OA
ENDBRANCH  68  71
ENDBRANCH  50  64
BRANCH  51  75
ATOM     75  C   UNL     1      12.835  -2.421 -12.373  1.00  0.00     0.023 A 
ATOM     76  C   UNL     1      12.751  -3.635 -13.082  1.00  0.00     0.012 A 
ATOM     77  C   UNL     1      12.796  -1.207 -13.086  1.00  0.00     0.148 A 
ATOM     78  C   UNL     1      12.663  -3.642 -14.475  1.00  0.00     0.002 A 
ATOM     79  C   UNL     1      12.652  -1.219 -14.469  1.00  0.00     0.091 A 
ATOM     80  F   UNL     1      12.898  -0.062 -12.396  1.00  0.00    -0.205 F 
ATOM     81  C   UNL     1      12.604  -2.435 -15.167  1.00  0.00     0.022 A 
BRANCH  79  82
ATOM     82  S   UNL     1      12.449   0.283 -15.432  1.00  0.00     0.127 S 
ATOM     83  O   UNL     1      13.691   0.316 -16.201  1.00  0.00    -0.237 OA
ATOM     84  O   UNL     1      11.249  -0.022 -16.212  1.00  0.00    -0.237 OA
ATOM     85  O   UNL     1      12.280   1.355 -14.460  1.00  0.00    -0.744 OA
ENDBRANCH  79  82
ENDBRANCH  51  75
BRANCH  63  86
ATOM     86  C   UNL     1      17.828  -4.734  -8.065  1.00  0.00     0.023 A 
ATOM     87  C   UNL     1      18.920  -4.033  -8.614  1.00  0.00     0.012 A 
ATOM     88  C   UNL     1      18.000  -6.074  -7.662  1.00  0.00     0.148 A 
ATOM     89  C   UNL     1      20.151  -4.666  -8.790  1.00  0.00     0.002 A 
ATOM     90  C   UNL     1      19.243  -6.681  -7.792  1.00  0.00     0.091 A 
ATOM     91  F   UNL     1      16.945  -6.729  -7.155  1.00  0.00    -0.205 F 
ATOM     92  C   UNL     1      20.316  -5.983  -8.369  1.00  0.00     0.022 A 
BRANCH  90  93
ATOM     93  S   UNL     1      19.576  -8.339  -7.186  1.00  0.00     0.127 S 
ATOM     94  O   UNL     1      19.726  -9.088  -8.432  1.00  0.00    -0.237 OA
ATOM     95  O   UNL     1      20.817  -8.151  -6.434  1.00  0.00    -0.237 OA
ATOM     96  O   UNL     1      18.426  -8.709  -6.371  1.00  0.00    -0.744 OA
ENDBRANCH  90  93
ENDBRANCH  63  86
ENDBRANCH  37  38
ENDBRANCH  30  32
ENDBRANCH  29  30
ENDBRANCH  28  29
ENDBRANCH  27  28
ENDBRANCH  26  27
ENDBRANCH  25  26
ENDBRANCH  24  25
ENDBRANCH   1  24
TORSDOF 26
