REMARK SMILES O=C(Nc1ccc2c(c1)[C@@H]1C=CC[C@@H]1[C@H](C(=O)OCCOCCOCCOC(=O)c1ccc(-c3c4nc(c(-c5cccc(S(=O)(=O)[O-])c5F)c5ccc([nH]5)c(-c5cccc(S(=O)(=O)[O-])c5F)c5nc(c(-c6cccc(S(=O)(=O)[O-])c6F)c6ccc3[nH]6)C=C5)C=C4)cc1)N2)c1ccccc1
REMARK SMILES IDX 23 1 22 2 21 3 20 4 19 5 18 6 16 7 17 8 15 9 4 10 5 11 9 12
REMARK SMILES IDX 6 13 8 14 7 15 10 16 93 17 11 18 14 19 12 21 13 22 3 23 1 24
REMARK SMILES IDX 2 25 94 27 95 28 99 29 96 30 98 31 97 32 24 33 25 34 26 35
REMARK SMILES IDX 27 36 28 37 29 38 30 39 31 40 92 41 32 42 91 43 33 44 34 45
REMARK SMILES IDX 35 46 85 47 36 48 90 49 84 50 86 51 37 52 89 53 83 54 82 55
REMARK SMILES IDX 38 57 70 58 50 59 69 60 51 61 54 62 68 63 87 64 52 65 53 66
REMARK SMILES IDX 67 68 88 69 55 70 39 71 40 72 48 73 41 74 43 75 49 76 42 77
REMARK SMILES IDX 44 78 45 79 46 80 47 81 71 82 72 83 80 84 73 85 75 86 81 87
REMARK SMILES IDX 74 88 76 89 77 90 78 91 79 92 56 93 57 94 65 95 58 96 60 97
REMARK SMILES IDX 66 98 59 99 61 100 62 101 63 102 64 103
REMARK H PARENT 93 20 3 26 86 56 54 67
REMARK Flexibility Score: inf
ROOT
ATOM      1  C   UNL     1      12.596   1.937  -1.841  1.00  0.00     0.188 C 
ENDROOT
BRANCH   1   2
ATOM      2  C   UNL     1      12.680   2.172  -0.332  1.00  0.00     0.188 C 
BRANCH   2   3
ATOM      3  O   UNL     1      13.763   1.547   0.349  1.00  0.00    -0.376 OA
BRANCH   3   4
ATOM      4  C   UNL     1      13.915   0.140   0.177  1.00  0.00     0.202 C 
BRANCH   4   5
ATOM      5  C   UNL     1      12.776  -0.738   0.712  1.00  0.00     0.261 C 
BRANCH   5   6
ATOM      6  O   UNL     1      11.467  -0.327   0.269  1.00  0.00    -0.462 OA
BRANCH   6   7
ATOM      7  C   UNL     1      10.595  -0.027   1.263  1.00  0.00     0.328 C 
ATOM      8  O   UNL     1      10.820  -0.211   2.460  1.00  0.00    -0.250 OA
BRANCH   7   9
ATOM      9  C   UNL     1       9.287   0.653   0.801  1.00  0.00     0.194 C 
ATOM     10  C   UNL     1       4.154   0.496   1.127  1.00  0.00     0.041 A 
ATOM     11  C   UNL     1       4.659   0.252   2.398  1.00  0.00     0.028 A 
ATOM     12  C   UNL     1       5.032   0.825   0.086  1.00  0.00     0.032 A 
ATOM     13  C   UNL     1       6.035   0.187   2.584  1.00  0.00     0.028 A 
ATOM     14  C   UNL     1       6.425   0.752   0.264  1.00  0.00    -0.015 A 
ATOM     15  C   UNL     1       6.921   0.413   1.525  1.00  0.00     0.039 A 
ATOM     16  C   UNL     1       7.386   1.040  -0.876  1.00  0.00     0.050 C 
ATOM     17  N   UNL     1       8.260   0.216   1.740  1.00  0.00    -0.372 N 
ATOM     18  C   UNL     1       7.032   0.310  -2.148  1.00  0.00    -0.023 C 
ATOM     19  C   UNL     1       8.835   0.522  -0.651  1.00  0.00     0.038 C 
ATOM     20  H   UNL     1       8.541  -0.242   2.565  1.00  0.00     0.161 HD
ATOM     21  C   UNL     1       7.834  -0.738  -2.367  1.00  0.00    -0.030 C 
ATOM     22  C   UNL     1       8.861  -0.874  -1.286  1.00  0.00     0.034 C 
BRANCH  10  23
ATOM     23  N   UNL     1       2.770   0.339   0.950  1.00  0.00    -0.322 N 
ATOM     24  O   UNL     1       0.850  -0.013  -0.200  1.00  0.00    -0.269 OA
ATOM     25  C   UNL     1       2.076  -0.106  -0.156  1.00  0.00     0.255 C 
ATOM     26  H   UNL     1       2.215   0.582   1.726  1.00  0.00     0.170 HD
BRANCH  25  27
ATOM     27  C   UNL     1       2.781  -0.802  -1.260  1.00  0.00     0.040 A 
ATOM     28  C   UNL     1       3.727  -1.806  -1.004  1.00  0.00     0.014 A 
ATOM     29  C   UNL     1       2.481  -0.445  -2.576  1.00  0.00     0.014 A 
ATOM     30  C   UNL     1       4.427  -2.388  -2.059  1.00  0.00     0.001 A 
ATOM     31  C   UNL     1       3.176  -1.038  -3.630  1.00  0.00     0.001 A 
ATOM     32  C   UNL     1       4.157  -1.997  -3.371  1.00  0.00     0.000 A 
ENDBRANCH  25  27
ENDBRANCH  10  23
ENDBRANCH   7   9
ENDBRANCH   6   7
ENDBRANCH   5   6
ENDBRANCH   4   5
ENDBRANCH   3   4
ENDBRANCH   2   3
ENDBRANCH   1   2
BRANCH   1  33
ATOM     33  O   UNL     1      12.628   0.572  -2.246  1.00  0.00    -0.376 OA
BRANCH  33  34
ATOM     34  C   UNL     1      12.548   0.330  -3.655  1.00  0.00     0.202 C 
BRANCH  34  35
ATOM     35  C   UNL     1      13.532   1.117  -4.546  1.00  0.00     0.261 C 
BRANCH  35  36
ATOM     36  O   UNL     1      13.363   2.550  -4.524  1.00  0.00    -0.460 OA
BRANCH  36  37
ATOM     37  C   UNL     1      12.125   3.041  -4.766  1.00  0.00     0.338 C 
ATOM     38  O   UNL     1      11.189   2.427  -5.252  1.00  0.00    -0.246 OA
BRANCH  37  39
ATOM     39  C   UNL     1      12.002   4.365  -4.098  1.00  0.00     0.060 A 
ATOM     40  C   UNL     1      10.782   4.684  -3.484  1.00  0.00     0.016 A 
ATOM     41  C   UNL     1      13.078   5.254  -4.006  1.00  0.00     0.016 A 
ATOM     42  C   UNL     1      10.619   5.907  -2.829  1.00  0.00     0.010 A 
ATOM     43  C   UNL     1      12.912   6.483  -3.356  1.00  0.00     0.010 A 
ATOM     44  C   UNL     1      11.669   6.834  -2.798  1.00  0.00    -0.014 A 
BRANCH  44  45
ATOM     45  C   UNL     1      11.408   8.233  -2.370  1.00  0.00     0.031 A 
ATOM     46  C   UNL     1      11.168   9.271  -3.437  1.00  0.00     0.074 A 
ATOM     47  C   UNL     1      11.370   8.591  -1.073  1.00  0.00     0.049 A 
ATOM     48  N   UNL     1      10.922  10.549  -3.311  1.00  0.00    -0.248 NA
ATOM     49  C   UNL     1      11.212   8.802  -4.832  1.00  0.00     0.031 C 
ATOM     50  C   UNL     1      11.586   7.697   0.062  1.00  0.00     0.029 A 
ATOM     51  N   UNL     1      11.153   9.820  -0.496  1.00  0.00    -0.354 N 
ATOM     52  C   UNL     1      10.801  11.040  -4.606  1.00  0.00     0.074 A 
ATOM     53  C   UNL     1      11.020   9.928  -5.504  1.00  0.00     0.031 C 
ATOM     54  C   UNL     1      11.519   8.413   1.200  1.00  0.00     0.029 A 
ATOM     55  C   UNL     1      11.272   9.817   0.874  1.00  0.00     0.049 A 
ATOM     56  H   UNL     1      10.934  10.627  -1.016  1.00  0.00     0.167 HD
ATOM     57  C   UNL     1      10.512  12.297  -5.017  1.00  0.00     0.034 A 
ATOM     58  C   UNL     1      11.206  10.833   1.761  1.00  0.00     0.034 A 
ATOM     59  C   UNL     1      10.278  13.407  -4.136  1.00  0.00     0.049 A 
ATOM     60  C   UNL     1      10.909  12.232   1.273  1.00  0.00     0.074 A 
ATOM     61  C   UNL     1       9.944  14.709  -4.466  1.00  0.00     0.029 A 
ATOM     62  N   UNL     1      10.363  13.354  -2.755  1.00  0.00    -0.354 N 
ATOM     63  N   UNL     1      10.674  12.652   0.054  1.00  0.00    -0.248 NA
ATOM     64  C   UNL     1      10.834  13.291   2.293  1.00  0.00     0.031 C 
ATOM     65  C   UNL     1       9.850  15.450  -3.284  1.00  0.00     0.029 A 
ATOM     66  C   UNL     1      10.095  14.602  -2.217  1.00  0.00     0.049 A 
ATOM     67  H   UNL     1      10.581  12.549  -2.233  1.00  0.00     0.167 HD
ATOM     68  C   UNL     1      10.383  14.010   0.166  1.00  0.00     0.074 A 
ATOM     69  C   UNL     1      10.451  14.337   1.574  1.00  0.00     0.031 C 
ATOM     70  C   UNL     1      10.102  14.908  -0.811  1.00  0.00     0.034 A 
BRANCH  57  71
ATOM     71  C   UNL     1      10.400  12.535  -6.499  1.00  0.00     0.023 A 
ATOM     72  C   UNL     1       9.272  12.056  -7.196  1.00  0.00     0.012 A 
ATOM     73  C   UNL     1      11.373  13.285  -7.186  1.00  0.00     0.148 A 
ATOM     74  C   UNL     1       9.126  12.299  -8.560  1.00  0.00     0.002 A 
ATOM     75  C   UNL     1      11.199  13.560  -8.537  1.00  0.00     0.091 A 
ATOM     76  F   UNL     1      12.449  13.710  -6.509  1.00  0.00    -0.205 F 
ATOM     77  C   UNL     1      10.082  13.060  -9.227  1.00  0.00     0.022 A 
BRANCH  75  78
ATOM     78  S   UNL     1      12.332  14.595  -9.470  1.00  0.00     0.127 S 
ATOM     79  O   UNL     1      12.945  13.620 -10.371  1.00  0.00    -0.237 OA
ATOM     80  O   UNL     1      11.423  15.539 -10.119  1.00  0.00    -0.237 OA
ATOM     81  O   UNL     1      13.232  15.190  -8.492  1.00  0.00    -0.744 OA
ENDBRANCH  75  78
ENDBRANCH  57  71
BRANCH  58  82
ATOM     82  C   UNL     1      11.399  10.576   3.218  1.00  0.00     0.023 A 
ATOM     83  C   UNL     1      10.318  10.739   4.106  1.00  0.00     0.012 A 
ATOM     84  C   UNL     1      12.655  10.196   3.729  1.00  0.00     0.148 A 
ATOM     85  C   UNL     1      10.493  10.569   5.481  1.00  0.00     0.002 A 
ATOM     86  C   UNL     1      12.809   9.973   5.093  1.00  0.00     0.091 A 
ATOM     87  F   UNL     1      13.678  10.069   2.873  1.00  0.00    -0.205 F 
ATOM     88  C   UNL     1      11.735  10.177   5.973  1.00  0.00     0.022 A 
BRANCH  86  89
ATOM     89  S   UNL     1      14.340   9.351   5.797  1.00  0.00     0.127 S 
ATOM     90  O   UNL     1      14.850  10.529   6.493  1.00  0.00    -0.237 OA
ATOM     91  O   UNL     1      13.857   8.280   6.670  1.00  0.00    -0.237 OA
ATOM     92  O   UNL     1      15.132   8.890   4.664  1.00  0.00    -0.744 OA
ENDBRANCH  86  89
ENDBRANCH  58  82
BRANCH  70  93
ATOM     93  C   UNL     1       9.795  16.327  -0.401  1.00  0.00     0.023 A 
ATOM     94  C   UNL     1      10.825  17.162   0.075  1.00  0.00     0.012 A 
ATOM     95  C   UNL     1       8.497  16.856  -0.559  1.00  0.00     0.148 A 
ATOM     96  C   UNL     1      10.562  18.487   0.424  1.00  0.00     0.002 A 
ATOM     97  C   UNL     1       8.254  18.191  -0.257  1.00  0.00     0.091 A 
ATOM     98  F   UNL     1       7.524  16.045  -1.000  1.00  0.00    -0.205 F 
ATOM     99  C   UNL     1       9.281  19.004   0.247  1.00  0.00     0.022 A 
BRANCH  97 100
ATOM    100  S   UNL     1       6.659  18.968  -0.545  1.00  0.00     0.127 S 
ATOM    101  O   UNL     1       6.139  19.095   0.815  1.00  0.00    -0.237 OA
ATOM    102  O   UNL     1       7.037  20.234  -1.174  1.00  0.00    -0.237 OA
ATOM    103  O   UNL     1       5.923  18.060  -1.415  1.00  0.00    -0.744 OA
ENDBRANCH  97 100
ENDBRANCH  70  93
ENDBRANCH  44  45
ENDBRANCH  37  39
ENDBRANCH  36  37
ENDBRANCH  35  36
ENDBRANCH  34  35
ENDBRANCH  33  34
ENDBRANCH   1  33
TORSDOF 22
