REMARK SMILES C[C@@H](C(=O)OCCOCCOCCOC(=O)c1ccc(-c2c3nc(c(-c4cccc(S(=O)(=O)[O-])c4F)c4ccc([nH]4)c(-c4cccc(S(=O)(=O)[O-])c4F)c4nc(c(-c5cccc(S(=O)(=O)[O-])c5F)c5ccc2[nH]5)C=C4)C=C3)cc1)[C@H](C)[S@@](=O)c1ccc(F)c(F)c1
REMARK SMILES IDX 9 1 8 2 7 3 6 4 5 5 3 6 4 7 2 8 1 9 80 10 81 11 82 12 83 13
REMARK SMILES IDX 84 14 85 15 91 16 86 17 89 18 87 19 90 20 88 21 10 22 11 23
REMARK SMILES IDX 12 24 13 25 14 26 15 27 16 28 17 29 18 30 79 31 19 32 78 33
REMARK SMILES IDX 20 34 21 35 22 36 72 37 23 38 77 39 71 40 73 41 24 42 76 43
REMARK SMILES IDX 70 44 69 45 25 47 57 48 37 49 56 50 38 51 41 52 55 53 74 54
REMARK SMILES IDX 39 55 40 56 54 58 75 59 42 60 26 61 27 62 35 63 28 64 30 65
REMARK SMILES IDX 36 66 29 67 31 68 32 69 33 70 34 71 58 72 59 73 67 74 60 75
REMARK SMILES IDX 62 76 68 77 61 78 63 79 64 80 65 81 66 82 43 83 44 84 52 85
REMARK SMILES IDX 45 86 47 87 53 88 46 89 48 90 49 91 50 92 51 93
REMARK H PARENT 73 46 41 57
REMARK Flexibility Score: inf
ROOT
ATOM      1  C   UNL     1      -0.022  -3.946   2.132  1.00  0.00     0.188 C 
ENDROOT
BRANCH   1   2
ATOM      2  O   UNL     1      -0.968  -4.949   2.494  1.00  0.00    -0.376 OA
BRANCH   2   3
ATOM      3  C   UNL     1      -1.840  -5.433   1.480  1.00  0.00     0.202 C 
BRANCH   3   4
ATOM      4  C   UNL     1      -2.958  -4.454   1.151  1.00  0.00     0.261 C 
BRANCH   4   5
ATOM      5  O   UNL     1      -2.355  -3.254   0.650  1.00  0.00    -0.463 OA
BRANCH   5   6
ATOM      6  C   UNL     1      -3.023  -2.103   0.902  1.00  0.00     0.309 C 
ATOM      7  O   UNL     1      -4.174  -2.063   1.322  1.00  0.00    -0.252 OA
BRANCH   6   8
ATOM      8  C   UNL     1      -2.197  -0.886   0.520  1.00  0.00     0.112 C 
ATOM      9  C   UNL     1      -1.242  -1.224  -0.650  1.00  0.00     0.021 C 
BRANCH   8  10
ATOM     10  C   UNL     1      -1.532  -0.042   1.646  1.00  0.00     0.095 C 
ATOM     11  C   UNL     1      -0.013   0.092   1.607  1.00  0.00     0.023 C 
BRANCH  10  12
ATOM     12  S   UNL     1      -2.169  -0.076   3.356  1.00  0.00     0.057 S 
ATOM     13  O   UNL     1      -3.663  -0.056   3.292  1.00  0.00    -0.254 OA
BRANCH  12  14
ATOM     14  C   UNL     1      -1.700  -1.632   4.148  1.00  0.00     0.042 A 
ATOM     15  C   UNL     1      -2.621  -2.682   4.268  1.00  0.00     0.021 A 
ATOM     16  C   UNL     1      -0.513  -1.730   4.884  1.00  0.00     0.060 A 
ATOM     17  C   UNL     1      -2.340  -3.820   5.041  1.00  0.00     0.043 A 
ATOM     18  C   UNL     1      -0.256  -2.843   5.694  1.00  0.00     0.160 A 
ATOM     19  C   UNL     1      -1.154  -3.894   5.755  1.00  0.00     0.158 A 
ATOM     20  F   UNL     1       0.866  -2.885   6.427  1.00  0.00    -0.204 F 
ATOM     21  F   UNL     1      -0.888  -4.977   6.499  1.00  0.00    -0.204 F 
ENDBRANCH  12  14
ENDBRANCH  10  12
ENDBRANCH   8  10
ENDBRANCH   6   8
ENDBRANCH   5   6
ENDBRANCH   4   5
ENDBRANCH   3   4
ENDBRANCH   2   3
ENDBRANCH   1   2
BRANCH   1  22
ATOM     22  C   UNL     1       0.888  -4.234   0.935  1.00  0.00     0.188 C 
BRANCH  22  23
ATOM     23  O   UNL     1       1.338  -5.569   0.752  1.00  0.00    -0.376 OA
BRANCH  23  24
ATOM     24  C   UNL     1       1.638  -6.341   1.911  1.00  0.00     0.202 C 
BRANCH  24  25
ATOM     25  C   UNL     1       2.896  -5.937   2.684  1.00  0.00     0.261 C 
BRANCH  25  26
ATOM     26  O   UNL     1       2.737  -4.736   3.467  1.00  0.00    -0.460 OA
BRANCH  26  27
ATOM     27  C   UNL     1       3.527  -3.696   3.110  1.00  0.00     0.338 C 
ATOM     28  O   UNL     1       4.282  -3.648   2.149  1.00  0.00    -0.246 OA
BRANCH  27  29
ATOM     29  C   UNL     1       3.288  -2.515   3.962  1.00  0.00     0.060 A 
ATOM     30  C   UNL     1       2.857  -1.338   3.340  1.00  0.00     0.016 A 
ATOM     31  C   UNL     1       3.640  -2.502   5.312  1.00  0.00     0.016 A 
ATOM     32  C   UNL     1       2.798  -0.136   4.054  1.00  0.00     0.010 A 
ATOM     33  C   UNL     1       3.583  -1.295   6.026  1.00  0.00     0.010 A 
ATOM     34  C   UNL     1       3.189  -0.096   5.397  1.00  0.00    -0.014 A 
BRANCH  34  35
ATOM     35  C   UNL     1       3.374   1.208   6.094  1.00  0.00     0.031 A 
ATOM     36  C   UNL     1       4.777   1.718   6.290  1.00  0.00     0.074 A 
ATOM     37  C   UNL     1       2.337   1.930   6.561  1.00  0.00     0.049 A 
ATOM     38  N   UNL     1       5.195   2.752   6.971  1.00  0.00    -0.248 NA
ATOM     39  C   UNL     1       5.849   0.968   5.614  1.00  0.00     0.031 C 
ATOM     40  C   UNL     1       0.928   1.608   6.373  1.00  0.00     0.029 A 
ATOM     41  N   UNL     1       2.309   3.070   7.331  1.00  0.00    -0.354 N 
ATOM     42  C   UNL     1       6.578   2.760   6.834  1.00  0.00     0.074 A 
ATOM     43  C   UNL     1       6.929   1.622   6.013  1.00  0.00     0.031 C 
ATOM     44  C   UNL     1       0.172   2.467   7.074  1.00  0.00     0.029 A 
ATOM     45  C   UNL     1       1.047   3.396   7.777  1.00  0.00     0.049 A 
ATOM     46  H   UNL     1       3.111   3.599   7.542  1.00  0.00     0.167 HD
ATOM     47  C   UNL     1       7.473   3.643   7.334  1.00  0.00     0.034 A 
ATOM     48  C   UNL     1       0.638   4.311   8.678  1.00  0.00     0.034 A 
ATOM     49  C   UNL     1       7.118   4.778   8.142  1.00  0.00     0.049 A 
ATOM     50  C   UNL     1       1.656   5.234   9.286  1.00  0.00     0.074 A 
ATOM     51  C   UNL     1       7.949   5.748   8.675  1.00  0.00     0.029 A 
ATOM     52  N   UNL     1       5.830   5.088   8.550  1.00  0.00    -0.354 N 
ATOM     53  N   UNL     1       2.950   5.278   9.083  1.00  0.00    -0.248 NA
ATOM     54  C   UNL     1       1.156   6.265  10.207  1.00  0.00     0.031 C 
ATOM     55  C   UNL     1       7.167   6.622   9.437  1.00  0.00     0.029 A 
ATOM     56  C   UNL     1       5.843   6.224   9.341  1.00  0.00     0.049 A 
ATOM     57  H   UNL     1       5.024   4.575   8.312  1.00  0.00     0.167 HD
ATOM     58  C   UNL     1       3.413   6.369   9.809  1.00  0.00     0.074 A 
ATOM     59  C   UNL     1       2.257   6.964  10.448  1.00  0.00     0.031 C 
ATOM     60  C   UNL     1       4.680   6.833   9.935  1.00  0.00     0.034 A 
BRANCH  47  61
ATOM     61  C   UNL     1       8.928   3.416   7.016  1.00  0.00     0.023 A 
ATOM     62  C   UNL     1       9.405   3.638   5.708  1.00  0.00     0.012 A 
ATOM     63  C   UNL     1       9.830   3.020   8.023  1.00  0.00     0.148 A 
ATOM     64  C   UNL     1      10.750   3.434   5.399  1.00  0.00     0.002 A 
ATOM     65  C   UNL     1      11.176   2.864   7.718  1.00  0.00     0.091 A 
ATOM     66  F   UNL     1       9.352   2.793   9.255  1.00  0.00    -0.205 F 
ATOM     67  C   UNL     1      11.636   3.057   6.405  1.00  0.00     0.022 A 
BRANCH  65  68
ATOM     68  S   UNL     1      12.410   2.457   8.958  1.00  0.00     0.127 S 
ATOM     69  O   UNL     1      12.802   1.108   8.551  1.00  0.00    -0.237 OA
ATOM     70  O   UNL     1      13.427   3.483   8.726  1.00  0.00    -0.237 OA
ATOM     71  O   UNL     1      11.735   2.547  10.244  1.00  0.00    -0.744 OA
ENDBRANCH  65  68
ENDBRANCH  47  61
BRANCH  48  72
ATOM     72  C   UNL     1      -0.805   4.413   9.041  1.00  0.00     0.023 A 
ATOM     73  C   UNL     1      -1.551   5.537   8.637  1.00  0.00     0.012 A 
ATOM     74  C   UNL     1      -1.444   3.394   9.777  1.00  0.00     0.148 A 
ATOM     75  C   UNL     1      -2.897   5.660   8.986  1.00  0.00     0.002 A 
ATOM     76  C   UNL     1      -2.796   3.501  10.080  1.00  0.00     0.091 A 
ATOM     77  F   UNL     1      -0.714   2.337  10.161  1.00  0.00    -0.205 F 
ATOM     78  C   UNL     1      -3.521   4.640   9.699  1.00  0.00     0.022 A 
BRANCH  76  79
ATOM     79  S   UNL     1      -3.710   2.192  10.906  1.00  0.00     0.127 S 
ATOM     80  O   UNL     1      -3.992   2.799  12.205  1.00  0.00    -0.237 OA
ATOM     81  O   UNL     1      -4.873   2.039  10.032  1.00  0.00    -0.237 OA
ATOM     82  O   UNL     1      -2.816   1.042  10.928  1.00  0.00    -0.744 OA
ENDBRANCH  76  79
ENDBRANCH  48  72
BRANCH  60  83
ATOM     83  C   UNL     1       4.887   8.079  10.756  1.00  0.00     0.023 A 
ATOM     84  C   UNL     1       4.752   8.035  12.157  1.00  0.00     0.012 A 
ATOM     85  C   UNL     1       5.285   9.280  10.136  1.00  0.00     0.148 A 
ATOM     86  C   UNL     1       4.974   9.177  12.925  1.00  0.00     0.002 A 
ATOM     87  C   UNL     1       5.558  10.399  10.912  1.00  0.00     0.091 A 
ATOM     88  F   UNL     1       5.389   9.306   8.799  1.00  0.00    -0.205 F 
ATOM     89  C   UNL     1       5.389  10.354  12.305  1.00  0.00     0.022 A 
BRANCH  87  90
ATOM     90  S   UNL     1       6.194  11.925  10.212  1.00  0.00     0.127 S 
ATOM     91  O   UNL     1       5.053  12.825  10.371  1.00  0.00    -0.237 OA
ATOM     92  O   UNL     1       7.329  12.217  11.089  1.00  0.00    -0.237 OA
ATOM     93  O   UNL     1       6.557  11.618   8.835  1.00  0.00    -0.744 OA
ENDBRANCH  87  90
ENDBRANCH  60  83
ENDBRANCH  34  35
ENDBRANCH  27  29
ENDBRANCH  26  27
ENDBRANCH  25  26
ENDBRANCH  24  25
ENDBRANCH  23  24
ENDBRANCH  22  23
ENDBRANCH   1  22
TORSDOF 23
