REMARK SMILES C=CCN(CC(=O)OCCOCCOCCOC(=O)c1ccc(-c2c3nc(c(-c4cccc(S(=O)(=O)[O-])c4F)c4ccc([nH]4)c(-c4cccc(S(=O)(=O)[O-])c4F)c4nc(c(-c5cccc(S(=O)(=O)[O-])c5F)c5ccc2[nH]5)C=C4)C=C3)cc1)C(=O)N(C)[C@H]1CCC[N@H+](C)C1
REMARK SMILES IDX 12 1 11 2 10 3 9 4 8 5 6 6 7 7 5 8 4 9 3 10 2 11 1 12 83 13
REMARK SMILES IDX 84 14 85 15 86 16 87 17 88 18 93 19 89 20 91 21 90 22 92 23
REMARK SMILES IDX 13 25 14 26 15 27 16 28 17 29 18 30 19 31 20 32 21 33 82 34
REMARK SMILES IDX 22 35 81 36 23 37 24 38 25 39 75 40 26 41 80 42 74 43 76 44
REMARK SMILES IDX 27 45 79 46 73 47 72 48 28 50 60 51 40 52 59 53 41 54 44 55
REMARK SMILES IDX 58 56 77 57 42 58 43 59 57 61 78 62 45 63 29 64 30 65 38 66
REMARK SMILES IDX 31 67 33 68 39 69 32 70 34 71 35 72 36 73 37 74 61 75 62 76
REMARK SMILES IDX 70 77 63 78 65 79 71 80 64 81 66 82 67 83 68 84 69 85 46 86
REMARK SMILES IDX 47 87 55 88 48 89 50 90 56 91 49 92 51 93 52 94 53 95 54 96
REMARK H PARENT 91 24 76 49 44 60
REMARK Flexibility Score: inf
ROOT
ATOM      1  C   UNL     1      -1.744   0.138   6.859  1.00  0.00     0.188 C 
ENDROOT
BRANCH   1   2
ATOM      2  O   UNL     1      -1.645   1.324   7.642  1.00  0.00    -0.376 OA
BRANCH   2   3
ATOM      3  C   UNL     1      -0.442   1.542   8.367  1.00  0.00     0.202 C 
BRANCH   3   4
ATOM      4  C   UNL     1      -0.223   0.592   9.545  1.00  0.00     0.261 C 
BRANCH   4   5
ATOM      5  O   UNL     1      -0.007  -0.781   9.139  1.00  0.00    -0.462 OA
BRANCH   5   6
ATOM      6  C   UNL     1      -0.717  -1.708   9.825  1.00  0.00     0.325 C 
ATOM      7  O   UNL     1      -1.450  -1.441  10.776  1.00  0.00    -0.250 OA
BRANCH   6   8
ATOM      8  C   UNL     1      -0.638  -3.147   9.291  1.00  0.00     0.244 C 
BRANCH   8   9
ATOM      9  N   UNL     1       0.332  -3.614   8.275  1.00  0.00    -0.310 N 
BRANCH   9  10
ATOM     10  C   UNL     1       1.620  -4.067   8.797  1.00  0.00     0.149 C 
BRANCH  10  11
ATOM     11  C   UNL     1       1.649  -5.572   8.686  1.00  0.00    -0.013 C 
ATOM     12  C   UNL     1       2.472  -6.258   7.880  1.00  0.00     0.006 C 
ENDBRANCH  10  11
ENDBRANCH   9  10
BRANCH   9  13
ATOM     13  C   UNL     1       0.244  -3.612   6.888  1.00  0.00     0.321 C 
ATOM     14  O   UNL     1       1.242  -3.259   6.253  1.00  0.00    -0.248 OA
BRANCH  13  15
ATOM     15  N   UNL     1      -0.895  -4.090   6.241  1.00  0.00    -0.319 N 
ATOM     16  C   UNL     1      -2.111  -4.434   6.964  1.00  0.00     0.149 C 
BRANCH  15  17
ATOM     17  C   UNL     1      -0.971  -4.087   4.724  1.00  0.00     0.141 C 
ATOM     18  C   UNL     1       0.303  -4.459   3.928  1.00  0.00     0.037 C 
ATOM     19  C   UNL     1      -2.090  -4.988   4.096  1.00  0.00     0.287 C 
ATOM     20  C   UNL     1       0.609  -5.949   4.014  1.00  0.00     0.064 C 
ATOM     21  N   UNL     1      -1.809  -6.426   4.262  1.00  0.00    -0.336 N 
ATOM     22  C   UNL     1      -0.581  -6.789   3.543  1.00  0.00     0.262 C 
ATOM     23  C   UNL     1      -2.940  -7.229   3.791  1.00  0.00     0.332 C 
ATOM     24  H   UNL     1      -1.672  -6.620   5.254  1.00  0.00     0.347 HD
ENDBRANCH  15  17
ENDBRANCH  13  15
ENDBRANCH   9  13
ENDBRANCH   8   9
ENDBRANCH   6   8
ENDBRANCH   5   6
ENDBRANCH   4   5
ENDBRANCH   3   4
ENDBRANCH   2   3
ENDBRANCH   1   2
BRANCH   1  25
ATOM     25  C   UNL     1      -0.472  -0.376   6.176  1.00  0.00     0.188 C 
BRANCH  25  26
ATOM     26  O   UNL     1       0.289   0.690   5.614  1.00  0.00    -0.376 OA
BRANCH  26  27
ATOM     27  C   UNL     1       0.726   0.430   4.288  1.00  0.00     0.202 C 
BRANCH  27  28
ATOM     28  C   UNL     1      -0.355   0.870   3.307  1.00  0.00     0.261 C 
BRANCH  28  29
ATOM     29  O   UNL     1      -1.565   0.107   3.500  1.00  0.00    -0.460 OA
BRANCH  29  30
ATOM     30  C   UNL     1      -2.003  -0.600   2.438  1.00  0.00     0.338 C 
ATOM     31  O   UNL     1      -1.451  -0.693   1.355  1.00  0.00    -0.246 OA
BRANCH  30  32
ATOM     32  C   UNL     1      -3.288  -1.276   2.746  1.00  0.00     0.060 A 
ATOM     33  C   UNL     1      -3.559  -1.838   3.994  1.00  0.00     0.016 A 
ATOM     34  C   UNL     1      -4.196  -1.462   1.704  1.00  0.00     0.016 A 
ATOM     35  C   UNL     1      -4.647  -2.706   4.150  1.00  0.00     0.010 A 
ATOM     36  C   UNL     1      -5.331  -2.258   1.893  1.00  0.00     0.010 A 
ATOM     37  C   UNL     1      -5.535  -2.958   3.094  1.00  0.00    -0.014 A 
BRANCH  37  38
ATOM     38  C   UNL     1      -6.610  -3.998   3.180  1.00  0.00     0.031 A 
ATOM     39  C   UNL     1      -6.728  -5.044   2.091  1.00  0.00     0.074 A 
ATOM     40  C   UNL     1      -7.491  -4.041   4.200  1.00  0.00     0.049 A 
ATOM     41  N   UNL     1      -7.740  -5.816   1.786  1.00  0.00    -0.248 NA
ATOM     42  C   UNL     1      -5.552  -5.236   1.224  1.00  0.00     0.031 C 
ATOM     43  C   UNL     1      -7.480  -3.174   5.377  1.00  0.00     0.029 A 
ATOM     44  N   UNL     1      -8.591  -4.847   4.396  1.00  0.00    -0.354 N 
ATOM     45  C   UNL     1      -7.365  -6.502   0.634  1.00  0.00     0.074 A 
ATOM     46  C   UNL     1      -6.016  -6.084   0.317  1.00  0.00     0.031 C 
ATOM     47  C   UNL     1      -8.503  -3.503   6.179  1.00  0.00     0.029 A 
ATOM     48  C   UNL     1      -9.320  -4.513   5.516  1.00  0.00     0.049 A 
ATOM     49  H   UNL     1      -8.833  -5.588   3.795  1.00  0.00     0.167 HD
ATOM     50  C   UNL     1      -8.080  -7.391  -0.097  1.00  0.00     0.034 A 
ATOM     51  C   UNL     1     -10.544  -4.901   5.929  1.00  0.00     0.034 A 
ATOM     52  C   UNL     1      -9.386  -7.875   0.267  1.00  0.00     0.049 A 
ATOM     53  C   UNL     1     -11.339  -5.861   5.089  1.00  0.00     0.074 A 
ATOM     54  C   UNL     1     -10.188  -8.782  -0.406  1.00  0.00     0.029 A 
ATOM     55  N   UNL     1     -10.074  -7.511   1.413  1.00  0.00    -0.354 N 
ATOM     56  N   UNL     1     -10.997  -6.463   3.977  1.00  0.00    -0.248 NA
ATOM     57  C   UNL     1     -12.694  -6.187   5.558  1.00  0.00     0.031 C 
ATOM     58  C   UNL     1     -11.365  -8.958   0.329  1.00  0.00     0.029 A 
ATOM     59  C   UNL     1     -11.287  -8.176   1.470  1.00  0.00     0.049 A 
ATOM     60  H   UNL     1      -9.748  -6.873   2.088  1.00  0.00     0.167 HD
ATOM     61  C   UNL     1     -12.087  -7.251   3.621  1.00  0.00     0.074 A 
ATOM     62  C   UNL     1     -13.088  -7.073   4.653  1.00  0.00     0.031 C 
ATOM     63  C   UNL     1     -12.254  -8.032   2.526  1.00  0.00     0.034 A 
BRANCH  50  64
ATOM     64  C   UNL     1      -7.473  -7.908  -1.376  1.00  0.00     0.023 A 
ATOM     65  C   UNL     1      -6.449  -8.873  -1.337  1.00  0.00     0.012 A 
ATOM     66  C   UNL     1      -7.977  -7.486  -2.624  1.00  0.00     0.148 A 
ATOM     67  C   UNL     1      -5.917  -9.391  -2.519  1.00  0.00     0.002 A 
ATOM     68  C   UNL     1      -7.473  -8.038  -3.796  1.00  0.00     0.091 A 
ATOM     69  F   UNL     1      -8.937  -6.550  -2.642  1.00  0.00    -0.205 F 
ATOM     70  C   UNL     1      -6.436  -8.983  -3.746  1.00  0.00     0.022 A 
BRANCH  68  71
ATOM     71  S   UNL     1      -8.134  -7.633  -5.417  1.00  0.00     0.127 S 
ATOM     72  O   UNL     1      -7.070  -6.797  -5.970  1.00  0.00    -0.237 OA
ATOM     73  O   UNL     1      -8.258  -8.952  -6.039  1.00  0.00    -0.237 OA
ATOM     74  O   UNL     1      -9.401  -6.957  -5.174  1.00  0.00    -0.744 OA
ENDBRANCH  68  71
ENDBRANCH  50  64
BRANCH  51  75
ATOM     75  C   UNL     1     -11.111  -4.337   7.188  1.00  0.00     0.023 A 
ATOM     76  C   UNL     1     -11.316  -5.176   8.299  1.00  0.00     0.012 A 
ATOM     77  C   UNL     1     -11.404  -2.963   7.304  1.00  0.00     0.148 A 
ATOM     78  C   UNL     1     -11.809  -4.658   9.499  1.00  0.00     0.002 A 
ATOM     79  C   UNL     1     -11.820  -2.442   8.523  1.00  0.00     0.091 A 
ATOM     80  F   UNL     1     -11.243  -2.184   6.225  1.00  0.00    -0.205 F 
ATOM     81  C   UNL     1     -12.041  -3.290   9.617  1.00  0.00     0.022 A 
BRANCH  79  82
ATOM     82  S   UNL     1     -11.961  -0.672   8.796  1.00  0.00     0.127 S 
ATOM     83  O   UNL     1     -13.408  -0.477   8.757  1.00  0.00    -0.237 OA
ATOM     84  O   UNL     1     -11.352  -0.517  10.118  1.00  0.00    -0.237 OA
ATOM     85  O   UNL     1     -11.202  -0.055   7.717  1.00  0.00    -0.744 OA
ENDBRANCH  79  82
ENDBRANCH  51  75
BRANCH  63  86
ATOM     86  C   UNL     1     -13.553  -8.784   2.400  1.00  0.00     0.023 A 
ATOM     87  C   UNL     1     -14.729  -8.093   2.048  1.00  0.00     0.012 A 
ATOM     88  C   UNL     1     -13.596 -10.180   2.576  1.00  0.00     0.148 A 
ATOM     89  C   UNL     1     -15.936  -8.776   1.907  1.00  0.00     0.002 A 
ATOM     90  C   UNL     1     -14.794 -10.861   2.391  1.00  0.00     0.091 A 
ATOM     91  F   UNL     1     -12.470 -10.816   2.931  1.00  0.00    -0.205 F 
ATOM     92  C   UNL     1     -15.967 -10.160   2.067  1.00  0.00     0.022 A 
BRANCH  90  93
ATOM     93  S   UNL     1     -14.905 -12.651   2.496  1.00  0.00     0.127 S 
ATOM     94  O   UNL     1     -15.558 -12.833   3.791  1.00  0.00    -0.237 OA
ATOM     95  O   UNL     1     -15.741 -12.980   1.340  1.00  0.00    -0.237 OA
ATOM     96  O   UNL     1     -13.536 -13.141   2.408  1.00  0.00    -0.744 OA
ENDBRANCH  90  93
ENDBRANCH  63  86
ENDBRANCH  37  38
ENDBRANCH  30  32
ENDBRANCH  29  30
ENDBRANCH  28  29
ENDBRANCH  27  28
ENDBRANCH  26  27
ENDBRANCH  25  26
ENDBRANCH   1  25
TORSDOF 26
