REMARK SMILES Cc1ccc([C@@]23C[C@@H]4C[C@@H](C[C@@](C(=O)N5CCC(C(=O)OCCOCCOCCOC(=O)c6ccc(-c7c8nc(c(-c9cccc(S(=O)(=O)[O-])c9F)c9ccc([nH]9)c(-c9cccc(S(=O)(=O)[O-])c9F)c9nc(c(-c%10cccc(S(=O)(=O)[O-])c%10F)c%10ccc7[nH]%10)C=C9)C=C8)cc6)CC5)(C4)C2)C3)cc1
REMARK SMILES IDX 26 1 25 2 24 3 23 4 22 5 21 6 19 7 20 8 18 9 13 10 14 11
REMARK SMILES IDX 15 12 16 13 97 14 17 15 96 16 12 17 6 18 7 19 99 20 100 21
REMARK SMILES IDX 8 22 10 23 9 24 98 25 11 26 5 27 1 28 2 29 3 30 102 31 4 32
REMARK SMILES IDX 101 33 27 34 28 35 29 36 30 37 31 38 32 39 33 40 34 41 95 42
REMARK SMILES IDX 35 43 94 44 36 45 37 46 38 47 88 48 39 49 93 50 87 51 89 52
REMARK SMILES IDX 40 53 92 54 86 55 85 56 41 58 73 59 53 60 72 61 54 62 57 63
REMARK SMILES IDX 71 64 90 65 55 66 56 67 70 69 91 70 58 71 42 72 43 73 51 74
REMARK SMILES IDX 44 75 46 76 52 77 45 78 47 79 48 80 49 81 50 82 74 83 75 84
REMARK SMILES IDX 83 85 76 86 78 87 84 88 77 89 79 90 80 91 81 92 82 93 59 94
REMARK SMILES IDX 60 95 68 96 61 97 63 98 69 99 62 100 64 101 65 102 66 103
REMARK SMILES IDX 67 104
REMARK H PARENT 89 57 57 68
REMARK Flexibility Score: inf
ROOT
ATOM      1  C   UNL     1      -8.804  -2.858  -9.201  1.00  0.00     0.188 C 
ENDROOT
BRANCH   1   2
ATOM      2  C   UNL     1      -9.027  -4.192  -8.497  1.00  0.00     0.188 C 
BRANCH   2   3
ATOM      3  O   UNL     1      -9.939  -4.295  -7.395  1.00  0.00    -0.376 OA
BRANCH   3   4
ATOM      4  C   UNL     1     -10.216  -3.228  -6.475  1.00  0.00     0.202 C 
BRANCH   4   5
ATOM      5  C   UNL     1      -9.826  -2.990  -4.853  1.00  0.00     0.261 C 
BRANCH   5   6
ATOM      6  O   UNL     1      -8.352  -3.170  -3.801  1.00  0.00    -0.463 OA
BRANCH   6   7
ATOM      7  C   UNL     1      -7.369  -4.155  -3.327  1.00  0.00     0.309 C 
ATOM      8  O   UNL     1      -7.309  -5.378  -3.523  1.00  0.00    -0.252 OA
BRANCH   7   9
ATOM      9  C   UNL     1      -6.163  -3.833  -2.566  1.00  0.00     0.103 C 
ATOM     10  C   UNL     1      -5.495  -1.998   0.518  1.00  0.00     0.228 C 
ATOM     11  O   UNL     1      -6.204  -2.455   1.412  1.00  0.00    -0.274 OA
ATOM     12  N   UNL     1      -4.844  -2.815  -0.415  1.00  0.00    -0.342 N 
ATOM     13  C   UNL     1      -5.064  -4.244  -0.318  1.00  0.00     0.120 C 
ATOM     14  C   UNL     1      -4.453  -2.399  -1.768  1.00  0.00     0.120 C 
ATOM     15  C   UNL     1      -6.261  -4.552  -1.187  1.00  0.00     0.037 C 
ATOM     16  C   UNL     1      -5.713  -2.423  -2.609  1.00  0.00     0.037 C 
BRANCH  10  17
ATOM     17  C   UNL     1      -5.157  -0.508   0.473  1.00  0.00     0.051 C 
ATOM     18  C   UNL     1      -3.006   0.878   0.449  1.00  0.00    -0.003 C 
ATOM     19  C   UNL     1      -3.557   1.528  -0.856  1.00  0.00     0.015 C 
ATOM     20  C   UNL     1      -3.633  -0.500   0.596  1.00  0.00     0.028 C 
ATOM     21  C   UNL     1      -3.537   1.686   1.662  1.00  0.00     0.015 C 
ATOM     22  C   UNL     1      -5.096   1.648  -0.830  1.00  0.00    -0.009 C 
ATOM     23  C   UNL     1      -5.091   1.713   1.672  1.00  0.00    -0.009 C 
ATOM     24  C   UNL     1      -5.570   2.425   0.397  1.00  0.00     0.007 C 
ATOM     25  C   UNL     1      -5.697   0.250  -0.758  1.00  0.00     0.020 C 
ATOM     26  C   UNL     1      -5.671   0.275   1.702  1.00  0.00     0.020 C 
BRANCH  18  27
ATOM     27  C   UNL     1      -1.472   0.721   0.387  1.00  0.00    -0.042 A 
ATOM     28  C   UNL     1       2.822   0.239  -0.062  1.00  0.00     0.044 C 
ATOM     29  C   UNL     1       1.347   0.429   0.101  1.00  0.00    -0.051 A 
ATOM     30  C   UNL     1       0.539  -0.693   0.219  1.00  0.00     0.004 A 
ATOM     31  C   UNL     1       0.749   1.694   0.130  1.00  0.00     0.004 A 
ATOM     32  C   UNL     1      -0.837  -0.545   0.373  1.00  0.00     0.004 A 
ATOM     33  C   UNL     1      -0.641   1.839   0.268  1.00  0.00     0.004 A 
ENDBRANCH  18  27
ENDBRANCH  10  17
ENDBRANCH   7   9
ENDBRANCH   6   7
ENDBRANCH   5   6
ENDBRANCH   4   5
ENDBRANCH   3   4
ENDBRANCH   2   3
ENDBRANCH   1   2
BRANCH   1  34
ATOM     34  O   UNL     1      -8.728  -1.824  -8.245  1.00  0.00    -0.376 OA
BRANCH  34  35
ATOM     35  C   UNL     1      -8.733  -0.502  -8.733  1.00  0.00     0.202 C 
BRANCH  35  36
ATOM     36  C   UNL     1      -7.367  -0.099  -9.301  1.00  0.00     0.261 C 
BRANCH  36  37
ATOM     37  O   UNL     1      -6.317  -0.293  -8.323  1.00  0.00    -0.460 OA
BRANCH  37  38
ATOM     38  C   UNL     1      -5.507  -1.406  -8.490  1.00  0.00     0.338 C 
ATOM     39  O   UNL     1      -4.911  -1.651  -9.513  1.00  0.00    -0.246 OA
BRANCH  38  40
ATOM     40  C   UNL     1      -5.715  -2.352  -7.333  1.00  0.00     0.060 A 
ATOM     41  C   UNL     1      -5.521  -3.744  -7.339  1.00  0.00     0.016 A 
ATOM     42  C   UNL     1      -6.505  -1.879  -6.351  1.00  0.00     0.016 A 
ATOM     43  C   UNL     1      -6.357  -4.660  -6.554  1.00  0.00     0.010 A 
ATOM     44  C   UNL     1      -7.434  -2.779  -5.847  1.00  0.00     0.010 A 
ATOM     45  C   UNL     1      -7.511  -4.235  -5.878  1.00  0.00    -0.014 A 
BRANCH  45  46
ATOM     46  C   UNL     1      -8.800  -5.317  -5.197  1.00  0.00     0.031 A 
ATOM     47  C   UNL     1      -9.615  -5.356  -3.542  1.00  0.00     0.074 A 
ATOM     48  C   UNL     1      -8.996  -6.489  -5.834  1.00  0.00     0.049 A 
ATOM     49  N   UNL     1      -9.688  -6.416  -2.750  1.00  0.00    -0.248 NA
ATOM     50  C   UNL     1     -10.069  -4.187  -2.634  1.00  0.00     0.031 C 
ATOM     51  C   UNL     1      -9.972  -7.515  -5.500  1.00  0.00     0.029 A 
ATOM     52  N   UNL     1      -8.224  -7.056  -6.850  1.00  0.00    -0.354 N 
ATOM     53  C   UNL     1     -10.136  -6.008  -1.459  1.00  0.00     0.074 A 
ATOM     54  C   UNL     1     -10.104  -4.616  -1.400  1.00  0.00     0.031 C 
ATOM     55  C   UNL     1      -9.590  -8.664  -6.078  1.00  0.00     0.029 A 
ATOM     56  C   UNL     1      -8.276  -8.438  -6.656  1.00  0.00     0.049 A 
ATOM     57  H   UNL     1      -7.741  -6.577  -7.561  1.00  0.00     0.167 HD
ATOM     58  C   UNL     1     -10.766  -6.778  -0.534  1.00  0.00     0.034 A 
ATOM     59  C   UNL     1      -7.152  -9.172  -6.421  1.00  0.00     0.034 A 
ATOM     60  C   UNL     1     -10.837  -8.106  -1.063  1.00  0.00     0.049 A 
ATOM     61  C   UNL     1      -7.268 -10.044  -5.190  1.00  0.00     0.074 A 
ATOM     62  C   UNL     1     -11.675  -8.663  -2.012  1.00  0.00     0.029 A 
ATOM     63  N   UNL     1      -9.691  -8.864  -1.019  1.00  0.00    -0.354 N 
ATOM     64  N   UNL     1      -8.141  -9.865  -4.233  1.00  0.00    -0.248 NA
ATOM     65  C   UNL     1      -6.450 -11.232  -4.971  1.00  0.00     0.031 C 
ATOM     66  C   UNL     1     -10.964  -9.729  -2.620  1.00  0.00     0.029 A 
ATOM     67  C   UNL     1      -9.743  -9.854  -1.979  1.00  0.00     0.049 A 
ATOM     68  H   UNL     1      -8.943  -8.721  -0.395  1.00  0.00     0.167 HD
ATOM     69  C   UNL     1      -7.964 -10.813  -3.257  1.00  0.00     0.074 A 
ATOM     70  C   UNL     1      -6.939 -11.683  -3.804  1.00  0.00     0.031 C 
ATOM     71  C   UNL     1      -8.637 -10.786  -2.065  1.00  0.00     0.034 A 
BRANCH  58  72
ATOM     72  C   UNL     1     -11.677  -6.175   0.558  1.00  0.00     0.023 A 
ATOM     73  C   UNL     1     -12.901  -6.836   0.774  1.00  0.00     0.012 A 
ATOM     74  C   UNL     1     -11.505  -4.953   1.278  1.00  0.00     0.148 A 
ATOM     75  C   UNL     1     -13.935  -6.277   1.537  1.00  0.00     0.002 A 
ATOM     76  C   UNL     1     -12.577  -4.341   1.951  1.00  0.00     0.091 A 
ATOM     77  F   UNL     1     -10.289  -4.391   1.357  1.00  0.00    -0.205 F 
ATOM     78  C   UNL     1     -13.795  -5.009   2.082  1.00  0.00     0.022 A 
BRANCH  76  79
ATOM     79  S   UNL     1     -12.543  -2.622   2.523  1.00  0.00     0.127 S 
ATOM     80  O   UNL     1     -13.843  -2.112   2.074  1.00  0.00    -0.237 OA
ATOM     81  O   UNL     1     -12.427  -2.763   3.972  1.00  0.00    -0.237 OA
ATOM     82  O   UNL     1     -11.413  -2.000   1.843  1.00  0.00    -0.744 OA
ENDBRANCH  76  79
ENDBRANCH  58  72
BRANCH  59  83
ATOM     83  C   UNL     1      -5.898  -8.637  -7.058  1.00  0.00     0.023 A 
ATOM     84  C   UNL     1      -5.960  -8.388  -8.457  1.00  0.00     0.012 A 
ATOM     85  C   UNL     1      -4.799  -8.114  -6.347  1.00  0.00     0.148 A 
ATOM     86  C   UNL     1      -5.047  -7.552  -9.103  1.00  0.00     0.002 A 
ATOM     87  C   UNL     1      -3.876  -7.283  -7.005  1.00  0.00     0.091 A 
ATOM     88  F   UNL     1      -4.680  -8.389  -5.042  1.00  0.00    -0.205 F 
ATOM     89  C   UNL     1      -4.016  -6.984  -8.372  1.00  0.00     0.022 A 
BRANCH  87  90
ATOM     90  S   UNL     1      -2.562  -6.414  -6.122  1.00  0.00     0.127 S 
ATOM     91  O   UNL     1      -1.447  -7.348  -6.261  1.00  0.00    -0.237 OA
ATOM     92  O   UNL     1      -2.414  -5.178  -6.896  1.00  0.00    -0.237 OA
ATOM     93  O   UNL     1      -3.071  -6.210  -4.774  1.00  0.00    -0.744 OA
ENDBRANCH  87  90
ENDBRANCH  59  83
BRANCH  71  94
ATOM     94  C   UNL     1      -8.293 -11.575  -0.808  1.00  0.00     0.023 A 
ATOM     95  C   UNL     1      -7.032 -12.161  -0.617  1.00  0.00     0.012 A 
ATOM     96  C   UNL     1      -9.160 -11.561   0.323  1.00  0.00     0.148 A 
ATOM     97  C   UNL     1      -6.659 -12.731   0.605  1.00  0.00     0.002 A 
ATOM     98  C   UNL     1      -8.727 -11.994   1.572  1.00  0.00     0.091 A 
ATOM     99  F   UNL     1     -10.425 -11.128   0.205  1.00  0.00    -0.205 F 
ATOM    100  C   UNL     1      -7.489 -12.615   1.711  1.00  0.00     0.022 A 
BRANCH  98 101
ATOM    101  S   UNL     1      -9.660 -11.560   3.050  1.00  0.00     0.127 S 
ATOM    102  O   UNL     1     -10.646 -12.634   3.125  1.00  0.00    -0.237 OA
ATOM    103  O   UNL     1      -8.638 -11.602   4.099  1.00  0.00    -0.237 OA
ATOM    104  O   UNL     1     -10.171 -10.224   2.773  1.00  0.00    -0.744 OA
ENDBRANCH  98 101
ENDBRANCH  71  94
ENDBRANCH  45  46
ENDBRANCH  38  40
ENDBRANCH  37  38
ENDBRANCH  36  37
ENDBRANCH  35  36
ENDBRANCH  34  35
ENDBRANCH   1  34
TORSDOF 22
