REMARK SMILES CCc1cc([C@H]([NH3+])C(=O)OCCOCCOCCOC(=O)c2ccc(-c3c4nc(c(-c5cccc(S(=O)(=O)[O-])c5F)c5ccc([nH]5)c(-c5cccc(S(=O)(=O)[O-])c5F)c5nc(c(-c6cccc(S(=O)(=O)[O-])c6F)c6ccc3[nH]6)C=C5)C=C4)cc2)cc(CC)c1N
REMARK SMILES IDX 15 1 14 2 13 3 12 4 11 5 10 6 8 7 9 8 6 9 5 10 3 11 4 12
REMARK SMILES IDX 89 13 86 14 85 15 2 16 1 17 90 18 87 21 88 22 7 23 16 27
REMARK SMILES IDX 17 28 18 29 19 30 20 31 21 32 22 33 23 34 84 35 24 36 83 37
REMARK SMILES IDX 25 38 26 39 27 40 77 41 28 42 82 43 76 44 78 45 29 46 81 47
REMARK SMILES IDX 75 48 74 49 30 51 62 52 42 53 61 54 43 55 46 56 60 57 79 58
REMARK SMILES IDX 44 59 45 60 59 62 80 63 47 64 31 65 32 66 40 67 33 68 35 69
REMARK SMILES IDX 41 70 34 71 36 72 37 73 38 74 39 75 63 76 64 77 72 78 65 79
REMARK SMILES IDX 67 80 73 81 66 82 68 83 69 84 70 85 71 86 48 87 49 88 57 89
REMARK SMILES IDX 50 90 52 91 58 92 51 93 53 94 54 95 55 96 56 97
REMARK H PARENT 90 19 90 20 7 24 7 25 7 26 78 50 46 61
REMARK Flexibility Score: inf
ROOT
ATOM      1  C   UNL     1       1.190   4.670   3.999  1.00  0.00     0.188 C 
ENDROOT
BRANCH   1   2
ATOM      2  C   UNL     1       0.830   6.008   4.669  1.00  0.00     0.188 C 
BRANCH   2   3
ATOM      3  O   UNL     1      -0.090   6.030   5.752  1.00  0.00    -0.376 OA
BRANCH   3   4
ATOM      4  C   UNL     1      -1.189   5.133   5.771  1.00  0.00     0.202 C 
BRANCH   4   5
ATOM      5  C   UNL     1      -2.146   5.056   4.568  1.00  0.00     0.261 C 
BRANCH   5   6
ATOM      6  O   UNL     1      -1.549   4.957   3.260  1.00  0.00    -0.459 OA
BRANCH   6   7
ATOM      7  C   UNL     1      -1.533   6.110   2.535  1.00  0.00     0.369 C 
ATOM      8  O   UNL     1      -1.986   7.176   2.951  1.00  0.00    -0.245 OA
BRANCH   7   9
ATOM      9  C   UNL     1      -0.977   5.983   1.089  1.00  0.00     0.323 C 
BRANCH   9  10
ATOM     10  C   UNL     1      -2.142   5.801   0.153  1.00  0.00     0.021 A 
ATOM     11  C   UNL     1      -4.197   6.748  -0.735  1.00  0.00    -0.024 A 
ATOM     12  C   UNL     1      -2.983   6.889  -0.057  1.00  0.00     0.016 A 
ATOM     13  C   UNL     1      -4.543   5.490  -1.284  1.00  0.00     0.038 A 
ATOM     14  C   UNL     1      -3.615   4.425  -1.215  1.00  0.00    -0.024 A 
ATOM     15  C   UNL     1      -2.470   4.575  -0.420  1.00  0.00     0.016 A 
BRANCH  11  16
ATOM     16  C   UNL     1      -5.095   7.967  -0.724  1.00  0.00     0.034 C 
ATOM     17  C   UNL     1      -5.393   8.551  -2.092  1.00  0.00     0.009 C 
ENDBRANCH  11  16
BRANCH  13  18
ATOM     18  N   UNL     1      -5.751   5.342  -1.962  1.00  0.00    -0.398 N 
ATOM     19  H   UNL     1      -6.388   6.092  -2.002  1.00  0.00     0.156 HD
ATOM     20  H   UNL     1      -5.968   4.488  -2.401  1.00  0.00     0.156 HD
ENDBRANCH  13  18
BRANCH  14  21
ATOM     21  C   UNL     1      -3.786   3.083  -1.897  1.00  0.00     0.034 C 
ATOM     22  C   UNL     1      -2.620   2.751  -2.830  1.00  0.00     0.009 C 
ENDBRANCH  14  21
ENDBRANCH   9  10
BRANCH   9  23
ATOM     23  N   UNL     1       0.086   4.979   0.850  1.00  0.00    -0.342 N 
ATOM     24  H   UNL     1      -0.291   4.043   0.997  1.00  0.00     0.345 HD
ATOM     25  H   UNL     1       0.859   5.140   1.496  1.00  0.00     0.345 HD
ATOM     26  H   UNL     1       0.423   5.062  -0.110  1.00  0.00     0.345 HD
ENDBRANCH   9  23
ENDBRANCH   7   9
ENDBRANCH   6   7
ENDBRANCH   5   6
ENDBRANCH   4   5
ENDBRANCH   3   4
ENDBRANCH   2   3
ENDBRANCH   1   2
BRANCH   1  27
ATOM     27  O   UNL     1       0.683   3.531   4.643  1.00  0.00    -0.376 OA
BRANCH  27  28
ATOM     28  C   UNL     1       1.546   2.717   5.398  1.00  0.00     0.202 C 
BRANCH  28  29
ATOM     29  C   UNL     1       2.727   3.276   6.212  1.00  0.00     0.261 C 
BRANCH  29  30
ATOM     30  O   UNL     1       3.252   4.564   5.862  1.00  0.00    -0.460 OA
BRANCH  30  31
ATOM     31  C   UNL     1       4.234   4.603   4.933  1.00  0.00     0.338 C 
ATOM     32  O   UNL     1       4.705   3.649   4.327  1.00  0.00    -0.246 OA
BRANCH  31  33
ATOM     33  C   UNL     1       4.503   6.019   4.594  1.00  0.00     0.060 A 
ATOM     34  C   UNL     1       4.253   6.473   3.289  1.00  0.00     0.016 A 
ATOM     35  C   UNL     1       5.006   6.894   5.557  1.00  0.00     0.016 A 
ATOM     36  C   UNL     1       4.538   7.795   2.936  1.00  0.00     0.010 A 
ATOM     37  C   UNL     1       5.314   8.209   5.196  1.00  0.00     0.010 A 
ATOM     38  C   UNL     1       5.115   8.658   3.876  1.00  0.00    -0.014 A 
BRANCH  38  39
ATOM     39  C   UNL     1       5.708   9.952   3.449  1.00  0.00     0.031 A 
ATOM     40  C   UNL     1       7.198  10.015   3.243  1.00  0.00     0.074 A 
ATOM     41  C   UNL     1       4.960  11.058   3.285  1.00  0.00     0.049 A 
ATOM     42  N   UNL     1       7.960  11.046   2.989  1.00  0.00    -0.248 NA
ATOM     43  C   UNL     1       7.927   8.739   3.347  1.00  0.00     0.031 C 
ATOM     44  C   UNL     1       3.509  11.131   3.435  1.00  0.00     0.029 A 
ATOM     45  N   UNL     1       5.335  12.348   2.993  1.00  0.00    -0.354 N 
ATOM     46  C   UNL     1       9.259  10.554   2.947  1.00  0.00     0.074 A 
ATOM     47  C   UNL     1       9.183   9.133   3.204  1.00  0.00     0.031 C 
ATOM     48  C   UNL     1       3.119  12.408   3.274  1.00  0.00     0.029 A 
ATOM     49  C   UNL     1       4.295  13.247   3.045  1.00  0.00     0.049 A 
ATOM     50  H   UNL     1       6.259  12.603   2.767  1.00  0.00     0.167 HD
ATOM     51  C   UNL     1      10.414  11.222   2.712  1.00  0.00     0.034 A 
ATOM     52  C   UNL     1       4.298  14.593   2.957  1.00  0.00     0.034 A 
ATOM     53  C   UNL     1      10.490  12.632   2.445  1.00  0.00     0.049 A 
ATOM     54  C   UNL     1       5.602  15.320   2.732  1.00  0.00     0.074 A 
ATOM     55  C   UNL     1      11.608  13.391   2.149  1.00  0.00     0.029 A 
ATOM     56  N   UNL     1       9.410  13.501   2.462  1.00  0.00    -0.354 N 
ATOM     57  N   UNL     1       6.810  14.831   2.592  1.00  0.00    -0.248 NA
ATOM     58  C   UNL     1       5.537  16.787   2.622  1.00  0.00     0.031 C 
ATOM     59  C   UNL     1      11.211  14.725   2.027  1.00  0.00     0.029 A 
ATOM     60  C   UNL     1       9.837  14.790   2.196  1.00  0.00     0.049 A 
ATOM     61  H   UNL     1       8.477  13.239   2.637  1.00  0.00     0.167 HD
ATOM     62  C   UNL     1       7.639  15.920   2.334  1.00  0.00     0.074 A 
ATOM     63  C   UNL     1       6.792  17.094   2.324  1.00  0.00     0.031 C 
ATOM     64  C   UNL     1       8.980  15.946   2.132  1.00  0.00     0.034 A 
BRANCH  51  65
ATOM     65  C   UNL     1      11.695  10.430   2.729  1.00  0.00     0.023 A 
ATOM     66  C   UNL     1      11.975   9.522   1.687  1.00  0.00     0.012 A 
ATOM     67  C   UNL     1      12.643  10.623   3.752  1.00  0.00     0.148 A 
ATOM     68  C   UNL     1      13.164   8.793   1.683  1.00  0.00     0.002 A 
ATOM     69  C   UNL     1      13.847   9.930   3.714  1.00  0.00     0.091 A 
ATOM     70  F   UNL     1      12.349  11.474   4.745  1.00  0.00    -0.205 F 
ATOM     71  C   UNL     1      14.103   9.005   2.689  1.00  0.00     0.022 A 
BRANCH  69  72
ATOM     72  S   UNL     1      15.155  10.193   4.916  1.00  0.00     0.127 S 
ATOM     73  O   UNL     1      15.150   8.923   5.640  1.00  0.00    -0.237 OA
ATOM     74  O   UNL     1      16.321  10.401   4.057  1.00  0.00    -0.237 OA
ATOM     75  O   UNL     1      14.758  11.356   5.697  1.00  0.00    -0.744 OA
ENDBRANCH  69  72
ENDBRANCH  51  65
BRANCH  52  76
ATOM     76  C   UNL     1       3.021  15.356   3.069  1.00  0.00     0.023 A 
ATOM     77  C   UNL     1       2.515  16.035   1.944  1.00  0.00     0.012 A 
ATOM     78  C   UNL     1       2.311  15.418   4.285  1.00  0.00     0.148 A 
ATOM     79  C   UNL     1       1.344  16.790   2.035  1.00  0.00     0.002 A 
ATOM     80  C   UNL     1       1.117  16.125   4.354  1.00  0.00     0.091 A 
ATOM     81  F   UNL     1       2.819  14.780   5.349  1.00  0.00    -0.205 F 
ATOM     82  C   UNL     1       0.641  16.827   3.235  1.00  0.00     0.022 A 
BRANCH  80  83
ATOM     83  S   UNL     1       0.081  16.135   5.821  1.00  0.00     0.127 S 
ATOM     84  O   UNL     1       0.175  17.530   6.243  1.00  0.00    -0.237 OA
ATOM     85  O   UNL     1      -1.217  15.742   5.273  1.00  0.00    -0.237 OA
ATOM     86  O   UNL     1       0.673  15.162   6.729  1.00  0.00    -0.744 OA
ENDBRANCH  80  83
ENDBRANCH  52  76
BRANCH  64  87
ATOM     87  C   UNL     1       9.624  17.273   1.815  1.00  0.00     0.023 A 
ATOM     88  C   UNL     1       9.756  18.257   2.815  1.00  0.00     0.012 A 
ATOM     89  C   UNL     1      10.176  17.508   0.539  1.00  0.00     0.148 A 
ATOM     90  C   UNL     1      10.394  19.466   2.539  1.00  0.00     0.002 A 
ATOM     91  C   UNL     1      10.857  18.692   0.288  1.00  0.00     0.091 A 
ATOM     92  F   UNL     1      10.028  16.566  -0.404  1.00  0.00    -0.205 F 
ATOM     93  C   UNL     1      10.955  19.679   1.282  1.00  0.00     0.022 A 
BRANCH  91  94
ATOM     94  S   UNL     1      11.698  19.011  -1.268  1.00  0.00     0.127 S 
ATOM     95  O   UNL     1      10.864  20.062  -1.848  1.00  0.00    -0.237 OA
ATOM     96  O   UNL     1      13.018  19.457  -0.820  1.00  0.00    -0.237 OA
ATOM     97  O   UNL     1      11.701  17.747  -1.992  1.00  0.00    -0.744 OA
ENDBRANCH  91  94
ENDBRANCH  64  87
ENDBRANCH  38  39
ENDBRANCH  31  33
ENDBRANCH  30  31
ENDBRANCH  29  30
ENDBRANCH  28  29
ENDBRANCH  27  28
ENDBRANCH   1  27
TORSDOF 25
