REMARK SMILES Cc1oc(-c2ccc(Cl)cc2[N+](=O)[O-])cc1C(=O)OCCOCCOCCOC(=O)c1ccc(-c2c3nc(c(-c4cccc(S(=O)(=O)[O-])c4F)c4ccc([nH]4)c(-c4cccc(S(=O)(=O)[O-])c4F)c4nc(c(-c5cccc(S(=O)(=O)[O-])c5F)c5ccc2[nH]5)C=C4)C=C3)cc1
REMARK SMILES IDX 24 1 23 2 22 3 21 4 20 5 19 6 17 7 18 8 16 9 1 10 2 11 3 12
REMARK SMILES IDX 4 13 15 14 5 15 6 16 11 17 7 18 10 19 8 20 9 21 12 22 13 23
REMARK SMILES IDX 14 24 25 25 26 26 27 27 28 28 29 29 30 30 31 31 32 32 93 33
REMARK SMILES IDX 33 34 92 35 34 36 35 37 36 38 86 39 37 40 91 41 85 42 87 43
REMARK SMILES IDX 38 44 90 45 84 46 83 47 39 49 71 50 51 51 70 52 52 53 55 54
REMARK SMILES IDX 69 55 88 56 53 57 54 58 68 60 89 61 56 62 40 63 41 64 49 65
REMARK SMILES IDX 42 66 44 67 50 68 43 69 45 70 46 71 47 72 48 73 72 74 73 75
REMARK SMILES IDX 81 76 74 77 76 78 82 79 75 80 77 81 78 82 79 83 80 84 57 85
REMARK SMILES IDX 58 86 66 87 59 88 61 89 67 90 60 91 62 92 63 93 64 94 65 95
REMARK H PARENT 87 48 55 59
REMARK Flexibility Score: inf
ROOT
ATOM      1  C   UNL     1       0.534  -3.022   2.196  1.00  0.00     0.188 C 
ENDROOT
BRANCH   1   2
ATOM      2  C   UNL     1      -0.297  -4.060   1.413  1.00  0.00     0.188 C 
BRANCH   2   3
ATOM      3  O   UNL     1       0.308  -5.264   0.970  1.00  0.00    -0.376 OA
BRANCH   3   4
ATOM      4  C   UNL     1       1.499  -5.207   0.195  1.00  0.00     0.202 C 
BRANCH   4   5
ATOM      5  C   UNL     1       1.443  -4.429  -1.116  1.00  0.00     0.261 C 
BRANCH   5   6
ATOM      6  O   UNL     1       1.319  -3.022  -0.858  1.00  0.00    -0.460 OA
BRANCH   6   7
ATOM      7  C   UNL     1       0.381  -2.386  -1.612  1.00  0.00     0.341 C 
ATOM      8  O   UNL     1      -0.175  -2.879  -2.586  1.00  0.00    -0.246 OA
BRANCH   7   9
ATOM      9  C   UNL     1      -0.021  -1.111  -1.058  1.00  0.00     0.101 A 
ATOM     10  C   UNL     1       2.180  -0.007  -0.092  1.00  0.00     0.088 C 
ATOM     11  C   UNL     1       0.744  -0.145  -0.422  1.00  0.00     0.116 A 
ATOM     12  O   UNL     1      -0.041   0.924  -0.077  1.00  0.00    -0.460 OA
ATOM     13  C   UNL     1      -1.306   0.637  -0.482  1.00  0.00     0.142 A 
ATOM     14  C   UNL     1      -1.351  -0.604  -1.067  1.00  0.00     0.067 A 
BRANCH  13  15
ATOM     15  C   UNL     1      -2.307   1.661  -0.276  1.00  0.00     0.095 A 
ATOM     16  C   UNL     1      -3.152   1.563   0.842  1.00  0.00     0.021 A 
ATOM     17  C   UNL     1      -2.515   2.721  -1.173  1.00  0.00     0.281 A 
ATOM     18  C   UNL     1      -4.178   2.493   1.045  1.00  0.00     0.022 A 
ATOM     19  C   UNL     1      -3.541   3.657  -0.977  1.00  0.00     0.107 A 
ATOM     20  C   UNL     1      -4.370   3.530   0.133  1.00  0.00     0.047 A 
ATOM     21  Cl  UNL     1      -5.640   4.662   0.377  1.00  0.00    -0.084 Cl
BRANCH  17  22
ATOM     22  N   UNL     1      -1.673   2.895  -2.352  1.00  0.00     0.063 N 
ATOM     23  O   UNL     1      -1.281   4.047  -2.593  1.00  0.00    -0.258 OA
ATOM     24  O   UNL     1      -1.448   1.909  -3.064  1.00  0.00    -0.258 OA
ENDBRANCH  17  22
ENDBRANCH  13  15
ENDBRANCH   7   9
ENDBRANCH   6   7
ENDBRANCH   5   6
ENDBRANCH   4   5
ENDBRANCH   3   4
ENDBRANCH   2   3
ENDBRANCH   1   2
BRANCH   1  25
ATOM     25  O   UNL     1       1.798  -3.347   2.752  1.00  0.00    -0.376 OA
BRANCH  25  26
ATOM     26  C   UNL     1       1.954  -4.545   3.498  1.00  0.00     0.202 C 
BRANCH  26  27
ATOM     27  C   UNL     1       1.106  -4.765   4.749  1.00  0.00     0.261 C 
BRANCH  27  28
ATOM     28  O   UNL     1      -0.303  -4.678   4.508  1.00  0.00    -0.460 OA
BRANCH  28  29
ATOM     29  C   UNL     1      -0.924  -3.654   5.143  1.00  0.00     0.338 C 
ATOM     30  O   UNL     1      -0.418  -2.820   5.875  1.00  0.00    -0.246 OA
BRANCH  29  31
ATOM     31  C   UNL     1      -2.324  -3.577   4.696  1.00  0.00     0.060 A 
ATOM     32  C   UNL     1      -2.782  -2.357   4.182  1.00  0.00     0.016 A 
ATOM     33  C   UNL     1      -3.190  -4.662   4.846  1.00  0.00     0.016 A 
ATOM     34  C   UNL     1      -4.127  -2.205   3.853  1.00  0.00     0.010 A 
ATOM     35  C   UNL     1      -4.540  -4.502   4.530  1.00  0.00     0.010 A 
ATOM     36  C   UNL     1      -5.018  -3.265   4.064  1.00  0.00    -0.014 A 
BRANCH  36  37
ATOM     37  C   UNL     1      -6.475  -3.034   3.947  1.00  0.00     0.031 A 
ATOM     38  C   UNL     1      -7.255  -2.693   5.186  1.00  0.00     0.074 A 
ATOM     39  C   UNL     1      -7.096  -3.146   2.760  1.00  0.00     0.049 A 
ATOM     40  N   UNL     1      -8.535  -2.470   5.321  1.00  0.00    -0.248 NA
ATOM     41  C   UNL     1      -6.489  -2.592   6.441  1.00  0.00     0.031 C 
ATOM     42  C   UNL     1      -6.445  -3.482   1.495  1.00  0.00     0.029 A 
ATOM     43  N   UNL     1      -8.422  -3.018   2.437  1.00  0.00    -0.354 N 
ATOM     44  C   UNL     1      -8.734  -2.221   6.673  1.00  0.00     0.074 A 
ATOM     45  C   UNL     1      -7.445  -2.329   7.320  1.00  0.00     0.031 C 
ATOM     46  C   UNL     1      -7.383  -3.568   0.535  1.00  0.00     0.029 A 
ATOM     47  C   UNL     1      -8.697  -3.309   1.122  1.00  0.00     0.049 A 
ATOM     48  H   UNL     1      -9.112  -2.744   3.084  1.00  0.00     0.167 HD
ATOM     49  C   UNL     1      -9.884  -1.912   7.316  1.00  0.00     0.034 A 
ATOM     50  C   UNL     1      -9.877  -3.377   0.475  1.00  0.00     0.034 A 
ATOM     51  C   UNL     1     -11.163  -1.796   6.672  1.00  0.00     0.049 A 
ATOM     52  C   UNL     1     -11.147  -3.054   1.220  1.00  0.00     0.074 A 
ATOM     53  C   UNL     1     -12.378  -1.441   7.231  1.00  0.00     0.029 A 
ATOM     54  N   UNL     1     -11.397  -2.046   5.330  1.00  0.00    -0.354 N 
ATOM     55  N   UNL     1     -11.300  -2.678   2.468  1.00  0.00    -0.248 NA
ATOM     56  C   UNL     1     -12.403  -3.132   0.460  1.00  0.00     0.031 C 
ATOM     57  C   UNL     1     -13.351  -1.492   6.226  1.00  0.00     0.029 A 
ATOM     58  C   UNL     1     -12.738  -1.865   5.040  1.00  0.00     0.049 A 
ATOM     59  H   UNL     1     -10.710  -2.314   4.677  1.00  0.00     0.167 HD
ATOM     60  C   UNL     1     -12.661  -2.444   2.632  1.00  0.00     0.074 A 
ATOM     61  C   UNL     1     -13.287  -2.701   1.351  1.00  0.00     0.031 C 
ATOM     62  C   UNL     1     -13.336  -2.065   3.746  1.00  0.00     0.034 A 
BRANCH  49  63
ATOM     63  C   UNL     1      -9.800  -1.638   8.792  1.00  0.00     0.023 A 
ATOM     64  C   UNL     1      -9.269  -0.410   9.235  1.00  0.00     0.012 A 
ATOM     65  C   UNL     1     -10.284  -2.565   9.733  1.00  0.00     0.148 A 
ATOM     66  C   UNL     1      -9.198  -0.118  10.596  1.00  0.00     0.002 A 
ATOM     67  C   UNL     1     -10.242  -2.253  11.087  1.00  0.00     0.091 A 
ATOM     68  F   UNL     1     -10.757  -3.739   9.292  1.00  0.00    -0.205 F 
ATOM     69  C   UNL     1      -9.693  -1.034  11.521  1.00  0.00     0.022 A 
BRANCH  67  70
ATOM     70  S   UNL     1     -10.913  -3.343  12.347  1.00  0.00     0.127 S 
ATOM     71  O   UNL     1      -9.696  -3.905  12.930  1.00  0.00    -0.237 OA
ATOM     72  O   UNL     1     -11.630  -2.409  13.217  1.00  0.00    -0.237 OA
ATOM     73  O   UNL     1     -11.768  -4.287  11.641  1.00  0.00    -0.744 OA
ENDBRANCH  67  70
ENDBRANCH  49  63
BRANCH  50  74
ATOM     74  C   UNL     1      -9.912  -3.724  -0.973  1.00  0.00     0.023 A 
ATOM     75  C   UNL     1     -10.250  -2.733  -1.914  1.00  0.00     0.012 A 
ATOM     76  C   UNL     1      -9.600  -5.021  -1.422  1.00  0.00     0.148 A 
ATOM     77  C   UNL     1     -10.301  -3.033  -3.275  1.00  0.00     0.002 A 
ATOM     78  C   UNL     1      -9.605  -5.302  -2.784  1.00  0.00     0.091 A 
ATOM     79  F   UNL     1      -9.304  -5.957  -0.509  1.00  0.00    -0.205 F 
ATOM     80  C   UNL     1      -9.969  -4.314  -3.711  1.00  0.00     0.022 A 
BRANCH  78  81
ATOM     81  S   UNL     1      -9.077  -6.890  -3.436  1.00  0.00     0.127 S 
ATOM     82  O   UNL     1     -10.350  -7.498  -3.811  1.00  0.00    -0.237 OA
ATOM     83  O   UNL     1      -8.229  -6.491  -4.560  1.00  0.00    -0.237 OA
ATOM     84  O   UNL     1      -8.358  -7.537  -2.346  1.00  0.00    -0.744 OA
ENDBRANCH  78  81
ENDBRANCH  50  74
BRANCH  62  85
ATOM     85  C   UNL     1     -14.826  -1.875   3.635  1.00  0.00     0.023 A 
ATOM     86  C   UNL     1     -15.667  -3.002   3.560  1.00  0.00     0.012 A 
ATOM     87  C   UNL     1     -15.396  -0.588   3.695  1.00  0.00     0.148 A 
ATOM     88  C   UNL     1     -17.053  -2.850   3.523  1.00  0.00     0.002 A 
ATOM     89  C   UNL     1     -16.779  -0.446   3.702  1.00  0.00     0.091 A 
ATOM     90  F   UNL     1     -14.578   0.474   3.745  1.00  0.00    -0.205 F 
ATOM     91  C   UNL     1     -17.608  -1.575   3.607  1.00  0.00     0.022 A 
BRANCH  89  92
ATOM     92  S   UNL     1     -17.575   1.152   3.902  1.00  0.00     0.127 S 
ATOM     93  O   UNL     1     -17.993   1.451   2.534  1.00  0.00    -0.237 OA
ATOM     94  O   UNL     1     -18.672   0.845   4.821  1.00  0.00    -0.237 OA
ATOM     95  O   UNL     1     -16.557   2.035   4.457  1.00  0.00    -0.744 OA
ENDBRANCH  89  92
ENDBRANCH  62  85
ENDBRANCH  36  37
ENDBRANCH  29  31
ENDBRANCH  28  29
ENDBRANCH  27  28
ENDBRANCH  26  27
ENDBRANCH  25  26
ENDBRANCH   1  25
TORSDOF 22
