REMARK SMILES Cc1c(C(=O)OCCOCCOCCOC(=O)c2ccc(-c3c4nc(c(-c5cccc(S(=O)(=O)[O-])c5F)c5ccc([nH]5)c(-c5cccc(S(=O)(=O)[O-])c5F)c5nc(c(-c6cccc(S(=O)(=O)[O-])c6F)c6ccc3[nH]6)C=C5)C=C4)cc2)ccc2c1N[C@@H](c1ccc(S(=O)(=O)N3CCOCC3)cc1)[C@@H]1CC=C[C@H]21
REMARK SMILES IDX 10 1 9 2 8 3 7 4 6 5 4 6 5 7 3 8 1 9 2 10 84 11 81 12 83 13
REMARK SMILES IDX 85 14 82 15 106 16 86 17 102 19 105 20 103 21 104 22 87 23
REMARK SMILES IDX 88 24 101 25 89 26 100 27 90 28 91 29 92 30 93 31 94 32
REMARK SMILES IDX 95 33 99 34 96 35 98 36 97 37 11 38 12 39 13 40 14 41 15 42
REMARK SMILES IDX 16 43 17 44 18 45 19 46 80 47 20 48 79 49 21 50 22 51 23 52
REMARK SMILES IDX 73 53 24 54 78 55 72 56 74 57 25 58 77 59 71 60 70 61 26 63
REMARK SMILES IDX 58 64 38 65 57 66 39 67 42 68 56 69 75 70 40 71 41 72 55 74
REMARK SMILES IDX 76 75 43 76 27 77 28 78 36 79 29 80 31 81 37 82 30 83 32 84
REMARK SMILES IDX 33 85 34 86 35 87 59 88 60 89 68 90 61 91 63 92 69 93 62 94
REMARK SMILES IDX 64 95 65 96 66 97 67 98 44 99 45 100 53 101 46 102 48 103
REMARK SMILES IDX 54 104 47 105 49 106 50 107 51 108 52 109
REMARK H PARENT 85 18 74 62 42 73
REMARK Flexibility Score: inf
ROOT
ATOM      1  C   UNL     1       3.830  -3.229   1.734  1.00  0.00     0.188 C 
ENDROOT
BRANCH   1   2
ATOM      2  O   UNL     1       5.168  -2.770   1.843  1.00  0.00    -0.376 OA
BRANCH   2   3
ATOM      3  C   UNL     1       5.527  -1.502   1.307  1.00  0.00     0.202 C 
BRANCH   3   4
ATOM      4  C   UNL     1       5.089  -1.164  -0.115  1.00  0.00     0.261 C 
BRANCH   4   5
ATOM      5  O   UNL     1       3.662  -1.198  -0.231  1.00  0.00    -0.460 OA
BRANCH   5   6
ATOM      6  C   UNL     1       3.196  -1.732  -1.381  1.00  0.00     0.338 C 
ATOM      7  O   UNL     1       3.854  -2.054  -2.358  1.00  0.00    -0.246 OA
BRANCH   6   8
ATOM      8  C   UNL     1       1.757  -2.037  -1.245  1.00  0.00     0.065 A 
ATOM      9  C   UNL     1       1.154   0.330  -0.512  1.00  0.00     0.047 C 
ATOM     10  C   UNL     1       0.783  -1.082  -0.892  1.00  0.00    -0.013 A 
ATOM     11  C   UNL     1      -0.580  -1.468  -0.897  1.00  0.00     0.042 A 
ATOM     12  C   UNL     1       1.395  -3.358  -1.541  1.00  0.00     0.016 A 
ATOM     13  C   UNL     1      -0.933  -2.768  -1.298  1.00  0.00    -0.017 A 
ATOM     14  N   UNL     1      -1.561  -0.523  -0.651  1.00  0.00    -0.377 N 
ATOM     15  C   UNL     1       0.058  -3.724  -1.556  1.00  0.00     0.007 A 
ATOM     16  C   UNL     1      -2.363  -3.131  -1.577  1.00  0.00     0.049 C 
ATOM     17  C   UNL     1      -2.980  -0.821  -0.734  1.00  0.00     0.114 C 
ATOM     18  H   UNL     1      -1.285   0.390  -0.410  1.00  0.00     0.161 HD
ATOM     19  C   UNL     1      -3.290  -1.920  -1.781  1.00  0.00     0.031 C 
ATOM     20  C   UNL     1      -3.099  -3.912  -0.524  1.00  0.00    -0.023 C 
ATOM     21  C   UNL     1      -4.678  -2.570  -1.599  1.00  0.00     0.034 C 
ATOM     22  C   UNL     1      -4.406  -3.613  -0.558  1.00  0.00    -0.030 C 
BRANCH  17  23
ATOM     23  C   UNL     1      -3.719   0.480  -1.039  1.00  0.00    -0.025 A 
ATOM     24  C   UNL     1      -3.147   1.551  -1.757  1.00  0.00     0.007 A 
ATOM     25  C   UNL     1      -5.033   0.612  -0.596  1.00  0.00     0.007 A 
ATOM     26  C   UNL     1      -3.879   2.717  -2.024  1.00  0.00     0.022 A 
ATOM     27  C   UNL     1      -5.770   1.744  -0.905  1.00  0.00     0.022 A 
ATOM     28  C   UNL     1      -5.205   2.803  -1.603  1.00  0.00     0.082 A 
BRANCH  28  29
ATOM     29  S   UNL     1      -6.154   4.262  -1.964  1.00  0.00     0.243 S 
ATOM     30  O   UNL     1      -5.711   5.279  -1.035  1.00  0.00    -0.207 OA
ATOM     31  O   UNL     1      -6.081   4.457  -3.396  1.00  0.00    -0.207 OA
BRANCH  29  32
ATOM     32  N   UNL     1      -7.743   3.869  -1.583  1.00  0.00    -0.193 NA
ATOM     33  C   UNL     1      -8.293   4.031  -0.220  1.00  0.00     0.131 C 
ATOM     34  C   UNL     1      -8.640   3.220  -2.558  1.00  0.00     0.131 C 
ATOM     35  C   UNL     1      -9.036   2.771   0.261  1.00  0.00     0.177 C 
ATOM     36  C   UNL     1      -9.266   1.959  -1.960  1.00  0.00     0.177 C 
ATOM     37  O   UNL     1      -9.934   2.244  -0.723  1.00  0.00    -0.379 OA
ENDBRANCH  29  32
ENDBRANCH  28  29
ENDBRANCH  17  23
ENDBRANCH   6   8
ENDBRANCH   5   6
ENDBRANCH   4   5
ENDBRANCH   3   4
ENDBRANCH   2   3
ENDBRANCH   1   2
BRANCH   1  38
ATOM     38  C   UNL     1       2.667  -2.405   2.331  1.00  0.00     0.188 C 
BRANCH  38  39
ATOM     39  O   UNL     1       2.925  -1.255   3.120  1.00  0.00    -0.376 OA
BRANCH  39  40
ATOM     40  C   UNL     1       3.782  -1.385   4.247  1.00  0.00     0.202 C 
BRANCH  40  41
ATOM     41  C   UNL     1       3.443  -2.427   5.313  1.00  0.00     0.261 C 
BRANCH  41  42
ATOM     42  O   UNL     1       3.485  -3.769   4.802  1.00  0.00    -0.460 OA
BRANCH  42  43
ATOM     43  C   UNL     1       2.345  -4.483   4.966  1.00  0.00     0.338 C 
ATOM     44  O   UNL     1       1.326  -4.131   5.534  1.00  0.00    -0.246 OA
BRANCH  43  45
ATOM     45  C   UNL     1       2.434  -5.726   4.183  1.00  0.00     0.060 A 
ATOM     46  C   UNL     1       1.540  -5.901   3.117  1.00  0.00     0.016 A 
ATOM     47  C   UNL     1       3.328  -6.735   4.540  1.00  0.00     0.016 A 
ATOM     48  C   UNL     1       1.514  -7.108   2.423  1.00  0.00     0.010 A 
ATOM     49  C   UNL     1       3.276  -7.957   3.868  1.00  0.00     0.010 A 
ATOM     50  C   UNL     1       2.344  -8.159   2.834  1.00  0.00    -0.014 A 
BRANCH  50  51
ATOM     51  C   UNL     1       2.079  -9.530   2.345  1.00  0.00     0.031 A 
ATOM     52  C   UNL     1       1.058 -10.356   3.077  1.00  0.00     0.074 A 
ATOM     53  C   UNL     1       2.739 -10.038   1.291  1.00  0.00     0.049 A 
ATOM     54  N   UNL     1       0.694 -11.593   2.868  1.00  0.00    -0.248 NA
ATOM     55  C   UNL     1       0.346  -9.698   4.188  1.00  0.00     0.031 C 
ATOM     56  C   UNL     1       3.730  -9.326   0.487  1.00  0.00     0.029 A 
ATOM     57  N   UNL     1       2.685 -11.290   0.732  1.00  0.00    -0.354 N 
ATOM     58  C   UNL     1      -0.274 -11.866   3.826  1.00  0.00     0.074 A 
ATOM     59  C   UNL     1      -0.448 -10.668   4.615  1.00  0.00     0.031 C 
ATOM     60  C   UNL     1       4.216 -10.165  -0.446  1.00  0.00     0.029 A 
ATOM     61  C   UNL     1       3.585 -11.476  -0.289  1.00  0.00     0.049 A 
ATOM     62  H   UNL     1       2.061 -11.989   1.035  1.00  0.00     0.167 HD
ATOM     63  C   UNL     1      -0.963 -13.011   4.027  1.00  0.00     0.034 A 
ATOM     64  C   UNL     1       3.879 -12.583  -0.999  1.00  0.00     0.034 A 
ATOM     65  C   UNL     1      -0.791 -14.204   3.250  1.00  0.00     0.049 A 
ATOM     66  C   UNL     1       3.143 -13.866  -0.713  1.00  0.00     0.074 A 
ATOM     67  C   UNL     1      -1.461 -15.408   3.369  1.00  0.00     0.029 A 
ATOM     68  N   UNL     1       0.127 -14.350   2.224  1.00  0.00    -0.354 N 
ATOM     69  N   UNL     1       2.167 -14.084   0.135  1.00  0.00    -0.248 NA
ATOM     70  C   UNL     1       3.537 -15.051  -1.491  1.00  0.00     0.031 C 
ATOM     71  C   UNL     1      -0.939 -16.289   2.418  1.00  0.00     0.029 A 
ATOM     72  C   UNL     1       0.049 -15.628   1.704  1.00  0.00     0.049 A 
ATOM     73  H   UNL     1       0.742 -13.648   1.910  1.00  0.00     0.167 HD
ATOM     74  C   UNL     1       1.818 -15.422  -0.019  1.00  0.00     0.074 A 
ATOM     75  C   UNL     1       2.677 -15.963  -1.052  1.00  0.00     0.031 C 
ATOM     76  C   UNL     1       0.880 -16.139   0.645  1.00  0.00     0.034 A 
BRANCH  63  77
ATOM     77  C   UNL     1      -1.996 -13.020   5.114  1.00  0.00     0.023 A 
ATOM     78  C   UNL     1      -3.264 -12.461   4.858  1.00  0.00     0.012 A 
ATOM     79  C   UNL     1      -1.741 -13.637   6.353  1.00  0.00     0.148 A 
ATOM     80  C   UNL     1      -4.266 -12.512   5.825  1.00  0.00     0.002 A 
ATOM     81  C   UNL     1      -2.752 -13.707   7.302  1.00  0.00     0.091 A 
ATOM     82  F   UNL     1      -0.519 -14.140   6.574  1.00  0.00    -0.205 F 
ATOM     83  C   UNL     1      -4.013 -13.142   7.041  1.00  0.00     0.022 A 
BRANCH  81  84
ATOM     84  S   UNL     1      -2.548 -14.532   8.883  1.00  0.00     0.127 S 
ATOM     85  O   UNL     1      -2.695 -13.417   9.818  1.00  0.00    -0.237 OA
ATOM     86  O   UNL     1      -3.664 -15.477   8.880  1.00  0.00    -0.237 OA
ATOM     87  O   UNL     1      -1.226 -15.142   8.853  1.00  0.00    -0.744 OA
ENDBRANCH  81  84
ENDBRANCH  63  77
BRANCH  64  88
ATOM     88  C   UNL     1       4.905 -12.518  -2.074  1.00  0.00     0.023 A 
ATOM     89  C   UNL     1       4.492 -12.522  -3.419  1.00  0.00     0.012 A 
ATOM     90  C   UNL     1       6.277 -12.414  -1.772  1.00  0.00     0.148 A 
ATOM     91  C   UNL     1       5.429 -12.433  -4.449  1.00  0.00     0.002 A 
ATOM     92  C   UNL     1       7.202 -12.291  -2.801  1.00  0.00     0.091 A 
ATOM     93  F   UNL     1       6.643 -12.421  -0.482  1.00  0.00    -0.205 F 
ATOM     94  C   UNL     1       6.781 -12.309  -4.140  1.00  0.00     0.022 A 
BRANCH  92  95
ATOM     95  S   UNL     1       8.957 -12.043  -2.507  1.00  0.00     0.127 S 
ATOM     96  O   UNL     1       9.534 -13.237  -3.121  1.00  0.00    -0.237 OA
ATOM     97  O   UNL     1       9.206 -10.796  -3.231  1.00  0.00    -0.237 OA
ATOM     98  O   UNL     1       9.109 -11.949  -1.062  1.00  0.00    -0.744 OA
ENDBRANCH  92  95
ENDBRANCH  64  88
BRANCH  76  99
ATOM     99  C   UNL     1       0.708 -17.591   0.293  1.00  0.00     0.023 A 
ATOM    100  C   UNL     1       1.607 -18.536   0.823  1.00  0.00     0.012 A 
ATOM    101  C   UNL     1      -0.419 -18.028  -0.430  1.00  0.00     0.148 A 
ATOM    102  C   UNL     1       1.387 -19.900   0.635  1.00  0.00     0.002 A 
ATOM    103  C   UNL     1      -0.649 -19.390  -0.584  1.00  0.00     0.091 A 
ATOM    104  F   UNL     1      -1.255 -17.105  -0.927  1.00  0.00    -0.205 F 
ATOM    105  C   UNL     1       0.255 -20.326  -0.056  1.00  0.00     0.022 A 
BRANCH 103 106
ATOM    106  S   UNL     1      -2.121 -20.038  -1.385  1.00  0.00     0.127 S 
ATOM    107  O   UNL     1      -1.560 -20.644  -2.592  1.00  0.00    -0.237 OA
ATOM    108  O   UNL     1      -2.616 -20.995  -0.395  1.00  0.00    -0.237 OA
ATOM    109  O   UNL     1      -2.994 -18.895  -1.614  1.00  0.00    -0.744 OA
ENDBRANCH 103 106
ENDBRANCH  76  99
ENDBRANCH  50  51
ENDBRANCH  43  45
ENDBRANCH  42  43
ENDBRANCH  41  42
ENDBRANCH  40  41
ENDBRANCH  39  40
ENDBRANCH  38  39
ENDBRANCH   1  38
TORSDOF 23
