REMARK SMILES Cc1ccccc1NC(=O)C[NH+]1CCC(CC(=O)OCCOCCOCCOC(=O)c2ccc(-c3c4nc(c(-c5cccc(S(=O)(=O)[O-])c5F)c5ccc([nH]5)c(-c5cccc(S(=O)(=O)[O-])c5F)c5nc(c(-c6cccc(S(=O)(=O)[O-])c6F)c6ccc3[nH]6)C=C5)C=C4)cc2)CC1
REMARK SMILES IDX 23 1 22 2 21 3 20 4 19 5 17 6 18 7 16 8 15 9 12 10 13 11
REMARK SMILES IDX 95 12 14 14 94 15 11 16 9 17 8 18 10 20 7 21 1 22 2 23 3 24
REMARK SMILES IDX 4 25 6 26 5 27 24 28 25 29 26 30 27 31 28 32 29 33 30 34
REMARK SMILES IDX 31 35 32 36 93 37 33 38 92 39 34 40 35 41 36 42 86 43 37 44
REMARK SMILES IDX 91 45 85 46 87 47 38 48 90 49 84 50 83 51 39 53 71 54 51 55
REMARK SMILES IDX 70 56 52 57 55 58 69 59 88 60 53 61 54 62 68 64 89 65 56 66
REMARK SMILES IDX 40 67 41 68 49 69 42 70 44 71 50 72 43 73 45 74 46 75 47 76
REMARK SMILES IDX 48 77 72 78 73 79 81 80 74 81 76 82 82 83 75 84 77 85 78 86
REMARK SMILES IDX 79 87 80 88 57 89 58 90 66 91 59 92 61 93 67 94 60 95 62 96
REMARK SMILES IDX 63 97 64 98 65 99
REMARK H PARENT 12 13 8 19 87 52 55 63
REMARK Flexibility Score: inf
ROOT
ATOM      1  C   UNL     1       2.923   4.237  -7.518  1.00  0.00     0.188 C 
ENDROOT
BRANCH   1   2
ATOM      2  O   UNL     1       1.680   3.829  -8.037  1.00  0.00    -0.376 OA
BRANCH   2   3
ATOM      3  C   UNL     1       1.826   2.488  -8.552  1.00  0.00     0.202 C 
BRANCH   3   4
ATOM      4  C   UNL     1       0.874   1.459  -7.918  1.00  0.00     0.261 C 
BRANCH   4   5
ATOM      5  O   UNL     1       0.936   0.582  -6.580  1.00  0.00    -0.463 OA
BRANCH   5   6
ATOM      6  C   UNL     1       0.313  -0.102  -5.472  1.00  0.00     0.306 C 
ATOM      7  O   UNL     1       1.111  -0.772  -4.807  1.00  0.00    -0.252 OA
BRANCH   6   8
ATOM      8  C   UNL     1      -1.334  -0.070  -4.854  1.00  0.00     0.126 C 
BRANCH   8   9
ATOM      9  C   UNL     1      -1.762   0.626  -3.396  1.00  0.00     0.011 C 
ATOM     10  N   UNL     1      -2.468   2.166  -0.912  1.00  0.00    -0.327 N 
ATOM     11  C   UNL     1      -2.155   2.848  -2.153  1.00  0.00     0.262 C 
ATOM     12  C   UNL     1      -2.348   0.698  -0.963  1.00  0.00     0.262 C 
ATOM     13  H   UNL     1      -3.474   2.256  -0.769  1.00  0.00     0.348 HD
ATOM     14  C   UNL     1      -2.541   2.005  -3.381  1.00  0.00     0.066 C 
ATOM     15  C   UNL     1      -2.604  -0.078  -2.313  1.00  0.00     0.066 C 
BRANCH  10  16
ATOM     16  C   UNL     1      -1.872   2.859   0.269  1.00  0.00     0.363 C 
BRANCH  16  17
ATOM     17  C   UNL     1      -0.331   3.053   0.291  1.00  0.00     0.279 C 
ATOM     18  N   UNL     1       0.573   2.083   0.644  1.00  0.00    -0.321 N 
ATOM     19  H   UNL     1       1.513   2.375   0.655  1.00  0.00     0.170 HD
ATOM     20  O   UNL     1       0.157   4.146  -0.042  1.00  0.00    -0.268 OA
BRANCH  18  21
ATOM     21  C   UNL     1       0.364   0.739   0.993  1.00  0.00     0.044 A 
ATOM     22  C   UNL     1       2.516  -0.013  -0.227  1.00  0.00     0.046 C 
ATOM     23  C   UNL     1       1.181  -0.255   0.422  1.00  0.00    -0.027 A 
ATOM     24  C   UNL     1       0.696  -1.576   0.402  1.00  0.00     0.005 A 
ATOM     25  C   UNL     1      -0.509  -1.912   1.017  1.00  0.00     0.000 A 
ATOM     26  C   UNL     1      -0.741   0.362   1.764  1.00  0.00     0.026 A 
ATOM     27  C   UNL     1      -1.196  -0.956   1.753  1.00  0.00     0.002 A 
ENDBRANCH  18  21
ENDBRANCH  16  17
ENDBRANCH  10  16
ENDBRANCH   8   9
ENDBRANCH   6   8
ENDBRANCH   5   6
ENDBRANCH   4   5
ENDBRANCH   3   4
ENDBRANCH   2   3
ENDBRANCH   1   2
BRANCH   1  28
ATOM     28  C   UNL     1       2.987   5.660  -6.944  1.00  0.00     0.188 C 
BRANCH  28  29
ATOM     29  O   UNL     1       4.264   6.272  -7.095  1.00  0.00    -0.376 OA
BRANCH  29  30
ATOM     30  C   UNL     1       5.377   5.391  -6.907  1.00  0.00     0.202 C 
BRANCH  30  31
ATOM     31  C   UNL     1       5.346   4.328  -5.738  1.00  0.00     0.261 C 
BRANCH  31  32
ATOM     32  O   UNL     1       4.228   4.587  -4.807  1.00  0.00    -0.460 OA
BRANCH  32  33
ATOM     33  C   UNL     1       3.494   3.677  -4.116  1.00  0.00     0.338 C 
ATOM     34  O   UNL     1       3.978   2.915  -3.264  1.00  0.00    -0.246 OA
BRANCH  33  35
ATOM     35  C   UNL     1       2.017   3.627  -4.501  1.00  0.00     0.060 A 
ATOM     36  C   UNL     1       1.444   2.406  -4.444  1.00  0.00     0.016 A 
ATOM     37  C   UNL     1       1.102   4.630  -4.920  1.00  0.00     0.016 A 
ATOM     38  C   UNL     1       0.105   2.304  -4.886  1.00  0.00     0.010 A 
ATOM     39  C   UNL     1      -0.149   4.356  -5.645  1.00  0.00     0.010 A 
ATOM     40  C   UNL     1      -0.638   3.071  -5.777  1.00  0.00    -0.014 A 
BRANCH  40  41
ATOM     41  C   UNL     1      -1.829   2.527  -6.700  1.00  0.00     0.031 A 
ATOM     42  C   UNL     1      -3.259   2.929  -6.476  1.00  0.00     0.074 A 
ATOM     43  C   UNL     1      -1.929   1.495  -7.638  1.00  0.00     0.049 A 
ATOM     44  N   UNL     1      -4.271   2.167  -6.790  1.00  0.00    -0.248 NA
ATOM     45  C   UNL     1      -3.647   4.147  -5.787  1.00  0.00     0.031 C 
ATOM     46  C   UNL     1      -2.658   1.654  -8.919  1.00  0.00     0.029 A 
ATOM     47  N   UNL     1      -1.286   0.284  -7.888  1.00  0.00    -0.354 N 
ATOM     48  C   UNL     1      -5.397   2.928  -6.654  1.00  0.00     0.074 A 
ATOM     49  C   UNL     1      -4.979   4.040  -5.821  1.00  0.00     0.031 C 
ATOM     50  C   UNL     1      -2.430   0.604  -9.730  1.00  0.00     0.029 A 
ATOM     51  C   UNL     1      -1.624  -0.384  -9.036  1.00  0.00     0.049 A 
ATOM     52  H   UNL     1      -0.615  -0.078  -7.265  1.00  0.00     0.167 HD
ATOM     53  C   UNL     1      -6.490   2.750  -7.452  1.00  0.00     0.034 A 
ATOM     54  C   UNL     1      -1.402  -1.703  -9.300  1.00  0.00     0.034 A 
ATOM     55  C   UNL     1      -6.267   1.805  -8.568  1.00  0.00     0.049 A 
ATOM     56  C   UNL     1      -2.708  -2.319  -9.711  1.00  0.00     0.074 A 
ATOM     57  C   UNL     1      -5.952   2.021  -9.904  1.00  0.00     0.029 A 
ATOM     58  N   UNL     1      -6.202   0.426  -8.390  1.00  0.00    -0.354 N 
ATOM     59  N   UNL     1      -3.742  -1.586  -9.997  1.00  0.00    -0.248 NA
ATOM     60  C   UNL     1      -3.036  -3.738  -9.698  1.00  0.00     0.031 C 
ATOM     61  C   UNL     1      -5.789   0.770 -10.551  1.00  0.00     0.029 A 
ATOM     62  C   UNL     1      -6.001  -0.224  -9.615  1.00  0.00     0.049 A 
ATOM     63  H   UNL     1      -6.285  -0.031  -7.522  1.00  0.00     0.167 HD
ATOM     64  C   UNL     1      -4.877  -2.325  -9.865  1.00  0.00     0.074 A 
ATOM     65  C   UNL     1      -4.379  -3.693  -9.806  1.00  0.00     0.031 C 
ATOM     66  C   UNL     1      -6.081  -1.689  -9.719  1.00  0.00     0.034 A 
BRANCH  53  67
ATOM     67  C   UNL     1      -7.568   3.826  -7.487  1.00  0.00     0.023 A 
ATOM     68  C   UNL     1      -8.179   4.141  -8.717  1.00  0.00     0.012 A 
ATOM     69  C   UNL     1      -7.945   4.620  -6.382  1.00  0.00     0.148 A 
ATOM     70  C   UNL     1      -8.970   5.281  -8.884  1.00  0.00     0.002 A 
ATOM     71  C   UNL     1      -8.649   5.813  -6.564  1.00  0.00     0.091 A 
ATOM     72  F   UNL     1      -7.639   4.207  -5.142  1.00  0.00    -0.205 F 
ATOM     73  C   UNL     1      -9.156   6.151  -7.821  1.00  0.00     0.022 A 
BRANCH  71  74
ATOM     74  S   UNL     1      -8.769   7.051  -5.261  1.00  0.00     0.127 S 
ATOM     75  O   UNL     1      -8.514   8.298  -5.987  1.00  0.00    -0.237 OA
ATOM     76  O   UNL     1     -10.142   6.892  -4.793  1.00  0.00    -0.237 OA
ATOM     77  O   UNL     1      -7.721   6.710  -4.305  1.00  0.00    -0.744 OA
ENDBRANCH  71  74
ENDBRANCH  53  67
BRANCH  54  78
ATOM     78  C   UNL     1      -0.264  -2.392  -8.595  1.00  0.00     0.023 A 
ATOM     79  C   UNL     1       1.048  -2.096  -9.043  1.00  0.00     0.012 A 
ATOM     80  C   UNL     1      -0.391  -3.129  -7.401  1.00  0.00     0.148 A 
ATOM     81  C   UNL     1       2.181  -2.433  -8.287  1.00  0.00     0.002 A 
ATOM     82  C   UNL     1       0.745  -3.462  -6.644  1.00  0.00     0.091 A 
ATOM     83  F   UNL     1      -1.622  -3.470  -6.999  1.00  0.00    -0.205 F 
ATOM     84  C   UNL     1       2.027  -3.091  -7.073  1.00  0.00     0.022 A 
BRANCH  82  85
ATOM     85  S   UNL     1       0.629  -4.297  -5.044  1.00  0.00     0.127 S 
ATOM     86  O   UNL     1       0.944  -5.676  -5.415  1.00  0.00    -0.237 OA
ATOM     87  O   UNL     1       1.661  -3.652  -4.234  1.00  0.00    -0.237 OA
ATOM     88  O   UNL     1      -0.737  -4.058  -4.599  1.00  0.00    -0.744 OA
ENDBRANCH  82  85
ENDBRANCH  54  78
BRANCH  66  89
ATOM     89  C   UNL     1      -7.440  -2.350  -9.613  1.00  0.00     0.023 A 
ATOM     90  C   UNL     1      -7.649  -3.718  -9.855  1.00  0.00     0.012 A 
ATOM     91  C   UNL     1      -8.597  -1.586  -9.307  1.00  0.00     0.148 A 
ATOM     92  C   UNL     1      -8.898  -4.322  -9.669  1.00  0.00     0.002 A 
ATOM     93  C   UNL     1      -9.831  -2.186  -9.098  1.00  0.00     0.091 A 
ATOM     94  F   UNL     1      -8.537  -0.250  -9.293  1.00  0.00    -0.205 F 
ATOM     95  C   UNL     1      -9.982  -3.562  -9.256  1.00  0.00     0.022 A 
BRANCH  93  96
ATOM     96  S   UNL     1     -11.261  -1.230  -8.584  1.00  0.00     0.127 S 
ATOM     97  O   UNL     1     -12.018  -1.141  -9.832  1.00  0.00    -0.237 OA
ATOM     98  O   UNL     1     -11.856  -2.099  -7.568  1.00  0.00    -0.237 OA
ATOM     99  O   UNL     1     -10.736   0.025  -8.068  1.00  0.00    -0.744 OA
ENDBRANCH  93  96
ENDBRANCH  66  89
ENDBRANCH  40  41
ENDBRANCH  33  35
ENDBRANCH  32  33
ENDBRANCH  31  32
ENDBRANCH  30  31
ENDBRANCH  29  30
ENDBRANCH  28  29
ENDBRANCH   1  28
TORSDOF 24
