REMARK SMILES O=C(C[C@H]1SC[C@@H](C(=O)OCCOCCOCCOC(=O)c2ccc(-c3c4nc(c(-c5cccc(S(=O)(=O)[O-])c5F)c5ccc([nH]5)c(-c5cccc(S(=O)(=O)[O-])c5F)c5nc(c(-c6cccc(S(=O)(=O)[O-])c6F)c6ccc3[nH]6)C=C5)C=C4)cc2)NC1=O)Nc1cccc(Cl)c1
REMARK SMILES IDX 14 1 13 2 12 3 11 4 10 5 8 6 9 7 7 8 4 9 5 10 86 11 6 12
REMARK SMILES IDX 85 13 87 14 3 16 2 17 1 18 88 19 89 21 90 22 95 23 91 24
REMARK SMILES IDX 93 25 92 26 94 27 15 28 16 29 17 30 18 31 19 32 20 33 21 34
REMARK SMILES IDX 22 35 23 36 84 37 24 38 83 39 25 40 26 41 27 42 77 43 28 44
REMARK SMILES IDX 82 45 76 46 78 47 29 48 81 49 75 50 74 51 30 53 62 54 42 55
REMARK SMILES IDX 61 56 43 57 46 58 60 59 79 60 44 61 45 62 59 64 80 65 47 66
REMARK SMILES IDX 31 67 32 68 40 69 33 70 35 71 41 72 34 73 36 74 37 75 38 76
REMARK SMILES IDX 39 77 63 78 64 79 72 80 65 81 67 82 73 83 66 84 68 85 69 86
REMARK SMILES IDX 70 87 71 88 48 89 49 90 57 91 50 92 52 93 58 94 51 95 53 96
REMARK SMILES IDX 54 97 55 98 56 99
REMARK H PARENT 85 15 88 20 78 52 46 63
REMARK Flexibility Score: inf
ROOT
ATOM      1  C   UNL     1       3.521  -6.340  -2.881  1.00  0.00     0.188 C 
ENDROOT
BRANCH   1   2
ATOM      2  O   UNL     1       4.582  -7.135  -3.354  1.00  0.00    -0.376 OA
BRANCH   2   3
ATOM      3  C   UNL     1       5.886  -6.924  -2.852  1.00  0.00     0.202 C 
BRANCH   3   4
ATOM      4  C   UNL     1       6.161  -6.652  -1.363  1.00  0.00     0.261 C 
BRANCH   4   5
ATOM      5  O   UNL     1       5.083  -6.132  -0.571  1.00  0.00    -0.462 OA
BRANCH   5   6
ATOM      6  C   UNL     1       5.064  -4.787  -0.380  1.00  0.00     0.329 C 
ATOM      7  O   UNL     1       5.849  -4.009  -0.907  1.00  0.00    -0.250 OA
BRANCH   6   8
ATOM      8  C   UNL     1       3.953  -4.381   0.612  1.00  0.00     0.202 C 
ATOM      9  C   UNL     1       4.062  -1.432  -0.055  1.00  0.00     0.145 C 
ATOM     10  S   UNL     1       2.905  -2.453  -1.068  1.00  0.00    -0.145 SA
ATOM     11  C   UNL     1       4.654  -2.060   1.212  1.00  0.00     0.234 C 
ATOM     12  C   UNL     1       2.656  -3.875   0.004  1.00  0.00     0.107 C 
ATOM     13  N   UNL     1       4.504  -3.381   1.506  1.00  0.00    -0.341 N 
ATOM     14  O   UNL     1       5.282  -1.384   2.031  1.00  0.00    -0.274 OA
ATOM     15  H   UNL     1       4.792  -3.682   2.398  1.00  0.00     0.164 HD
BRANCH   9  16
ATOM     16  C   UNL     1       5.173  -0.861  -0.949  1.00  0.00     0.124 C 
BRANCH  16  17
ATOM     17  C   UNL     1       4.670   0.362  -1.688  1.00  0.00     0.226 C 
ATOM     18  O   UNL     1       4.995   1.488  -1.323  1.00  0.00    -0.275 OA
ATOM     19  N   UNL     1       3.746   0.045  -2.669  1.00  0.00    -0.326 N 
ATOM     20  H   UNL     1       3.677  -0.900  -2.934  1.00  0.00     0.169 HD
BRANCH  19  21
ATOM     21  C   UNL     1       2.900   0.958  -3.319  1.00  0.00     0.042 A 
ATOM     22  C   UNL     1       1.656   0.482  -3.751  1.00  0.00     0.026 A 
ATOM     23  C   UNL     1       3.215   2.305  -3.476  1.00  0.00     0.046 A 
ATOM     24  C   UNL     1       0.707   1.360  -4.275  1.00  0.00     0.004 A 
ATOM     25  C   UNL     1       2.260   3.180  -3.987  1.00  0.00     0.043 A 
ATOM     26  C   UNL     1       1.006   2.715  -4.382  1.00  0.00     0.020 A 
ATOM     27  Cl  UNL     1       2.622   4.860  -4.096  1.00  0.00    -0.084 Cl
ENDBRANCH  19  21
ENDBRANCH  16  17
ENDBRANCH   9  16
ENDBRANCH   6   8
ENDBRANCH   5   6
ENDBRANCH   4   5
ENDBRANCH   3   4
ENDBRANCH   2   3
ENDBRANCH   1   2
BRANCH   1  28
ATOM     28  C   UNL     1       2.649  -7.070  -1.834  1.00  0.00     0.188 C 
BRANCH  28  29
ATOM     29  O   UNL     1       2.913  -8.424  -1.494  1.00  0.00    -0.376 OA
BRANCH  29  30
ATOM     30  C   UNL     1       3.159  -9.361  -2.531  1.00  0.00     0.202 C 
BRANCH  30  31
ATOM     31  C   UNL     1       2.134  -9.512  -3.664  1.00  0.00     0.261 C 
BRANCH  31  32
ATOM     32  O   UNL     1       1.763  -8.295  -4.334  1.00  0.00    -0.460 OA
BRANCH  32  33
ATOM     33  C   UNL     1       0.490  -7.870  -4.122  1.00  0.00     0.338 C 
ATOM     34  O   UNL     1      -0.349  -8.391  -3.411  1.00  0.00    -0.246 OA
BRANCH  33  35
ATOM     35  C   UNL     1       0.292  -6.548  -4.755  1.00  0.00     0.060 A 
ATOM     36  C   UNL     1      -0.026  -5.450  -3.942  1.00  0.00     0.016 A 
ATOM     37  C   UNL     1       0.359  -6.402  -6.140  1.00  0.00     0.016 A 
ATOM     38  C   UNL     1      -0.287  -4.202  -4.516  1.00  0.00     0.010 A 
ATOM     39  C   UNL     1       0.070  -5.160  -6.714  1.00  0.00     0.010 A 
ATOM     40  C   UNL     1      -0.274  -4.059  -5.909  1.00  0.00    -0.014 A 
BRANCH  40  41
ATOM     41  C   UNL     1      -0.752  -2.803  -6.543  1.00  0.00     0.031 A 
ATOM     42  C   UNL     1      -2.201  -2.698  -6.933  1.00  0.00     0.074 A 
ATOM     43  C   UNL     1       0.103  -1.802  -6.822  1.00  0.00     0.049 A 
ATOM     44  N   UNL     1      -2.833  -1.710  -7.507  1.00  0.00    -0.248 NA
ATOM     45  C   UNL     1      -3.047  -3.871  -6.651  1.00  0.00     0.031 C 
ATOM     46  C   UNL     1       1.529  -1.811  -6.508  1.00  0.00     0.029 A 
ATOM     47  N   UNL     1      -0.097  -0.590  -7.439  1.00  0.00    -0.354 N 
ATOM     48  C   UNL     1      -4.130  -2.164  -7.722  1.00  0.00     0.074 A 
ATOM     49  C   UNL     1      -4.205  -3.503  -7.180  1.00  0.00     0.031 C 
ATOM     50  C   UNL     1       2.075  -0.654  -6.925  1.00  0.00     0.029 A 
ATOM     51  C   UNL     1       1.048   0.172  -7.559  1.00  0.00     0.049 A 
ATOM     52  H   UNL     1      -0.977  -0.292  -7.766  1.00  0.00     0.167 HD
ATOM     53  C   UNL     1      -5.158  -1.529  -8.331  1.00  0.00     0.034 A 
ATOM     54  C   UNL     1       1.230   1.397  -8.102  1.00  0.00     0.034 A 
ATOM     55  C   UNL     1      -5.085  -0.190  -8.849  1.00  0.00     0.049 A 
ATOM     56  C   UNL     1       0.021   2.105  -8.689  1.00  0.00     0.074 A 
ATOM     57  C   UNL     1      -6.083   0.551  -9.458  1.00  0.00     0.029 A 
ATOM     58  N   UNL     1      -3.950   0.603  -8.834  1.00  0.00    -0.354 N 
ATOM     59  N   UNL     1      -1.243   1.749  -8.676  1.00  0.00    -0.248 NA
ATOM     60  C   UNL     1       0.260   3.405  -9.338  1.00  0.00     0.031 C 
ATOM     61  C   UNL     1      -5.542   1.783  -9.836  1.00  0.00     0.029 A 
ATOM     62  C   UNL     1      -4.215   1.819  -9.439  1.00  0.00     0.049 A 
ATOM     63  H   UNL     1      -3.083   0.341  -8.448  1.00  0.00     0.167 HD
ATOM     64  C   UNL     1      -1.942   2.791  -9.283  1.00  0.00     0.074 A 
ATOM     65  C   UNL     1      -0.974   3.825  -9.575  1.00  0.00     0.031 C 
ATOM     66  C   UNL     1      -3.253   2.873  -9.627  1.00  0.00     0.034 A 
BRANCH  53  67
ATOM     67  C   UNL     1      -6.457  -2.274  -8.486  1.00  0.00     0.023 A 
ATOM     68  C   UNL     1      -7.299  -2.460  -7.373  1.00  0.00     0.012 A 
ATOM     69  C   UNL     1      -6.876  -2.721  -9.756  1.00  0.00     0.148 A 
ATOM     70  C   UNL     1      -8.532  -3.097  -7.517  1.00  0.00     0.002 A 
ATOM     71  C   UNL     1      -8.123  -3.315  -9.899  1.00  0.00     0.091 A 
ATOM     72  F   UNL     1      -6.047  -2.554 -10.796  1.00  0.00    -0.205 F 
ATOM     73  C   UNL     1      -8.948  -3.512  -8.780  1.00  0.00     0.022 A 
BRANCH  71  74
ATOM     74  S   UNL     1      -8.784  -3.814 -11.494  1.00  0.00     0.127 S 
ATOM     75  O   UNL     1      -8.806  -5.270 -11.361  1.00  0.00    -0.237 OA
ATOM     76  O   UNL     1     -10.102  -3.180 -11.490  1.00  0.00    -0.237 OA
ATOM     77  O   UNL     1      -7.860  -3.296 -12.493  1.00  0.00    -0.744 OA
ENDBRANCH  71  74
ENDBRANCH  53  67
BRANCH  54  78
ATOM     78  C   UNL     1       2.561   2.096  -8.038  1.00  0.00     0.023 A 
ATOM     79  C   UNL     1       2.634   3.379  -7.453  1.00  0.00     0.012 A 
ATOM     80  C   UNL     1       3.752   1.534  -8.537  1.00  0.00     0.148 A 
ATOM     81  C   UNL     1       3.832   4.093  -7.395  1.00  0.00     0.002 A 
ATOM     82  C   UNL     1       4.963   2.211  -8.393  1.00  0.00     0.091 A 
ATOM     83  F   UNL     1       3.688   0.343  -9.149  1.00  0.00    -0.205 F 
ATOM     84  C   UNL     1       5.002   3.499  -7.843  1.00  0.00     0.022 A 
BRANCH  82  85
ATOM     85  S   UNL     1       6.544   1.462  -8.799  1.00  0.00     0.127 S 
ATOM     86  O   UNL     1       6.981   2.272  -9.932  1.00  0.00    -0.237 OA
ATOM     87  O   UNL     1       7.303   1.668  -7.564  1.00  0.00    -0.237 OA
ATOM     88  O   UNL     1       6.253   0.065  -9.097  1.00  0.00    -0.744 OA
ENDBRANCH  82  85
ENDBRANCH  54  78
BRANCH  66  89
ATOM     89  C   UNL     1      -3.718   4.123 -10.337  1.00  0.00     0.023 A 
ATOM     90  C   UNL     1      -3.278   4.376 -11.653  1.00  0.00     0.012 A 
ATOM     91  C   UNL     1      -4.644   5.004  -9.741  1.00  0.00     0.148 A 
ATOM     92  C   UNL     1      -3.706   5.508 -12.344  1.00  0.00     0.002 A 
ATOM     93  C   UNL     1      -5.110   6.102 -10.458  1.00  0.00     0.091 A 
ATOM     94  F   UNL     1      -5.052   4.753  -8.489  1.00  0.00    -0.205 F 
ATOM     95  C   UNL     1      -4.629   6.364 -11.751  1.00  0.00     0.022 A 
BRANCH  93  96
ATOM     96  S   UNL     1      -6.380   7.206  -9.827  1.00  0.00     0.127 S 
ATOM     97  O   UNL     1      -5.621   8.437  -9.607  1.00  0.00    -0.237 OA
ATOM     98  O   UNL     1      -7.322   7.263 -10.944  1.00  0.00    -0.237 OA
ATOM     99  O   UNL     1      -6.902   6.574  -8.624  1.00  0.00    -0.744 OA
ENDBRANCH  93  96
ENDBRANCH  66  89
ENDBRANCH  40  41
ENDBRANCH  33  35
ENDBRANCH  32  33
ENDBRANCH  31  32
ENDBRANCH  30  31
ENDBRANCH  29  30
ENDBRANCH  28  29
ENDBRANCH   1  28
TORSDOF 23
