REMARK SMILES CCOC(=O)c1cccc(Nc2c(-c3ccc(C(=O)OCCOCCOCCOC(=O)c4ccc(-c5c6nc(c(-c7cccc(S(=O)(=O)[O-])c7F)c7ccc([nH]7)c(-c7cccc(S(=O)(=O)[O-])c7F)c7nc(c(-c8cccc(S(=O)(=O)[O-])c8F)c8ccc5[nH]8)C=C7)C=C6)cc4)cc3)nc3cnccn23)c1
REMARK SMILES IDX 23 1 22 2 21 3 20 4 18 5 19 6 17 7 14 8 15 9 96 10 16 11
REMARK SMILES IDX 95 12 13 13 12 14 103 15 97 16 98 17 102 18 99 19 101 20
REMARK SMILES IDX 100 21 11 22 10 24 6 25 7 26 104 27 8 28 9 29 4 30 5 31 3 32
REMARK SMILES IDX 2 33 1 34 24 35 25 36 26 37 27 38 28 39 29 40 30 41 31 42
REMARK SMILES IDX 32 43 33 44 94 45 34 46 93 47 35 48 36 49 37 50 87 51 38 52
REMARK SMILES IDX 92 53 86 54 88 55 39 56 91 57 85 58 84 59 40 61 72 62 52 63
REMARK SMILES IDX 71 64 53 65 56 66 70 67 89 68 54 69 55 70 69 72 90 73 57 74
REMARK SMILES IDX 41 75 42 76 50 77 43 78 45 79 51 80 44 81 46 82 47 83 48 84
REMARK SMILES IDX 49 85 73 86 74 87 82 88 75 89 77 90 83 91 76 92 78 93 79 94
REMARK SMILES IDX 80 95 81 96 58 97 59 98 67 99 60 100 62 101 68 102 61 103
REMARK SMILES IDX 63 104 64 105 65 106 66 107
REMARK H PARENT 11 23 88 60 56 71
REMARK Flexibility Score: inf
ROOT
ATOM      1  O   UNL     1       3.768   5.418 -11.701  1.00  0.00    -0.376 OA
ENDROOT
BRANCH   1   2
ATOM      2  C   UNL     1       4.275   5.206 -13.005  1.00  0.00     0.202 C 
BRANCH   2   3
ATOM      3  C   UNL     1       4.382   3.845 -13.718  1.00  0.00     0.261 C 
BRANCH   3   4
ATOM      4  O   UNL     1       3.965   2.679 -13.006  1.00  0.00    -0.460 OA
BRANCH   4   5
ATOM      5  C   UNL     1       4.961   1.881 -12.548  1.00  0.00     0.338 C 
ATOM      6  O   UNL     1       6.159   2.065 -12.668  1.00  0.00    -0.246 OA
BRANCH   5   7
ATOM      7  C   UNL     1       4.381   0.786 -11.739  1.00  0.00     0.060 A 
ATOM      8  C   UNL     1       3.440  -1.375 -10.228  1.00  0.00     0.004 A 
ATOM      9  C   UNL     1       4.497  -0.594  -9.748  1.00  0.00     0.011 A 
ATOM     10  C   UNL     1       2.822  -1.034 -11.442  1.00  0.00     0.011 A 
ATOM     11  C   UNL     1       4.976   0.477 -10.509  1.00  0.00     0.016 A 
ATOM     12  C   UNL     1       3.280   0.053 -12.192  1.00  0.00     0.016 A 
BRANCH   8  13
ATOM     13  C   UNL     1       3.114  -2.642  -9.603  1.00  0.00     0.114 A 
ATOM     14  C   UNL     1       2.734  -2.880  -8.284  1.00  0.00     0.143 A 
ATOM     15  N   UNL     1       2.606  -4.262  -8.225  1.00  0.00    -0.283 N 
ATOM     16  N   UNL     1       3.272  -3.813 -10.315  1.00  0.00    -0.225 NA
ATOM     17  C   UNL     1       3.001  -4.751  -9.445  1.00  0.00     0.157 A 
ATOM     18  C   UNL     1       2.173  -5.154  -7.254  1.00  0.00     0.115 A 
ATOM     19  C   UNL     1       3.041  -6.171  -9.647  1.00  0.00     0.158 A 
ATOM     20  C   UNL     1       2.216  -6.472  -7.524  1.00  0.00     0.129 A 
ATOM     21  N   UNL     1       2.665  -7.011  -8.720  1.00  0.00    -0.259 NA
BRANCH  14  22
ATOM     22  N   UNL     1       2.445  -2.035  -7.253  1.00  0.00    -0.339 N 
ATOM     23  H   UNL     1       1.824  -1.299  -7.456  1.00  0.00     0.168 HD
BRANCH  22  24
ATOM     24  C   UNL     1       2.934  -2.093  -5.923  1.00  0.00     0.040 A 
ATOM     25  C   UNL     1       2.851  -1.260  -3.635  1.00  0.00     0.062 A 
ATOM     26  C   UNL     1       3.890  -2.115  -3.263  1.00  0.00     0.016 A 
ATOM     27  C   UNL     1       2.358  -1.260  -4.948  1.00  0.00     0.041 A 
ATOM     28  C   UNL     1       4.433  -2.980  -4.207  1.00  0.00     0.003 A 
ATOM     29  C   UNL     1       3.964  -2.961  -5.524  1.00  0.00     0.026 A 
BRANCH  25  30
ATOM     30  C   UNL     1       2.380  -0.276  -2.646  1.00  0.00     0.338 C 
ATOM     31  O   UNL     1       3.131   0.495  -2.076  1.00  0.00    -0.246 OA
BRANCH  30  32
ATOM     32  O   UNL     1       1.045  -0.407  -2.453  1.00  0.00    -0.462 OA
BRANCH  32  33
ATOM     33  C   UNL     1       0.502   0.482  -1.461  1.00  0.00     0.230 C 
ATOM     34  C   UNL     1       0.780  -0.017  -0.052  1.00  0.00     0.049 C 
ENDBRANCH  32  33
ENDBRANCH  30  32
ENDBRANCH  25  30
ENDBRANCH  22  24
ENDBRANCH  14  22
ENDBRANCH   8  13
ENDBRANCH   5   7
ENDBRANCH   4   5
ENDBRANCH   3   4
ENDBRANCH   2   3
ENDBRANCH   1   2
BRANCH   1  35
ATOM     35  C   UNL     1       3.701   4.370 -10.766  1.00  0.00     0.188 C 
BRANCH  35  36
ATOM     36  C   UNL     1       2.344   3.634 -10.720  1.00  0.00     0.188 C 
BRANCH  36  37
ATOM     37  O   UNL     1       1.278   4.022 -11.578  1.00  0.00    -0.376 OA
BRANCH  37  38
ATOM     38  C   UNL     1       0.954   5.399 -11.709  1.00  0.00     0.202 C 
BRANCH  38  39
ATOM     39  C   UNL     1       0.663   6.250 -10.464  1.00  0.00     0.261 C 
BRANCH  39  40
ATOM     40  O   UNL     1       1.624   6.141  -9.405  1.00  0.00    -0.460 OA
BRANCH  40  41
ATOM     41  C   UNL     1       1.176   5.519  -8.283  1.00  0.00     0.338 C 
ATOM     42  O   UNL     1       0.070   5.061  -8.084  1.00  0.00    -0.246 OA
BRANCH  41  43
ATOM     43  C   UNL     1       2.308   5.306  -7.358  1.00  0.00     0.060 A 
ATOM     44  C   UNL     1       2.638   3.988  -7.011  1.00  0.00     0.016 A 
ATOM     45  C   UNL     1       2.990   6.383  -6.791  1.00  0.00     0.016 A 
ATOM     46  C   UNL     1       3.640   3.742  -6.075  1.00  0.00     0.010 A 
ATOM     47  C   UNL     1       3.979   6.135  -5.835  1.00  0.00     0.010 A 
ATOM     48  C   UNL     1       4.288   4.816  -5.453  1.00  0.00    -0.014 A 
BRANCH  48  49
ATOM     49  C   UNL     1       5.166   4.566  -4.287  1.00  0.00     0.031 A 
ATOM     50  C   UNL     1       4.593   4.721  -2.905  1.00  0.00     0.074 A 
ATOM     51  C   UNL     1       6.454   4.218  -4.452  1.00  0.00     0.049 A 
ATOM     52  N   UNL     1       5.185   4.611  -1.746  1.00  0.00    -0.248 NA
ATOM     53  C   UNL     1       3.162   5.060  -2.824  1.00  0.00     0.031 C 
ATOM     54  C   UNL     1       7.123   4.033  -5.738  1.00  0.00     0.029 A 
ATOM     55  N   UNL     1       7.437   3.985  -3.523  1.00  0.00    -0.354 N 
ATOM     56  C   UNL     1       4.207   4.880  -0.797  1.00  0.00     0.074 A 
ATOM     57  C   UNL     1       2.989   5.185  -1.516  1.00  0.00     0.031 C 
ATOM     58  C   UNL     1       8.418   3.747  -5.517  1.00  0.00     0.029 A 
ATOM     59  C   UNL     1       8.672   3.750  -4.077  1.00  0.00     0.049 A 
ATOM     60  H   UNL     1       7.273   3.987  -2.552  1.00  0.00     0.167 HD
ATOM     61  C   UNL     1       4.307   4.862   0.553  1.00  0.00     0.034 A 
ATOM     62  C   UNL     1       9.872   3.579  -3.488  1.00  0.00     0.034 A 
ATOM     63  C   UNL     1       5.511   4.538   1.268  1.00  0.00     0.049 A 
ATOM     64  C   UNL     1       9.964   3.589  -1.983  1.00  0.00     0.074 A 
ATOM     65  C   UNL     1       5.704   4.457   2.636  1.00  0.00     0.029 A 
ATOM     66  N   UNL     1       6.729   4.249   0.673  1.00  0.00    -0.354 N 
ATOM     67  N   UNL     1       9.009   3.735  -1.096  1.00  0.00    -0.248 NA
ATOM     68  C   UNL     1      11.296   3.378  -1.396  1.00  0.00     0.031 C 
ATOM     69  C   UNL     1       7.048   4.145   2.868  1.00  0.00     0.029 A 
ATOM     70  C   UNL     1       7.684   4.005   1.645  1.00  0.00     0.049 A 
ATOM     71  H   UNL     1       6.891   4.222  -0.297  1.00  0.00     0.167 HD
ATOM     72  C   UNL     1       9.615   3.595   0.148  1.00  0.00     0.074 A 
ATOM     73  C   UNL     1      11.018   3.335  -0.100  1.00  0.00     0.031 C 
ATOM     74  C   UNL     1       9.064   3.687   1.384  1.00  0.00     0.034 A 
BRANCH  61  75
ATOM     75  C   UNL     1       3.068   5.180   1.346  1.00  0.00     0.023 A 
ATOM     76  C   UNL     1       2.021   4.237   1.410  1.00  0.00     0.012 A 
ATOM     77  C   UNL     1       2.958   6.388   2.061  1.00  0.00     0.148 A 
ATOM     78  C   UNL     1       0.870   4.507   2.148  1.00  0.00     0.002 A 
ATOM     79  C   UNL     1       1.826   6.630   2.829  1.00  0.00     0.091 A 
ATOM     80  F   UNL     1       3.953   7.281   1.966  1.00  0.00    -0.205 F 
ATOM     81  C   UNL     1       0.777   5.697   2.865  1.00  0.00     0.022 A 
BRANCH  79  82
ATOM     82  S   UNL     1       1.646   8.099   3.848  1.00  0.00     0.127 S 
ATOM     83  O   UNL     1       0.637   8.852   3.104  1.00  0.00    -0.237 OA
ATOM     84  O   UNL     1       1.176   7.539   5.116  1.00  0.00    -0.237 OA
ATOM     85  O   UNL     1       2.966   8.710   3.908  1.00  0.00    -0.744 OA
ENDBRANCH  79  82
ENDBRANCH  61  75
BRANCH  62  86
ATOM     86  C   UNL     1      11.085   3.345  -4.322  1.00  0.00     0.023 A 
ATOM     87  C   UNL     1      11.705   2.081  -4.306  1.00  0.00     0.012 A 
ATOM     88  C   UNL     1      11.620   4.363  -5.135  1.00  0.00     0.148 A 
ATOM     89  C   UNL     1      12.854   1.843  -5.061  1.00  0.00     0.002 A 
ATOM     90  C   UNL     1      12.734   4.103  -5.926  1.00  0.00     0.091 A 
ATOM     91  F   UNL     1      11.027   5.565  -5.123  1.00  0.00    -0.205 F 
ATOM     92  C   UNL     1      13.362   2.849  -5.878  1.00  0.00     0.022 A 
BRANCH  90  93
ATOM     93  S   UNL     1      13.387   5.300  -7.096  1.00  0.00     0.127 S 
ATOM     94  O   UNL     1      14.652   5.671  -6.469  1.00  0.00    -0.237 OA
ATOM     95  O   UNL     1      13.514   4.495  -8.311  1.00  0.00    -0.237 OA
ATOM     96  O   UNL     1      12.387   6.356  -7.177  1.00  0.00    -0.744 OA
ENDBRANCH  90  93
ENDBRANCH  62  86
BRANCH  74  97
ATOM     97  C   UNL     1       9.964   3.469   2.574  1.00  0.00     0.023 A 
ATOM     98  C   UNL     1      10.904   4.455   2.932  1.00  0.00     0.012 A 
ATOM     99  C   UNL     1       9.819   2.326   3.385  1.00  0.00     0.148 A 
ATOM    100  C   UNL     1      11.708   4.292   4.060  1.00  0.00     0.002 A 
ATOM    101  C   UNL     1      10.589   2.193   4.535  1.00  0.00     0.091 A 
ATOM    102  F   UNL     1       8.930   1.390   3.020  1.00  0.00    -0.205 F 
ATOM    103  C   UNL     1      11.542   3.169   4.867  1.00  0.00     0.022 A 
BRANCH 101 104
ATOM    104  S   UNL     1      10.376   0.828   5.684  1.00  0.00     0.127 S 
ATOM    105  O   UNL     1      11.570   0.026   5.419  1.00  0.00    -0.237 OA
ATOM    106  O   UNL     1      10.374   1.508   6.979  1.00  0.00    -0.237 OA
ATOM    107  O   UNL     1       9.110   0.200   5.331  1.00  0.00    -0.744 OA
ENDBRANCH 101 104
ENDBRANCH  74  97
ENDBRANCH  48  49
ENDBRANCH  41  43
ENDBRANCH  40  41
ENDBRANCH  39  40
ENDBRANCH  38  39
ENDBRANCH  37  38
ENDBRANCH  36  37
ENDBRANCH  35  36
ENDBRANCH   1  35
TORSDOF 26
