REMARK SMILES Cc1cc(N2CC[C@H](CC(=O)OCCOCCOCCOC(=O)c3ccc(-c4c5nc(c(-c6cccc(S(=O)(=O)[O-])c6F)c6ccc([nH]6)c(-c6cccc(S(=O)(=O)[O-])c6F)c6nc(c(-c7cccc(S(=O)(=O)[O-])c7F)c7ccc4[nH]7)C=C6)C=C5)cc3)C2)ncc1[N+](=O)[O-]
REMARK SMILES IDX 16 1 15 2 14 3 13 4 12 5 10 6 11 7 9 8 8 9 5 10 6 11 87 12
REMARK SMILES IDX 7 13 4 14 1 15 2 16 3 17 90 18 89 19 88 20 91 21 92 22 93 23
REMARK SMILES IDX 17 24 18 25 19 26 20 27 21 28 22 29 23 30 24 31 25 32 86 33
REMARK SMILES IDX 26 34 85 35 27 36 28 37 29 38 79 39 30 40 84 41 78 42 80 43
REMARK SMILES IDX 31 44 83 45 77 46 76 47 32 49 64 50 44 51 63 52 45 53 48 54
REMARK SMILES IDX 62 55 81 56 46 57 47 58 61 60 82 61 49 62 33 63 34 64 42 65
REMARK SMILES IDX 35 66 37 67 43 68 36 69 38 70 39 71 40 72 41 73 65 74 66 75
REMARK SMILES IDX 74 76 67 77 69 78 75 79 68 80 70 81 71 82 72 83 73 84 50 85
REMARK SMILES IDX 51 86 59 87 52 88 54 89 60 90 53 91 55 92 56 93 57 94 58 95
REMARK H PARENT 80 48 48 59
REMARK Flexibility Score: inf
ROOT
ATOM      1  C   UNL     1       5.079   7.704   1.166  1.00  0.00     0.188 C 
ENDROOT
BRANCH   1   2
ATOM      2  O   UNL     1       6.476   7.960   1.273  1.00  0.00    -0.376 OA
BRANCH   2   3
ATOM      3  C   UNL     1       7.350   7.042   0.618  1.00  0.00     0.202 C 
BRANCH   3   4
ATOM      4  C   UNL     1       7.304   5.591   1.121  1.00  0.00     0.261 C 
BRANCH   4   5
ATOM      5  O   UNL     1       5.988   5.000   1.060  1.00  0.00    -0.463 OA
BRANCH   5   6
ATOM      6  C   UNL     1       5.580   4.364   2.189  1.00  0.00     0.306 C 
ATOM      7  O   UNL     1       6.292   4.155   3.166  1.00  0.00    -0.252 OA
BRANCH   6   8
ATOM      8  C   UNL     1       4.108   4.002   2.200  1.00  0.00     0.128 C 
BRANCH   8   9
ATOM      9  C   UNL     1       3.367   3.833   0.875  1.00  0.00     0.021 C 
ATOM     10  N   UNL     1       1.743   2.429  -0.172  1.00  0.00    -0.356 N 
ATOM     11  C   UNL     1       2.916   2.478  -1.040  1.00  0.00     0.118 C 
ATOM     12  C   UNL     1       1.996   3.144   1.082  1.00  0.00     0.122 C 
ATOM     13  C   UNL     1       4.053   2.902  -0.121  1.00  0.00     0.027 C 
BRANCH  10  14
ATOM     14  C   UNL     1       1.060   1.228  -0.071  1.00  0.00     0.129 A 
ATOM     15  C   UNL     1      -2.568   0.156   0.059  1.00  0.00     0.052 C 
ATOM     16  C   UNL     1      -1.070   0.027   0.051  1.00  0.00     0.032 A 
ATOM     17  C   UNL     1      -0.332   1.231   0.027  1.00  0.00     0.057 A 
ATOM     18  C   UNL     1      -0.337  -1.166   0.054  1.00  0.00     0.290 A 
ATOM     19  C   UNL     1       1.050  -1.090  -0.018  1.00  0.00     0.199 A 
ATOM     20  N   UNL     1       1.749   0.070  -0.095  1.00  0.00    -0.232 NA
BRANCH  18  21
ATOM     21  N   UNL     1      -0.921  -2.503   0.125  1.00  0.00     0.064 N 
ATOM     22  O   UNL     1      -0.237  -3.448  -0.299  1.00  0.00    -0.258 OA
ATOM     23  O   UNL     1      -2.044  -2.636   0.627  1.00  0.00    -0.258 OA
ENDBRANCH  18  21
ENDBRANCH  10  14
ENDBRANCH   8   9
ENDBRANCH   6   8
ENDBRANCH   5   6
ENDBRANCH   4   5
ENDBRANCH   3   4
ENDBRANCH   2   3
ENDBRANCH   1   2
BRANCH   1  24
ATOM     24  C   UNL     1       4.508   7.706  -0.254  1.00  0.00     0.188 C 
BRANCH  24  25
ATOM     25  O   UNL     1       5.215   6.902  -1.194  1.00  0.00    -0.376 OA
BRANCH  25  26
ATOM     26  C   UNL     1       4.718   6.916  -2.535  1.00  0.00     0.202 C 
BRANCH  26  27
ATOM     27  C   UNL     1       4.518   8.303  -3.183  1.00  0.00     0.261 C 
BRANCH  27  28
ATOM     28  O   UNL     1       3.530   9.138  -2.543  1.00  0.00    -0.460 OA
BRANCH  28  29
ATOM     29  C   UNL     1       2.299   8.610  -2.352  1.00  0.00     0.338 C 
ATOM     30  O   UNL     1       1.854   7.606  -2.886  1.00  0.00    -0.246 OA
BRANCH  29  31
ATOM     31  C   UNL     1       1.666   9.286  -1.188  1.00  0.00     0.060 A 
ATOM     32  C   UNL     1       0.925   8.498  -0.295  1.00  0.00     0.016 A 
ATOM     33  C   UNL     1       1.843  10.650  -0.928  1.00  0.00     0.016 A 
ATOM     34  C   UNL     1       0.319   9.078   0.821  1.00  0.00     0.010 A 
ATOM     35  C   UNL     1       1.227  11.231   0.189  1.00  0.00     0.010 A 
ATOM     36  C   UNL     1       0.429  10.456   1.048  1.00  0.00    -0.014 A 
BRANCH  36  37
ATOM     37  C   UNL     1      -0.444  11.100   2.064  1.00  0.00     0.031 A 
ATOM     38  C   UNL     1      -1.719  11.758   1.601  1.00  0.00     0.074 A 
ATOM     39  C   UNL     1      -0.146  11.078   3.377  1.00  0.00     0.049 A 
ATOM     40  N   UNL     1      -2.659  12.332   2.305  1.00  0.00    -0.248 NA
ATOM     41  C   UNL     1      -1.966  11.766   0.149  1.00  0.00     0.031 C 
ATOM     42  C   UNL     1       1.052  10.484   3.966  1.00  0.00     0.029 A 
ATOM     43  N   UNL     1      -0.833  11.588   4.452  1.00  0.00    -0.354 N 
ATOM     44  C   UNL     1      -3.599  12.782   1.387  1.00  0.00     0.074 A 
ATOM     45  C   UNL     1      -3.107  12.434   0.072  1.00  0.00     0.031 C 
ATOM     46  C   UNL     1       1.025  10.680   5.297  1.00  0.00     0.029 A 
ATOM     47  C   UNL     1      -0.184  11.424   5.654  1.00  0.00     0.049 A 
ATOM     48  H   UNL     1      -1.709  12.030   4.371  1.00  0.00     0.167 HD
ATOM     49  C   UNL     1      -4.779  13.408   1.610  1.00  0.00     0.034 A 
ATOM     50  C   UNL     1      -0.520  11.834   6.894  1.00  0.00     0.034 A 
ATOM     51  C   UNL     1      -5.285  13.749   2.911  1.00  0.00     0.049 A 
ATOM     52  C   UNL     1      -1.828  12.557   7.113  1.00  0.00     0.074 A 
ATOM     53  C   UNL     1      -6.491  14.347   3.233  1.00  0.00     0.029 A 
ATOM     54  N   UNL     1      -4.612  13.541   4.104  1.00  0.00    -0.354 N 
ATOM     55  N   UNL     1      -2.768  12.849   6.248  1.00  0.00    -0.248 NA
ATOM     56  C   UNL     1      -2.136  12.973   8.491  1.00  0.00     0.031 C 
ATOM     57  C   UNL     1      -6.536  14.524   4.620  1.00  0.00     0.029 A 
ATOM     58  C   UNL     1      -5.371  14.009   5.163  1.00  0.00     0.049 A 
ATOM     59  H   UNL     1      -3.725  13.121   4.186  1.00  0.00     0.167 HD
ATOM     60  C   UNL     1      -3.790  13.448   6.981  1.00  0.00     0.074 A 
ATOM     61  C   UNL     1      -3.365  13.452   8.364  1.00  0.00     0.031 C 
ATOM     62  C   UNL     1      -4.968  13.962   6.545  1.00  0.00     0.034 A 
BRANCH  49  63
ATOM     63  C   UNL     1      -5.626  13.741   0.411  1.00  0.00     0.023 A 
ATOM     64  C   UNL     1      -6.306  12.708  -0.267  1.00  0.00     0.012 A 
ATOM     65  C   UNL     1      -5.794  15.074  -0.008  1.00  0.00     0.148 A 
ATOM     66  C   UNL     1      -7.120  12.995  -1.361  1.00  0.00     0.002 A 
ATOM     67  C   UNL     1      -6.641  15.357  -1.072  1.00  0.00     0.091 A 
ATOM     68  F   UNL     1      -5.118  16.036   0.635  1.00  0.00    -0.205 F 
ATOM     69  C   UNL     1      -7.296  14.319  -1.756  1.00  0.00     0.022 A 
BRANCH  67  70
ATOM     70  S   UNL     1      -6.994  17.033  -1.610  1.00  0.00     0.127 S 
ATOM     71  O   UNL     1      -6.310  17.078  -2.901  1.00  0.00    -0.237 OA
ATOM     72  O   UNL     1      -8.455  17.028  -1.693  1.00  0.00    -0.237 OA
ATOM     73  O   UNL     1      -6.447  17.908  -0.583  1.00  0.00    -0.744 OA
ENDBRANCH  67  70
ENDBRANCH  49  63
BRANCH  50  74
ATOM     74  C   UNL     1       0.377  11.546   8.051  1.00  0.00     0.023 A 
ATOM     75  C   UNL     1      -0.041  10.648   9.053  1.00  0.00     0.012 A 
ATOM     76  C   UNL     1       1.631  12.174   8.173  1.00  0.00     0.148 A 
ATOM     77  C   UNL     1       0.757  10.409  10.173  1.00  0.00     0.002 A 
ATOM     78  C   UNL     1       2.446  11.889   9.263  1.00  0.00     0.091 A 
ATOM     79  F   UNL     1       2.001  13.044   7.223  1.00  0.00    -0.205 F 
ATOM     80  C   UNL     1       2.003  11.021  10.273  1.00  0.00     0.022 A 
BRANCH  78  81
ATOM     81  S   UNL     1       4.113  12.540   9.414  1.00  0.00     0.127 S 
ATOM     82  O   UNL     1       3.961  13.503  10.501  1.00  0.00    -0.237 OA
ATOM     83  O   UNL     1       4.875  11.339   9.755  1.00  0.00    -0.237 OA
ATOM     84  O   UNL     1       4.432  13.102   8.109  1.00  0.00    -0.744 OA
ENDBRANCH  78  81
ENDBRANCH  50  74
BRANCH  62  85
ATOM     85  C   UNL     1      -5.907  14.544   7.573  1.00  0.00     0.023 A 
ATOM     86  C   UNL     1      -5.589  15.762   8.206  1.00  0.00     0.012 A 
ATOM     87  C   UNL     1      -7.136  13.916   7.865  1.00  0.00     0.148 A 
ATOM     88  C   UNL     1      -6.457  16.324   9.143  1.00  0.00     0.002 A 
ATOM     89  C   UNL     1      -8.018  14.508   8.762  1.00  0.00     0.091 A 
ATOM     90  F   UNL     1      -7.417  12.750   7.267  1.00  0.00    -0.205 F 
ATOM     91  C   UNL     1      -7.675  15.704   9.412  1.00  0.00     0.022 A 
BRANCH  89  92
ATOM     92  S   UNL     1      -9.648  13.829   9.097  1.00  0.00     0.127 S 
ATOM     93  O   UNL     1      -9.461  13.242  10.422  1.00  0.00    -0.237 OA
ATOM     94  O   UNL     1     -10.495  15.023   9.073  1.00  0.00    -0.237 OA
ATOM     95  O   UNL     1      -9.914  12.883   8.022  1.00  0.00    -0.744 OA
ENDBRANCH  89  92
ENDBRANCH  62  85
ENDBRANCH  36  37
ENDBRANCH  29  31
ENDBRANCH  28  29
ENDBRANCH  27  28
ENDBRANCH  26  27
ENDBRANCH  25  26
ENDBRANCH  24  25
ENDBRANCH   1  24
TORSDOF 23
