REMARK SMILES Cc1ccc(C)c(-n2nc(C)c(/C=C(/C#N)C(=O)OCCOCCOCCOC(=O)c3ccc(-c4c5nc(c(-c6cccc(S(=O)(=O)[O-])c6F)c6ccc([nH]6)c(-c6cccc(S(=O)(=O)[O-])c6F)c6nc(c(-c7cccc(S(=O)(=O)[O-])c7F)c7ccc4[nH]7)C=C6)C=C5)cc3)c2Cl)c1
REMARK SMILES IDX 24 1 23 2 22 3 21 4 20 5 19 6 17 7 18 8 14 9 13 10 12 11
REMARK SMILES IDX 8 12 9 13 94 14 10 15 95 16 11 17 7 18 1 19 2 20 3 21 96 22
REMARK SMILES IDX 4 23 5 24 6 25 15 26 16 27 25 28 26 29 27 30 28 31 29 32
REMARK SMILES IDX 30 33 31 34 32 35 93 36 33 37 92 38 34 39 35 40 36 41 86 42
REMARK SMILES IDX 37 43 91 44 85 45 87 46 38 47 90 48 84 49 83 50 39 52 71 53
REMARK SMILES IDX 51 54 70 55 52 56 55 57 69 58 88 59 53 60 54 61 68 63 89 64
REMARK SMILES IDX 56 65 40 66 41 67 49 68 42 69 44 70 50 71 43 72 45 73 46 74
REMARK SMILES IDX 47 75 48 76 72 77 73 78 81 79 74 80 76 81 82 82 75 83 77 84
REMARK SMILES IDX 78 85 79 86 80 87 57 88 58 89 66 90 59 91 61 92 67 93 60 94
REMARK SMILES IDX 62 95 63 96 64 97 65 98
REMARK H PARENT 87 51 55 62
REMARK Flexibility Score: inf
ROOT
ATOM      1  C   UNL     1      -7.037   4.219   0.359  1.00  0.00     0.188 C 
ENDROOT
BRANCH   1   2
ATOM      2  C   UNL     1      -5.713   4.075   1.116  1.00  0.00     0.188 C 
BRANCH   2   3
ATOM      3  O   UNL     1      -5.658   4.641   2.427  1.00  0.00    -0.376 OA
BRANCH   3   4
ATOM      4  C   UNL     1      -5.705   6.069   2.544  1.00  0.00     0.202 C 
BRANCH   4   5
ATOM      5  C   UNL     1      -4.546   6.891   1.945  1.00  0.00     0.261 C 
BRANCH   5   6
ATOM      6  O   UNL     1      -4.244   6.547   0.572  1.00  0.00    -0.459 OA
BRANCH   6   7
ATOM      7  C   UNL     1      -3.167   7.168   0.015  1.00  0.00     0.348 C 
ATOM      8  O   UNL     1      -2.386   7.907   0.585  1.00  0.00    -0.245 OA
BRANCH   7   9
ATOM      9  C   UNL     1      -3.024   6.816  -1.421  1.00  0.00     0.138 C 
ATOM     10  C   UNL     1      -2.394   5.641  -1.679  1.00  0.00     0.040 C 
BRANCH  10  11
ATOM     11  C   UNL     1      -2.016   4.479  -0.859  1.00  0.00     0.037 A 
ATOM     12  N   UNL     1      -1.307   2.376  -0.461  1.00  0.00    -0.221 N 
ATOM     13  N   UNL     1      -1.853   2.780   0.688  1.00  0.00    -0.171 NA
ATOM     14  C   UNL     1      -1.372   3.371  -1.408  1.00  0.00     0.140 A 
ATOM     15  C   UNL     1      -2.040   4.097   0.535  1.00  0.00     0.069 A 
ATOM     16  Cl  UNL     1      -0.758   3.076  -2.978  1.00  0.00    -0.061 Cl
ATOM     17  C   UNL     1      -2.178   4.780   1.843  1.00  0.00     0.069 C 
BRANCH  12  18
ATOM     18  C   UNL     1      -0.645   1.128  -0.447  1.00  0.00     0.069 A 
ATOM     19  C   UNL     1       2.962  -0.056  -0.092  1.00  0.00     0.044 C 
ATOM     20  C   UNL     1       1.466  -0.052  -0.201  1.00  0.00    -0.049 A 
ATOM     21  C   UNL     1       0.755  -1.245  -0.025  1.00  0.00     0.004 A 
ATOM     22  C   UNL     1       0.760   1.134  -0.441  1.00  0.00     0.032 A 
ATOM     23  C   UNL     1      -0.642  -1.246  -0.022  1.00  0.00     0.006 A 
ATOM     24  C   UNL     1      -1.365  -0.057  -0.195  1.00  0.00    -0.025 A 
ATOM     25  C   UNL     1      -2.866  -0.130  -0.114  1.00  0.00     0.047 C 
ENDBRANCH  12  18
ENDBRANCH  10  11
BRANCH   9  26
ATOM     26  C   UNL     1      -3.058   7.979  -2.401  1.00  0.00     0.107 C 
ATOM     27  N   UNL     1      -3.086   8.943  -3.213  1.00  0.00    -0.192 NA
ENDBRANCH   9  26
ENDBRANCH   7   9
ENDBRANCH   6   7
ENDBRANCH   5   6
ENDBRANCH   4   5
ENDBRANCH   3   4
ENDBRANCH   2   3
ENDBRANCH   1   2
BRANCH   1  28
ATOM     28  O   UNL     1      -7.438   5.572   0.271  1.00  0.00    -0.376 OA
BRANCH  28  29
ATOM     29  C   UNL     1      -8.825   5.802   0.462  1.00  0.00     0.202 C 
BRANCH  29  30
ATOM     30  C   UNL     1      -9.707   5.358  -0.709  1.00  0.00     0.261 C 
BRANCH  30  31
ATOM     31  O   UNL     1      -9.326   5.569  -2.097  1.00  0.00    -0.460 OA
BRANCH  31  32
ATOM     32  C   UNL     1      -8.277   6.252  -2.599  1.00  0.00     0.338 C 
ATOM     33  O   UNL     1      -7.662   5.857  -3.583  1.00  0.00    -0.246 OA
BRANCH  32  34
ATOM     34  C   UNL     1      -7.855   7.462  -1.880  1.00  0.00     0.060 A 
ATOM     35  C   UNL     1      -6.502   7.537  -1.625  1.00  0.00     0.016 A 
ATOM     36  C   UNL     1      -8.736   8.409  -1.334  1.00  0.00     0.016 A 
ATOM     37  C   UNL     1      -6.085   8.430  -0.666  1.00  0.00     0.010 A 
ATOM     38  C   UNL     1      -8.285   9.299  -0.340  1.00  0.00     0.010 A 
ATOM     39  C   UNL     1      -6.958   9.243   0.065  1.00  0.00    -0.014 A 
BRANCH  39  40
ATOM     40  C   UNL     1      -6.272  10.108   1.051  1.00  0.00     0.031 A 
ATOM     41  C   UNL     1      -5.125  10.835   0.433  1.00  0.00     0.074 A 
ATOM     42  C   UNL     1      -6.466  10.141   2.392  1.00  0.00     0.049 A 
ATOM     43  N   UNL     1      -3.894  10.823   0.843  1.00  0.00    -0.248 NA
ATOM     44  C   UNL     1      -5.314  11.416  -0.912  1.00  0.00     0.031 C 
ATOM     45  C   UNL     1      -7.477   9.393   3.136  1.00  0.00     0.029 A 
ATOM     46  N   UNL     1      -5.836  10.881   3.384  1.00  0.00    -0.354 N 
ATOM     47  C   UNL     1      -3.221  11.639  -0.059  1.00  0.00     0.074 A 
ATOM     48  C   UNL     1      -4.078  11.812  -1.206  1.00  0.00     0.031 C 
ATOM     49  C   UNL     1      -7.549   9.877   4.392  1.00  0.00     0.029 A 
ATOM     50  C   UNL     1      -6.598  10.965   4.552  1.00  0.00     0.049 A 
ATOM     51  H   UNL     1      -4.951  11.299   3.277  1.00  0.00     0.167 HD
ATOM     52  C   UNL     1      -2.325  12.536   0.421  1.00  0.00     0.034 A 
ATOM     53  C   UNL     1      -6.571  11.916   5.526  1.00  0.00     0.034 A 
ATOM     54  C   UNL     1      -1.578  12.060   1.541  1.00  0.00     0.049 A 
ATOM     55  C   UNL     1      -5.243  12.562   5.558  1.00  0.00     0.074 A 
ATOM     56  C   UNL     1      -0.529  11.202   1.779  1.00  0.00     0.029 A 
ATOM     57  N   UNL     1      -2.161  12.327   2.742  1.00  0.00    -0.354 N 
ATOM     58  N   UNL     1      -4.196  12.046   6.138  1.00  0.00    -0.248 NA
ATOM     59  C   UNL     1      -4.996  13.749   4.744  1.00  0.00     0.031 C 
ATOM     60  C   UNL     1      -0.484  10.995   3.188  1.00  0.00     0.029 A 
ATOM     61  C   UNL     1      -1.504  11.734   3.779  1.00  0.00     0.049 A 
ATOM     62  H   UNL     1      -2.965  12.884   2.849  1.00  0.00     0.167 HD
ATOM     63  C   UNL     1      -3.137  12.562   5.415  1.00  0.00     0.074 A 
ATOM     64  C   UNL     1      -3.664  13.718   4.705  1.00  0.00     0.031 C 
ATOM     65  C   UNL     1      -2.070  11.776   5.107  1.00  0.00     0.034 A 
BRANCH  52  66
ATOM     66  C   UNL     1      -2.656  14.008   0.276  1.00  0.00     0.023 A 
ATOM     67  C   UNL     1      -1.648  14.965   0.459  1.00  0.00     0.012 A 
ATOM     68  C   UNL     1      -3.987  14.487   0.204  1.00  0.00     0.148 A 
ATOM     69  C   UNL     1      -1.955  16.333   0.487  1.00  0.00     0.002 A 
ATOM     70  C   UNL     1      -4.271  15.833   0.082  1.00  0.00     0.091 A 
ATOM     71  F   UNL     1      -5.010  13.655   0.436  1.00  0.00    -0.205 F 
ATOM     72  C   UNL     1      -3.258  16.771   0.248  1.00  0.00     0.022 A 
BRANCH  70  73
ATOM     73  S   UNL     1      -5.928  16.370  -0.348  1.00  0.00     0.127 S 
ATOM     74  O   UNL     1      -6.441  16.817   0.942  1.00  0.00    -0.237 OA
ATOM     75  O   UNL     1      -5.660  17.432  -1.317  1.00  0.00    -0.237 OA
ATOM     76  O   UNL     1      -6.569  15.192  -0.926  1.00  0.00    -0.744 OA
ENDBRANCH  70  73
ENDBRANCH  52  66
BRANCH  53  77
ATOM     77  C   UNL     1      -7.679  12.440   6.387  1.00  0.00     0.023 A 
ATOM     78  C   UNL     1      -7.391  13.341   7.439  1.00  0.00     0.012 A 
ATOM     79  C   UNL     1      -9.037  12.287   6.031  1.00  0.00     0.148 A 
ATOM     80  C   UNL     1      -8.402  14.088   8.065  1.00  0.00     0.002 A 
ATOM     81  C   UNL     1     -10.040  13.009   6.670  1.00  0.00     0.091 A 
ATOM     82  F   UNL     1      -9.364  11.513   4.994  1.00  0.00    -0.205 F 
ATOM     83  C   UNL     1      -9.728  13.926   7.676  1.00  0.00     0.022 A 
BRANCH  81  84
ATOM     84  S   UNL     1     -11.762  12.827   6.184  1.00  0.00     0.127 S 
ATOM     85  O   UNL     1     -12.453  12.852   7.473  1.00  0.00    -0.237 OA
ATOM     86  O   UNL     1     -11.969  14.008   5.353  1.00  0.00    -0.237 OA
ATOM     87  O   UNL     1     -11.843  11.542   5.497  1.00  0.00    -0.744 OA
ENDBRANCH  81  84
ENDBRANCH  53  77
BRANCH  65  88
ATOM     88  C   UNL     1      -1.569  10.821   6.138  1.00  0.00     0.023 A 
ATOM     89  C   UNL     1      -2.322   9.745   6.636  1.00  0.00     0.012 A 
ATOM     90  C   UNL     1      -0.244  10.997   6.578  1.00  0.00     0.148 A 
ATOM     91  C   UNL     1      -1.763   8.867   7.568  1.00  0.00     0.002 A 
ATOM     92  C   UNL     1       0.322  10.098   7.467  1.00  0.00     0.091 A 
ATOM     93  F   UNL     1       0.445  12.053   6.116  1.00  0.00    -0.205 F 
ATOM     94  C   UNL     1      -0.438   9.034   7.973  1.00  0.00     0.022 A 
BRANCH  92  95
ATOM     95  S   UNL     1       2.047  10.218   7.939  1.00  0.00     0.127 S 
ATOM     96  O   UNL     1       1.958  10.787   9.282  1.00  0.00    -0.237 OA
ATOM     97  O   UNL     1       2.483   8.822   7.892  1.00  0.00    -0.237 OA
ATOM     98  O   UNL     1       2.677  11.069   6.936  1.00  0.00    -0.744 OA
ENDBRANCH  92  95
ENDBRANCH  65  88
ENDBRANCH  39  40
ENDBRANCH  32  34
ENDBRANCH  31  32
ENDBRANCH  30  31
ENDBRANCH  29  30
ENDBRANCH  28  29
ENDBRANCH   1  28
TORSDOF 23
