REMARK SMILES O=C(OCCOCCOCCOC(=O)c1cccc(N2CCCCC2)n1)c1ccc(-c2c3nc(c(-c4cccc(S(=O)(=O)[O-])c4F)c4ccc([nH]4)c(-c4cccc(S(=O)(=O)[O-])c4F)c4nc(c(-c5cccc(S(=O)(=O)[O-])c5F)c5ccc2[nH]5)C=C4)C=C3)cc1
REMARK SMILES IDX 7 1 6 2 5 3 4 4 3 5 2 6 1 7 27 8 28 9 89 10 29 11 88 12
REMARK SMILES IDX 30 13 31 14 32 15 82 16 33 17 87 18 81 19 83 20 34 21 86 22
REMARK SMILES IDX 80 23 79 24 35 26 67 27 47 28 66 29 48 30 51 31 65 32 84 33
REMARK SMILES IDX 49 34 50 35 64 37 85 38 52 39 36 40 37 41 45 42 38 43 40 44
REMARK SMILES IDX 46 45 39 46 41 47 42 48 43 49 44 50 68 51 69 52 77 53 70 54
REMARK SMILES IDX 72 55 78 56 71 57 73 58 74 59 75 60 76 61 53 62 54 63 62 64
REMARK SMILES IDX 55 65 57 66 63 67 56 68 58 69 59 70 60 71 61 72 8 73 9 74
REMARK SMILES IDX 10 75 11 76 12 77 13 78 14 79 15 80 16 81 26 82 17 83 19 84
REMARK SMILES IDX 18 85 20 86 21 87 25 88 22 89 24 90 23 91
REMARK H PARENT 83 25 51 36
REMARK Flexibility Score: inf
ROOT
ATOM      1  C   UNL     1       2.589   0.516   1.955  1.00  0.00     0.188 C 
ENDROOT
BRANCH   1   2
ATOM      2  O   UNL     1       3.918   0.086   1.653  1.00  0.00    -0.376 OA
BRANCH   2   3
ATOM      3  C   UNL     1       4.764   1.085   1.084  1.00  0.00     0.202 C 
BRANCH   3   4
ATOM      4  C   UNL     1       4.465   1.495  -0.369  1.00  0.00     0.261 C 
BRANCH   4   5
ATOM      5  O   UNL     1       3.086   1.350  -0.747  1.00  0.00    -0.460 OA
BRANCH   5   6
ATOM      6  C   UNL     1       2.556   0.372  -1.530  1.00  0.00     0.338 C 
ATOM      7  O   UNL     1       1.431   0.529  -2.000  1.00  0.00    -0.246 OA
BRANCH   6   8
ATOM      8  C   UNL     1       3.294  -0.886  -1.849  1.00  0.00     0.060 A 
ATOM      9  C   UNL     1       4.258  -1.451  -1.018  1.00  0.00     0.016 A 
ATOM     10  C   UNL     1       2.934  -1.592  -3.006  1.00  0.00     0.016 A 
ATOM     11  C   UNL     1       4.943  -2.604  -1.365  1.00  0.00     0.010 A 
ATOM     12  C   UNL     1       3.549  -2.814  -3.313  1.00  0.00     0.010 A 
ATOM     13  C   UNL     1       4.580  -3.312  -2.503  1.00  0.00    -0.014 A 
BRANCH  13  14
ATOM     14  C   UNL     1       5.345  -4.529  -2.852  1.00  0.00     0.031 A 
ATOM     15  C   UNL     1       6.160  -4.531  -4.108  1.00  0.00     0.074 A 
ATOM     16  C   UNL     1       5.379  -5.582  -2.011  1.00  0.00     0.049 A 
ATOM     17  N   UNL     1       6.837  -5.508  -4.645  1.00  0.00    -0.248 NA
ATOM     18  C   UNL     1       6.240  -3.260  -4.851  1.00  0.00     0.031 C 
ATOM     19  C   UNL     1       4.722  -5.644  -0.703  1.00  0.00     0.029 A 
ATOM     20  N   UNL     1       5.993  -6.804  -2.127  1.00  0.00    -0.354 N 
ATOM     21  C   UNL     1       7.378  -4.988  -5.812  1.00  0.00     0.074 A 
ATOM     22  C   UNL     1       6.959  -3.609  -5.906  1.00  0.00     0.031 C 
ATOM     23  C   UNL     1       4.962  -6.841  -0.149  1.00  0.00     0.029 A 
ATOM     24  C   UNL     1       5.693  -7.663  -1.095  1.00  0.00     0.049 A 
ATOM     25  H   UNL     1       6.588  -7.043  -2.874  1.00  0.00     0.167 HD
ATOM     26  C   UNL     1       8.164  -5.611  -6.717  1.00  0.00     0.034 A 
ATOM     27  C   UNL     1       5.923  -8.981  -0.950  1.00  0.00     0.034 A 
ATOM     28  C   UNL     1       8.600  -6.972  -6.589  1.00  0.00     0.049 A 
ATOM     29  C   UNL     1       6.706  -9.675  -2.022  1.00  0.00     0.074 A 
ATOM     30  C   UNL     1       9.413  -7.698  -7.437  1.00  0.00     0.029 A 
ATOM     31  N   UNL     1       8.245  -7.816  -5.547  1.00  0.00    -0.354 N 
ATOM     32  N   UNL     1       7.251  -9.162  -3.098  1.00  0.00    -0.248 NA
ATOM     33  C   UNL     1       6.935 -11.115  -1.853  1.00  0.00     0.031 C 
ATOM     34  C   UNL     1       9.521  -8.995  -6.926  1.00  0.00     0.029 A 
ATOM     35  C   UNL     1       8.800  -9.066  -5.744  1.00  0.00     0.049 A 
ATOM     36  H   UNL     1       7.681  -7.562  -4.780  1.00  0.00     0.167 HD
ATOM     37  C   UNL     1       7.918 -10.206  -3.718  1.00  0.00     0.074 A 
ATOM     38  C   UNL     1       7.722 -11.378  -2.887  1.00  0.00     0.031 C 
ATOM     39  C   UNL     1       8.620 -10.201  -4.875  1.00  0.00     0.034 A 
BRANCH  26  40
ATOM     40  C   UNL     1       8.570  -4.829  -7.932  1.00  0.00     0.023 A 
ATOM     41  C   UNL     1       9.566  -3.837  -7.839  1.00  0.00     0.012 A 
ATOM     42  C   UNL     1       7.966  -5.096  -9.175  1.00  0.00     0.148 A 
ATOM     43  C   UNL     1       9.937  -3.103  -8.965  1.00  0.00     0.002 A 
ATOM     44  C   UNL     1       8.368  -4.389 -10.299  1.00  0.00     0.091 A 
ATOM     45  F   UNL     1       7.002  -6.026  -9.228  1.00  0.00    -0.205 F 
ATOM     46  C   UNL     1       9.345  -3.385 -10.195  1.00  0.00     0.022 A 
BRANCH  44  47
ATOM     47  S   UNL     1       7.707  -4.712 -11.936  1.00  0.00     0.127 S 
ATOM     48  O   UNL     1       7.062  -3.438 -12.251  1.00  0.00    -0.237 OA
ATOM     49  O   UNL     1       8.921  -4.989 -12.702  1.00  0.00    -0.237 OA
ATOM     50  O   UNL     1       6.799  -5.842 -11.791  1.00  0.00    -0.744 OA
ENDBRANCH  44  47
ENDBRANCH  26  40
BRANCH  27  51
ATOM     51  C   UNL     1       5.369  -9.732   0.213  1.00  0.00     0.023 A 
ATOM     52  C   UNL     1       6.234 -10.274   1.182  1.00  0.00     0.012 A 
ATOM     53  C   UNL     1       3.979  -9.929   0.350  1.00  0.00     0.148 A 
ATOM     54  C   UNL     1       5.729 -11.027   2.245  1.00  0.00     0.002 A 
ATOM     55  C   UNL     1       3.480 -10.643   1.433  1.00  0.00     0.091 A 
ATOM     56  F   UNL     1       3.168  -9.410  -0.582  1.00  0.00    -0.205 F 
ATOM     57  C   UNL     1       4.354 -11.205   2.375  1.00  0.00     0.022 A 
BRANCH  55  58
ATOM     58  S   UNL     1       1.718 -10.816   1.743  1.00  0.00     0.127 S 
ATOM     59  O   UNL     1       1.495 -12.227   1.446  1.00  0.00    -0.237 OA
ATOM     60  O   UNL     1       1.631 -10.456   3.159  1.00  0.00    -0.237 OA
ATOM     61  O   UNL     1       1.069  -9.867   0.848  1.00  0.00    -0.744 OA
ENDBRANCH  55  58
ENDBRANCH  27  51
BRANCH  39  62
ATOM     62  C   UNL     1       9.259 -11.493  -5.289  1.00  0.00     0.023 A 
ATOM     63  C   UNL     1       8.463 -12.535  -5.802  1.00  0.00     0.012 A 
ATOM     64  C   UNL     1      10.657 -11.643  -5.233  1.00  0.00     0.148 A 
ATOM     65  C   UNL     1       9.050 -13.722  -6.230  1.00  0.00     0.002 A 
ATOM     66  C   UNL     1      11.239 -12.806  -5.713  1.00  0.00     0.091 A 
ATOM     67  F   UNL     1      11.387 -10.643  -4.716  1.00  0.00    -0.205 F 
ATOM     68  C   UNL     1      10.438 -13.852  -6.199  1.00  0.00     0.022 A 
BRANCH  66  69
ATOM     69  S   UNL     1      13.019 -13.015  -5.808  1.00  0.00     0.127 S 
ATOM     70  O   UNL     1      13.261 -13.996  -4.752  1.00  0.00    -0.237 OA
ATOM     71  O   UNL     1      13.197 -13.524  -7.168  1.00  0.00    -0.237 OA
ATOM     72  O   UNL     1      13.591 -11.695  -5.578  1.00  0.00    -0.744 OA
ENDBRANCH  66  69
ENDBRANCH  39  62
ENDBRANCH  13  14
ENDBRANCH   6   8
ENDBRANCH   5   6
ENDBRANCH   4   5
ENDBRANCH   3   4
ENDBRANCH   2   3
ENDBRANCH   1   2
BRANCH   1  73
ATOM     73  C   UNL     1       1.968  -0.288   3.100  1.00  0.00     0.188 C 
BRANCH  73  74
ATOM     74  O   UNL     1       2.590  -0.145   4.378  1.00  0.00    -0.376 OA
BRANCH  74  75
ATOM     75  C   UNL     1       3.980  -0.440   4.450  1.00  0.00     0.202 C 
BRANCH  75  76
ATOM     76  C   UNL     1       4.437  -1.893   4.249  1.00  0.00     0.261 C 
BRANCH  76  77
ATOM     77  O   UNL     1       3.809  -2.633   3.190  1.00  0.00    -0.459 OA
BRANCH  77  78
ATOM     78  C   UNL     1       2.886  -3.534   3.628  1.00  0.00     0.357 C 
ATOM     79  O   UNL     1       2.506  -3.657   4.786  1.00  0.00    -0.244 OA
BRANCH  78  80
ATOM     80  C   UNL     1       2.512  -4.513   2.578  1.00  0.00     0.150 A 
ATOM     81  C   UNL     1       2.799  -5.836   2.880  1.00  0.00     0.036 A 
ATOM     82  N   UNL     1       1.761  -4.101   1.515  1.00  0.00    -0.224 NA
ATOM     83  C   UNL     1       2.280  -6.808   2.052  1.00  0.00     0.006 A 
ATOM     84  C   UNL     1       1.204  -5.074   0.746  1.00  0.00     0.129 A 
ATOM     85  C   UNL     1       1.486  -6.425   0.978  1.00  0.00     0.047 A 
BRANCH  84  86
ATOM     86  N   UNL     1       0.252  -4.713  -0.198  1.00  0.00    -0.357 N 
ATOM     87  C   UNL     1       0.659  -3.822  -1.274  1.00  0.00     0.118 C 
ATOM     88  C   UNL     1      -0.855  -5.622  -0.483  1.00  0.00     0.118 C 
ATOM     89  C   UNL     1      -0.544  -3.004  -1.756  1.00  0.00     0.022 C 
ATOM     90  C   UNL     1      -2.081  -4.795  -0.862  1.00  0.00     0.022 C 
ATOM     91  C   UNL     1      -1.776  -3.869  -2.035  1.00  0.00     0.004 C 
ENDBRANCH  84  86
ENDBRANCH  78  80
ENDBRANCH  77  78
ENDBRANCH  76  77
ENDBRANCH  75  76
ENDBRANCH  74  75
ENDBRANCH  73  74
ENDBRANCH   1  73
TORSDOF 21
