REMARK SMILES Cc1cccc(CC(=O)N2CCC3(CCC(=O)N([C@H](C)C(=O)OCCOCCOCCOC(=O)c4ccc(-c5c6nc(c(-c7cccc(S(=O)(=O)[O-])c7F)c7ccc([nH]7)c(-c7cccc(S(=O)(=O)[O-])c7F)c7nc(c(-c8cccc(S(=O)(=O)[O-])c8F)c8ccc5[nH]8)C=C7)C=C6)cc4)C3)CC2)c1
REMARK SMILES IDX 27 1 26 2 25 3 24 4 23 5 21 6 22 7 19 8 20 9 18 10 8 11 9 12
REMARK SMILES IDX 10 13 11 14 100 15 12 16 99 17 13 18 14 19 98 20 15 21 16 22
REMARK SMILES IDX 17 23 7 24 6 25 1 26 2 27 3 28 101 29 4 30 5 31 28 32 29 33
REMARK SMILES IDX 30 34 31 35 32 36 33 37 34 38 35 39 36 40 97 41 37 42 96 43
REMARK SMILES IDX 38 44 39 45 40 46 90 47 41 48 95 49 89 50 91 51 42 52 94 53
REMARK SMILES IDX 88 54 87 55 43 57 75 58 55 59 74 60 56 61 59 62 73 63 92 64
REMARK SMILES IDX 57 65 58 66 72 68 93 69 60 70 44 71 45 72 53 73 46 74 48 75
REMARK SMILES IDX 54 76 47 77 49 78 50 79 51 80 52 81 76 82 77 83 85 84 78 85
REMARK SMILES IDX 80 86 86 87 79 88 81 89 82 90 83 91 84 92 61 93 62 94 70 95
REMARK SMILES IDX 63 96 65 97 71 98 64 99 66 100 67 101 68 102 69 103
REMARK H PARENT 91 56 59 67
REMARK Flexibility Score: inf
ROOT
ATOM      1  C   UNL     1      -4.846   6.847  -6.010  1.00  0.00     0.188 C 
ENDROOT
BRANCH   1   2
ATOM      2  O   UNL     1      -5.016   7.487  -7.308  1.00  0.00    -0.376 OA
BRANCH   2   3
ATOM      3  C   UNL     1      -4.127   7.253  -8.464  1.00  0.00     0.202 C 
BRANCH   3   4
ATOM      4  C   UNL     1      -2.829   8.260  -9.194  1.00  0.00     0.261 C 
BRANCH   4   5
ATOM      5  O   UNL     1      -1.327   8.907  -8.398  1.00  0.00    -0.462 OA
BRANCH   5   6
ATOM      6  C   UNL     1      -0.053   8.824  -7.675  1.00  0.00     0.328 C 
ATOM      7  O   UNL     1       0.329   9.813  -7.028  1.00  0.00    -0.250 OA
BRANCH   6   8
ATOM      8  C   UNL     1       1.126   7.619  -7.509  1.00  0.00     0.192 C 
ATOM      9  C   UNL     1       1.214   6.091  -7.300  1.00  0.00     0.044 C 
BRANCH   8  10
ATOM     10  N   UNL     1       2.394   7.989  -8.195  1.00  0.00    -0.329 N 
ATOM     11  C   UNL     1       8.257   5.210  -6.879  1.00  0.00     0.226 C 
ATOM     12  O   UNL     1       8.425   4.020  -6.585  1.00  0.00    -0.275 OA
ATOM     13  N   UNL     1       7.215   5.598  -7.700  1.00  0.00    -0.342 N 
ATOM     14  C   UNL     1       5.997   4.791  -7.768  1.00  0.00     0.120 C 
ATOM     15  C   UNL     1       7.166   6.800  -8.517  1.00  0.00     0.120 C 
ATOM     16  C   UNL     1       4.774   5.654  -7.391  1.00  0.00     0.030 C 
ATOM     17  C   UNL     1       6.086   7.713  -7.981  1.00  0.00     0.030 C 
ATOM     18  C   UNL     1       4.719   7.019  -8.144  1.00  0.00    -0.008 C 
ATOM     19  C   UNL     1       4.519   6.783  -9.681  1.00  0.00     0.019 C 
ATOM     20  C   UNL     1       3.658   7.978  -7.501  1.00  0.00     0.127 C 
ATOM     21  C   UNL     1       3.078   6.710 -10.104  1.00  0.00     0.101 C 
ATOM     22  C   UNL     1       2.516   7.987  -9.565  1.00  0.00     0.223 C 
ATOM     23  O   UNL     1       2.625   9.034 -10.196  1.00  0.00    -0.275 OA
BRANCH  11  24
ATOM     24  C   UNL     1       9.067   6.269  -6.122  1.00  0.00     0.135 C 
BRANCH  24  25
ATOM     25  C   UNL     1       9.618   7.447  -6.884  1.00  0.00    -0.038 A 
ATOM     26  C   UNL     1       8.759  11.149  -7.256  1.00  0.00     0.044 C 
ATOM     27  C   UNL     1       9.400   9.808  -7.469  1.00  0.00    -0.051 A 
ATOM     28  C   UNL     1      10.211   9.587  -8.588  1.00  0.00     0.003 A 
ATOM     29  C   UNL     1       9.133   8.740  -6.604  1.00  0.00     0.007 A 
ATOM     30  C   UNL     1      10.759   8.325  -8.832  1.00  0.00     0.001 A 
ATOM     31  C   UNL     1      10.478   7.258  -7.976  1.00  0.00     0.004 A 
ENDBRANCH  24  25
ENDBRANCH  11  24
ENDBRANCH   8  10
ENDBRANCH   6   8
ENDBRANCH   5   6
ENDBRANCH   4   5
ENDBRANCH   3   4
ENDBRANCH   2   3
ENDBRANCH   1   2
BRANCH   1  32
ATOM     32  C   UNL     1      -5.347   5.453  -5.618  1.00  0.00     0.188 C 
BRANCH  32  33
ATOM     33  O   UNL     1      -5.169   4.503  -6.651  1.00  0.00    -0.376 OA
BRANCH  33  34
ATOM     34  C   UNL     1      -5.884   3.288  -6.442  1.00  0.00     0.202 C 
BRANCH  34  35
ATOM     35  C   UNL     1      -5.506   2.444  -5.202  1.00  0.00     0.261 C 
BRANCH  35  36
ATOM     36  O   UNL     1      -4.221   1.812  -5.357  1.00  0.00    -0.460 OA
BRANCH  36  37
ATOM     37  C   UNL     1      -3.272   2.202  -4.458  1.00  0.00     0.338 C 
ATOM     38  O   UNL     1      -3.376   2.073  -3.245  1.00  0.00    -0.246 OA
BRANCH  37  39
ATOM     39  C   UNL     1      -2.275   3.043  -5.168  1.00  0.00     0.060 A 
ATOM     40  C   UNL     1      -1.583   4.034  -4.464  1.00  0.00     0.016 A 
ATOM     41  C   UNL     1      -2.415   3.138  -6.542  1.00  0.00     0.016 A 
ATOM     42  C   UNL     1      -1.303   5.253  -5.088  1.00  0.00     0.010 A 
ATOM     43  C   UNL     1      -2.289   4.388  -7.092  1.00  0.00     0.010 A 
ATOM     44  C   UNL     1      -1.770   5.476  -6.381  1.00  0.00    -0.014 A 
BRANCH  44  45
ATOM     45  C   UNL     1      -1.737   6.771  -7.124  1.00  0.00     0.031 A 
ATOM     46  C   UNL     1      -1.109   6.455  -8.788  1.00  0.00     0.074 A 
ATOM     47  C   UNL     1      -2.275   7.960  -6.450  1.00  0.00     0.049 A 
ATOM     48  N   UNL     1      -0.430   7.363  -9.440  1.00  0.00    -0.248 NA
ATOM     49  C   UNL     1      -1.013   5.266  -9.672  1.00  0.00     0.031 C 
ATOM     50  C   UNL     1      -3.015   9.249  -6.970  1.00  0.00     0.029 A 
ATOM     51  N   UNL     1      -2.436   8.306  -5.097  1.00  0.00    -0.354 N 
ATOM     52  C   UNL     1      -0.258   7.185 -10.756  1.00  0.00     0.074 A 
ATOM     53  C   UNL     1      -0.480   5.754 -10.830  1.00  0.00     0.031 C 
ATOM     54  C   UNL     1      -3.531  10.059  -6.069  1.00  0.00     0.029 A 
ATOM     55  C   UNL     1      -2.837   9.655  -4.926  1.00  0.00     0.049 A 
ATOM     56  H   UNL     1      -2.288   7.681  -4.351  1.00  0.00     0.167 HD
ATOM     57  C   UNL     1       0.001   8.290 -11.546  1.00  0.00     0.034 A 
ATOM     58  C   UNL     1      -2.203  10.635  -4.245  1.00  0.00     0.034 A 
ATOM     59  C   UNL     1      -0.332   9.679 -10.942  1.00  0.00     0.049 A 
ATOM     60  C   UNL     1      -1.390  11.602  -5.175  1.00  0.00     0.074 A 
ATOM     61  C   UNL     1      -1.463  10.489 -11.055  1.00  0.00     0.029 A 
ATOM     62  N   UNL     1       0.475  10.416 -10.029  1.00  0.00    -0.354 N 
ATOM     63  N   UNL     1      -1.426  11.653  -6.506  1.00  0.00    -0.248 NA
ATOM     64  C   UNL     1      -0.503  12.635  -4.646  1.00  0.00     0.031 C 
ATOM     65  C   UNL     1      -1.427  11.529 -10.060  1.00  0.00     0.029 A 
ATOM     66  C   UNL     1      -0.238  11.454  -9.353  1.00  0.00     0.049 A 
ATOM     67  H   UNL     1       1.430  10.228  -9.878  1.00  0.00     0.167 HD
ATOM     68  C   UNL     1      -0.336  12.390  -6.978  1.00  0.00     0.074 A 
ATOM     69  C   UNL     1       0.041  13.136  -5.770  1.00  0.00     0.031 C 
ATOM     70  C   UNL     1       0.336  12.255  -8.206  1.00  0.00     0.034 A 
BRANCH  57  71
ATOM     71  C   UNL     1       0.305   8.114 -13.026  1.00  0.00     0.023 A 
ATOM     72  C   UNL     1      -0.069   9.122 -13.938  1.00  0.00     0.012 A 
ATOM     73  C   UNL     1       0.990   6.997 -13.567  1.00  0.00     0.148 A 
ATOM     74  C   UNL     1       0.153   8.999 -15.317  1.00  0.00     0.002 A 
ATOM     75  C   UNL     1       1.179   6.856 -14.945  1.00  0.00     0.091 A 
ATOM     76  F   UNL     1       1.483   6.071 -12.737  1.00  0.00    -0.205 F 
ATOM     77  C   UNL     1       0.758   7.857 -15.825  1.00  0.00     0.022 A 
BRANCH  75  78
ATOM     78  S   UNL     1       1.893   5.373 -15.682  1.00  0.00     0.127 S 
ATOM     79  O   UNL     1       0.803   4.915 -16.546  1.00  0.00    -0.237 OA
ATOM     80  O   UNL     1       3.056   5.897 -16.395  1.00  0.00    -0.237 OA
ATOM     81  O   UNL     1       2.196   4.476 -14.574  1.00  0.00    -0.744 OA
ENDBRANCH  75  78
ENDBRANCH  57  71
BRANCH  58  82
ATOM     82  C   UNL     1      -2.208  10.164  -2.829  1.00  0.00     0.023 A 
ATOM     83  C   UNL     1      -3.548   9.925  -2.356  1.00  0.00     0.012 A 
ATOM     84  C   UNL     1      -1.201   9.282  -2.419  1.00  0.00     0.148 A 
ATOM     85  C   UNL     1      -3.904   8.693  -1.796  1.00  0.00     0.002 A 
ATOM     86  C   UNL     1      -1.564   8.076  -1.806  1.00  0.00     0.091 A 
ATOM     87  F   UNL     1       0.054   9.528  -2.817  1.00  0.00    -0.205 F 
ATOM     88  C   UNL     1      -2.913   7.753  -1.559  1.00  0.00     0.022 A 
BRANCH  86  89
ATOM     89  S   UNL     1      -0.338   6.794  -1.524  1.00  0.00     0.127 S 
ATOM     90  O   UNL     1       0.139   7.135  -0.190  1.00  0.00    -0.237 OA
ATOM     91  O   UNL     1      -1.133   5.570  -1.604  1.00  0.00    -0.237 OA
ATOM     92  O   UNL     1       0.605   6.949  -2.624  1.00  0.00    -0.744 OA
ENDBRANCH  86  89
ENDBRANCH  58  82
BRANCH  70  93
ATOM     93  C   UNL     1       1.731  12.894  -8.376  1.00  0.00     0.023 A 
ATOM     94  C   UNL     1       2.607  13.058  -7.275  1.00  0.00     0.012 A 
ATOM     95  C   UNL     1       2.239  13.293  -9.636  1.00  0.00     0.148 A 
ATOM     96  C   UNL     1       3.807  13.771  -7.360  1.00  0.00     0.002 A 
ATOM     97  C   UNL     1       3.498  13.899  -9.739  1.00  0.00     0.091 A 
ATOM     98  F   UNL     1       1.487  13.126 -10.732  1.00  0.00    -0.205 F 
ATOM     99  C   UNL     1       4.251  14.197  -8.597  1.00  0.00     0.022 A 
BRANCH  97 100
ATOM    100  S   UNL     1       4.281  14.260 -11.319  1.00  0.00     0.127 S 
ATOM    101  O   UNL     1       4.069  15.702 -11.437  1.00  0.00    -0.237 OA
ATOM    102  O   UNL     1       5.674  13.876 -11.071  1.00  0.00    -0.237 OA
ATOM    103  O   UNL     1       3.595  13.437 -12.304  1.00  0.00    -0.744 OA
ENDBRANCH  97 100
ENDBRANCH  70  93
ENDBRANCH  44  45
ENDBRANCH  37  39
ENDBRANCH  36  37
ENDBRANCH  35  36
ENDBRANCH  34  35
ENDBRANCH  33  34
ENDBRANCH  32  33
ENDBRANCH   1  32
TORSDOF 23
