REMARK SMILES O=C(OCCOCCOCCOC(=O)[C@H]1Cc2c([nH]c3ccccc23)[C@H](c2c[nH]c3ccccc23)[NH2+]1)c1ccc(-c2c3nc(c(-c4cccc(S(=O)(=O)[O-])c4F)c4ccc([nH]4)c(-c4cccc(S(=O)(=O)[O-])c4F)c4nc(c(-c5cccc(S(=O)(=O)[O-])c5F)c5ccc2[nH]5)C=C4)C=C3)cc1
REMARK SMILES IDX 7 1 6 2 5 3 4 4 3 5 2 6 1 7 37 8 38 9 99 10 39 11 98 12
REMARK SMILES IDX 40 13 41 14 42 15 92 16 43 17 97 18 91 19 93 20 44 21 96 22
REMARK SMILES IDX 90 23 89 24 45 26 77 27 57 28 76 29 58 30 61 31 75 32 94 33
REMARK SMILES IDX 59 34 60 35 74 37 95 38 62 39 46 40 47 41 55 42 48 43 50 44
REMARK SMILES IDX 56 45 49 46 51 47 52 48 53 49 54 50 78 51 79 52 87 53 80 54
REMARK SMILES IDX 82 55 88 56 81 57 83 58 84 59 85 60 86 61 63 62 64 63 72 64
REMARK SMILES IDX 65 65 67 66 73 67 66 68 68 69 69 70 70 71 71 72 8 73 9 74
REMARK SMILES IDX 10 75 11 76 12 77 13 78 14 79 15 80 16 81 36 82 17 83 26 84
REMARK SMILES IDX 18 87 25 88 19 89 20 90 24 91 21 93 23 94 22 95 27 96 28 97
REMARK SMILES IDX 35 98 29 99 30 100 34 101 31 103 33 104 32 105
REMARK H PARENT 93 25 61 36 36 85 36 86 19 92 29 102
REMARK Flexibility Score: inf
ROOT
ATOM      1  C   UNL     1       2.447   1.849   0.170  1.00  0.00     0.188 C 
ENDROOT
BRANCH   1   2
ATOM      2  O   UNL     1       3.794   1.505   0.514  1.00  0.00    -0.376 OA
BRANCH   2   3
ATOM      3  C   UNL     1       4.653   1.409  -0.628  1.00  0.00     0.202 C 
BRANCH   3   4
ATOM      4  C   UNL     1       4.372   0.235  -1.593  1.00  0.00     0.261 C 
BRANCH   4   5
ATOM      5  O   UNL     1       3.040  -0.309  -1.514  1.00  0.00    -0.460 OA
BRANCH   5   6
ATOM      6  C   UNL     1       2.539  -1.286  -0.710  1.00  0.00     0.338 C 
ATOM      7  O   UNL     1       1.372  -1.635  -0.885  1.00  0.00    -0.246 OA
BRANCH   6   8
ATOM      8  C   UNL     1       3.332  -1.971   0.360  1.00  0.00     0.060 A 
ATOM      9  C   UNL     1       4.571  -1.538   0.815  1.00  0.00     0.016 A 
ATOM     10  C   UNL     1       2.801  -3.128   0.955  1.00  0.00     0.016 A 
ATOM     11  C   UNL     1       5.333  -2.276   1.704  1.00  0.00     0.010 A 
ATOM     12  C   UNL     1       3.524  -3.829   1.936  1.00  0.00     0.010 A 
ATOM     13  C   UNL     1       4.821  -3.421   2.293  1.00  0.00    -0.014 A 
BRANCH  13  14
ATOM     14  C   UNL     1       5.715  -4.232   3.151  1.00  0.00     0.031 A 
ATOM     15  C   UNL     1       6.191  -5.547   2.628  1.00  0.00     0.074 A 
ATOM     16  C   UNL     1       6.322  -3.746   4.254  1.00  0.00     0.049 A 
ATOM     17  N   UNL     1       7.059  -6.353   3.171  1.00  0.00    -0.248 NA
ATOM     18  C   UNL     1       5.758  -5.938   1.276  1.00  0.00     0.031 C 
ATOM     19  C   UNL     1       6.356  -2.348   4.653  1.00  0.00     0.029 A 
ATOM     20  N   UNL     1       7.044  -4.367   5.248  1.00  0.00    -0.354 N 
ATOM     21  C   UNL     1       7.342  -7.295   2.203  1.00  0.00     0.074 A 
ATOM     22  C   UNL     1       6.492  -7.021   1.066  1.00  0.00     0.031 C 
ATOM     23  C   UNL     1       6.936  -2.238   5.857  1.00  0.00     0.029 A 
ATOM     24  C   UNL     1       7.250  -3.552   6.344  1.00  0.00     0.049 A 
ATOM     25  H   UNL     1       7.378  -5.291   5.185  1.00  0.00     0.167 HD
ATOM     26  C   UNL     1       8.285  -8.257   2.247  1.00  0.00     0.034 A 
ATOM     27  C   UNL     1       7.617  -3.834   7.606  1.00  0.00     0.034 A 
ATOM     28  C   UNL     1       9.104  -8.526   3.396  1.00  0.00     0.049 A 
ATOM     29  C   UNL     1       8.319  -5.126   7.781  1.00  0.00     0.074 A 
ATOM     30  C   UNL     1      10.034  -9.532   3.569  1.00  0.00     0.029 A 
ATOM     31  N   UNL     1       9.067  -7.805   4.583  1.00  0.00    -0.354 N 
ATOM     32  N   UNL     1       8.550  -6.037   6.874  1.00  0.00    -0.248 NA
ATOM     33  C   UNL     1       8.981  -5.335   9.069  1.00  0.00     0.031 C 
ATOM     34  C   UNL     1      10.512  -9.462   4.882  1.00  0.00     0.029 A 
ATOM     35  C   UNL     1       9.916  -8.383   5.513  1.00  0.00     0.049 A 
ATOM     36  H   UNL     1       8.518  -7.003   4.740  1.00  0.00     0.167 HD
ATOM     37  C   UNL     1       9.492  -6.868   7.433  1.00  0.00     0.074 A 
ATOM     38  C   UNL     1       9.752  -6.370   8.773  1.00  0.00     0.031 C 
ATOM     39  C   UNL     1      10.126  -7.913   6.856  1.00  0.00     0.034 A 
BRANCH  26  40
ATOM     40  C   UNL     1       8.425  -9.108   1.024  1.00  0.00     0.023 A 
ATOM     41  C   UNL     1       9.066  -8.611  -0.128  1.00  0.00     0.012 A 
ATOM     42  C   UNL     1       7.894 -10.408   1.024  1.00  0.00     0.148 A 
ATOM     43  C   UNL     1       9.161  -9.398  -1.274  1.00  0.00     0.002 A 
ATOM     44  C   UNL     1       8.027 -11.200  -0.105  1.00  0.00     0.091 A 
ATOM     45  F   UNL     1       7.252 -10.832   2.122  1.00  0.00    -0.205 F 
ATOM     46  C   UNL     1       8.650 -10.695  -1.259  1.00  0.00     0.022 A 
BRANCH  44  47
ATOM     47  S   UNL     1       7.447 -12.895  -0.159  1.00  0.00     0.127 S 
ATOM     48  O   UNL     1       6.435 -12.826  -1.212  1.00  0.00    -0.237 OA
ATOM     49  O   UNL     1       8.665 -13.617  -0.525  1.00  0.00    -0.237 OA
ATOM     50  O   UNL     1       6.933 -13.190   1.171  1.00  0.00    -0.744 OA
ENDBRANCH  44  47
ENDBRANCH  26  40
BRANCH  27  51
ATOM     51  C   UNL     1       7.453  -2.908   8.758  1.00  0.00     0.023 A 
ATOM     52  C   UNL     1       8.477  -2.035   9.162  1.00  0.00     0.012 A 
ATOM     53  C   UNL     1       6.268  -2.956   9.517  1.00  0.00     0.148 A 
ATOM     54  C   UNL     1       8.324  -1.236  10.303  1.00  0.00     0.002 A 
ATOM     55  C   UNL     1       6.091  -2.106  10.608  1.00  0.00     0.091 A 
ATOM     56  F   UNL     1       5.314  -3.829   9.156  1.00  0.00    -0.205 F 
ATOM     57  C   UNL     1       7.128  -1.260  11.020  1.00  0.00     0.022 A 
BRANCH  55  58
ATOM     58  S   UNL     1       4.457  -1.840  11.323  1.00  0.00     0.127 S 
ATOM     59  O   UNL     1       4.526  -2.601  12.564  1.00  0.00    -0.237 OA
ATOM     60  O   UNL     1       4.425  -0.387  11.480  1.00  0.00    -0.237 OA
ATOM     61  O   UNL     1       3.544  -2.343  10.301  1.00  0.00    -0.744 OA
ENDBRANCH  55  58
ENDBRANCH  27  51
BRANCH  39  62
ATOM     62  C   UNL     1      11.152  -8.582   7.712  1.00  0.00     0.023 A 
ATOM     63  C   UNL     1      10.743  -9.285   8.863  1.00  0.00     0.012 A 
ATOM     64  C   UNL     1      12.518  -8.459   7.410  1.00  0.00     0.148 A 
ATOM     65  C   UNL     1      11.689  -9.794   9.745  1.00  0.00     0.002 A 
ATOM     66  C   UNL     1      13.452  -9.032   8.256  1.00  0.00     0.091 A 
ATOM     67  F   UNL     1      12.876  -7.753   6.327  1.00  0.00    -0.205 F 
ATOM     68  C   UNL     1      13.042  -9.676   9.436  1.00  0.00     0.022 A 
BRANCH  66  69
ATOM     69  S   UNL     1      15.206  -9.025   7.889  1.00  0.00     0.127 S 
ATOM     70  O   UNL     1      15.724  -8.135   8.927  1.00  0.00    -0.237 OA
ATOM     71  O   UNL     1      15.556 -10.435   8.061  1.00  0.00    -0.237 OA
ATOM     72  O   UNL     1      15.333  -8.531   6.525  1.00  0.00    -0.744 OA
ENDBRANCH  66  69
ENDBRANCH  39  62
ENDBRANCH  13  14
ENDBRANCH   6   8
ENDBRANCH   5   6
ENDBRANCH   4   5
ENDBRANCH   3   4
ENDBRANCH   2   3
ENDBRANCH   1   2
BRANCH   1  73
ATOM     73  C   UNL     1       1.820   2.967   1.001  1.00  0.00     0.188 C 
BRANCH  73  74
ATOM     74  O   UNL     1       2.487   4.225   1.031  1.00  0.00    -0.376 OA
BRANCH  74  75
ATOM     75  C   UNL     1       3.835   4.247   1.489  1.00  0.00     0.202 C 
BRANCH  75  76
ATOM     76  C   UNL     1       4.122   3.848   2.942  1.00  0.00     0.261 C 
BRANCH  76  77
ATOM     77  O   UNL     1       3.530   2.607   3.341  1.00  0.00    -0.459 OA
BRANCH  77  78
ATOM     78  C   UNL     1       2.454   2.696   4.180  1.00  0.00     0.365 C 
ATOM     79  O   UNL     1       1.968   3.759   4.568  1.00  0.00    -0.245 OA
BRANCH  78  80
ATOM     80  C   UNL     1       1.953   1.328   4.627  1.00  0.00     0.298 C 
ATOM     81  C   UNL     1       0.418   1.288   4.754  1.00  0.00     0.115 C 
ATOM     82  N   UNL     1       2.392   0.195   3.732  1.00  0.00    -0.323 N 
ATOM     83  C   UNL     1       0.031  -0.077   5.225  1.00  0.00    -0.006 A 
ATOM     84  C   UNL     1       2.291  -1.087   4.472  1.00  0.00     0.264 C 
ATOM     85  H   UNL     1       3.358   0.345   3.442  1.00  0.00     0.347 HD
ATOM     86  H   UNL     1       1.791   0.160   2.908  1.00  0.00     0.347 HD
ATOM     87  C   UNL     1       0.884  -1.152   5.040  1.00  0.00     0.083 A 
ATOM     88  C   UNL     1      -1.050  -0.510   6.032  1.00  0.00     0.003 A 
ATOM     89  N   UNL     1       0.315  -2.243   5.645  1.00  0.00    -0.353 N 
ATOM     90  C   UNL     1      -0.833  -1.861   6.312  1.00  0.00     0.046 A 
ATOM     91  C   UNL     1      -2.154   0.136   6.619  1.00  0.00     0.010 A 
ATOM     92  H   UNL     1       0.670  -3.160   5.609  1.00  0.00     0.166 HD
ATOM     93  C   UNL     1      -1.658  -2.593   7.174  1.00  0.00     0.026 A 
ATOM     94  C   UNL     1      -2.992  -0.583   7.477  1.00  0.00     0.001 A 
ATOM     95  C   UNL     1      -2.742  -1.926   7.754  1.00  0.00     0.002 A 
BRANCH  84  96
ATOM     96  C   UNL     1       3.308  -1.154   5.596  1.00  0.00     0.041 A 
ATOM     97  C   UNL     1       3.310  -2.128   6.582  1.00  0.00     0.093 A 
ATOM     98  C   UNL     1       4.398  -0.264   5.948  1.00  0.00     0.009 A 
ATOM     99  N   UNL     1       3.984  -1.625   7.660  1.00  0.00    -0.361 N 
ATOM    100  C   UNL     1       4.702  -0.515   7.285  1.00  0.00     0.046 A 
ATOM    101  C   UNL     1       5.146   0.754   5.302  1.00  0.00     0.011 A 
ATOM    102  H   UNL     1       3.959  -2.002   8.569  1.00  0.00     0.166 HD
ATOM    103  C   UNL     1       5.619   0.258   8.006  1.00  0.00     0.026 A 
ATOM    104  C   UNL     1       6.122   1.482   5.990  1.00  0.00     0.001 A 
ATOM    105  C   UNL     1       6.345   1.241   7.335  1.00  0.00     0.002 A 
ENDBRANCH  84  96
ENDBRANCH  78  80
ENDBRANCH  77  78
ENDBRANCH  76  77
ENDBRANCH  75  76
ENDBRANCH  74  75
ENDBRANCH  73  74
ENDBRANCH   1  73
TORSDOF 21
