REMARK SMILES Cc1cscc1C(=O)N[C@H](C(=O)OCCOCCOCCOC(=O)c1ccc(-c2c3nc(c(-c4cccc(S(=O)(=O)[O-])c4F)c4ccc([nH]4)c(-c4cccc(S(=O)(=O)[O-])c4F)c4nc(c(-c5cccc(S(=O)(=O)[O-])c5F)c5ccc2[nH]5)C=C4)C=C3)cc1)c1ccccc1
REMARK SMILES IDX 18 1 17 2 16 3 15 4 14 5 13 6 11 7 12 8 10 9 9 10 7 11 8 12
REMARK SMILES IDX 6 14 1 15 2 16 3 17 4 18 5 19 88 20 89 21 93 22 90 23 92 24
REMARK SMILES IDX 91 25 19 26 20 27 21 28 22 29 23 30 24 31 25 32 26 33 87 34
REMARK SMILES IDX 27 35 86 36 28 37 29 38 30 39 80 40 31 41 85 42 79 43 81 44
REMARK SMILES IDX 32 45 84 46 78 47 77 48 33 50 65 51 45 52 64 53 46 54 49 55
REMARK SMILES IDX 63 56 82 57 47 58 48 59 62 61 83 62 50 63 34 64 35 65 43 66
REMARK SMILES IDX 36 67 38 68 44 69 37 70 39 71 40 72 41 73 42 74 66 75 67 76
REMARK SMILES IDX 75 77 68 78 70 79 76 80 69 81 71 82 72 83 73 84 74 85 51 86
REMARK SMILES IDX 52 87 60 88 53 89 55 90 61 91 54 92 56 93 57 94 58 95 59 96
REMARK H PARENT 9 13 81 49 49 60
REMARK Flexibility Score: inf
ROOT
ATOM      1  C   UNL     1       1.431   1.611   2.183  1.00  0.00     0.188 C 
ENDROOT
BRANCH   1   2
ATOM      2  C   UNL     1       0.942   3.049   1.964  1.00  0.00     0.188 C 
BRANCH   2   3
ATOM      3  O   UNL     1      -0.286   3.139   1.257  1.00  0.00    -0.376 OA
BRANCH   3   4
ATOM      4  C   UNL     1      -0.140   3.489  -0.112  1.00  0.00     0.202 C 
BRANCH   4   5
ATOM      5  C   UNL     1       0.373   2.352  -1.006  1.00  0.00     0.261 C 
BRANCH   5   6
ATOM      6  O   UNL     1       1.617   1.747  -0.563  1.00  0.00    -0.461 OA
BRANCH   6   7
ATOM      7  C   UNL     1       2.737   1.999  -1.279  1.00  0.00     0.333 C 
ATOM      8  O   UNL     1       2.702   2.736  -2.264  1.00  0.00    -0.249 OA
BRANCH   7   9
ATOM      9  C   UNL     1       3.982   1.123  -0.923  1.00  0.00     0.223 C 
BRANCH   9  10
ATOM     10  N   UNL     1       5.076   1.534  -1.794  1.00  0.00    -0.335 N 
ATOM     11  C   UNL     1       5.707   2.728  -2.012  1.00  0.00     0.253 C 
ATOM     12  O   UNL     1       6.711   2.630  -2.727  1.00  0.00    -0.269 OA
ATOM     13  H   UNL     1       5.435   0.798  -2.341  1.00  0.00     0.165 HD
BRANCH  11  14
ATOM     14  C   UNL     1       5.234   4.065  -1.576  1.00  0.00     0.053 A 
ATOM     15  C   UNL     1       4.385   4.097   0.990  1.00  0.00     0.046 C 
ATOM     16  C   UNL     1       4.676   4.669  -0.356  1.00  0.00    -0.028 A 
ATOM     17  C   UNL     1       4.467   6.033  -0.524  1.00  0.00     0.069 A 
ATOM     18  S   UNL     1       4.912   6.616  -2.049  1.00  0.00    -0.151 S 
ATOM     19  C   UNL     1       5.412   5.070  -2.526  1.00  0.00     0.079 A 
ENDBRANCH  11  14
ENDBRANCH   9  10
BRANCH   9  20
ATOM     20  C   UNL     1       4.560   0.782   0.470  1.00  0.00    -0.014 A 
ATOM     21  C   UNL     1       4.065  -0.274   1.256  1.00  0.00     0.006 A 
ATOM     22  C   UNL     1       5.744   1.391   0.952  1.00  0.00     0.006 A 
ATOM     23  C   UNL     1       4.672  -0.628   2.480  1.00  0.00     0.000 A 
ATOM     24  C   UNL     1       6.333   1.067   2.178  1.00  0.00     0.000 A 
ATOM     25  C   UNL     1       5.794   0.052   2.947  1.00  0.00     0.000 A 
ENDBRANCH   9  20
ENDBRANCH   7   9
ENDBRANCH   6   7
ENDBRANCH   5   6
ENDBRANCH   4   5
ENDBRANCH   3   4
ENDBRANCH   2   3
ENDBRANCH   1   2
BRANCH   1  26
ATOM     26  O   UNL     1       0.538   0.512   2.117  1.00  0.00    -0.376 OA
BRANCH  26  27
ATOM     27  C   UNL     1      -0.747   0.677   2.691  1.00  0.00     0.202 C 
BRANCH  27  28
ATOM     28  C   UNL     1      -0.849   1.050   4.180  1.00  0.00     0.261 C 
BRANCH  28  29
ATOM     29  O   UNL     1       0.121   1.995   4.673  1.00  0.00    -0.460 OA
BRANCH  29  30
ATOM     30  C   UNL     1       1.173   1.459   5.340  1.00  0.00     0.338 C 
ATOM     31  O   UNL     1       1.353   0.267   5.580  1.00  0.00    -0.246 OA
BRANCH  30  32
ATOM     32  C   UNL     1       2.214   2.483   5.591  1.00  0.00     0.060 A 
ATOM     33  C   UNL     1       3.496   2.280   5.056  1.00  0.00     0.016 A 
ATOM     34  C   UNL     1       1.974   3.581   6.415  1.00  0.00     0.016 A 
ATOM     35  C   UNL     1       4.546   3.143   5.364  1.00  0.00     0.010 A 
ATOM     36  C   UNL     1       3.038   4.431   6.753  1.00  0.00     0.010 A 
ATOM     37  C   UNL     1       4.338   4.195   6.261  1.00  0.00    -0.014 A 
BRANCH  37  38
ATOM     38  C   UNL     1       5.508   4.910   6.837  1.00  0.00     0.031 A 
ATOM     39  C   UNL     1       5.969   4.540   8.224  1.00  0.00     0.074 A 
ATOM     40  C   UNL     1       6.175   5.853   6.147  1.00  0.00     0.049 A 
ATOM     41  N   UNL     1       6.906   5.079   8.960  1.00  0.00    -0.248 NA
ATOM     42  C   UNL     1       5.281   3.406   8.863  1.00  0.00     0.031 C 
ATOM     43  C   UNL     1       5.879   6.271   4.779  1.00  0.00     0.029 A 
ATOM     44  N   UNL     1       7.233   6.647   6.521  1.00  0.00    -0.354 N 
ATOM     45  C   UNL     1       6.890   4.383  10.163  1.00  0.00     0.074 A 
ATOM     46  C   UNL     1       5.853   3.380  10.057  1.00  0.00     0.031 C 
ATOM     47  C   UNL     1       6.713   7.271   4.440  1.00  0.00     0.029 A 
ATOM     48  C   UNL     1       7.574   7.589   5.579  1.00  0.00     0.049 A 
ATOM     49  H   UNL     1       7.702   6.550   7.382  1.00  0.00     0.167 HD
ATOM     50  C   UNL     1       7.668   4.557  11.258  1.00  0.00     0.034 A 
ATOM     51  C   UNL     1       8.449   8.614   5.643  1.00  0.00     0.034 A 
ATOM     52  C   UNL     1       8.716   5.537  11.363  1.00  0.00     0.049 A 
ATOM     53  C   UNL     1       9.264   8.825   6.895  1.00  0.00     0.074 A 
ATOM     54  C   UNL     1       9.576   5.763  12.423  1.00  0.00     0.029 A 
ATOM     55  N   UNL     1       9.037   6.462  10.383  1.00  0.00    -0.354 N 
ATOM     56  N   UNL     1       9.291   8.113   7.995  1.00  0.00    -0.248 NA
ATOM     57  C   UNL     1      10.187   9.971   6.904  1.00  0.00     0.031 C 
ATOM     58  C   UNL     1      10.393   6.851  12.099  1.00  0.00     0.029 A 
ATOM     59  C   UNL     1      10.071   7.273  10.820  1.00  0.00     0.049 A 
ATOM     60  H   UNL     1       8.596   6.532   9.506  1.00  0.00     0.167 HD
ATOM     61  C   UNL     1      10.260   8.698   8.807  1.00  0.00     0.074 A 
ATOM     62  C   UNL     1      10.809   9.813   8.065  1.00  0.00     0.031 C 
ATOM     63  C   UNL     1      10.652   8.348  10.057  1.00  0.00     0.034 A 
BRANCH  50  64
ATOM     64  C   UNL     1       7.412   3.665  12.444  1.00  0.00     0.023 A 
ATOM     65  C   UNL     1       7.784   2.306  12.400  1.00  0.00     0.012 A 
ATOM     66  C   UNL     1       6.849   4.191  13.624  1.00  0.00     0.148 A 
ATOM     67  C   UNL     1       7.566   1.476  13.499  1.00  0.00     0.002 A 
ATOM     68  C   UNL     1       6.680   3.369  14.731  1.00  0.00     0.091 A 
ATOM     69  F   UNL     1       6.484   5.480  13.638  1.00  0.00    -0.205 F 
ATOM     70  C   UNL     1       7.025   2.009  14.667  1.00  0.00     0.022 A 
BRANCH  68  71
ATOM     71  S   UNL     1       6.066   3.980  16.304  1.00  0.00     0.127 S 
ATOM     72  O   UNL     1       4.748   3.351  16.371  1.00  0.00    -0.237 OA
ATOM     73  O   UNL     1       7.048   3.442  17.246  1.00  0.00    -0.237 OA
ATOM     74  O   UNL     1       6.059   5.432  16.197  1.00  0.00    -0.744 OA
ENDBRANCH  68  71
ENDBRANCH  50  64
BRANCH  51  75
ATOM     75  C   UNL     1       8.607   9.536   4.481  1.00  0.00     0.023 A 
ATOM     76  C   UNL     1       9.820   9.560   3.766  1.00  0.00     0.012 A 
ATOM     77  C   UNL     1       7.564  10.400   4.092  1.00  0.00     0.148 A 
ATOM     78  C   UNL     1      10.003  10.449   2.706  1.00  0.00     0.002 A 
ATOM     79  C   UNL     1       7.733  11.242   2.999  1.00  0.00     0.091 A 
ATOM     80  F   UNL     1       6.426  10.379   4.799  1.00  0.00    -0.205 F 
ATOM     81  C   UNL     1       8.958  11.282   2.317  1.00  0.00     0.022 A 
BRANCH  79  82
ATOM     82  S   UNL     1       6.401  12.259   2.355  1.00  0.00     0.127 S 
ATOM     83  O   UNL     1       6.871  13.605   2.673  1.00  0.00    -0.237 OA
ATOM     84  O   UNL     1       6.424  11.917   0.932  1.00  0.00    -0.237 OA
ATOM     85  O   UNL     1       5.200  11.827   3.057  1.00  0.00    -0.744 OA
ENDBRANCH  79  82
ENDBRANCH  51  75
BRANCH  63  86
ATOM     86  C   UNL     1      11.767   9.138  10.698  1.00  0.00     0.023 A 
ATOM     87  C   UNL     1      11.540  10.459  11.134  1.00  0.00     0.012 A 
ATOM     88  C   UNL     1      13.021   8.540  10.940  1.00  0.00     0.148 A 
ATOM     89  C   UNL     1      12.552  11.182  11.766  1.00  0.00     0.002 A 
ATOM     90  C   UNL     1      14.007   9.248  11.617  1.00  0.00     0.091 A 
ATOM     91  F   UNL     1      13.225   7.288  10.505  1.00  0.00    -0.205 F 
ATOM     92  C   UNL     1      13.780  10.573  12.018  1.00  0.00     0.022 A 
BRANCH  90  93
ATOM     93  S   UNL     1      15.582   8.513  12.073  1.00  0.00     0.127 S 
ATOM     94  O   UNL     1      16.506   9.209  11.179  1.00  0.00    -0.237 OA
ATOM     95  O   UNL     1      15.701   8.886  13.483  1.00  0.00    -0.237 OA
ATOM     96  O   UNL     1      15.443   7.082  11.836  1.00  0.00    -0.744 OA
ENDBRANCH  90  93
ENDBRANCH  63  86
ENDBRANCH  37  38
ENDBRANCH  30  32
ENDBRANCH  29  30
ENDBRANCH  28  29
ENDBRANCH  27  28
ENDBRANCH  26  27
ENDBRANCH   1  26
TORSDOF 23
