REMARK SMILES Cc1nc2ccc(OCC(=O)OCCOCCOCCOC(=O)c3ccc(-c4c5nc(c(-c6cccc(S(=O)(=O)[O-])c6F)c6ccc([nH]6)c(-c6cccc(S(=O)(=O)[O-])c6F)c6nc(c(-c7cccc(S(=O)(=O)[O-])c7F)c7ccc4[nH]7)C=C6)C=C5)cc3)cc2c(=O)n1-c1ccc2c(c1)OCO2
REMARK SMILES IDX 16 1 15 2 14 3 13 4 12 5 10 6 11 7 9 8 8 9 7 10 1 11 2 12
REMARK SMILES IDX 3 13 91 14 4 15 89 16 5 17 88 18 90 19 6 20 87 21 92 22
REMARK SMILES IDX 93 23 97 24 94 25 96 26 95 27 98 28 100 29 99 30 17 31 18 32
REMARK SMILES IDX 19 33 20 34 21 35 22 36 23 37 24 38 25 39 86 40 26 41 85 42
REMARK SMILES IDX 27 43 28 44 29 45 79 46 30 47 84 48 78 49 80 50 31 51 83 52
REMARK SMILES IDX 77 53 76 54 32 56 64 57 44 58 63 59 45 60 48 61 62 62 81 63
REMARK SMILES IDX 46 64 47 65 61 67 82 68 49 69 33 70 34 71 42 72 35 73 37 74
REMARK SMILES IDX 43 75 36 76 38 77 39 78 40 79 41 80 65 81 66 82 74 83 67 84
REMARK SMILES IDX 69 85 75 86 68 87 70 88 71 89 72 90 73 91 50 92 51 93 59 94
REMARK SMILES IDX 52 95 54 96 60 97 53 98 55 99 56 100 57 101 58 102
REMARK H PARENT 80 55 48 66
REMARK Flexibility Score: inf
ROOT
ATOM      1  C   UNL     1      -5.305  -4.285  -0.401  1.00  0.00     0.188 C 
ENDROOT
BRANCH   1   2
ATOM      2  O   UNL     1      -6.606  -4.647   0.061  1.00  0.00    -0.376 OA
BRANCH   2   3
ATOM      3  C   UNL     1      -6.731  -5.639   1.068  1.00  0.00     0.202 C 
BRANCH   3   4
ATOM      4  C   UNL     1      -6.366  -7.064   0.654  1.00  0.00     0.261 C 
BRANCH   4   5
ATOM      5  O   UNL     1      -4.979  -7.246   0.292  1.00  0.00    -0.461 OA
BRANCH   5   6
ATOM      6  C   UNL     1      -4.735  -7.583  -1.006  1.00  0.00     0.344 C 
ATOM      7  O   UNL     1      -5.603  -7.694  -1.865  1.00  0.00    -0.248 OA
BRANCH   6   8
ATOM      8  C   UNL     1      -3.263  -7.919  -1.287  1.00  0.00     0.351 C 
BRANCH   8   9
ATOM      9  O   UNL     1      -2.222  -7.365  -0.494  1.00  0.00    -0.482 OA
BRANCH   9  10
ATOM     10  C   UNL     1      -1.571  -6.234  -0.902  1.00  0.00     0.121 A 
ATOM     11  C   UNL     1       0.873  -0.336  -0.461  1.00  0.00     0.088 C 
ATOM     12  C   UNL     1       0.693  -1.836  -0.546  1.00  0.00     0.113 A 
ATOM     13  N   UNL     1      -0.176  -2.331  -1.365  1.00  0.00    -0.234 NA
ATOM     14  N   UNL     1       1.434  -2.612   0.329  1.00  0.00    -0.264 N 
ATOM     15  C   UNL     1      -0.423  -3.704  -1.299  1.00  0.00     0.078 A 
ATOM     16  C   UNL     1       1.017  -3.906   0.664  1.00  0.00     0.266 A 
ATOM     17  C   UNL     1      -1.197  -4.294  -2.294  1.00  0.00     0.033 A 
ATOM     18  C   UNL     1      -0.051  -4.467  -0.200  1.00  0.00     0.070 A 
ATOM     19  O   UNL     1       1.500  -4.601   1.555  1.00  0.00    -0.268 OA
ATOM     20  C   UNL     1      -1.792  -5.543  -2.092  1.00  0.00     0.049 A 
ATOM     21  C   UNL     1      -0.626  -5.729   0.007  1.00  0.00     0.062 A 
BRANCH  14  22
ATOM     22  C   UNL     1       2.816  -2.309   0.473  1.00  0.00     0.054 A 
ATOM     23  C   UNL     1       3.392  -1.963   1.708  1.00  0.00     0.031 A 
ATOM     24  C   UNL     1       3.610  -2.395  -0.685  1.00  0.00     0.077 A 
ATOM     25  C   UNL     1       4.767  -1.689   1.786  1.00  0.00     0.053 A 
ATOM     26  C   UNL     1       4.958  -2.167  -0.564  1.00  0.00     0.167 A 
ATOM     27  C   UNL     1       5.525  -1.820   0.637  1.00  0.00     0.165 A 
ATOM     28  O   UNL     1       5.868  -2.279  -1.565  1.00  0.00    -0.454 OA
ATOM     29  O   UNL     1       6.873  -1.658   0.535  1.00  0.00    -0.454 OA
ATOM     30  C   UNL     1       7.090  -2.068  -0.836  1.00  0.00     0.468 C 
ENDBRANCH  14  22
ENDBRANCH   9  10
ENDBRANCH   8   9
ENDBRANCH   6   8
ENDBRANCH   5   6
ENDBRANCH   4   5
ENDBRANCH   3   4
ENDBRANCH   2   3
ENDBRANCH   1   2
BRANCH   1  31
ATOM     31  C   UNL     1      -4.137  -4.323   0.600  1.00  0.00     0.188 C 
BRANCH  31  32
ATOM     32  O   UNL     1      -4.587  -3.950   1.895  1.00  0.00    -0.376 OA
BRANCH  32  33
ATOM     33  C   UNL     1      -3.904  -2.894   2.531  1.00  0.00     0.202 C 
BRANCH  33  34
ATOM     34  C   UNL     1      -4.093  -1.516   1.892  1.00  0.00     0.261 C 
BRANCH  34  35
ATOM     35  O   UNL     1      -4.066  -1.548   0.455  1.00  0.00    -0.460 OA
BRANCH  35  36
ATOM     36  C   UNL     1      -3.277  -0.657  -0.172  1.00  0.00     0.338 C 
ATOM     37  O   UNL     1      -2.503   0.135   0.364  1.00  0.00    -0.246 OA
BRANCH  36  38
ATOM     38  C   UNL     1      -3.562  -0.678  -1.622  1.00  0.00     0.060 A 
ATOM     39  C   UNL     1      -3.862   0.518  -2.267  1.00  0.00     0.016 A 
ATOM     40  C   UNL     1      -3.480  -1.857  -2.366  1.00  0.00     0.016 A 
ATOM     41  C   UNL     1      -4.064   0.530  -3.652  1.00  0.00     0.010 A 
ATOM     42  C   UNL     1      -3.608  -1.834  -3.760  1.00  0.00     0.010 A 
ATOM     43  C   UNL     1      -3.901  -0.638  -4.422  1.00  0.00    -0.014 A 
BRANCH  43  44
ATOM     44  C   UNL     1      -3.940  -0.565  -5.910  1.00  0.00     0.031 A 
ATOM     45  C   UNL     1      -4.971  -1.303  -6.724  1.00  0.00     0.074 A 
ATOM     46  C   UNL     1      -2.997   0.161  -6.546  1.00  0.00     0.049 A 
ATOM     47  N   UNL     1      -5.216  -1.211  -8.008  1.00  0.00    -0.248 NA
ATOM     48  C   UNL     1      -5.816  -2.285  -6.028  1.00  0.00     0.031 C 
ATOM     49  C   UNL     1      -1.850   0.803  -5.898  1.00  0.00     0.029 A 
ATOM     50  N   UNL     1      -2.853   0.489  -7.872  1.00  0.00    -0.354 N 
ATOM     51  C   UNL     1      -6.227  -2.126  -8.274  1.00  0.00     0.074 A 
ATOM     52  C   UNL     1      -6.524  -2.796  -7.027  1.00  0.00     0.031 C 
ATOM     53  C   UNL     1      -1.152   1.489  -6.815  1.00  0.00     0.029 A 
ATOM     54  C   UNL     1      -1.795   1.335  -8.117  1.00  0.00     0.049 A 
ATOM     55  H   UNL     1      -3.449   0.152  -8.579  1.00  0.00     0.167 HD
ATOM     56  C   UNL     1      -6.878  -2.357  -9.440  1.00  0.00     0.034 A 
ATOM     57  C   UNL     1      -1.405   1.952  -9.249  1.00  0.00     0.034 A 
ATOM     58  C   UNL     1      -6.619  -1.648 -10.665  1.00  0.00     0.049 A 
ATOM     59  C   UNL     1      -2.216   1.778 -10.501  1.00  0.00     0.074 A 
ATOM     60  C   UNL     1      -7.306  -1.728 -11.865  1.00  0.00     0.029 A 
ATOM     61  N   UNL     1      -5.598  -0.731 -10.849  1.00  0.00    -0.354 N 
ATOM     62  N   UNL     1      -3.290   1.051 -10.686  1.00  0.00    -0.248 NA
ATOM     63  C   UNL     1      -1.791   2.537 -11.686  1.00  0.00     0.031 C 
ATOM     64  C   UNL     1      -6.697  -0.860 -12.776  1.00  0.00     0.029 A 
ATOM     65  C   UNL     1      -5.638  -0.233 -12.140  1.00  0.00     0.049 A 
ATOM     66  H   UNL     1      -4.941  -0.471 -10.163  1.00  0.00     0.167 HD
ATOM     67  C   UNL     1      -3.684   1.281 -11.998  1.00  0.00     0.074 A 
ATOM     68  C   UNL     1      -2.742   2.228 -12.559  1.00  0.00     0.031 C 
ATOM     69  C   UNL     1      -4.726   0.743 -12.676  1.00  0.00     0.034 A 
BRANCH  56  70
ATOM     70  C   UNL     1      -8.016  -3.344  -9.437  1.00  0.00     0.023 A 
ATOM     71  C   UNL     1      -9.247  -2.956  -8.871  1.00  0.00     0.012 A 
ATOM     72  C   UNL     1      -7.915  -4.587 -10.091  1.00  0.00     0.148 A 
ATOM     73  C   UNL     1     -10.358  -3.795  -8.941  1.00  0.00     0.002 A 
ATOM     74  C   UNL     1      -9.036  -5.406 -10.185  1.00  0.00     0.091 A 
ATOM     75  F   UNL     1      -6.734  -4.937 -10.620  1.00  0.00    -0.205 F 
ATOM     76  C   UNL     1     -10.255  -5.013  -9.606  1.00  0.00     0.022 A 
BRANCH  74  77
ATOM     77  S   UNL     1      -9.036  -6.969 -11.072  1.00  0.00     0.127 S 
ATOM     78  O   UNL     1      -9.297  -7.921  -9.993  1.00  0.00    -0.237 OA
ATOM     79  O   UNL     1     -10.146  -6.789 -12.008  1.00  0.00    -0.237 OA
ATOM     80  O   UNL     1      -7.723  -7.083 -11.691  1.00  0.00    -0.744 OA
ENDBRANCH  74  77
ENDBRANCH  56  70
BRANCH  57  81
ATOM     81  C   UNL     1      -0.259   2.899  -9.196  1.00  0.00     0.023 A 
ATOM     82  C   UNL     1      -0.517   4.283  -9.158  1.00  0.00     0.012 A 
ATOM     83  C   UNL     1       1.067   2.439  -9.089  1.00  0.00     0.148 A 
ATOM     84  C   UNL     1       0.528   5.196  -9.019  1.00  0.00     0.002 A 
ATOM     85  C   UNL     1       2.100   3.352  -8.913  1.00  0.00     0.091 A 
ATOM     86  F   UNL     1       1.283   1.117  -9.129  1.00  0.00    -0.205 F 
ATOM     87  C   UNL     1       1.834   4.731  -8.886  1.00  0.00     0.022 A 
BRANCH  85  88
ATOM     88  S   UNL     1       3.801   2.850  -8.626  1.00  0.00     0.127 S 
ATOM     89  O   UNL     1       4.472   3.377  -9.813  1.00  0.00    -0.237 OA
ATOM     90  O   UNL     1       4.113   3.551  -7.380  1.00  0.00    -0.237 OA
ATOM     91  O   UNL     1       3.774   1.399  -8.515  1.00  0.00    -0.744 OA
ENDBRANCH  85  88
ENDBRANCH  57  81
BRANCH  69  92
ATOM     92  C   UNL     1      -4.928   1.157 -14.107  1.00  0.00     0.023 A 
ATOM     93  C   UNL     1      -4.119   0.592 -15.111  1.00  0.00     0.012 A 
ATOM     94  C   UNL     1      -5.991   2.009 -14.466  1.00  0.00     0.148 A 
ATOM     95  C   UNL     1      -4.359   0.876 -16.454  1.00  0.00     0.002 A 
ATOM     96  C   UNL     1      -6.245   2.262 -15.809  1.00  0.00     0.091 A 
ATOM     97  F   UNL     1      -6.738   2.544 -13.489  1.00  0.00    -0.205 F 
ATOM     98  C   UNL     1      -5.427   1.700 -16.803  1.00  0.00     0.022 A 
BRANCH  96  99
ATOM     99  S   UNL     1      -7.640   3.249 -16.361  1.00  0.00     0.127 S 
ATOM    100  O   UNL     1      -6.973   4.441 -16.883  1.00  0.00    -0.237 OA
ATOM    101  O   UNL     1      -8.243   2.391 -17.381  1.00  0.00    -0.237 OA
ATOM    102  O   UNL     1      -8.471   3.468 -15.184  1.00  0.00    -0.744 OA
ENDBRANCH  96  99
ENDBRANCH  69  92
ENDBRANCH  43  44
ENDBRANCH  36  38
ENDBRANCH  35  36
ENDBRANCH  34  35
ENDBRANCH  33  34
ENDBRANCH  32  33
ENDBRANCH  31  32
ENDBRANCH   1  31
TORSDOF 23
