REMARK SMILES CCNC(=O)c1ccc(NC(=O)CC2(C(=O)OCCOCCOCCOC(=O)c3ccc(-c4c5nc(c(-c6cccc(S(=O)(=O)[O-])c6F)c6ccc([nH]6)c(-c6cccc(S(=O)(=O)[O-])c6F)c6nc(c(-c7cccc(S(=O)(=O)[O-])c7F)c7ccc4[nH]7)C=C6)C=C5)cc3)CCCC2)cc1
REMARK SMILES IDX 21 1 20 2 19 3 18 4 17 5 15 6 16 7 14 8 92 9 95 10 93 11
REMARK SMILES IDX 94 12 13 13 11 14 10 15 12 17 9 18 6 19 7 20 97 21 8 22
REMARK SMILES IDX 96 23 4 24 3 25 5 27 2 28 1 29 22 30 23 31 24 32 25 33 26 34
REMARK SMILES IDX 27 35 28 36 29 37 30 38 91 39 31 40 90 41 32 42 33 43 34 44
REMARK SMILES IDX 84 45 35 46 89 47 83 48 85 49 36 50 88 51 82 52 81 53 37 55
REMARK SMILES IDX 69 56 49 57 68 58 50 59 53 60 67 61 86 62 51 63 52 64 66 66
REMARK SMILES IDX 87 67 54 68 38 69 39 70 47 71 40 72 42 73 48 74 41 75 43 76
REMARK SMILES IDX 44 77 45 78 46 79 70 80 71 81 79 82 72 83 74 84 80 85 73 86
REMARK SMILES IDX 75 87 76 88 77 89 78 90 55 91 56 92 64 93 57 94 59 95 65 96
REMARK SMILES IDX 58 97 60 98 61 99 62 100 63 101
REMARK H PARENT 10 16 3 26 85 54 53 65
REMARK Flexibility Score: inf
ROOT
ATOM      1  C   UNL     1      -7.273   4.783   2.429  1.00  0.00     0.188 C 
ENDROOT
BRANCH   1   2
ATOM      2  O   UNL     1      -6.474   5.319   3.478  1.00  0.00    -0.376 OA
BRANCH   2   3
ATOM      3  C   UNL     1      -5.078   5.071   3.368  1.00  0.00     0.202 C 
BRANCH   3   4
ATOM      4  C   UNL     1      -4.383   5.881   2.277  1.00  0.00     0.261 C 
BRANCH   4   5
ATOM      5  O   UNL     1      -4.856   5.490   0.976  1.00  0.00    -0.463 OA
BRANCH   5   6
ATOM      6  C   UNL     1      -3.963   5.494  -0.037  1.00  0.00     0.312 C 
ATOM      7  O   UNL     1      -2.754   5.585   0.138  1.00  0.00    -0.252 OA
BRANCH   6   8
ATOM      8  C   UNL     1      -4.644   5.494  -1.423  1.00  0.00     0.077 C 
ATOM      9  C   UNL     1      -3.566   5.754  -2.505  1.00  0.00     0.019 C 
ATOM     10  C   UNL     1      -5.478   6.792  -1.595  1.00  0.00     0.019 C 
ATOM     11  C   UNL     1      -3.215   7.235  -2.380  1.00  0.00     0.001 C 
ATOM     12  C   UNL     1      -4.479   7.913  -1.874  1.00  0.00     0.001 C 
BRANCH   8  13
ATOM     13  C   UNL     1      -5.473   4.238  -1.809  1.00  0.00     0.119 C 
BRANCH  13  14
ATOM     14  C   UNL     1      -5.989   3.263  -0.763  1.00  0.00     0.225 C 
ATOM     15  N   UNL     1      -5.176   2.454  -0.029  1.00  0.00    -0.326 N 
ATOM     16  H   UNL     1      -5.646   1.848   0.589  1.00  0.00     0.169 HD
ATOM     17  O   UNL     1      -7.203   3.205  -0.540  1.00  0.00    -0.275 OA
BRANCH  15  18
ATOM     18  C   UNL     1      -3.783   2.346  -0.010  1.00  0.00     0.041 A 
ATOM     19  C   UNL     1      -1.028   2.617   0.251  1.00  0.00     0.039 A 
ATOM     20  C   UNL     1      -1.605   2.629  -1.018  1.00  0.00     0.016 A 
ATOM     21  C   UNL     1      -1.810   2.376   1.384  1.00  0.00     0.016 A 
ATOM     22  C   UNL     1      -2.985   2.471  -1.146  1.00  0.00     0.027 A 
ATOM     23  C   UNL     1      -3.186   2.200   1.247  1.00  0.00     0.027 A 
BRANCH  19  24
ATOM     24  C   UNL     1       0.401   2.951   0.383  1.00  0.00     0.251 C 
ATOM     25  N   UNL     1       1.258   2.034   0.931  1.00  0.00    -0.352 N 
ATOM     26  H   UNL     1       2.144   2.373   1.191  1.00  0.00     0.163 HD
ATOM     27  O   UNL     1       0.820   4.036  -0.007  1.00  0.00    -0.269 OA
BRANCH  25  28
ATOM     28  C   UNL     1       1.018   0.625   1.174  1.00  0.00     0.112 C 
ATOM     29  C   UNL     1       1.342  -0.192  -0.064  1.00  0.00     0.027 C 
ENDBRANCH  25  28
ENDBRANCH  19  24
ENDBRANCH  15  18
ENDBRANCH  13  14
ENDBRANCH   8  13
ENDBRANCH   6   8
ENDBRANCH   5   6
ENDBRANCH   4   5
ENDBRANCH   3   4
ENDBRANCH   2   3
ENDBRANCH   1   2
BRANCH   1  30
ATOM     30  C   UNL     1      -7.641   5.781   1.319  1.00  0.00     0.188 C 
BRANCH  30  31
ATOM     31  O   UNL     1      -7.634   7.183   1.561  1.00  0.00    -0.376 OA
BRANCH  31  32
ATOM     32  C   UNL     1      -8.092   7.657   2.817  1.00  0.00     0.202 C 
BRANCH  32  33
ATOM     33  C   UNL     1      -9.556   7.412   3.210  1.00  0.00     0.261 C 
BRANCH  33  34
ATOM     34  O   UNL     1     -10.084   6.144   2.806  1.00  0.00    -0.460 OA
BRANCH  34  35
ATOM     35  C   UNL     1     -10.831   6.170   1.672  1.00  0.00     0.338 C 
ATOM     36  O   UNL     1     -11.163   7.156   1.033  1.00  0.00    -0.246 OA
BRANCH  35  37
ATOM     37  C   UNL     1     -11.023   4.785   1.188  1.00  0.00     0.060 A 
ATOM     38  C   UNL     1     -10.711   4.509  -0.153  1.00  0.00     0.016 A 
ATOM     39  C   UNL     1     -11.479   3.771   2.031  1.00  0.00     0.016 A 
ATOM     40  C   UNL     1     -10.885   3.226  -0.666  1.00  0.00     0.010 A 
ATOM     41  C   UNL     1     -11.693   2.495   1.506  1.00  0.00     0.010 A 
ATOM     42  C   UNL     1     -11.433   2.230   0.149  1.00  0.00    -0.014 A 
BRANCH  42  43
ATOM     43  C   UNL     1     -12.000   1.009  -0.468  1.00  0.00     0.031 A 
ATOM     44  C   UNL     1     -13.441   1.062  -0.895  1.00  0.00     0.074 A 
ATOM     45  C   UNL     1     -11.286  -0.121  -0.603  1.00  0.00     0.049 A 
ATOM     46  N   UNL     1     -14.210   0.107  -1.346  1.00  0.00    -0.248 NA
ATOM     47  C   UNL     1     -14.107   2.374  -0.792  1.00  0.00     0.031 C 
ATOM     48  C   UNL     1      -9.876  -0.281  -0.258  1.00  0.00     0.029 A 
ATOM     49  N   UNL     1     -11.674  -1.364  -1.038  1.00  0.00    -0.354 N 
ATOM     50  C   UNL     1     -15.453   0.693  -1.550  1.00  0.00     0.074 A 
ATOM     51  C   UNL     1     -15.340   2.084  -1.177  1.00  0.00     0.031 C 
ATOM     52  C   UNL     1      -9.528  -1.568  -0.446  1.00  0.00     0.029 A 
ATOM     53  C   UNL     1     -10.696  -2.321  -0.902  1.00  0.00     0.049 A 
ATOM     54  H   UNL     1     -12.565  -1.552  -1.411  1.00  0.00     0.167 HD
ATOM     55  C   UNL     1     -16.589   0.127  -2.013  1.00  0.00     0.034 A 
ATOM     56  C   UNL     1     -10.755  -3.654  -1.097  1.00  0.00     0.034 A 
ATOM     57  C   UNL     1     -16.702  -1.254  -2.386  1.00  0.00     0.049 A 
ATOM     58  C   UNL     1     -12.048  -4.272  -1.575  1.00  0.00     0.074 A 
ATOM     59  C   UNL     1     -17.804  -1.923  -2.884  1.00  0.00     0.029 A 
ATOM     60  N   UNL     1     -15.675  -2.180  -2.290  1.00  0.00    -0.354 N 
ATOM     61  N   UNL     1     -13.187  -3.689  -1.867  1.00  0.00    -0.248 NA
ATOM     62  C   UNL     1     -12.056  -5.730  -1.778  1.00  0.00     0.031 C 
ATOM     63  C   UNL     1     -17.447  -3.262  -3.074  1.00  0.00     0.029 A 
ATOM     64  C   UNL     1     -16.118  -3.419  -2.714  1.00  0.00     0.049 A 
ATOM     65  H   UNL     1     -14.766  -1.984  -1.968  1.00  0.00     0.167 HD
ATOM     66  C   UNL     1     -14.028  -4.697  -2.329  1.00  0.00     0.074 A 
ATOM     67  C   UNL     1     -13.265  -5.928  -2.288  1.00  0.00     0.031 C 
ATOM     68  C   UNL     1     -15.319  -4.616  -2.738  1.00  0.00     0.034 A 
BRANCH  55  69
ATOM     69  C   UNL     1     -17.794   1.013  -2.153  1.00  0.00     0.023 A 
ATOM     70  C   UNL     1     -17.853   1.942  -3.211  1.00  0.00     0.012 A 
ATOM     71  C   UNL     1     -18.875   0.911  -1.257  1.00  0.00     0.148 A 
ATOM     72  C   UNL     1     -18.959   2.777  -3.359  1.00  0.00     0.002 A 
ATOM     73  C   UNL     1     -19.991   1.719  -1.435  1.00  0.00     0.091 A 
ATOM     74  F   UNL     1     -18.782   0.045  -0.238  1.00  0.00    -0.205 F 
ATOM     75  C   UNL     1     -20.031   2.659  -2.478  1.00  0.00     0.022 A 
BRANCH  73  76
ATOM     76  S   UNL     1     -21.448   1.591  -0.392  1.00  0.00     0.127 S 
ATOM     77  O   UNL     1     -21.342   2.807   0.413  1.00  0.00    -0.237 OA
ATOM     78  O   UNL     1     -22.532   1.603  -1.374  1.00  0.00    -0.237 OA
ATOM     79  O   UNL     1     -21.308   0.340   0.339  1.00  0.00    -0.744 OA
ENDBRANCH  73  76
ENDBRANCH  55  69
BRANCH  56  80
ATOM     80  C   UNL     1      -9.548  -4.501  -0.873  1.00  0.00     0.023 A 
ATOM     81  C   UNL     1      -8.916  -5.108  -1.976  1.00  0.00     0.012 A 
ATOM     82  C   UNL     1      -9.023  -4.708   0.418  1.00  0.00     0.148 A 
ATOM     83  C   UNL     1      -7.804  -5.932  -1.795  1.00  0.00     0.002 A 
ATOM     84  C   UNL     1      -7.883  -5.488   0.585  1.00  0.00     0.091 A 
ATOM     85  F   UNL     1      -9.649  -4.141   1.458  1.00  0.00    -0.205 F 
ATOM     86  C   UNL     1      -7.283  -6.115  -0.517  1.00  0.00     0.022 A 
BRANCH  84  87
ATOM     87  S   UNL     1      -7.070  -5.677   2.176  1.00  0.00     0.127 S 
ATOM     88  O   UNL     1      -7.381  -7.064   2.510  1.00  0.00    -0.237 OA
ATOM     89  O   UNL     1      -5.670  -5.425   1.832  1.00  0.00    -0.237 OA
ATOM     90  O   UNL     1      -7.662  -4.666   3.042  1.00  0.00    -0.744 OA
ENDBRANCH  84  87
ENDBRANCH  56  80
BRANCH  68  91
ATOM     91  C   UNL     1     -15.988  -5.873  -3.229  1.00  0.00     0.023 A 
ATOM     92  C   UNL     1     -16.403  -6.853  -2.308  1.00  0.00     0.012 A 
ATOM     93  C   UNL     1     -16.306  -6.025  -4.594  1.00  0.00     0.148 A 
ATOM     94  C   UNL     1     -17.107  -7.976  -2.739  1.00  0.00     0.002 A 
ATOM     95  C   UNL     1     -17.048  -7.124  -5.010  1.00  0.00     0.091 A 
ATOM     96  F   UNL     1     -15.887  -5.088  -5.457  1.00  0.00    -0.205 F 
ATOM     97  C   UNL     1     -17.441  -8.105  -4.086  1.00  0.00     0.022 A 
BRANCH  95  98
ATOM     98  S   UNL     1     -17.608  -7.318  -6.707  1.00  0.00     0.127 S 
ATOM     99  O   UNL     1     -16.715  -8.367  -7.197  1.00  0.00    -0.237 OA
ATOM    100  O   UNL     1     -18.999  -7.734  -6.531  1.00  0.00    -0.237 OA
ATOM    101  O   UNL     1     -17.445  -6.013  -7.333  1.00  0.00    -0.744 OA
ENDBRANCH  95  98
ENDBRANCH  68  91
ENDBRANCH  42  43
ENDBRANCH  35  37
ENDBRANCH  34  35
ENDBRANCH  33  34
ENDBRANCH  32  33
ENDBRANCH  31  32
ENDBRANCH  30  31
ENDBRANCH   1  30
TORSDOF 25
