REMARK SMILES CCc1nc(COC)cc(OCC(=O)OCCOCCOCCOC(=O)c2ccc(-c3c4nc(c(-c5cccc(S(=O)(=O)[O-])c5F)c5ccc([nH]5)c(-c5cccc(S(=O)(=O)[O-])c5F)c5nc(c(-c6cccc(S(=O)(=O)[O-])c6F)c6ccc3[nH]6)C=C5)C=C4)cc2)n1
REMARK SMILES IDX 19 1 18 2 17 3 16 4 15 5 13 6 14 7 12 8 11 9 10 10 3 11 4 12
REMARK SMILES IDX 90 13 5 14 9 15 2 16 1 17 6 18 7 19 8 20 20 21 21 22 22 23
REMARK SMILES IDX 23 24 24 25 25 26 26 27 27 28 28 29 89 30 29 31 88 32 30 33
REMARK SMILES IDX 31 34 32 35 82 36 33 37 87 38 81 39 83 40 34 41 86 42 80 43
REMARK SMILES IDX 79 44 35 46 67 47 47 48 66 49 48 50 51 51 65 52 84 53 49 54
REMARK SMILES IDX 50 55 64 57 85 58 52 59 36 60 37 61 45 62 38 63 40 64 46 65
REMARK SMILES IDX 39 66 41 67 42 68 43 69 44 70 68 71 69 72 77 73 70 74 72 75
REMARK SMILES IDX 78 76 71 77 73 78 74 79 75 80 76 81 53 82 54 83 62 84 55 85
REMARK SMILES IDX 57 86 63 87 56 88 58 89 59 90 60 91 61 92
REMARK H PARENT 83 45 51 56
REMARK Flexibility Score: inf
ROOT
ATOM      1  C   UNL     1      -0.047   3.584  -5.898  1.00  0.00     0.188 C 
ENDROOT
BRANCH   1   2
ATOM      2  O   UNL     1      -0.466   3.828  -7.227  1.00  0.00    -0.376 OA
BRANCH   2   3
ATOM      3  C   UNL     1      -0.752   2.688  -8.014  1.00  0.00     0.202 C 
BRANCH   3   4
ATOM      4  C   UNL     1       0.414   1.697  -8.181  1.00  0.00     0.261 C 
BRANCH   4   5
ATOM      5  O   UNL     1       0.991   1.286  -6.909  1.00  0.00    -0.461 OA
BRANCH   5   6
ATOM      6  C   UNL     1       2.329   1.486  -6.718  1.00  0.00     0.344 C 
ATOM      7  O   UNL     1       3.120   1.665  -7.638  1.00  0.00    -0.248 OA
BRANCH   6   8
ATOM      8  C   UNL     1       2.748   1.630  -5.208  1.00  0.00     0.353 C 
BRANCH   8   9
ATOM      9  O   UNL     1       1.853   1.148  -4.213  1.00  0.00    -0.466 OA
BRANCH   9  10
ATOM     10  C   UNL     1       1.802   1.648  -2.930  1.00  0.00     0.217 A 
ATOM     11  C   UNL     1       1.104   1.120  -0.800  1.00  0.00     0.132 A 
ATOM     12  N   UNL     1       1.110   2.387  -0.391  1.00  0.00    -0.235 NA
ATOM     13  N   UNL     1       1.415   0.708  -2.046  1.00  0.00    -0.198 NA
ATOM     14  C   UNL     1       1.417   3.336  -1.280  1.00  0.00     0.074 A 
ATOM     15  C   UNL     1       1.853   2.990  -2.569  1.00  0.00     0.094 A 
BRANCH  11  16
ATOM     16  C   UNL     1       0.478   0.183   0.188  1.00  0.00     0.074 C 
ATOM     17  C   UNL     1       1.036  -1.220   0.166  1.00  0.00     0.012 C 
ENDBRANCH  11  16
BRANCH  14  18
ATOM     18  C   UNL     1       1.216   4.752  -0.750  1.00  0.00     0.216 C 
BRANCH  18  19
ATOM     19  O   UNL     1       0.095   4.902   0.157  1.00  0.00    -0.378 OA
ATOM     20  C   UNL     1      -1.066   5.518  -0.385  1.00  0.00     0.195 C 
ENDBRANCH  18  19
ENDBRANCH  14  18
ENDBRANCH   9  10
ENDBRANCH   8   9
ENDBRANCH   6   8
ENDBRANCH   5   6
ENDBRANCH   4   5
ENDBRANCH   3   4
ENDBRANCH   2   3
ENDBRANCH   1   2
BRANCH   1  21
ATOM     21  C   UNL     1      -0.821   2.583  -5.023  1.00  0.00     0.188 C 
BRANCH  21  22
ATOM     22  O   UNL     1      -2.181   2.438  -5.347  1.00  0.00    -0.376 OA
BRANCH  22  23
ATOM     23  C   UNL     1      -3.119   3.429  -4.982  1.00  0.00     0.202 C 
BRANCH  23  24
ATOM     24  C   UNL     1      -2.835   4.631  -4.058  1.00  0.00     0.261 C 
BRANCH  24  25
ATOM     25  O   UNL     1      -1.915   5.680  -4.475  1.00  0.00    -0.460 OA
BRANCH  25  26
ATOM     26  C   UNL     1      -0.783   5.682  -3.733  1.00  0.00     0.338 C 
ATOM     27  O   UNL     1      -0.481   4.746  -3.002  1.00  0.00    -0.246 OA
BRANCH  26  28
ATOM     28  C   UNL     1       0.248   6.742  -3.837  1.00  0.00     0.060 A 
ATOM     29  C   UNL     1       1.552   6.260  -4.043  1.00  0.00     0.016 A 
ATOM     30  C   UNL     1       0.082   7.932  -3.127  1.00  0.00     0.016 A 
ATOM     31  C   UNL     1       2.637   6.821  -3.372  1.00  0.00     0.010 A 
ATOM     32  C   UNL     1       1.206   8.581  -2.570  1.00  0.00     0.010 A 
ATOM     33  C   UNL     1       2.490   8.014  -2.653  1.00  0.00    -0.014 A 
BRANCH  33  34
ATOM     34  C   UNL     1       3.712   8.731  -2.188  1.00  0.00     0.031 A 
ATOM     35  C   UNL     1       3.981   9.084  -0.746  1.00  0.00     0.074 A 
ATOM     36  C   UNL     1       4.591   9.107  -3.141  1.00  0.00     0.049 A 
ATOM     37  N   UNL     1       4.898   9.883  -0.257  1.00  0.00    -0.248 NA
ATOM     38  C   UNL     1       3.134   8.458   0.281  1.00  0.00     0.031 C 
ATOM     39  C   UNL     1       4.470   8.787  -4.568  1.00  0.00     0.029 A 
ATOM     40  N   UNL     1       5.733   9.863  -3.073  1.00  0.00    -0.354 N 
ATOM     41  C   UNL     1       4.709   9.907   1.123  1.00  0.00     0.074 A 
ATOM     42  C   UNL     1       3.608   9.005   1.398  1.00  0.00     0.031 C 
ATOM     43  C   UNL     1       5.477   9.348  -5.239  1.00  0.00     0.029 A 
ATOM     44  C   UNL     1       6.239  10.169  -4.315  1.00  0.00     0.049 A 
ATOM     45  H   UNL     1       6.146  10.155  -2.228  1.00  0.00     0.167 HD
ATOM     46  C   UNL     1       5.385  10.625   2.058  1.00  0.00     0.034 A 
ATOM     47  C   UNL     1       7.146  11.080  -4.706  1.00  0.00     0.034 A 
ATOM     48  C   UNL     1       6.494  11.505   1.758  1.00  0.00     0.049 A 
ATOM     49  C   UNL     1       7.821  11.912  -3.668  1.00  0.00     0.074 A 
ATOM     50  C   UNL     1       7.263  12.253   2.635  1.00  0.00     0.029 A 
ATOM     51  N   UNL     1       6.984  11.768   0.486  1.00  0.00    -0.354 N 
ATOM     52  N   UNL     1       7.652  11.898  -2.369  1.00  0.00    -0.248 NA
ATOM     53  C   UNL     1       8.829  12.865  -4.143  1.00  0.00     0.031 C 
ATOM     54  C   UNL     1       8.184  13.000   1.892  1.00  0.00     0.029 A 
ATOM     55  C   UNL     1       8.025  12.682   0.553  1.00  0.00     0.049 A 
ATOM     56  H   UNL     1       6.642  11.364  -0.344  1.00  0.00     0.167 HD
ATOM     57  C   UNL     1       8.558  12.817  -1.864  1.00  0.00     0.074 A 
ATOM     58  C   UNL     1       9.284  13.354  -2.999  1.00  0.00     0.031 C 
ATOM     59  C   UNL     1       8.763  13.187  -0.577  1.00  0.00     0.034 A 
BRANCH  46  60
ATOM     60  C   UNL     1       4.958  10.524   3.507  1.00  0.00     0.023 A 
ATOM     61  C   UNL     1       5.257   9.369   4.257  1.00  0.00     0.012 A 
ATOM     62  C   UNL     1       4.363  11.627   4.160  1.00  0.00     0.148 A 
ATOM     63  C   UNL     1       4.950   9.303   5.619  1.00  0.00     0.002 A 
ATOM     64  C   UNL     1       4.096  11.569   5.525  1.00  0.00     0.091 A 
ATOM     65  F   UNL     1       4.079  12.719   3.435  1.00  0.00    -0.205 F 
ATOM     66  C   UNL     1       4.381  10.405   6.254  1.00  0.00     0.022 A 
BRANCH  64  67
ATOM     67  S   UNL     1       3.438  12.965   6.449  1.00  0.00     0.127 S 
ATOM     68  O   UNL     1       2.082  12.507   6.748  1.00  0.00    -0.237 OA
ATOM     69  O   UNL     1       4.331  13.020   7.607  1.00  0.00    -0.237 OA
ATOM     70  O   UNL     1       3.526  14.114   5.560  1.00  0.00    -0.744 OA
ENDBRANCH  64  67
ENDBRANCH  46  60
BRANCH  47  71
ATOM     71  C   UNL     1       7.424  11.244  -6.158  1.00  0.00     0.023 A 
ATOM     72  C   UNL     1       8.653  10.809  -6.681  1.00  0.00     0.012 A 
ATOM     73  C   UNL     1       6.431  11.732  -7.035  1.00  0.00     0.148 A 
ATOM     74  C   UNL     1       8.897  10.870  -8.052  1.00  0.00     0.002 A 
ATOM     75  C   UNL     1       6.656  11.725  -8.405  1.00  0.00     0.091 A 
ATOM     76  F   UNL     1       5.267  12.145  -6.512  1.00  0.00    -0.205 F 
ATOM     77  C   UNL     1       7.895  11.311  -8.914  1.00  0.00     0.022 A 
BRANCH  75  78
ATOM     78  S   UNL     1       5.357  12.111  -9.585  1.00  0.00     0.127 S 
ATOM     79  O   UNL     1       5.796  13.415 -10.091  1.00  0.00    -0.237 OA
ATOM     80  O   UNL     1       5.487  11.008 -10.546  1.00  0.00    -0.237 OA
ATOM     81  O   UNL     1       4.122  12.105  -8.832  1.00  0.00    -0.744 OA
ENDBRANCH  75  78
ENDBRANCH  47  71
BRANCH  59  82
ATOM     82  C   UNL     1       9.854  14.193  -0.327  1.00  0.00     0.023 A 
ATOM     83  C   UNL     1       9.678  15.537  -0.712  1.00  0.00     0.012 A 
ATOM     84  C   UNL     1      11.050  13.805   0.308  1.00  0.00     0.148 A 
ATOM     85  C   UNL     1      10.693  16.471  -0.508  1.00  0.00     0.002 A 
ATOM     86  C   UNL     1      12.035  14.752   0.557  1.00  0.00     0.091 A 
ATOM     87  F   UNL     1      11.207  12.517   0.643  1.00  0.00    -0.205 F 
ATOM     88  C   UNL     1      11.866  16.081   0.135  1.00  0.00     0.022 A 
BRANCH  86  89
ATOM     89  S   UNL     1      13.539  14.363   1.458  1.00  0.00     0.127 S 
ATOM     90  O   UNL     1      14.546  14.431   0.400  1.00  0.00    -0.237 OA
ATOM     91  O   UNL     1      13.603  15.451   2.434  1.00  0.00    -0.237 OA
ATOM     92  O   UNL     1      13.331  13.042   2.036  1.00  0.00    -0.744 OA
ENDBRANCH  86  89
ENDBRANCH  59  82
ENDBRANCH  33  34
ENDBRANCH  26  28
ENDBRANCH  25  26
ENDBRANCH  24  25
ENDBRANCH  23  24
ENDBRANCH  22  23
ENDBRANCH  21  22
ENDBRANCH   1  21
TORSDOF 25
