REMARK SMILES COc1ccccc1[C@@H]1CN(C(=O)c2cnn3ccccc23)C[C@H]1C(=O)OCCOCCOCCOC(=O)c1ccc(-c2c3nc(c(-c4cccc(S(=O)(=O)[O-])c4F)c4ccc([nH]4)c(-c4cccc(S(=O)(=O)[O-])c4F)c4nc(c(-c5cccc(S(=O)(=O)[O-])c5F)c5ccc2[nH]5)C=C4)C=C3)cc1
REMARK SMILES IDX 32 1 31 2 30 3 29 4 28 5 27 6 25 7 26 8 24 9 9 10 10 11
REMARK SMILES IDX 11 12 23 13 8 14 3 15 4 16 5 17 7 18 6 19 2 20 1 21 12 22
REMARK SMILES IDX 13 23 14 24 15 25 22 26 16 27 17 28 21 29 18 30 20 31 19 32
REMARK SMILES IDX 33 33 34 34 35 35 36 36 37 37 38 38 39 39 40 40 101 41 41 42
REMARK SMILES IDX 100 43 42 44 43 45 44 46 94 47 45 48 99 49 93 50 95 51 46 52
REMARK SMILES IDX 98 53 92 54 91 55 47 57 79 58 59 59 78 60 60 61 63 62 77 63
REMARK SMILES IDX 96 64 61 65 62 66 76 68 97 69 64 70 48 71 49 72 57 73 50 74
REMARK SMILES IDX 52 75 58 76 51 77 53 78 54 79 55 80 56 81 80 82 81 83 89 84
REMARK SMILES IDX 82 85 84 86 90 87 83 88 85 89 86 90 87 91 88 92 65 93 66 94
REMARK SMILES IDX 74 95 67 96 69 97 75 98 68 99 70 100 71 101 72 102 73 103
REMARK H PARENT 95 56 63 67
REMARK Flexibility Score: inf
ROOT
ATOM      1  C   UNL     1       2.826   1.259   4.339  1.00  0.00     0.188 C 
ENDROOT
BRANCH   1   2
ATOM      2  C   UNL     1       2.020   0.189   5.093  1.00  0.00     0.188 C 
BRANCH   2   3
ATOM      3  O   UNL     1       2.655  -0.650   6.042  1.00  0.00    -0.376 OA
BRANCH   3   4
ATOM      4  C   UNL     1       4.002  -1.040   5.826  1.00  0.00     0.202 C 
BRANCH   4   5
ATOM      5  C   UNL     1       4.373  -1.737   4.497  1.00  0.00     0.261 C 
BRANCH   5   6
ATOM      6  O   UNL     1       4.135  -1.003   3.262  1.00  0.00    -0.463 OA
BRANCH   6   7
ATOM      7  C   UNL     1       3.174  -1.486   2.441  1.00  0.00     0.311 C 
ATOM      8  O   UNL     1       2.535  -2.510   2.676  1.00  0.00    -0.252 OA
BRANCH   7   9
ATOM      9  C   UNL     1       2.981  -0.763   1.113  1.00  0.00     0.128 C 
ATOM     10  C   UNL     1       3.318   0.725   0.816  1.00  0.00     0.058 C 
ATOM     11  C   UNL     1       3.722   0.684  -0.660  1.00  0.00     0.129 C 
ATOM     12  N   UNL     1       4.416  -0.569  -0.793  1.00  0.00    -0.337 N 
ATOM     13  C   UNL     1       3.838  -1.547   0.106  1.00  0.00     0.135 C 
BRANCH  10  14
ATOM     14  C   UNL     1       2.299   1.856   0.950  1.00  0.00    -0.000 A 
ATOM     15  C   UNL     1       1.027   1.885   0.349  1.00  0.00     0.122 A 
ATOM     16  C   UNL     1       0.198   3.012   0.458  1.00  0.00     0.047 A 
ATOM     17  C   UNL     1       0.642   4.152   1.125  1.00  0.00     0.004 A 
ATOM     18  C   UNL     1       2.734   3.042   1.580  1.00  0.00     0.008 A 
ATOM     19  C   UNL     1       1.924   4.176   1.662  1.00  0.00     0.001 A 
BRANCH  15  20
ATOM     20  O   UNL     1       0.688   0.951  -0.596  1.00  0.00    -0.496 OA
ATOM     21  C   UNL     1      -0.166  -0.079  -0.118  1.00  0.00     0.278 C 
ENDBRANCH  15  20
ENDBRANCH  10  14
BRANCH  12  22
ATOM     22  C   UNL     1       5.303  -0.941  -1.783  1.00  0.00     0.257 C 
ATOM     23  O   UNL     1       5.637  -2.114  -1.936  1.00  0.00    -0.269 OA
BRANCH  22  24
ATOM     24  C   UNL     1       5.782   0.085  -2.689  1.00  0.00     0.085 A 
ATOM     25  C   UNL     1       5.803  -0.010  -4.095  1.00  0.00     0.150 A 
ATOM     26  C   UNL     1       6.366   1.313  -2.432  1.00  0.00     0.079 A 
ATOM     27  N   UNL     1       6.274   1.083  -4.694  1.00  0.00    -0.176 NA
ATOM     28  N   UNL     1       6.598   1.918  -3.673  1.00  0.00    -0.240 N 
ATOM     29  C   UNL     1       6.731   2.052  -1.262  1.00  0.00     0.029 A 
ATOM     30  C   UNL     1       7.096   3.217  -3.784  1.00  0.00     0.113 A 
ATOM     31  C   UNL     1       7.193   3.311  -1.383  1.00  0.00     0.004 A 
ATOM     32  C   UNL     1       7.383   3.930  -2.682  1.00  0.00     0.020 A 
ENDBRANCH  22  24
ENDBRANCH  12  22
ENDBRANCH   7   9
ENDBRANCH   6   7
ENDBRANCH   5   6
ENDBRANCH   4   5
ENDBRANCH   3   4
ENDBRANCH   2   3
ENDBRANCH   1   2
BRANCH   1  33
ATOM     33  O   UNL     1       4.231   1.273   4.541  1.00  0.00    -0.376 OA
BRANCH  33  34
ATOM     34  C   UNL     1       4.857   2.474   4.963  1.00  0.00     0.202 C 
BRANCH  34  35
ATOM     35  C   UNL     1       4.515   2.888   6.395  1.00  0.00     0.261 C 
BRANCH  35  36
ATOM     36  O   UNL     1       3.119   3.071   6.583  1.00  0.00    -0.460 OA
BRANCH  36  37
ATOM     37  C   UNL     1       2.574   4.017   5.805  1.00  0.00     0.338 C 
ATOM     38  O   UNL     1       3.144   4.745   4.989  1.00  0.00    -0.246 OA
BRANCH  37  39
ATOM     39  C   UNL     1       1.135   4.005   6.000  1.00  0.00     0.060 A 
ATOM     40  C   UNL     1       0.354   4.532   4.967  1.00  0.00     0.016 A 
ATOM     41  C   UNL     1       0.650   3.789   7.290  1.00  0.00     0.016 A 
ATOM     42  C   UNL     1      -0.825   5.139   5.294  1.00  0.00     0.010 A 
ATOM     43  C   UNL     1      -0.514   4.420   7.627  1.00  0.00     0.010 A 
ATOM     44  C   UNL     1      -1.148   5.188   6.645  1.00  0.00    -0.014 A 
BRANCH  44  45
ATOM     45  C   UNL     1      -2.041   6.241   7.065  1.00  0.00     0.031 A 
ATOM     46  C   UNL     1      -3.469   5.887   7.018  1.00  0.00     0.074 A 
ATOM     47  C   UNL     1      -1.500   7.360   7.590  1.00  0.00     0.049 A 
ATOM     48  N   UNL     1      -4.435   6.535   6.457  1.00  0.00    -0.248 NA
ATOM     49  C   UNL     1      -3.849   4.573   7.562  1.00  0.00     0.031 C 
ATOM     50  C   UNL     1      -0.079   7.584   7.906  1.00  0.00     0.029 A 
ATOM     51  N   UNL     1      -2.114   8.437   8.150  1.00  0.00    -0.354 N 
ATOM     52  C   UNL     1      -5.577   5.814   6.787  1.00  0.00     0.074 A 
ATOM     53  C   UNL     1      -5.146   4.534   7.279  1.00  0.00     0.031 C 
ATOM     54  C   UNL     1       0.012   8.544   8.848  1.00  0.00     0.029 A 
ATOM     55  C   UNL     1      -1.319   9.059   9.108  1.00  0.00     0.049 A 
ATOM     56  H   UNL     1      -3.018   8.742   7.906  1.00  0.00     0.167 HD
ATOM     57  C   UNL     1      -6.788   6.412   6.909  1.00  0.00     0.034 A 
ATOM     58  C   UNL     1      -1.749   9.826  10.137  1.00  0.00     0.034 A 
ATOM     59  C   UNL     1      -6.839   7.687   6.256  1.00  0.00     0.049 A 
ATOM     60  C   UNL     1      -3.149  10.218   9.851  1.00  0.00     0.074 A 
ATOM     61  C   UNL     1      -6.663   8.123   4.959  1.00  0.00     0.029 A 
ATOM     62  N   UNL     1      -6.777   8.801   7.055  1.00  0.00    -0.354 N 
ATOM     63  N   UNL     1      -3.506  11.021   8.887  1.00  0.00    -0.248 NA
ATOM     64  C   UNL     1      -4.215   9.398  10.405  1.00  0.00     0.031 C 
ATOM     65  C   UNL     1      -6.102   9.424   5.075  1.00  0.00     0.029 A 
ATOM     66  C   UNL     1      -5.971   9.717   6.435  1.00  0.00     0.049 A 
ATOM     67  H   UNL     1      -7.231   8.920   7.921  1.00  0.00     0.167 HD
ATOM     68  C   UNL     1      -4.719  10.514   8.437  1.00  0.00     0.074 A 
ATOM     69  C   UNL     1      -5.164   9.607   9.489  1.00  0.00     0.031 C 
ATOM     70  C   UNL     1      -5.100  10.644   7.131  1.00  0.00     0.034 A 
BRANCH  57  71
ATOM     71  C   UNL     1      -7.817   5.979   7.913  1.00  0.00     0.023 A 
ATOM     72  C   UNL     1      -9.132   6.453   7.752  1.00  0.00     0.012 A 
ATOM     73  C   UNL     1      -7.508   5.327   9.130  1.00  0.00     0.148 A 
ATOM     74  C   UNL     1     -10.091   6.290   8.756  1.00  0.00     0.002 A 
ATOM     75  C   UNL     1      -8.489   5.075  10.078  1.00  0.00     0.091 A 
ATOM     76  F   UNL     1      -6.235   5.062   9.450  1.00  0.00    -0.205 F 
ATOM     77  C   UNL     1      -9.777   5.580   9.911  1.00  0.00     0.022 A 
BRANCH  75  78
ATOM     78  S   UNL     1      -8.120   4.071  11.520  1.00  0.00     0.127 S 
ATOM     79  O   UNL     1      -7.760   5.084  12.506  1.00  0.00    -0.237 OA
ATOM     80  O   UNL     1      -9.395   3.395  11.761  1.00  0.00    -0.237 OA
ATOM     81  O   UNL     1      -7.052   3.179  11.080  1.00  0.00    -0.744 OA
ENDBRANCH  75  78
ENDBRANCH  57  71
BRANCH  58  82
ATOM     82  C   UNL     1      -1.122  10.008  11.467  1.00  0.00     0.023 A 
ATOM     83  C   UNL     1      -1.395  11.170  12.209  1.00  0.00     0.012 A 
ATOM     84  C   UNL     1      -0.412   8.962  12.105  1.00  0.00     0.148 A 
ATOM     85  C   UNL     1      -0.978  11.289  13.541  1.00  0.00     0.002 A 
ATOM     86  C   UNL     1       0.028   9.097  13.418  1.00  0.00     0.091 A 
ATOM     87  F   UNL     1      -0.244   7.801  11.457  1.00  0.00    -0.205 F 
ATOM     88  C   UNL     1      -0.263  10.257  14.144  1.00  0.00     0.022 A 
BRANCH  86  89
ATOM     89  S   UNL     1       0.981   7.811  14.240  1.00  0.00     0.127 S 
ATOM     90  O   UNL     1       2.018   8.586  14.924  1.00  0.00    -0.237 OA
ATOM     91  O   UNL     1      -0.016   7.211  15.122  1.00  0.00    -0.237 OA
ATOM     92  O   UNL     1       1.487   6.956  13.173  1.00  0.00    -0.744 OA
ENDBRANCH  86  89
ENDBRANCH  58  82
BRANCH  70  93
ATOM     93  C   UNL     1      -4.332  11.596   6.247  1.00  0.00     0.023 A 
ATOM     94  C   UNL     1      -2.974  11.380   5.936  1.00  0.00     0.012 A 
ATOM     95  C   UNL     1      -5.046  12.574   5.532  1.00  0.00     0.148 A 
ATOM     96  C   UNL     1      -2.339  12.127   4.941  1.00  0.00     0.002 A 
ATOM     97  C   UNL     1      -4.426  13.278   4.506  1.00  0.00     0.091 A 
ATOM     98  F   UNL     1      -6.340  12.766   5.835  1.00  0.00    -0.205 F 
ATOM     99  C   UNL     1      -3.070  13.064   4.214  1.00  0.00     0.022 A 
BRANCH  97 100
ATOM    100  S   UNL     1      -5.352  14.376   3.428  1.00  0.00     0.127 S 
ATOM    101  O   UNL     1      -4.987  15.693   3.943  1.00  0.00    -0.237 OA
ATOM    102  O   UNL     1      -4.801  14.062   2.108  1.00  0.00    -0.237 OA
ATOM    103  O   UNL     1      -6.752  14.001   3.588  1.00  0.00    -0.744 OA
ENDBRANCH  97 100
ENDBRANCH  70  93
ENDBRANCH  44  45
ENDBRANCH  37  39
ENDBRANCH  36  37
ENDBRANCH  35  36
ENDBRANCH  34  35
ENDBRANCH  33  34
ENDBRANCH   1  33
TORSDOF 24
