REMARK SMILES CC(C)c1cc2c(cc1Cl)C=C(C(=O)OCCOCCOCCOC(=O)c1ccc(-c3c4nc(c(-c5cccc(S(=O)(=O)[O-])c5F)c5ccc([nH]5)c(-c5cccc(S(=O)(=O)[O-])c5F)c5nc(c(-c6cccc(S(=O)(=O)[O-])c6F)c6ccc3[nH]6)C=C5)C=C4)cc1)[C@@H](C(F)(F)F)O2
REMARK SMILES IDX 20 1 19 2 18 3 17 4 16 5 15 6 13 7 14 8 12 9 4 10 5 11 9 12
REMARK SMILES IDX 6 13 8 14 10 15 7 16 95 17 11 18 90 19 2 20 1 21 3 22 91 23
REMARK SMILES IDX 92 24 93 25 94 26 21 27 22 28 23 29 24 30 25 31 26 32 27 33
REMARK SMILES IDX 28 34 89 35 29 36 88 37 30 38 31 39 32 40 82 41 33 42 87 43
REMARK SMILES IDX 81 44 83 45 34 46 86 47 80 48 79 49 35 51 67 52 47 53 66 54
REMARK SMILES IDX 48 55 51 56 65 57 84 58 49 59 50 60 64 62 85 63 52 64 36 65
REMARK SMILES IDX 37 66 45 67 38 68 40 69 46 70 39 71 41 72 42 73 43 74 44 75
REMARK SMILES IDX 68 76 69 77 77 78 70 79 72 80 78 81 71 82 73 83 74 84 75 85
REMARK SMILES IDX 76 86 53 87 54 88 62 89 55 90 57 91 63 92 56 93 58 94 59 95
REMARK SMILES IDX 60 96 61 97
REMARK H PARENT 83 50 51 61
REMARK Flexibility Score: inf
ROOT
ATOM      1  C   UNL     1      -7.678  -1.858   3.416  1.00  0.00     0.188 C 
ENDROOT
BRANCH   1   2
ATOM      2  C   UNL     1      -8.628  -0.885   2.683  1.00  0.00     0.188 C 
BRANCH   2   3
ATOM      3  O   UNL     1      -9.930  -1.406   2.523  1.00  0.00    -0.376 OA
BRANCH   3   4
ATOM      4  C   UNL     1     -10.341  -1.892   1.260  1.00  0.00     0.202 C 
BRANCH   4   5
ATOM      5  C   UNL     1      -9.444  -2.780   0.380  1.00  0.00     0.261 C 
BRANCH   5   6
ATOM      6  O   UNL     1      -8.031  -2.693   0.592  1.00  0.00    -0.460 OA
BRANCH   6   7
ATOM      7  C   UNL     1      -7.343  -1.870  -0.230  1.00  0.00     0.338 C 
ATOM      8  O   UNL     1      -7.809  -1.175  -1.117  1.00  0.00    -0.246 OA
BRANCH   7   9
ATOM      9  C   UNL     1      -5.928  -1.852   0.195  1.00  0.00     0.087 C 
ATOM     10  C   UNL     1      -1.165  -0.540   1.194  1.00  0.00    -0.023 A 
ATOM     11  C   UNL     1      -1.873  -1.760   1.127  1.00  0.00     0.052 A 
ATOM     12  C   UNL     1      -1.913   0.648   1.114  1.00  0.00     0.045 A 
ATOM     13  C   UNL     1      -3.252  -1.796   0.902  1.00  0.00     0.128 A 
ATOM     14  C   UNL     1      -3.297   0.609   0.888  1.00  0.00     0.032 A 
ATOM     15  Cl  UNL     1      -1.214   2.220   1.243  1.00  0.00    -0.084 Cl
ATOM     16  C   UNL     1      -3.961  -0.611   0.741  1.00  0.00     0.019 A 
ATOM     17  O   UNL     1      -3.814  -3.037   0.823  1.00  0.00    -0.475 OA
ATOM     18  C   UNL     1      -5.362  -0.650   0.355  1.00  0.00     0.027 C 
ATOM     19  C   UNL     1      -5.217  -3.155   0.457  1.00  0.00     0.316 C 
BRANCH  10  20
ATOM     20  C   UNL     1       0.356  -0.619   1.257  1.00  0.00     0.014 C 
ATOM     21  C   UNL     1       1.009  -0.074  -0.018  1.00  0.00     0.012 C 
ATOM     22  C   UNL     1       0.975  -0.018   2.519  1.00  0.00     0.012 C 
ENDBRANCH  10  20
BRANCH  19  23
ATOM     23  C   UNL     1      -5.316  -4.131  -0.725  1.00  0.00     0.430 C 
ATOM     24  F   UNL     1      -4.660  -5.289  -0.461  1.00  0.00    -0.167 F 
ATOM     25  F   UNL     1      -6.599  -4.474  -0.992  1.00  0.00    -0.167 F 
ATOM     26  F   UNL     1      -4.790  -3.619  -1.859  1.00  0.00    -0.167 F 
ENDBRANCH  19  23
ENDBRANCH   7   9
ENDBRANCH   6   7
ENDBRANCH   5   6
ENDBRANCH   4   5
ENDBRANCH   3   4
ENDBRANCH   2   3
ENDBRANCH   1   2
BRANCH   1  27
ATOM     27  O   UNL     1      -8.177  -3.105   3.890  1.00  0.00    -0.376 OA
BRANCH  27  28
ATOM     28  C   UNL     1      -9.394  -3.128   4.631  1.00  0.00     0.202 C 
BRANCH  28  29
ATOM     29  C   UNL     1      -9.534  -2.248   5.882  1.00  0.00     0.261 C 
BRANCH  29  30
ATOM     30  O   UNL     1      -9.244  -0.857   5.675  1.00  0.00    -0.460 OA
BRANCH  30  31
ATOM     31  C   UNL     1      -8.142  -0.386   6.316  1.00  0.00     0.338 C 
ATOM     32  O   UNL     1      -7.405  -1.006   7.062  1.00  0.00    -0.246 OA
BRANCH  31  33
ATOM     33  C   UNL     1      -7.837   0.969   5.811  1.00  0.00     0.060 A 
ATOM     34  C   UNL     1      -8.775   1.999   5.895  1.00  0.00     0.016 A 
ATOM     35  C   UNL     1      -6.577   1.200   5.239  1.00  0.00     0.016 A 
ATOM     36  C   UNL     1      -8.441   3.271   5.420  1.00  0.00     0.010 A 
ATOM     37  C   UNL     1      -6.254   2.465   4.746  1.00  0.00     0.010 A 
ATOM     38  C   UNL     1      -7.178   3.514   4.848  1.00  0.00    -0.014 A 
BRANCH  38  39
ATOM     39  C   UNL     1      -6.769   4.899   4.511  1.00  0.00     0.031 A 
ATOM     40  C   UNL     1      -6.800   5.418   3.106  1.00  0.00     0.074 A 
ATOM     41  C   UNL     1      -6.331   5.688   5.510  1.00  0.00     0.049 A 
ATOM     42  N   UNL     1      -6.552   6.629   2.679  1.00  0.00    -0.248 NA
ATOM     43  C   UNL     1      -7.146   4.463   2.043  1.00  0.00     0.031 C 
ATOM     44  C   UNL     1      -6.195   5.272   6.907  1.00  0.00     0.029 A 
ATOM     45  N   UNL     1      -5.913   6.994   5.505  1.00  0.00    -0.354 N 
ATOM     46  C   UNL     1      -6.711   6.590   1.301  1.00  0.00     0.074 A 
ATOM     47  C   UNL     1      -7.058   5.226   0.959  1.00  0.00     0.031 C 
ATOM     48  C   UNL     1      -5.732   6.306   7.627  1.00  0.00     0.029 A 
ATOM     49  C   UNL     1      -5.535   7.452   6.744  1.00  0.00     0.049 A 
ATOM     50  H   UNL     1      -5.886   7.549   4.693  1.00  0.00     0.167 HD
ATOM     51  C   UNL     1      -6.606   7.607   0.412  1.00  0.00     0.034 A 
ATOM     52  C   UNL     1      -5.092   8.662   7.133  1.00  0.00     0.034 A 
ATOM     53  C   UNL     1      -6.274   8.964   0.759  1.00  0.00     0.049 A 
ATOM     54  C   UNL     1      -4.990   9.773   6.130  1.00  0.00     0.074 A 
ATOM     55  C   UNL     1      -6.221  10.073  -0.070  1.00  0.00     0.029 A 
ATOM     56  N   UNL     1      -5.922   9.399   2.027  1.00  0.00    -0.354 N 
ATOM     57  N   UNL     1      -5.302   9.758   4.857  1.00  0.00    -0.248 NA
ATOM     58  C   UNL     1      -4.507  11.073   6.617  1.00  0.00     0.031 C 
ATOM     59  C   UNL     1      -5.824  11.175   0.694  1.00  0.00     0.029 A 
ATOM     60  C   UNL     1      -5.638  10.755   2.001  1.00  0.00     0.049 A 
ATOM     61  H   UNL     1      -5.880   8.829   2.828  1.00  0.00     0.167 HD
ATOM     62  C   UNL     1      -5.067  11.046   4.393  1.00  0.00     0.074 A 
ATOM     63  C   UNL     1      -4.604  11.822   5.525  1.00  0.00     0.031 C 
ATOM     64  C   UNL     1      -5.209  11.531   3.136  1.00  0.00     0.034 A 
BRANCH  51  65
ATOM     65  C   UNL     1      -6.924   7.321  -1.030  1.00  0.00     0.023 A 
ATOM     66  C   UNL     1      -8.275   7.246  -1.424  1.00  0.00     0.012 A 
ATOM     67  C   UNL     1      -5.911   7.253  -2.005  1.00  0.00     0.148 A 
ATOM     68  C   UNL     1      -8.614   7.098  -2.767  1.00  0.00     0.002 A 
ATOM     69  C   UNL     1      -6.258   7.133  -3.346  1.00  0.00     0.091 A 
ATOM     70  F   UNL     1      -4.633   7.319  -1.604  1.00  0.00    -0.205 F 
ATOM     71  C   UNL     1      -7.608   7.052  -3.728  1.00  0.00     0.022 A 
BRANCH  69  72
ATOM     72  S   UNL     1      -5.044   7.120  -4.671  1.00  0.00     0.127 S 
ATOM     73  O   UNL     1      -5.178   5.755  -5.178  1.00  0.00    -0.237 OA
ATOM     74  O   UNL     1      -5.556   8.156  -5.567  1.00  0.00    -0.237 OA
ATOM     75  O   UNL     1      -3.764   7.426  -4.048  1.00  0.00    -0.744 OA
ENDBRANCH  69  72
ENDBRANCH  51  65
BRANCH  52  76
ATOM     76  C   UNL     1      -4.796   8.889   8.572  1.00  0.00     0.023 A 
ATOM     77  C   UNL     1      -5.731   9.585   9.361  1.00  0.00     0.012 A 
ATOM     78  C   UNL     1      -3.651   8.337   9.175  1.00  0.00     0.148 A 
ATOM     79  C   UNL     1      -5.528   9.731  10.732  1.00  0.00     0.002 A 
ATOM     80  C   UNL     1      -3.473   8.454  10.548  1.00  0.00     0.091 A 
ATOM     81  F   UNL     1      -2.782   7.676   8.397  1.00  0.00    -0.205 F 
ATOM     82  C   UNL     1      -4.406   9.158  11.327  1.00  0.00     0.022 A 
BRANCH  80  83
ATOM     83  S   UNL     1      -2.118   7.665  11.423  1.00  0.00     0.127 S 
ATOM     84  O   UNL     1      -1.420   8.816  11.991  1.00  0.00    -0.237 OA
ATOM     85  O   UNL     1      -2.834   6.837  12.393  1.00  0.00    -0.237 OA
ATOM     86  O   UNL     1      -1.374   6.920  10.417  1.00  0.00    -0.744 OA
ENDBRANCH  80  83
ENDBRANCH  52  76
BRANCH  64  87
ATOM     87  C   UNL     1      -4.853  12.973   2.892  1.00  0.00     0.023 A 
ATOM     88  C   UNL     1      -3.497  13.333   2.769  1.00  0.00     0.012 A 
ATOM     89  C   UNL     1      -5.853  13.941   2.671  1.00  0.00     0.148 A 
ATOM     90  C   UNL     1      -3.139  14.639   2.438  1.00  0.00     0.002 A 
ATOM     91  C   UNL     1      -5.489  15.233   2.310  1.00  0.00     0.091 A 
ATOM     92  F   UNL     1      -7.136  13.574   2.803  1.00  0.00    -0.205 F 
ATOM     93  C   UNL     1      -4.134  15.585   2.197  1.00  0.00     0.022 A 
BRANCH  91  94
ATOM     94  S   UNL     1      -6.694  16.505   1.911  1.00  0.00     0.127 S 
ATOM     95  O   UNL     1      -6.492  17.459   3.001  1.00  0.00    -0.237 OA
ATOM     96  O   UNL     1      -6.232  16.968   0.602  1.00  0.00    -0.237 OA
ATOM     97  O   UNL     1      -7.992  15.845   1.900  1.00  0.00    -0.744 OA
ENDBRANCH  91  94
ENDBRANCH  64  87
ENDBRANCH  38  39
ENDBRANCH  31  33
ENDBRANCH  30  31
ENDBRANCH  29  30
ENDBRANCH  28  29
ENDBRANCH  27  28
ENDBRANCH   1  27
TORSDOF 22
