REMARK SMILES CCCCCCNC(=O)Oc1cccc(-c2ccc([C@H](C)C(=O)OCCOCCOCCOC(=O)c3ccc(-c4c5nc(c(-c6cccc(S(=O)(=O)[O-])c6F)c6ccc([nH]6)c(-c6cccc(S(=O)(=O)[O-])c6F)c6nc(c(-c7cccc(S(=O)(=O)[O-])c7F)c7ccc4[nH]7)C=C6)C=C5)cc3)cc2F)c1
REMARK SMILES IDX 25 1 24 2 22 3 23 4 20 5 21 6 19 7 16 8 17 9 100 10 18 11
REMARK SMILES IDX 99 12 101 13 15 14 11 15 12 16 102 17 13 18 14 19 10 20 8 21
REMARK SMILES IDX 7 22 9 24 6 25 5 26 4 27 3 28 2 29 1 30 26 31 27 32 28 33
REMARK SMILES IDX 29 34 30 35 31 36 32 37 33 38 34 39 35 40 36 41 37 42 98 43
REMARK SMILES IDX 38 44 97 45 39 46 40 47 41 48 91 49 42 50 96 51 90 52 92 53
REMARK SMILES IDX 43 54 95 55 89 56 88 57 44 59 76 60 56 61 75 62 57 63 60 64
REMARK SMILES IDX 74 65 93 66 58 67 59 68 73 70 94 71 61 72 45 73 46 74 54 75
REMARK SMILES IDX 47 76 49 77 55 78 48 79 50 80 51 81 52 82 53 83 77 84 78 85
REMARK SMILES IDX 86 86 79 87 81 88 87 89 80 90 82 91 83 92 84 93 85 94 62 95
REMARK SMILES IDX 63 96 71 97 64 98 66 99 72 100 65 101 67 102 68 103 69 104
REMARK SMILES IDX 70 105
REMARK H PARENT 7 23 92 58 60 69
REMARK Flexibility Score: inf
ROOT
ATOM      1  C   UNL     1      -1.736  14.073  -7.365  1.00  0.00     0.261 C 
ENDROOT
BRANCH   1   2
ATOM      2  O   UNL     1      -2.799  13.146  -7.053  1.00  0.00    -0.463 OA
BRANCH   2   3
ATOM      3  C   UNL     1      -3.488  12.684  -8.129  1.00  0.00     0.313 C 
ATOM      4  O   UNL     1      -3.233  13.039  -9.277  1.00  0.00    -0.252 OA
BRANCH   3   5
ATOM      5  C   UNL     1      -4.545  11.606  -7.814  1.00  0.00     0.126 C 
ATOM      6  C   UNL     1      -4.585  11.173  -6.337  1.00  0.00     0.025 C 
BRANCH   5   7
ATOM      7  C   UNL     1      -5.935  11.991  -8.328  1.00  0.00    -0.031 A 
ATOM      8  C   UNL     1      -8.473  12.981  -9.073  1.00  0.00     0.018 A 
ATOM      9  C   UNL     1      -8.356  12.018  -8.067  1.00  0.00     0.012 A 
ATOM     10  C   UNL     1      -7.328  13.350  -9.774  1.00  0.00     0.131 A 
ATOM     11  C   UNL     1      -7.104  11.518  -7.710  1.00  0.00     0.005 A 
ATOM     12  C   UNL     1      -6.087  12.843  -9.432  1.00  0.00     0.044 A 
ATOM     13  F   UNL     1      -7.397  14.229 -10.787  1.00  0.00    -0.206 F 
BRANCH   8  14
ATOM     14  C   UNL     1      -9.769  13.538  -9.424  1.00  0.00    -0.012 A 
ATOM     15  C   UNL     1     -11.541  13.780 -11.039  1.00  0.00     0.133 A 
ATOM     16  C   UNL     1     -12.282  14.546 -10.144  1.00  0.00     0.047 A 
ATOM     17  C   UNL     1     -10.279  13.311 -10.701  1.00  0.00     0.056 A 
ATOM     18  C   UNL     1     -11.767  14.806  -8.875  1.00  0.00     0.004 A 
ATOM     19  C   UNL     1     -10.519  14.295  -8.512  1.00  0.00     0.009 A 
BRANCH  15  20
ATOM     20  O   UNL     1     -12.055  13.586 -12.325  1.00  0.00    -0.410 OA
BRANCH  20  21
ATOM     21  C   UNL     1     -11.894  12.331 -12.892  1.00  0.00     0.412 C 
ATOM     22  N   UNL     1     -12.084  12.327 -14.240  1.00  0.00    -0.321 N 
ATOM     23  H   UNL     1     -11.995  11.463 -14.703  1.00  0.00     0.167 HD
ATOM     24  O   UNL     1     -11.610  11.292 -12.294  1.00  0.00    -0.224 OA
BRANCH  22  25
ATOM     25  C   UNL     1     -12.406  13.479 -15.053  1.00  0.00     0.119 C 
BRANCH  25  26
ATOM     26  C   UNL     1     -11.476  13.608 -16.256  1.00  0.00     0.021 C 
BRANCH  26  27
ATOM     27  C   UNL     1     -11.562  12.449 -17.254  1.00  0.00     0.002 C 
BRANCH  27  28
ATOM     28  C   UNL     1     -12.961  12.172 -17.814  1.00  0.00    -0.000 C 
BRANCH  28  29
ATOM     29  C   UNL     1     -13.628  13.359 -18.513  1.00  0.00    -0.003 C 
ATOM     30  C   UNL     1     -12.864  13.837 -19.738  1.00  0.00     0.004 C 
ENDBRANCH  28  29
ENDBRANCH  27  28
ENDBRANCH  26  27
ENDBRANCH  25  26
ENDBRANCH  22  25
ENDBRANCH  20  21
ENDBRANCH  15  20
ENDBRANCH   8  14
ENDBRANCH   5   7
ENDBRANCH   3   5
ENDBRANCH   2   3
ENDBRANCH   1   2
BRANCH   1  31
ATOM     31  C   UNL     1      -0.309  13.506  -7.274  1.00  0.00     0.202 C 
BRANCH  31  32
ATOM     32  O   UNL     1       0.058  12.422  -8.122  1.00  0.00    -0.376 OA
BRANCH  32  33
ATOM     33  C   UNL     1      -0.733  11.244  -8.109  1.00  0.00     0.188 C 
BRANCH  33  34
ATOM     34  C   UNL     1      -1.002  10.591  -6.752  1.00  0.00     0.188 C 
BRANCH  34  35
ATOM     35  O   UNL     1      -1.021  11.485  -5.656  1.00  0.00    -0.376 OA
BRANCH  35  36
ATOM     36  C   UNL     1      -0.684  10.997  -4.362  1.00  0.00     0.202 C 
BRANCH  36  37
ATOM     37  C   UNL     1       0.656  10.246  -4.195  1.00  0.00     0.261 C 
BRANCH  37  38
ATOM     38  O   UNL     1       0.860   9.066  -5.001  1.00  0.00    -0.460 OA
BRANCH  38  39
ATOM     39  C   UNL     1      -0.109   8.116  -5.002  1.00  0.00     0.338 C 
ATOM     40  O   UNL     1      -1.026   8.027  -4.204  1.00  0.00    -0.246 OA
BRANCH  39  41
ATOM     41  C   UNL     1      -0.050   7.389  -6.306  1.00  0.00     0.060 A 
ATOM     42  C   UNL     1      -1.255   7.166  -6.994  1.00  0.00     0.016 A 
ATOM     43  C   UNL     1       1.159   7.032  -6.909  1.00  0.00     0.016 A 
ATOM     44  C   UNL     1      -1.256   6.560  -8.257  1.00  0.00     0.010 A 
ATOM     45  C   UNL     1       1.155   6.407  -8.165  1.00  0.00     0.010 A 
ATOM     46  C   UNL     1      -0.053   6.139  -8.836  1.00  0.00    -0.014 A 
BRANCH  46  47
ATOM     47  C   UNL     1      -0.053   5.253 -10.033  1.00  0.00     0.031 A 
ATOM     48  C   UNL     1       0.119   3.771  -9.817  1.00  0.00     0.074 A 
ATOM     49  C   UNL     1      -0.169   5.729 -11.287  1.00  0.00     0.049 A 
ATOM     50  N   UNL     1       0.245   2.809 -10.694  1.00  0.00    -0.248 NA
ATOM     51  C   UNL     1       0.161   3.317  -8.417  1.00  0.00     0.031 C 
ATOM     52  C   UNL     1      -0.373   7.128 -11.650  1.00  0.00     0.029 A 
ATOM     53  N   UNL     1      -0.099   5.075 -12.497  1.00  0.00    -0.354 N 
ATOM     54  C   UNL     1       0.430   1.646  -9.957  1.00  0.00     0.074 A 
ATOM     55  C   UNL     1       0.395   2.022  -8.560  1.00  0.00     0.031 C 
ATOM     56  C   UNL     1      -0.385   7.234 -12.992  1.00  0.00     0.029 A 
ATOM     57  C   UNL     1      -0.150   5.917 -13.584  1.00  0.00     0.049 A 
ATOM     58  H   UNL     1      -0.021   4.097 -12.576  1.00  0.00     0.167 HD
ATOM     59  C   UNL     1       0.613   0.379 -10.396  1.00  0.00     0.034 A 
ATOM     60  C   UNL     1       0.008   5.661 -14.901  1.00  0.00     0.034 A 
ATOM     61  C   UNL     1       0.633  -0.005 -11.780  1.00  0.00     0.049 A 
ATOM     62  C   UNL     1       0.271   4.247 -15.363  1.00  0.00     0.074 A 
ATOM     63  C   UNL     1       0.744  -1.277 -12.316  1.00  0.00     0.029 A 
ATOM     64  N   UNL     1       0.572   0.874 -12.849  1.00  0.00    -0.354 N 
ATOM     65  N   UNL     1       0.322   3.141 -14.661  1.00  0.00    -0.248 NA
ATOM     66  C   UNL     1       0.481   4.044 -16.807  1.00  0.00     0.031 C 
ATOM     67  C   UNL     1       0.806  -1.160 -13.708  1.00  0.00     0.029 A 
ATOM     68  C   UNL     1       0.682   0.179 -14.041  1.00  0.00     0.049 A 
ATOM     69  H   UNL     1       0.465   1.850 -12.772  1.00  0.00     0.167 HD
ATOM     70  C   UNL     1       0.535   2.113 -15.576  1.00  0.00     0.074 A 
ATOM     71  C   UNL     1       0.585   2.724 -16.887  1.00  0.00     0.031 C 
ATOM     72  C   UNL     1       0.688   0.784 -15.349  1.00  0.00     0.034 A 
BRANCH  59  73
ATOM     73  C   UNL     1       0.825  -0.695  -9.360  1.00  0.00     0.023 A 
ATOM     74  C   UNL     1      -0.246  -1.113  -8.544  1.00  0.00     0.012 A 
ATOM     75  C   UNL     1       2.081  -1.319  -9.227  1.00  0.00     0.148 A 
ATOM     76  C   UNL     1      -0.058  -2.109  -7.585  1.00  0.00     0.002 A 
ATOM     77  C   UNL     1       2.247  -2.343  -8.305  1.00  0.00     0.091 A 
ATOM     78  F   UNL     1       3.092  -0.890  -9.997  1.00  0.00    -0.205 F 
ATOM     79  C   UNL     1       1.183  -2.730  -7.473  1.00  0.00     0.022 A 
BRANCH  77  80
ATOM     80  S   UNL     1       3.783  -3.259  -8.142  1.00  0.00     0.127 S 
ATOM     81  O   UNL     1       4.261  -2.802  -6.839  1.00  0.00    -0.237 OA
ATOM     82  O   UNL     1       3.316  -4.646  -8.168  1.00  0.00    -0.237 OA
ATOM     83  O   UNL     1       4.605  -2.873  -9.280  1.00  0.00    -0.744 OA
ENDBRANCH  77  80
ENDBRANCH  59  73
BRANCH  60  84
ATOM     84  C   UNL     1      -0.090   6.766 -15.900  1.00  0.00     0.023 A 
ATOM     85  C   UNL     1      -1.167   6.784 -16.808  1.00  0.00     0.012 A 
ATOM     86  C   UNL     1       0.877   7.789 -15.965  1.00  0.00     0.148 A 
ATOM     87  C   UNL     1      -1.266   7.783 -17.779  1.00  0.00     0.002 A 
ATOM     88  C   UNL     1       0.744   8.810 -16.899  1.00  0.00     0.091 A 
ATOM     89  F   UNL     1       1.906   7.743 -15.108  1.00  0.00    -0.205 F 
ATOM     90  C   UNL     1      -0.317   8.801 -17.817  1.00  0.00     0.022 A 
BRANCH  88  91
ATOM     91  S   UNL     1       1.855  10.221 -16.959  1.00  0.00     0.127 S 
ATOM     92  O   UNL     1       2.489  10.047 -18.264  1.00  0.00    -0.237 OA
ATOM     93  O   UNL     1       0.919  11.341 -16.874  1.00  0.00    -0.237 OA
ATOM     94  O   UNL     1       2.738  10.079 -15.810  1.00  0.00    -0.744 OA
ENDBRANCH  88  91
ENDBRANCH  60  84
BRANCH  72  95
ATOM     95  C   UNL     1       0.896  -0.124 -16.537  1.00  0.00     0.023 A 
ATOM     96  C   UNL     1       2.119  -0.101 -17.235  1.00  0.00     0.012 A 
ATOM     97  C   UNL     1      -0.087  -1.068 -16.901  1.00  0.00     0.148 A 
ATOM     98  C   UNL     1       2.350  -0.980 -18.294  1.00  0.00     0.002 A 
ATOM     99  C   UNL     1       0.170  -1.975 -17.923  1.00  0.00     0.091 A 
ATOM    100  F   UNL     1      -1.249  -1.069 -16.232  1.00  0.00    -0.205 F 
ATOM    101  C   UNL     1       1.382  -1.924 -18.629  1.00  0.00     0.022 A 
BRANCH  99 102
ATOM    102  S   UNL     1      -0.973  -3.290 -18.363  1.00  0.00     0.127 S 
ATOM    103  O   UNL     1      -1.388  -2.888 -19.706  1.00  0.00    -0.237 OA
ATOM    104  O   UNL     1      -0.114  -4.473 -18.319  1.00  0.00    -0.237 OA
ATOM    105  O   UNL     1      -2.026  -3.266 -17.356  1.00  0.00    -0.744 OA
ENDBRANCH  99 102
ENDBRANCH  72  95
ENDBRANCH  46  47
ENDBRANCH  39  41
ENDBRANCH  38  39
ENDBRANCH  37  38
ENDBRANCH  36  37
ENDBRANCH  35  36
ENDBRANCH  34  35
ENDBRANCH  33  34
ENDBRANCH  32  33
ENDBRANCH  31  32
ENDBRANCH   1  31
TORSDOF 29
