REMARK SMILES CC[C@@H](C(=O)OCCOCCOCCOC(=O)c1ccc(-c2c3nc(c(-c4cccc(S(=O)(=O)[O-])c4F)c4ccc([nH]4)c(-c4cccc(S(=O)(=O)[O-])c4F)c4nc(c(-c5cccc(S(=O)(=O)[O-])c5F)c5ccc2[nH]5)C=C4)C=C3)cc1)[N@@H+]1CCc2ccc(N)cc2C1
REMARK SMILES IDX 11 1 10 2 9 3 8 4 7 5 6 6 4 7 5 8 3 9 2 10 1 11 81 12 82 13
REMARK SMILES IDX 91 14 83 16 90 17 84 18 89 19 85 20 87 21 86 22 88 23 12 26
REMARK SMILES IDX 13 27 14 28 15 29 16 30 17 31 18 32 19 33 80 34 20 35 79 36
REMARK SMILES IDX 21 37 22 38 23 39 73 40 24 41 78 42 72 43 74 44 25 45 77 46
REMARK SMILES IDX 71 47 70 48 26 50 58 51 38 52 57 53 39 54 42 55 56 56 75 57
REMARK SMILES IDX 40 58 41 59 55 61 76 62 43 63 27 64 28 65 36 66 29 67 31 68
REMARK SMILES IDX 37 69 30 70 32 71 33 72 34 73 35 74 59 75 60 76 68 77 61 78
REMARK SMILES IDX 63 79 69 80 62 81 64 82 65 83 66 84 67 85 44 86 45 87 53 88
REMARK SMILES IDX 46 89 48 90 54 91 47 92 49 93 50 94 51 95 52 96
REMARK H PARENT 81 15 88 24 88 25 74 49 42 60
REMARK Flexibility Score: inf
ROOT
ATOM      1  C   UNL     1      -3.166  -4.274   1.862  1.00  0.00     0.188 C 
ENDROOT
BRANCH   1   2
ATOM      2  C   UNL     1      -1.839  -5.097   1.925  1.00  0.00     0.188 C 
BRANCH   2   3
ATOM      3  O   UNL     1      -0.690  -4.588   1.185  1.00  0.00    -0.376 OA
BRANCH   3   4
ATOM      4  C   UNL     1       0.471  -4.320   2.013  1.00  0.00     0.202 C 
BRANCH   4   5
ATOM      5  C   UNL     1       1.891  -4.277   1.299  1.00  0.00     0.261 C 
BRANCH   5   6
ATOM      6  O   UNL     1       2.222  -3.025   0.599  1.00  0.00    -0.459 OA
BRANCH   6   7
ATOM      7  C   UNL     1       3.312  -2.895  -0.238  1.00  0.00     0.364 C 
ATOM      8  O   UNL     1       4.374  -3.463   0.003  1.00  0.00    -0.245 OA
BRANCH   7   9
ATOM      9  C   UNL     1       3.057  -2.014  -1.636  1.00  0.00     0.295 C 
BRANCH   9  10
ATOM     10  C   UNL     1       3.009  -0.466  -1.558  1.00  0.00     0.074 C 
ATOM     11  C   UNL     1       3.413   0.212  -0.257  1.00  0.00     0.011 C 
ENDBRANCH   9  10
BRANCH   9  12
ATOM     12  N   UNL     1       2.105  -2.696  -2.635  1.00  0.00    -0.319 N 
ATOM     13  C   UNL     1       1.162  -1.937  -3.567  1.00  0.00     0.268 C 
ATOM     14  C   UNL     1       1.225  -3.534  -1.865  1.00  0.00     0.300 C 
ATOM     15  H   UNL     1       2.788  -3.096  -3.279  1.00  0.00     0.349 HD
ATOM     16  C   UNL     1      -0.427  -2.409  -3.544  1.00  0.00     0.097 C 
ATOM     17  C   UNL     1       0.182  -2.643  -1.259  1.00  0.00     0.012 A 
ATOM     18  C   UNL     1      -0.860  -2.480  -2.103  1.00  0.00    -0.033 A 
ATOM     19  C   UNL     1       0.219  -1.704  -0.235  1.00  0.00     0.035 A 
ATOM     20  C   UNL     1      -2.053  -2.424  -1.456  1.00  0.00     0.006 A 
ATOM     21  C   UNL     1      -0.939  -1.288   0.360  1.00  0.00     0.032 A 
ATOM     22  C   UNL     1      -2.079  -1.831  -0.183  1.00  0.00     0.026 A 
BRANCH  21  23
ATOM     23  N   UNL     1      -0.900  -0.569   1.536  1.00  0.00    -0.399 N 
ATOM     24  H   UNL     1      -1.738  -0.272   1.959  1.00  0.00     0.156 HD
ATOM     25  H   UNL     1      -0.035  -0.353   1.953  1.00  0.00     0.156 HD
ENDBRANCH  21  23
ENDBRANCH   9  12
ENDBRANCH   7   9
ENDBRANCH   6   7
ENDBRANCH   5   6
ENDBRANCH   4   5
ENDBRANCH   3   4
ENDBRANCH   2   3
ENDBRANCH   1   2
BRANCH   1  26
ATOM     26  O   UNL     1      -3.011  -3.024   2.526  1.00  0.00    -0.376 OA
BRANCH  26  27
ATOM     27  C   UNL     1      -4.157  -2.290   2.947  1.00  0.00     0.202 C 
BRANCH  27  28
ATOM     28  C   UNL     1      -5.437  -2.132   2.100  1.00  0.00     0.261 C 
BRANCH  28  29
ATOM     29  O   UNL     1      -5.334  -2.395   0.702  1.00  0.00    -0.460 OA
BRANCH  29  30
ATOM     30  C   UNL     1      -5.280  -1.333  -0.154  1.00  0.00     0.338 C 
ATOM     31  O   UNL     1      -5.096  -0.177   0.138  1.00  0.00    -0.246 OA
BRANCH  30  32
ATOM     32  C   UNL     1      -5.372  -1.881  -1.541  1.00  0.00     0.060 A 
ATOM     33  C   UNL     1      -4.637  -1.299  -2.587  1.00  0.00     0.016 A 
ATOM     34  C   UNL     1      -6.119  -3.039  -1.777  1.00  0.00     0.016 A 
ATOM     35  C   UNL     1      -4.583  -1.928  -3.841  1.00  0.00     0.010 A 
ATOM     36  C   UNL     1      -6.113  -3.629  -3.036  1.00  0.00     0.010 A 
ATOM     37  C   UNL     1      -5.345  -3.082  -4.074  1.00  0.00    -0.014 A 
BRANCH  37  38
ATOM     38  C   UNL     1      -5.590  -3.598  -5.440  1.00  0.00     0.031 A 
ATOM     39  C   UNL     1      -6.718  -2.967  -6.204  1.00  0.00     0.074 A 
ATOM     40  C   UNL     1      -4.966  -4.691  -5.914  1.00  0.00     0.049 A 
ATOM     41  N   UNL     1      -7.288  -3.356  -7.312  1.00  0.00    -0.248 NA
ATOM     42  C   UNL     1      -7.298  -1.744  -5.620  1.00  0.00     0.031 C 
ATOM     43  C   UNL     1      -3.871  -5.402  -5.257  1.00  0.00     0.029 A 
ATOM     44  N   UNL     1      -5.215  -5.429  -7.047  1.00  0.00    -0.354 N 
ATOM     45  C   UNL     1      -8.310  -2.445  -7.540  1.00  0.00     0.074 A 
ATOM     46  C   UNL     1      -8.284  -1.483  -6.462  1.00  0.00     0.031 C 
ATOM     47  C   UNL     1      -3.573  -6.502  -5.975  1.00  0.00     0.029 A 
ATOM     48  C   UNL     1      -4.476  -6.588  -7.123  1.00  0.00     0.049 A 
ATOM     49  H   UNL     1      -5.860  -5.155  -7.738  1.00  0.00     0.167 HD
ATOM     50  C   UNL     1      -9.198  -2.409  -8.557  1.00  0.00     0.034 A 
ATOM     51  C   UNL     1      -4.550  -7.611  -8.000  1.00  0.00     0.034 A 
ATOM     52  C   UNL     1      -9.240  -3.366  -9.621  1.00  0.00     0.049 A 
ATOM     53  C   UNL     1      -5.570  -7.561  -9.113  1.00  0.00     0.074 A 
ATOM     54  C   UNL     1     -10.082  -3.395 -10.716  1.00  0.00     0.029 A 
ATOM     55  N   UNL     1      -8.415  -4.475  -9.713  1.00  0.00    -0.354 N 
ATOM     56  N   UNL     1      -6.437  -6.619  -9.400  1.00  0.00    -0.248 NA
ATOM     57  C   UNL     1      -5.610  -8.707 -10.037  1.00  0.00     0.031 C 
ATOM     58  C   UNL     1      -9.774  -4.533 -11.467  1.00  0.00     0.029 A 
ATOM     59  C   UNL     1      -8.732  -5.202 -10.844  1.00  0.00     0.049 A 
ATOM     60  H   UNL     1      -7.708  -4.709  -9.069  1.00  0.00     0.167 HD
ATOM     61  C   UNL     1      -7.093  -7.038 -10.555  1.00  0.00     0.074 A 
ATOM     62  C   UNL     1      -6.518  -8.315 -10.922  1.00  0.00     0.031 C 
ATOM     63  C   UNL     1      -8.093  -6.430 -11.239  1.00  0.00     0.034 A 
BRANCH  50  64
ATOM     64  C   UNL     1     -10.178  -1.273  -8.567  1.00  0.00     0.023 A 
ATOM     65  C   UNL     1      -9.739   0.010  -8.952  1.00  0.00     0.012 A 
ATOM     66  C   UNL     1     -11.524  -1.472  -8.212  1.00  0.00     0.148 A 
ATOM     67  C   UNL     1     -10.624   1.085  -8.963  1.00  0.00     0.002 A 
ATOM     68  C   UNL     1     -12.408  -0.402  -8.259  1.00  0.00     0.091 A 
ATOM     69  F   UNL     1     -11.907  -2.692  -7.809  1.00  0.00    -0.205 F 
ATOM     70  C   UNL     1     -11.959   0.877  -8.627  1.00  0.00     0.022 A 
BRANCH  68  71
ATOM     71  S   UNL     1     -14.157  -0.587  -7.897  1.00  0.00     0.127 S 
ATOM     72  O   UNL     1     -14.248   0.013  -6.567  1.00  0.00    -0.237 OA
ATOM     73  O   UNL     1     -14.779   0.198  -8.964  1.00  0.00    -0.237 OA
ATOM     74  O   UNL     1     -14.428  -2.016  -7.963  1.00  0.00    -0.744 OA
ENDBRANCH  68  71
ENDBRANCH  50  64
BRANCH  51  75
ATOM     75  C   UNL     1      -3.614  -8.767  -7.894  1.00  0.00     0.023 A 
ATOM     76  C   UNL     1      -2.620  -8.935  -8.879  1.00  0.00     0.012 A 
ATOM     77  C   UNL     1      -3.704  -9.704  -6.846  1.00  0.00     0.148 A 
ATOM     78  C   UNL     1      -1.754 -10.029  -8.840  1.00  0.00     0.002 A 
ATOM     79  C   UNL     1      -2.807 -10.766  -6.787  1.00  0.00     0.091 A 
ATOM     80  F   UNL     1      -4.670  -9.543  -5.931  1.00  0.00    -0.205 F 
ATOM     81  C   UNL     1      -1.842 -10.939  -7.791  1.00  0.00     0.022 A 
BRANCH  79  82
ATOM     82  S   UNL     1      -2.779 -11.927  -5.415  1.00  0.00     0.127 S 
ATOM     83  O   UNL     1      -3.352 -13.124  -6.024  1.00  0.00    -0.237 OA
ATOM     84  O   UNL     1      -1.349 -12.012  -5.117  1.00  0.00    -0.237 OA
ATOM     85  O   UNL     1      -3.574 -11.307  -4.364  1.00  0.00    -0.744 OA
ENDBRANCH  79  82
ENDBRANCH  51  75
BRANCH  63  86
ATOM     86  C   UNL     1      -8.612  -7.093 -12.487  1.00  0.00     0.023 A 
ATOM     87  C   UNL     1      -9.477  -8.198 -12.380  1.00  0.00     0.012 A 
ATOM     88  C   UNL     1      -8.353  -6.533 -13.755  1.00  0.00     0.148 A 
ATOM     89  C   UNL     1     -10.069  -8.745 -13.519  1.00  0.00     0.002 A 
ATOM     90  C   UNL     1      -8.981  -7.055 -14.879  1.00  0.00     0.091 A 
ATOM     91  F   UNL     1      -7.514  -5.490 -13.833  1.00  0.00    -0.205 F 
ATOM     92  C   UNL     1      -9.834  -8.165 -14.764  1.00  0.00     0.022 A 
BRANCH  90  93
ATOM     93  S   UNL     1      -8.817  -6.310 -16.506  1.00  0.00     0.127 S 
ATOM     94  O   UNL     1      -7.971  -7.283 -17.195  1.00  0.00    -0.237 OA
ATOM     95  O   UNL     1     -10.204  -6.269 -16.972  1.00  0.00    -0.237 OA
ATOM     96  O   UNL     1      -8.215  -5.001 -16.289  1.00  0.00    -0.744 OA
ENDBRANCH  90  93
ENDBRANCH  63  86
ENDBRANCH  37  38
ENDBRANCH  30  32
ENDBRANCH  29  30
ENDBRANCH  28  29
ENDBRANCH  27  28
ENDBRANCH  26  27
ENDBRANCH   1  26
TORSDOF 23
