REMARK SMILES COc1ccc(C(=O)OCCOCCOCCOC(=O)c2ccc(-c3c4nc(c(-c5cccc(S(=O)(=O)[O-])c5F)c5ccc([nH]5)c(-c5cccc(S(=O)(=O)[O-])c5F)c5nc(c(-c6cccc(S(=O)(=O)[O-])c6F)c6ccc3[nH]6)C=C5)C=C4)cc2)cc1NC(=O)c1ccccc1[N+](=O)[O-]
REMARK SMILES IDX 13 1 12 2 11 3 10 4 9 5 7 6 8 7 6 8 3 9 4 10 85 11 5 12
REMARK SMILES IDX 84 13 2 14 1 15 86 16 87 17 88 19 89 20 90 21 94 22 91 23
REMARK SMILES IDX 93 24 92 25 95 26 96 27 97 28 14 29 15 30 16 31 17 32 18 33
REMARK SMILES IDX 19 34 20 35 21 36 22 37 83 38 23 39 82 40 24 41 25 42 26 43
REMARK SMILES IDX 76 44 27 45 81 46 75 47 77 48 28 49 80 50 74 51 73 52 29 54
REMARK SMILES IDX 61 55 41 56 60 57 42 58 45 59 59 60 78 61 43 62 44 63 58 65
REMARK SMILES IDX 79 66 46 67 30 68 31 69 39 70 32 71 34 72 40 73 33 74 35 75
REMARK SMILES IDX 36 76 37 77 38 78 62 79 63 80 71 81 64 82 66 83 72 84 65 85
REMARK SMILES IDX 67 86 68 87 69 88 70 89 47 90 48 91 56 92 49 93 51 94 57 95
REMARK SMILES IDX 50 96 52 97 53 98 54 99 55 100
REMARK H PARENT 86 18 77 53 45 64
REMARK Flexibility Score: inf
ROOT
ATOM      1  C   UNL     1       2.022  -2.686   7.710  1.00  0.00     0.188 C 
ENDROOT
BRANCH   1   2
ATOM      2  O   UNL     1       2.531  -3.838   8.352  1.00  0.00    -0.376 OA
BRANCH   2   3
ATOM      3  C   UNL     1       3.278  -4.802   7.631  1.00  0.00     0.202 C 
BRANCH   3   4
ATOM      4  C   UNL     1       2.872  -5.246   6.224  1.00  0.00     0.261 C 
BRANCH   4   5
ATOM      5  O   UNL     1       2.666  -4.168   5.304  1.00  0.00    -0.460 OA
BRANCH   5   6
ATOM      6  C   UNL     1       1.408  -4.056   4.801  1.00  0.00     0.338 C 
ATOM      7  O   UNL     1       0.465  -4.791   5.045  1.00  0.00    -0.246 OA
BRANCH   6   8
ATOM      8  C   UNL     1       1.292  -2.850   3.942  1.00  0.00     0.062 A 
ATOM      9  C   UNL     1       1.033  -0.731   2.168  1.00  0.00     0.142 A 
ATOM     10  C   UNL     1      -0.094  -1.210   2.842  1.00  0.00     0.049 A 
ATOM     11  C   UNL     1       2.304  -1.291   2.381  1.00  0.00     0.084 A 
ATOM     12  C   UNL     1       0.029  -2.310   3.690  1.00  0.00     0.019 A 
ATOM     13  C   UNL     1       2.426  -2.270   3.357  1.00  0.00     0.045 A 
BRANCH   9  14
ATOM     14  O   UNL     1       0.879   0.337   1.321  1.00  0.00    -0.495 OA
ATOM     15  C   UNL     1       0.648  -0.090  -0.023  1.00  0.00     0.278 C 
ENDBRANCH   9  14
BRANCH  11  16
ATOM     16  N   UNL     1       3.353  -0.878   1.534  1.00  0.00    -0.319 N 
ATOM     17  C   UNL     1       4.598  -1.382   1.236  1.00  0.00     0.262 C 
ATOM     18  H   UNL     1       3.150  -0.046   1.048  1.00  0.00     0.170 HD
ATOM     19  O   UNL     1       5.289  -0.843   0.371  1.00  0.00    -0.269 OA
BRANCH  17  20
ATOM     20  C   UNL     1       5.205  -2.501   1.975  1.00  0.00     0.117 A 
ATOM     21  C   UNL     1       6.306  -2.151   2.773  1.00  0.00     0.021 A 
ATOM     22  C   UNL     1       4.746  -3.824   1.987  1.00  0.00     0.282 A 
ATOM     23  C   UNL     1       6.878  -3.084   3.638  1.00  0.00     0.001 A 
ATOM     24  C   UNL     1       5.303  -4.755   2.883  1.00  0.00     0.086 A 
ATOM     25  C   UNL     1       6.359  -4.376   3.714  1.00  0.00     0.007 A 
BRANCH  22  26
ATOM     26  N   UNL     1       3.629  -4.252   1.152  1.00  0.00     0.063 N 
ATOM     27  O   UNL     1       2.878  -5.120   1.619  1.00  0.00    -0.258 OA
ATOM     28  O   UNL     1       3.511  -3.744   0.032  1.00  0.00    -0.258 OA
ENDBRANCH  22  26
ENDBRANCH  17  20
ENDBRANCH  11  16
ENDBRANCH   6   8
ENDBRANCH   5   6
ENDBRANCH   4   5
ENDBRANCH   3   4
ENDBRANCH   2   3
ENDBRANCH   1   2
BRANCH   1  29
ATOM     29  C   UNL     1       2.977  -1.701   7.003  1.00  0.00     0.188 C 
BRANCH  29  30
ATOM     30  O   UNL     1       4.382  -1.829   7.106  1.00  0.00    -0.376 OA
BRANCH  30  31
ATOM     31  C   UNL     1       4.980  -1.895   8.390  1.00  0.00     0.202 C 
BRANCH  31  32
ATOM     32  C   UNL     1       4.601  -0.916   9.510  1.00  0.00     0.261 C 
BRANCH  32  33
ATOM     33  O   UNL     1       3.195  -0.710   9.694  1.00  0.00    -0.460 OA
BRANCH  33  34
ATOM     34  C   UNL     1       2.749   0.535   9.389  1.00  0.00     0.338 C 
ATOM     35  O   UNL     1       3.416   1.482   9.007  1.00  0.00    -0.246 OA
BRANCH  34  36
ATOM     36  C   UNL     1       1.273   0.534   9.379  1.00  0.00     0.060 A 
ATOM     37  C   UNL     1       0.618   0.869   8.184  1.00  0.00     0.016 A 
ATOM     38  C   UNL     1       0.543   0.231  10.528  1.00  0.00     0.016 A 
ATOM     39  C   UNL     1      -0.774   0.928   8.142  1.00  0.00     0.010 A 
ATOM     40  C   UNL     1      -0.852   0.316  10.491  1.00  0.00     0.010 A 
ATOM     41  C   UNL     1      -1.513   0.695   9.308  1.00  0.00    -0.014 A 
BRANCH  41  42
ATOM     42  C   UNL     1      -2.955   1.033   9.342  1.00  0.00     0.031 A 
ATOM     43  C   UNL     1      -3.362   2.373   9.888  1.00  0.00     0.074 A 
ATOM     44  C   UNL     1      -3.890   0.161   8.925  1.00  0.00     0.049 A 
ATOM     45  N   UNL     1      -4.558   2.868  10.066  1.00  0.00    -0.248 NA
ATOM     46  C   UNL     1      -2.269   3.272  10.296  1.00  0.00     0.031 C 
ATOM     47  C   UNL     1      -3.623  -1.170   8.386  1.00  0.00     0.029 A 
ATOM     48  N   UNL     1      -5.259   0.259   8.931  1.00  0.00    -0.354 N 
ATOM     49  C   UNL     1      -4.366   4.120  10.637  1.00  0.00     0.074 A 
ATOM     50  C   UNL     1      -2.939   4.306  10.782  1.00  0.00     0.031 C 
ATOM     51  C   UNL     1      -4.796  -1.787   8.158  1.00  0.00     0.029 A 
ATOM     52  C   UNL     1      -5.892  -0.901   8.553  1.00  0.00     0.049 A 
ATOM     53  H   UNL     1      -5.741   1.080   9.181  1.00  0.00     0.167 HD
ATOM     54  C   UNL     1      -5.292   5.038  11.000  1.00  0.00     0.034 A 
ATOM     55  C   UNL     1      -7.202  -1.222   8.557  1.00  0.00     0.034 A 
ATOM     56  C   UNL     1      -6.710   4.858  10.846  1.00  0.00     0.049 A 
ATOM     57  C   UNL     1      -8.217  -0.189   8.974  1.00  0.00     0.074 A 
ATOM     58  C   UNL     1      -7.725   5.756  11.122  1.00  0.00     0.029 A 
ATOM     59  N   UNL     1      -7.315   3.695  10.397  1.00  0.00    -0.354 N 
ATOM     60  N   UNL     1      -8.024   1.045   9.374  1.00  0.00    -0.248 NA
ATOM     61  C   UNL     1      -9.633  -0.580   8.906  1.00  0.00     0.031 C 
ATOM     62  C   UNL     1      -8.947   5.123  10.870  1.00  0.00     0.029 A 
ATOM     63  C   UNL     1      -8.691   3.843  10.406  1.00  0.00     0.049 A 
ATOM     64  H   UNL     1      -6.836   2.883  10.114  1.00  0.00     0.167 HD
ATOM     65  C   UNL     1      -9.291   1.586   9.577  1.00  0.00     0.074 A 
ATOM     66  C   UNL     1     -10.244   0.551   9.235  1.00  0.00     0.031 C 
ATOM     67  C   UNL     1      -9.633   2.823  10.018  1.00  0.00     0.034 A 
BRANCH  54  68
ATOM     68  C   UNL     1      -4.791   6.329  11.589  1.00  0.00     0.023 A 
ATOM     69  C   UNL     1      -4.149   7.273  10.763  1.00  0.00     0.012 A 
ATOM     70  C   UNL     1      -4.977   6.617  12.955  1.00  0.00     0.148 A 
ATOM     71  C   UNL     1      -3.666   8.468  11.294  1.00  0.00     0.002 A 
ATOM     72  C   UNL     1      -4.533   7.830  13.467  1.00  0.00     0.091 A 
ATOM     73  F   UNL     1      -5.564   5.695  13.731  1.00  0.00    -0.205 F 
ATOM     74  C   UNL     1      -3.866   8.751  12.642  1.00  0.00     0.022 A 
BRANCH  72  75
ATOM     75  S   UNL     1      -4.815   8.314  15.174  1.00  0.00     0.127 S 
ATOM     76  O   UNL     1      -3.483   8.145  15.752  1.00  0.00    -0.237 OA
ATOM     77  O   UNL     1      -5.247   9.705  15.034  1.00  0.00    -0.237 OA
ATOM     78  O   UNL     1      -5.840   7.412  15.680  1.00  0.00    -0.744 OA
ENDBRANCH  72  75
ENDBRANCH  54  68
BRANCH  55  79
ATOM     79  C   UNL     1      -7.627  -2.586   8.134  1.00  0.00     0.023 A 
ATOM     80  C   UNL     1      -8.309  -2.759   6.915  1.00  0.00     0.012 A 
ATOM     81  C   UNL     1      -7.329  -3.714   8.923  1.00  0.00     0.148 A 
ATOM     82  C   UNL     1      -8.707  -4.030   6.499  1.00  0.00     0.002 A 
ATOM     83  C   UNL     1      -7.680  -4.983   8.478  1.00  0.00     0.091 A 
ATOM     84  F   UNL     1      -6.695  -3.524  10.089  1.00  0.00    -0.205 F 
ATOM     85  C   UNL     1      -8.383  -5.142   7.273  1.00  0.00     0.022 A 
BRANCH  83  86
ATOM     86  S   UNL     1      -7.198  -6.479   9.346  1.00  0.00     0.127 S 
ATOM     87  O   UNL     1      -8.487  -6.979   9.818  1.00  0.00    -0.237 OA
ATOM     88  O   UNL     1      -6.588  -7.265   8.273  1.00  0.00    -0.237 OA
ATOM     89  O   UNL     1      -6.269  -6.053  10.383  1.00  0.00    -0.744 OA
ENDBRANCH  83  86
ENDBRANCH  55  79
BRANCH  67  90
ATOM     90  C   UNL     1     -11.100   3.152  10.132  1.00  0.00     0.023 A 
ATOM     91  C   UNL     1     -11.869   2.583  11.166  1.00  0.00     0.012 A 
ATOM     92  C   UNL     1     -11.695   4.093   9.267  1.00  0.00     0.148 A 
ATOM     93  C   UNL     1     -13.213   2.922  11.319  1.00  0.00     0.002 A 
ATOM     94  C   UNL     1     -13.022   4.463   9.455  1.00  0.00     0.091 A 
ATOM     95  F   UNL     1     -10.953   4.611   8.277  1.00  0.00    -0.205 F 
ATOM     96  C   UNL     1     -13.786   3.870  10.473  1.00  0.00     0.022 A 
BRANCH  94  97
ATOM     97  S   UNL     1     -13.812   5.745   8.476  1.00  0.00     0.127 S 
ATOM     98  O   UNL     1     -14.705   4.962   7.624  1.00  0.00    -0.237 OA
ATOM     99  O   UNL     1     -14.490   6.544   9.498  1.00  0.00    -0.237 OA
ATOM    100  O   UNL     1     -12.736   6.441   7.784  1.00  0.00    -0.744 OA
ENDBRANCH  94  97
ENDBRANCH  67  90
ENDBRANCH  41  42
ENDBRANCH  34  36
ENDBRANCH  33  34
ENDBRANCH  32  33
ENDBRANCH  31  32
ENDBRANCH  30  31
ENDBRANCH  29  30
ENDBRANCH   1  29
TORSDOF 24
