REMARK SMILES CC(C)[NH2+][C@]1(C(=O)OCCOCCOCCOC(=O)c2ccc(-c3c4nc(c(-c5cccc(S(=O)(=O)[O-])c5F)c5ccc([nH]5)c(-c5cccc(S(=O)(=O)[O-])c5F)c5nc(c(-c6cccc(S(=O)(=O)[O-])c6F)c6ccc3[nH]6)C=C5)C=C4)cc2)CC[C@H]([N@H+](C)C2CCCC2)C1
REMARK SMILES IDX 13 1 12 2 11 3 10 4 9 5 8 6 6 7 7 8 5 9 83 10 93 11 84 12
REMARK SMILES IDX 85 13 4 14 2 17 1 18 3 19 86 20 87 21 88 23 89 24 92 25
REMARK SMILES IDX 90 26 91 27 14 28 15 29 16 30 17 31 18 32 19 33 20 34 21 35
REMARK SMILES IDX 82 36 22 37 81 38 23 39 24 40 25 41 75 42 26 43 80 44 74 45
REMARK SMILES IDX 76 46 27 47 79 48 73 49 72 50 28 52 60 53 40 54 59 55 41 56
REMARK SMILES IDX 44 57 58 58 77 59 42 60 43 61 57 63 78 64 45 65 29 66 30 67
REMARK SMILES IDX 38 68 31 69 33 70 39 71 32 72 34 73 35 74 36 75 37 76 61 77
REMARK SMILES IDX 62 78 70 79 63 80 65 81 71 82 64 83 66 84 67 85 68 86 69 87
REMARK SMILES IDX 46 88 47 89 55 90 48 91 50 92 56 93 49 94 51 95 52 96 53 97
REMARK SMILES IDX 54 98
REMARK H PARENT 4 15 4 16 86 22 76 51 44 62
REMARK Flexibility Score: inf
ROOT
ATOM      1  C   UNL     1      -0.861  -0.967  -1.994  1.00  0.00     0.188 C 
ENDROOT
BRANCH   1   2
ATOM      2  C   UNL     1      -0.021   0.252  -1.658  1.00  0.00     0.188 C 
BRANCH   2   3
ATOM      3  O   UNL     1       1.296   0.012  -1.188  1.00  0.00    -0.376 OA
BRANCH   3   4
ATOM      4  C   UNL     1       1.403  -0.665   0.057  1.00  0.00     0.202 C 
BRANCH   4   5
ATOM      5  C   UNL     1       1.003   0.128   1.309  1.00  0.00     0.261 C 
BRANCH   5   6
ATOM      6  O   UNL     1      -0.172   0.944   1.150  1.00  0.00    -0.459 OA
BRANCH   6   7
ATOM      7  C   UNL     1       0.046   2.285   1.025  1.00  0.00     0.368 C 
ATOM      8  O   UNL     1       1.173   2.772   1.071  1.00  0.00    -0.245 OA
BRANCH   7   9
ATOM      9  C   UNL     1      -1.245   3.131   0.745  1.00  0.00     0.200 C 
ATOM     10  C   UNL     1      -0.815   4.604   0.995  1.00  0.00     0.087 C 
ATOM     11  C   UNL     1      -1.620   3.254  -0.749  1.00  0.00     0.146 C 
ATOM     12  C   UNL     1      -1.792   5.478   0.231  1.00  0.00     0.072 C 
ATOM     13  C   UNL     1      -2.228   4.668  -1.006  1.00  0.00     0.191 C 
BRANCH   9  14
ATOM     14  N   UNL     1      -2.412   2.871   1.636  1.00  0.00    -0.330 N 
ATOM     15  H   UNL     1      -2.173   3.266   2.546  1.00  0.00     0.347 HD
ATOM     16  H   UNL     1      -3.184   3.282   1.112  1.00  0.00     0.347 HD
BRANCH  14  17
ATOM     17  C   UNL     1      -2.893   1.510   1.890  1.00  0.00     0.176 C 
ATOM     18  C   UNL     1      -3.847   1.597   3.090  1.00  0.00     0.075 C 
ATOM     19  C   UNL     1      -3.639   0.838   0.738  1.00  0.00     0.075 C 
ENDBRANCH  14  17
ENDBRANCH   9  14
BRANCH  13  20
ATOM     20  N   UNL     1      -3.694   4.859  -1.177  1.00  0.00    -0.332 N 
ATOM     21  C   UNL     1      -4.383   3.682  -1.705  1.00  0.00     0.333 C 
ATOM     22  H   UNL     1      -4.036   5.024  -0.231  1.00  0.00     0.348 HD
BRANCH  20  23
ATOM     23  C   UNL     1      -4.016   6.034  -2.033  1.00  0.00     0.184 C 
ATOM     24  C   UNL     1      -5.493   6.458  -1.960  1.00  0.00     0.065 C 
ATOM     25  C   UNL     1      -3.332   7.366  -1.685  1.00  0.00     0.065 C 
ATOM     26  C   UNL     1      -5.529   7.827  -2.632  1.00  0.00     0.006 C 
ATOM     27  C   UNL     1      -4.147   8.432  -2.413  1.00  0.00     0.006 C 
ENDBRANCH  20  23
ENDBRANCH  13  20
ENDBRANCH   7   9
ENDBRANCH   6   7
ENDBRANCH   5   6
ENDBRANCH   4   5
ENDBRANCH   3   4
ENDBRANCH   2   3
ENDBRANCH   1   2
BRANCH   1  28
ATOM     28  O   UNL     1      -1.070  -1.890  -0.930  1.00  0.00    -0.376 OA
BRANCH  28  29
ATOM     29  C   UNL     1      -2.076  -2.876  -1.199  1.00  0.00     0.202 C 
BRANCH  29  30
ATOM     30  C   UNL     1      -1.924  -3.667  -2.517  1.00  0.00     0.261 C 
BRANCH  30  31
ATOM     31  O   UNL     1      -1.954  -2.875  -3.727  1.00  0.00    -0.460 OA
BRANCH  31  32
ATOM     32  C   UNL     1      -3.017  -2.062  -3.935  1.00  0.00     0.338 C 
ATOM     33  O   UNL     1      -4.071  -2.089  -3.320  1.00  0.00    -0.246 OA
BRANCH  32  34
ATOM     34  C   UNL     1      -2.603  -0.947  -4.840  1.00  0.00     0.060 A 
ATOM     35  C   UNL     1      -3.126   0.335  -4.602  1.00  0.00     0.016 A 
ATOM     36  C   UNL     1      -1.658  -1.123  -5.857  1.00  0.00     0.016 A 
ATOM     37  C   UNL     1      -2.752   1.418  -5.407  1.00  0.00     0.010 A 
ATOM     38  C   UNL     1      -1.291  -0.039  -6.667  1.00  0.00     0.010 A 
ATOM     39  C   UNL     1      -1.863   1.231  -6.473  1.00  0.00    -0.014 A 
BRANCH  39  40
ATOM     40  C   UNL     1      -1.691   2.292  -7.504  1.00  0.00     0.031 A 
ATOM     41  C   UNL     1      -2.492   2.186  -8.778  1.00  0.00     0.074 A 
ATOM     42  C   UNL     1      -0.845   3.328  -7.342  1.00  0.00     0.049 A 
ATOM     43  N   UNL     1      -2.488   2.962  -9.830  1.00  0.00    -0.248 NA
ATOM     44  C   UNL     1      -3.422   1.048  -8.873  1.00  0.00     0.031 C 
ATOM     45  C   UNL     1      -0.009   3.570  -6.169  1.00  0.00     0.029 A 
ATOM     46  N   UNL     1      -0.534   4.363  -8.195  1.00  0.00    -0.354 N 
ATOM     47  C   UNL     1      -3.390   2.394 -10.723  1.00  0.00     0.074 A 
ATOM     48  C   UNL     1      -3.916   1.203 -10.092  1.00  0.00     0.031 C 
ATOM     49  C   UNL     1       0.744   4.664  -6.389  1.00  0.00     0.029 A 
ATOM     50  C   UNL     1       0.461   5.189  -7.726  1.00  0.00     0.049 A 
ATOM     51  H   UNL     1      -0.983   4.500  -9.061  1.00  0.00     0.167 HD
ATOM     52  C   UNL     1      -3.764   2.826 -11.950  1.00  0.00     0.034 A 
ATOM     53  C   UNL     1       1.088   6.230  -8.313  1.00  0.00     0.034 A 
ATOM     54  C   UNL     1      -3.265   4.014 -12.584  1.00  0.00     0.049 A 
ATOM     55  C   UNL     1       0.679   6.671  -9.700  1.00  0.00     0.074 A 
ATOM     56  C   UNL     1      -3.627   4.550 -13.809  1.00  0.00     0.029 A 
ATOM     57  N   UNL     1      -2.288   4.843 -12.060  1.00  0.00    -0.354 N 
ATOM     58  N   UNL     1      -0.268   6.200 -10.473  1.00  0.00    -0.248 NA
ATOM     59  C   UNL     1       1.409   7.810 -10.281  1.00  0.00     0.031 C 
ATOM     60  C   UNL     1      -2.847   5.688 -14.037  1.00  0.00     0.029 A 
ATOM     61  C   UNL     1      -2.023   5.878 -12.940  1.00  0.00     0.049 A 
ATOM     62  H   UNL     1      -1.846   4.715 -11.189  1.00  0.00     0.167 HD
ATOM     63  C   UNL     1      -0.273   7.006 -11.610  1.00  0.00     0.074 A 
ATOM     64  C   UNL     1       0.752   8.008 -11.416  1.00  0.00     0.031 C 
ATOM     65  C   UNL     1      -1.047   6.913 -12.720  1.00  0.00     0.034 A 
BRANCH  52  66
ATOM     66  C   UNL     1      -4.794   2.014 -12.688  1.00  0.00     0.023 A 
ATOM     67  C   UNL     1      -6.142   2.062 -12.279  1.00  0.00     0.012 A 
ATOM     68  C   UNL     1      -4.439   1.255 -13.819  1.00  0.00     0.148 A 
ATOM     69  C   UNL     1      -7.117   1.345 -12.969  1.00  0.00     0.002 A 
ATOM     70  C   UNL     1      -5.423   0.577 -14.527  1.00  0.00     0.091 A 
ATOM     71  F   UNL     1      -3.147   1.205 -14.175  1.00  0.00    -0.205 F 
ATOM     72  C   UNL     1      -6.760   0.612 -14.098  1.00  0.00     0.022 A 
BRANCH  70  73
ATOM     73  S   UNL     1      -5.076  -0.332 -16.037  1.00  0.00     0.127 S 
ATOM     74  O   UNL     1      -5.248  -1.714 -15.593  1.00  0.00    -0.237 OA
ATOM     75  O   UNL     1      -6.123   0.155 -16.936  1.00  0.00    -0.237 OA
ATOM     76  O   UNL     1      -3.722   0.036 -16.425  1.00  0.00    -0.744 OA
ENDBRANCH  70  73
ENDBRANCH  52  66
BRANCH  53  77
ATOM     77  C   UNL     1       2.172   6.961  -7.592  1.00  0.00     0.023 A 
ATOM     78  C   UNL     1       1.962   8.293  -7.184  1.00  0.00     0.012 A 
ATOM     79  C   UNL     1       3.415   6.352  -7.333  1.00  0.00     0.148 A 
ATOM     80  C   UNL     1       2.981   9.016  -6.561  1.00  0.00     0.002 A 
ATOM     81  C   UNL     1       4.407   7.061  -6.665  1.00  0.00     0.091 A 
ATOM     82  F   UNL     1       3.605   5.094  -7.753  1.00  0.00    -0.205 F 
ATOM     83  C   UNL     1       4.199   8.398  -6.294  1.00  0.00     0.022 A 
BRANCH  81  84
ATOM     84  S   UNL     1       5.966   6.310  -6.180  1.00  0.00     0.127 S 
ATOM     85  O   UNL     1       6.907   6.968  -7.082  1.00  0.00    -0.237 OA
ATOM     86  O   UNL     1       6.071   6.714  -4.778  1.00  0.00    -0.237 OA
ATOM     87  O   UNL     1       5.790   4.879  -6.383  1.00  0.00    -0.744 OA
ENDBRANCH  81  84
ENDBRANCH  53  77
BRANCH  65  88
ATOM     88  C   UNL     1      -0.863   7.944 -13.806  1.00  0.00     0.023 A 
ATOM     89  C   UNL     1       0.286   7.910 -14.621  1.00  0.00     0.012 A 
ATOM     90  C   UNL     1      -1.871   8.891 -14.078  1.00  0.00     0.148 A 
ATOM     91  C   UNL     1       0.443   8.820 -15.667  1.00  0.00     0.002 A 
ATOM     92  C   UNL     1      -1.731   9.764 -15.151  1.00  0.00     0.091 A 
ATOM     93  F   UNL     1      -2.952   8.920 -13.283  1.00  0.00    -0.205 F 
ATOM     94  C   UNL     1      -0.569   9.738 -15.939  1.00  0.00     0.022 A 
BRANCH  92  95
ATOM     95  S   UNL     1      -3.024  10.914 -15.635  1.00  0.00     0.127 S 
ATOM     96  O   UNL     1      -2.461  12.194 -15.209  1.00  0.00    -0.237 OA
ATOM     97  O   UNL     1      -3.082  10.726 -17.085  1.00  0.00    -0.237 OA
ATOM     98  O   UNL     1      -4.223  10.491 -14.924  1.00  0.00    -0.744 OA
ENDBRANCH  92  95
ENDBRANCH  65  88
ENDBRANCH  39  40
ENDBRANCH  32  34
ENDBRANCH  31  32
ENDBRANCH  30  31
ENDBRANCH  29  30
ENDBRANCH  28  29
ENDBRANCH   1  28
TORSDOF 24
