REMARK SMILES Cn1ncc(C(=O)OCCOCCOCCOC(=O)c2ccc(-c3c4nc(c(-c5cccc(S(=O)(=O)[O-])c5F)c5ccc([nH]5)c(-c5cccc(S(=O)(=O)[O-])c5F)c5nc(c(-c6cccc(S(=O)(=O)[O-])c6F)c6ccc3[nH]6)C=C5)C=C4)cc2)c1NS(=O)(=O)[C@@H]1CCS(=O)(=O)C1
REMARK SMILES IDX 12 1 11 2 10 3 9 4 8 5 6 6 7 7 5 8 1 9 2 10 3 11 83 12 4 13
REMARK SMILES IDX 84 14 85 16 86 17 87 18 88 19 89 20 94 21 90 22 91 23 92 24
REMARK SMILES IDX 93 25 13 26 14 27 15 28 16 29 17 30 18 31 19 32 20 33 21 34
REMARK SMILES IDX 82 35 22 36 81 37 23 38 24 39 25 40 75 41 26 42 80 43 74 44
REMARK SMILES IDX 76 45 27 46 79 47 73 48 72 49 28 51 60 52 40 53 59 54 41 55
REMARK SMILES IDX 44 56 58 57 77 58 42 59 43 60 57 62 78 63 45 64 29 65 30 66
REMARK SMILES IDX 38 67 31 68 33 69 39 70 32 71 34 72 35 73 36 74 37 75 61 76
REMARK SMILES IDX 62 77 70 78 63 79 65 80 71 81 64 82 66 83 67 84 68 85 69 86
REMARK SMILES IDX 46 87 47 88 55 89 48 90 50 91 56 92 49 93 51 94 52 95 53 96
REMARK SMILES IDX 54 97
REMARK H PARENT 84 15 76 50 44 61
REMARK Flexibility Score: inf
ROOT
ATOM      1  C   UNL     1       4.180  -0.859  -1.597  1.00  0.00     0.188 C 
ENDROOT
BRANCH   1   2
ATOM      2  O   UNL     1       5.426  -1.442  -1.244  1.00  0.00    -0.376 OA
BRANCH   2   3
ATOM      3  C   UNL     1       5.389  -2.593  -0.402  1.00  0.00     0.202 C 
BRANCH   3   4
ATOM      4  C   UNL     1       4.789  -2.317   0.988  1.00  0.00     0.261 C 
BRANCH   4   5
ATOM      5  O   UNL     1       3.355  -2.178   0.853  1.00  0.00    -0.460 OA
BRANCH   5   6
ATOM      6  C   UNL     1       2.706  -1.325   1.685  1.00  0.00     0.343 C 
ATOM      7  O   UNL     1       3.176  -0.881   2.714  1.00  0.00    -0.246 OA
BRANCH   6   8
ATOM      8  C   UNL     1       1.482  -0.818   1.091  1.00  0.00     0.123 A 
ATOM      9  C   UNL     1      -1.878  -0.087  -0.054  1.00  0.00     0.176 C 
ATOM     10  N   UNL     1      -0.480  -0.207   0.302  1.00  0.00    -0.251 N 
ATOM     11  N   UNL     1       0.255   0.902   0.199  1.00  0.00    -0.179 NA
ATOM     12  C   UNL     1       0.227  -1.328   0.745  1.00  0.00     0.152 A 
ATOM     13  C   UNL     1       1.421   0.557   0.722  1.00  0.00     0.153 A 
BRANCH  12  14
ATOM     14  N   UNL     1      -0.408  -2.574   0.787  1.00  0.00    -0.267 N 
ATOM     15  H   UNL     1      -1.378  -2.490   0.641  1.00  0.00     0.181 HD
BRANCH  14  16
ATOM     16  S   UNL     1       0.029  -4.119   1.012  1.00  0.00     0.237 S 
ATOM     17  O   UNL     1       0.046  -4.398   2.432  1.00  0.00    -0.206 OA
ATOM     18  O   UNL     1      -0.846  -4.902   0.160  1.00  0.00    -0.206 OA
BRANCH  16  19
ATOM     19  C   UNL     1       1.645  -4.431   0.420  1.00  0.00     0.145 C 
ATOM     20  C   UNL     1       1.859  -3.991  -1.024  1.00  0.00     0.039 C 
ATOM     21  C   UNL     1       2.090  -5.875   0.577  1.00  0.00     0.158 C 
ATOM     22  C   UNL     1       1.572  -5.165  -1.944  1.00  0.00     0.138 C 
ATOM     23  S   UNL     1       2.113  -6.596  -1.043  1.00  0.00     0.151 S 
ATOM     24  O   UNL     1       1.090  -7.614  -1.110  1.00  0.00    -0.229 OA
ATOM     25  O   UNL     1       3.496  -6.852  -1.385  1.00  0.00    -0.229 OA
ENDBRANCH  16  19
ENDBRANCH  14  16
ENDBRANCH  12  14
ENDBRANCH   6   8
ENDBRANCH   5   6
ENDBRANCH   4   5
ENDBRANCH   3   4
ENDBRANCH   2   3
ENDBRANCH   1   2
BRANCH   1  26
ATOM     26  C   UNL     1       3.745  -1.174  -3.011  1.00  0.00     0.188 C 
BRANCH  26  27
ATOM     27  O   UNL     1       3.484  -2.547  -3.297  1.00  0.00    -0.376 OA
BRANCH  27  28
ATOM     28  C   UNL     1       4.519  -3.163  -4.081  1.00  0.00     0.202 C 
BRANCH  28  29
ATOM     29  C   UNL     1       4.570  -2.759  -5.573  1.00  0.00     0.261 C 
BRANCH  29  30
ATOM     30  O   UNL     1       4.915  -1.372  -5.754  1.00  0.00    -0.460 OA
BRANCH  30  31
ATOM     31  C   UNL     1       3.884  -0.528  -6.024  1.00  0.00     0.338 C 
ATOM     32  O   UNL     1       2.757  -0.846  -6.367  1.00  0.00    -0.246 OA
BRANCH  31  33
ATOM     33  C   UNL     1       4.233   0.827  -5.512  1.00  0.00     0.060 A 
ATOM     34  C   UNL     1       3.224   1.550  -4.849  1.00  0.00     0.016 A 
ATOM     35  C   UNL     1       5.541   1.321  -5.540  1.00  0.00     0.016 A 
ATOM     36  C   UNL     1       3.511   2.771  -4.239  1.00  0.00     0.010 A 
ATOM     37  C   UNL     1       5.823   2.557  -4.954  1.00  0.00     0.010 A 
ATOM     38  C   UNL     1       4.801   3.302  -4.338  1.00  0.00    -0.014 A 
BRANCH  38  39
ATOM     39  C   UNL     1       5.014   4.749  -4.107  1.00  0.00     0.031 A 
ATOM     40  C   UNL     1       4.858   5.648  -5.304  1.00  0.00     0.074 A 
ATOM     41  C   UNL     1       5.374   5.245  -2.911  1.00  0.00     0.049 A 
ATOM     42  N   UNL     1       5.078   6.928  -5.418  1.00  0.00    -0.248 NA
ATOM     43  C   UNL     1       4.403   5.002  -6.551  1.00  0.00     0.031 C 
ATOM     44  C   UNL     1       5.549   4.469  -1.685  1.00  0.00     0.029 A 
ATOM     45  N   UNL     1       5.695   6.529  -2.546  1.00  0.00    -0.354 N 
ATOM     46  C   UNL     1       4.824   7.232  -6.751  1.00  0.00     0.074 A 
ATOM     47  C   UNL     1       4.440   6.006  -7.409  1.00  0.00     0.031 C 
ATOM     48  C   UNL     1       5.987   5.288  -0.711  1.00  0.00     0.029 A 
ATOM     49  C   UNL     1       6.148   6.638  -1.252  1.00  0.00     0.049 A 
ATOM     50  H   UNL     1       5.609   7.300  -3.153  1.00  0.00     0.167 HD
ATOM     51  C   UNL     1       4.896   8.429  -7.374  1.00  0.00     0.034 A 
ATOM     52  C   UNL     1       6.660   7.701  -0.599  1.00  0.00     0.034 A 
ATOM     53  C   UNL     1       5.281   9.643  -6.716  1.00  0.00     0.049 A 
ATOM     54  C   UNL     1       6.757   9.023  -1.323  1.00  0.00     0.074 A 
ATOM     55  C   UNL     1       5.354  10.919  -7.239  1.00  0.00     0.029 A 
ATOM     56  N   UNL     1       5.676   9.724  -5.390  1.00  0.00    -0.354 N 
ATOM     57  N   UNL     1       6.397   9.322  -2.549  1.00  0.00    -0.248 NA
ATOM     58  C   UNL     1       7.303  10.160  -0.567  1.00  0.00     0.031 C 
ATOM     59  C   UNL     1       5.819  11.771  -6.232  1.00  0.00     0.029 A 
ATOM     60  C   UNL     1       6.005  11.028  -5.076  1.00  0.00     0.049 A 
ATOM     61  H   UNL     1       5.717   8.964  -4.765  1.00  0.00     0.167 HD
ATOM     62  C   UNL     1       6.639  10.685  -2.699  1.00  0.00     0.074 A 
ATOM     63  C   UNL     1       7.158  11.156  -1.431  1.00  0.00     0.031 C 
ATOM     64  C   UNL     1       6.465  11.476  -3.787  1.00  0.00     0.034 A 
BRANCH  51  65
ATOM     65  C   UNL     1       4.539   8.470  -8.834  1.00  0.00     0.023 A 
ATOM     66  C   UNL     1       3.193   8.327  -9.228  1.00  0.00     0.012 A 
ATOM     67  C   UNL     1       5.532   8.663  -9.813  1.00  0.00     0.148 A 
ATOM     68  C   UNL     1       2.844   8.344 -10.577  1.00  0.00     0.002 A 
ATOM     69  C   UNL     1       5.170   8.723 -11.153  1.00  0.00     0.091 A 
ATOM     70  F   UNL     1       6.809   8.761  -9.418  1.00  0.00    -0.205 F 
ATOM     71  C   UNL     1       3.830   8.553 -11.537  1.00  0.00     0.022 A 
BRANCH  69  72
ATOM     72  S   UNL     1       6.355   9.053 -12.461  1.00  0.00     0.127 S 
ATOM     73  O   UNL     1       6.394   7.765 -13.152  1.00  0.00    -0.237 OA
ATOM     74  O   UNL     1       5.695  10.126 -13.205  1.00  0.00    -0.237 OA
ATOM     75  O   UNL     1       7.590   9.442 -11.795  1.00  0.00    -0.744 OA
ENDBRANCH  69  72
ENDBRANCH  51  65
BRANCH  52  76
ATOM     76  C   UNL     1       7.102   7.577   0.821  1.00  0.00     0.023 A 
ATOM     77  C   UNL     1       6.389   8.250   1.833  1.00  0.00     0.012 A 
ATOM     78  C   UNL     1       8.218   6.795   1.178  1.00  0.00     0.148 A 
ATOM     79  C   UNL     1       6.797   8.174   3.166  1.00  0.00     0.002 A 
ATOM     80  C   UNL     1       8.586   6.677   2.514  1.00  0.00     0.091 A 
ATOM     81  F   UNL     1       8.898   6.177   0.202  1.00  0.00    -0.205 F 
ATOM     82  C   UNL     1       7.888   7.380   3.508  1.00  0.00     0.022 A 
BRANCH  80  83
ATOM     83  S   UNL     1       9.891   5.569   3.060  1.00  0.00     0.127 S 
ATOM     84  O   UNL     1      10.933   6.508   3.464  1.00  0.00    -0.237 OA
ATOM     85  O   UNL     1       9.239   4.857   4.160  1.00  0.00    -0.237 OA
ATOM     86  O   UNL     1      10.200   4.732   1.909  1.00  0.00    -0.744 OA
ENDBRANCH  80  83
ENDBRANCH  52  76
BRANCH  64  87
ATOM     87  C   UNL     1       6.792  12.939  -3.651  1.00  0.00     0.023 A 
ATOM     88  C   UNL     1       8.136  13.357  -3.600  1.00  0.00     0.012 A 
ATOM     89  C   UNL     1       5.766  13.903  -3.674  1.00  0.00     0.148 A 
ATOM     90  C   UNL     1       8.452  14.713  -3.545  1.00  0.00     0.002 A 
ATOM     91  C   UNL     1       6.090  15.254  -3.671  1.00  0.00     0.091 A 
ATOM     92  F   UNL     1       4.493  13.482  -3.707  1.00  0.00    -0.205 F 
ATOM     93  C   UNL     1       7.431  15.661  -3.594  1.00  0.00     0.022 A 
BRANCH  91  94
ATOM     94  S   UNL     1       4.846  16.539  -3.836  1.00  0.00     0.127 S 
ATOM     95  O   UNL     1       4.808  17.090  -2.482  1.00  0.00    -0.237 OA
ATOM     96  O   UNL     1       5.442  17.421  -4.839  1.00  0.00    -0.237 OA
ATOM     97  O   UNL     1       3.630  15.865  -4.271  1.00  0.00    -0.744 OA
ENDBRANCH  91  94
ENDBRANCH  64  87
ENDBRANCH  38  39
ENDBRANCH  31  33
ENDBRANCH  30  31
ENDBRANCH  29  30
ENDBRANCH  28  29
ENDBRANCH  27  28
ENDBRANCH  26  27
ENDBRANCH   1  26
TORSDOF 23
