REMARK SMILES Nc1c(Nc2ccc(I)cc2)ncnc1Nc1ccc(C(=O)OCCOCCOCCOC(=O)c2ccc(-c3c4nc(c(-c5cccc(S(=O)(=O)[O-])c5F)c5ccc([nH]5)c(-c5cccc(S(=O)(=O)[O-])c5F)c5nc(c(-c6cccc(S(=O)(=O)[O-])c6F)c6ccc3[nH]6)C=C5)C=C4)cc2)cc1
REMARK SMILES IDX 27 1 26 2 25 3 24 4 23 5 21 6 22 7 20 8 17 9 18 10 99 11
REMARK SMILES IDX 19 12 98 13 16 14 15 16 2 17 3 18 12 19 14 20 13 21 1 22
REMARK SMILES IDX 4 25 5 27 6 28 11 29 7 30 10 31 8 32 9 33 28 34 29 35 30 36
REMARK SMILES IDX 31 37 32 38 33 39 34 40 35 41 36 42 97 43 37 44 96 45 38 46
REMARK SMILES IDX 39 47 40 48 90 49 41 50 95 51 89 52 91 53 42 54 94 55 88 56
REMARK SMILES IDX 87 57 43 59 75 60 55 61 74 62 56 63 59 64 73 65 92 66 57 67
REMARK SMILES IDX 58 68 72 70 93 71 60 72 44 73 45 74 53 75 46 76 48 77 54 78
REMARK SMILES IDX 47 79 49 80 50 81 51 82 52 83 76 84 77 85 85 86 78 87 80 88
REMARK SMILES IDX 86 89 79 90 81 91 82 92 83 93 84 94 61 95 62 96 70 97 63 98
REMARK SMILES IDX 65 99 71 100 64 101 66 102 67 103 68 104 69 105
REMARK H PARENT 16 15 1 23 1 24 4 26 91 58 59 69
REMARK Flexibility Score: inf
ROOT
ATOM      1  C   UNL     1       5.420   0.278  -8.583  1.00  0.00     0.188 C 
ENDROOT
BRANCH   1   2
ATOM      2  O   UNL     1       5.773   0.733  -9.866  1.00  0.00    -0.376 OA
BRANCH   2   3
ATOM      3  C   UNL     1       4.978   1.693 -10.539  1.00  0.00     0.202 C 
BRANCH   3   4
ATOM      4  C   UNL     1       3.770   2.448  -9.951  1.00  0.00     0.261 C 
BRANCH   4   5
ATOM      5  O   UNL     1       3.538   2.350  -8.545  1.00  0.00    -0.460 OA
BRANCH   5   6
ATOM      6  C   UNL     1       2.467   1.598  -8.186  1.00  0.00     0.338 C 
ATOM      7  O   UNL     1       1.683   1.037  -8.932  1.00  0.00    -0.246 OA
BRANCH   6   8
ATOM      8  C   UNL     1       2.478   1.389  -6.723  1.00  0.00     0.060 A 
ATOM      9  C   UNL     1       2.304   0.920  -3.969  1.00  0.00     0.040 A 
ATOM     10  C   UNL     1       2.240  -0.150  -4.869  1.00  0.00     0.027 A 
ATOM     11  C   UNL     1       2.550   2.213  -4.462  1.00  0.00     0.027 A 
ATOM     12  C   UNL     1       2.311   0.084  -6.243  1.00  0.00     0.018 A 
ATOM     13  C   UNL     1       2.646   2.452  -5.835  1.00  0.00     0.018 A 
BRANCH   9  14
ATOM     14  N   UNL     1       1.871   0.727  -2.636  1.00  0.00    -0.338 N 
ATOM     15  H   UNL     1       2.407   0.157  -2.039  1.00  0.00     0.168 HD
BRANCH  14  16
ATOM     16  C   UNL     1       0.687   1.331  -2.129  1.00  0.00     0.159 A 
ATOM     17  C   UNL     1       0.270   1.065  -0.820  1.00  0.00     0.118 A 
ATOM     18  C   UNL     1      -0.917   1.711  -0.436  1.00  0.00     0.159 A 
ATOM     19  N   UNL     1      -1.642   2.473  -1.279  1.00  0.00    -0.217 NA
ATOM     20  N   UNL     1      -0.012   2.135  -2.957  1.00  0.00    -0.217 NA
ATOM     21  C   UNL     1      -1.149   2.649  -2.499  1.00  0.00     0.226 A 
BRANCH  17  22
ATOM     22  N   UNL     1       1.008   0.281   0.079  1.00  0.00    -0.393 N 
ATOM     23  H   UNL     1       0.669   0.126   0.990  1.00  0.00     0.156 HD
ATOM     24  H   UNL     1       1.865  -0.113  -0.202  1.00  0.00     0.156 HD
ENDBRANCH  17  22
BRANCH  18  25
ATOM     25  N   UNL     1      -1.365   1.575   0.903  1.00  0.00    -0.338 N 
ATOM     26  H   UNL     1      -0.790   1.069   1.521  1.00  0.00     0.168 HD
BRANCH  25  27
ATOM     27  C   UNL     1      -2.561   2.102   1.422  1.00  0.00     0.040 A 
ATOM     28  C   UNL     1      -2.520   2.954   2.533  1.00  0.00     0.027 A 
ATOM     29  C   UNL     1      -3.789   1.909   0.773  1.00  0.00     0.027 A 
ATOM     30  C   UNL     1      -3.674   3.610   2.975  1.00  0.00     0.017 A 
ATOM     31  C   UNL     1      -4.949   2.551   1.216  1.00  0.00     0.017 A 
ATOM     32  C   UNL     1      -4.883   3.408   2.311  1.00  0.00     0.013 A 
ATOM     33  I   UNL     1      -6.588   4.418   2.938  1.00  0.00    -0.044 I 
ENDBRANCH  25  27
ENDBRANCH  18  25
ENDBRANCH  14  16
ENDBRANCH   9  14
ENDBRANCH   6   8
ENDBRANCH   5   6
ENDBRANCH   4   5
ENDBRANCH   3   4
ENDBRANCH   2   3
ENDBRANCH   1   2
BRANCH   1  34
ATOM     34  C   UNL     1       5.941   1.128  -7.403  1.00  0.00     0.188 C 
BRANCH  34  35
ATOM     35  O   UNL     1       6.593   2.363  -7.645  1.00  0.00    -0.376 OA
BRANCH  35  36
ATOM     36  C   UNL     1       7.715   2.388  -8.515  1.00  0.00     0.202 C 
BRANCH  36  37
ATOM     37  C   UNL     1       8.811   1.305  -8.479  1.00  0.00     0.261 C 
BRANCH  37  38
ATOM     38  O   UNL     1       8.367  -0.054  -8.356  1.00  0.00    -0.460 OA
BRANCH  38  39
ATOM     39  C   UNL     1       8.665  -0.669  -7.185  1.00  0.00     0.338 C 
ATOM     40  O   UNL     1       9.282  -0.201  -6.238  1.00  0.00    -0.246 OA
BRANCH  39  41
ATOM     41  C   UNL     1       7.962  -1.964  -7.125  1.00  0.00     0.060 A 
ATOM     42  C   UNL     1       6.898  -2.115  -6.223  1.00  0.00     0.016 A 
ATOM     43  C   UNL     1       8.369  -3.032  -7.925  1.00  0.00     0.016 A 
ATOM     44  C   UNL     1       6.235  -3.336  -6.120  1.00  0.00     0.010 A 
ATOM     45  C   UNL     1       7.726  -4.267  -7.793  1.00  0.00     0.010 A 
ATOM     46  C   UNL     1       6.674  -4.431  -6.874  1.00  0.00    -0.014 A 
BRANCH  46  47
ATOM     47  C   UNL     1       6.163  -5.784  -6.551  1.00  0.00     0.031 A 
ATOM     48  C   UNL     1       6.974  -6.648  -5.624  1.00  0.00     0.074 A 
ATOM     49  C   UNL     1       4.994  -6.231  -7.044  1.00  0.00     0.049 A 
ATOM     50  N   UNL     1       6.735  -7.862  -5.204  1.00  0.00    -0.248 NA
ATOM     51  C   UNL     1       8.219  -6.062  -5.098  1.00  0.00     0.031 C 
ATOM     52  C   UNL     1       4.107  -5.478  -7.928  1.00  0.00     0.029 A 
ATOM     53  N   UNL     1       4.362  -7.439  -6.879  1.00  0.00    -0.354 N 
ATOM     54  C   UNL     1       7.805  -8.193  -4.383  1.00  0.00     0.074 A 
ATOM     55  C   UNL     1       8.705  -7.061  -4.377  1.00  0.00     0.031 C 
ATOM     56  C   UNL     1       3.052  -6.249  -8.245  1.00  0.00     0.029 A 
ATOM     57  C   UNL     1       3.202  -7.558  -7.608  1.00  0.00     0.049 A 
ATOM     58  H   UNL     1       4.707  -8.152  -6.295  1.00  0.00     0.167 HD
ATOM     59  C   UNL     1       8.010  -9.329  -3.678  1.00  0.00     0.034 A 
ATOM     60  C   UNL     1       2.368  -8.609  -7.756  1.00  0.00     0.034 A 
ATOM     61  C   UNL     1       7.110 -10.449  -3.676  1.00  0.00     0.049 A 
ATOM     62  C   UNL     1       2.655  -9.890  -7.011  1.00  0.00     0.074 A 
ATOM     63  C   UNL     1       7.218 -11.631  -2.966  1.00  0.00     0.029 A 
ATOM     64  N   UNL     1       5.948 -10.535  -4.426  1.00  0.00    -0.354 N 
ATOM     65  N   UNL     1       3.608 -10.149  -6.148  1.00  0.00    -0.248 NA
ATOM     66  C   UNL     1       1.737 -11.017  -7.240  1.00  0.00     0.031 C 
ATOM     67  C   UNL     1       6.139 -12.448  -3.316  1.00  0.00     0.029 A 
ATOM     68  C   UNL     1       5.340 -11.760  -4.215  1.00  0.00     0.049 A 
ATOM     69  H   UNL     1       5.606  -9.829  -5.021  1.00  0.00     0.167 HD
ATOM     70  C   UNL     1       3.393 -11.455  -5.716  1.00  0.00     0.074 A 
ATOM     71  C   UNL     1       2.200 -11.924  -6.389  1.00  0.00     0.031 C 
ATOM     72  C   UNL     1       4.127 -12.203  -4.855  1.00  0.00     0.034 A 
BRANCH  59  73
ATOM     73  C   UNL     1       9.244  -9.411  -2.819  1.00  0.00     0.023 A 
ATOM     74  C   UNL     1       9.317  -8.648  -1.636  1.00  0.00     0.012 A 
ATOM     75  C   UNL     1      10.289 -10.300  -3.136  1.00  0.00     0.148 A 
ATOM     76  C   UNL     1      10.422  -8.750  -0.793  1.00  0.00     0.002 A 
ATOM     77  C   UNL     1      11.364 -10.433  -2.265  1.00  0.00     0.091 A 
ATOM     78  F   UNL     1      10.209 -11.000  -4.276  1.00  0.00    -0.205 F 
ATOM     79  C   UNL     1      11.438  -9.651  -1.100  1.00  0.00     0.022 A 
BRANCH  77  80
ATOM     80  S   UNL     1      12.681 -11.627  -2.522  1.00  0.00     0.127 S 
ATOM     81  O   UNL     1      13.831 -10.753  -2.750  1.00  0.00    -0.237 OA
ATOM     82  O   UNL     1      12.700 -12.338  -1.244  1.00  0.00    -0.237 OA
ATOM     83  O   UNL     1      12.278 -12.433  -3.666  1.00  0.00    -0.744 OA
ENDBRANCH  77  80
ENDBRANCH  59  73
BRANCH  60  84
ATOM     84  C   UNL     1       1.157  -8.483  -8.619  1.00  0.00     0.023 A 
ATOM     85  C   UNL     1      -0.120  -8.510  -8.026  1.00  0.00     0.012 A 
ATOM     86  C   UNL     1       1.261  -8.314 -10.014  1.00  0.00     0.148 A 
ATOM     87  C   UNL     1      -1.271  -8.390  -8.806  1.00  0.00     0.002 A 
ATOM     88  C   UNL     1       0.113  -8.139 -10.779  1.00  0.00     0.091 A 
ATOM     89  F   UNL     1       2.484  -8.312 -10.563  1.00  0.00    -0.205 F 
ATOM     90  C   UNL     1      -1.155  -8.193 -10.180  1.00  0.00     0.022 A 
BRANCH  88  91
ATOM     91  S   UNL     1       0.166  -7.755 -12.533  1.00  0.00     0.127 S 
ATOM     92  O   UNL     1      -0.462  -8.938 -13.117  1.00  0.00    -0.237 OA
ATOM     93  O   UNL     1      -0.640  -6.536 -12.595  1.00  0.00    -0.237 OA
ATOM     94  O   UNL     1       1.573  -7.568 -12.856  1.00  0.00    -0.744 OA
ENDBRANCH  88  91
ENDBRANCH  60  84
BRANCH  72  95
ATOM     95  C   UNL     1       3.680 -13.616  -4.571  1.00  0.00     0.023 A 
ATOM     96  C   UNL     1       3.839 -14.606  -5.561  1.00  0.00     0.012 A 
ATOM     97  C   UNL     1       3.236 -13.991  -3.286  1.00  0.00     0.148 A 
ATOM     98  C   UNL     1       3.547 -15.941  -5.284  1.00  0.00     0.002 A 
ATOM     99  C   UNL     1       2.998 -15.331  -3.001  1.00  0.00     0.091 A 
ATOM    100  F   UNL     1       3.082 -13.034  -2.359  1.00  0.00    -0.205 F 
ATOM    101  C   UNL     1       3.143 -16.305  -4.001  1.00  0.00     0.022 A 
BRANCH  99 102
ATOM    102  S   UNL     1       2.581 -15.915  -1.353  1.00  0.00     0.127 S 
ATOM    103  O   UNL     1       1.216 -16.404  -1.547  1.00  0.00    -0.237 OA
ATOM    104  O   UNL     1       3.579 -16.962  -1.135  1.00  0.00    -0.237 OA
ATOM    105  O   UNL     1       2.705 -14.762  -0.471  1.00  0.00    -0.744 OA
ENDBRANCH  99 102
ENDBRANCH  72  95
ENDBRANCH  46  47
ENDBRANCH  39  41
ENDBRANCH  38  39
ENDBRANCH  37  38
ENDBRANCH  36  37
ENDBRANCH  35  36
ENDBRANCH  34  35
ENDBRANCH   1  34
TORSDOF 25
