REMARK SMILES CC1=C[C@@H]([C@@H]2N=N[C@H](S)N2/N=C/c2ccc(C(=O)OCCOCCOCCOC(=O)c3ccc(-c4c5nc(c(-c6cccc(S(=O)(=O)[O-])c6F)c6ccc([nH]6)c(-c6cccc(S(=O)(=O)[O-])c6F)c6nc(c(-c7cccc(S(=O)(=O)[O-])c7F)c7ccc4[nH]7)C=C6)C=C5)cc3)cc2)N=N1
REMARK SMILES IDX 23 1 22 2 21 3 20 4 19 5 17 6 18 7 16 8 13 9 14 10 95 11
REMARK SMILES IDX 15 12 94 13 12 14 11 15 10 16 5 17 6 18 7 19 8 20 4 21 1 22
REMARK SMILES IDX 2 23 3 24 97 25 96 26 9 27 24 29 25 30 26 31 27 32 28 33
REMARK SMILES IDX 29 34 30 35 31 36 32 37 93 38 33 39 92 40 34 41 35 42 36 43
REMARK SMILES IDX 86 44 37 45 91 46 85 47 87 48 38 49 90 50 84 51 83 52 39 54
REMARK SMILES IDX 71 55 51 56 70 57 52 58 55 59 69 60 88 61 53 62 54 63 68 65
REMARK SMILES IDX 89 66 56 67 40 68 41 69 49 70 42 71 44 72 50 73 43 74 45 75
REMARK SMILES IDX 46 76 47 77 48 78 72 79 73 80 81 81 74 82 76 83 82 84 75 85
REMARK SMILES IDX 77 86 78 87 79 88 80 89 57 90 58 91 66 92 59 93 61 94 67 95
REMARK SMILES IDX 60 96 62 97 63 98 64 99 65 100
REMARK H PARENT 9 28 87 53 55 64
REMARK Flexibility Score: inf
ROOT
ATOM      1  C   UNL     1      -1.736  11.780   6.885  1.00  0.00     0.188 C 
ENDROOT
BRANCH   1   2
ATOM      2  O   UNL     1      -1.459  12.119   8.238  1.00  0.00    -0.376 OA
BRANCH   2   3
ATOM      3  C   UNL     1      -0.226  11.731   8.831  1.00  0.00     0.202 C 
BRANCH   3   4
ATOM      4  C   UNL     1       0.262  10.273   8.730  1.00  0.00     0.261 C 
BRANCH   4   5
ATOM      5  O   UNL     1       0.244   9.708   7.409  1.00  0.00    -0.460 OA
BRANCH   5   6
ATOM      6  C   UNL     1      -0.574   8.650   7.227  1.00  0.00     0.338 C 
ATOM      7  O   UNL     1      -1.216   8.056   8.086  1.00  0.00    -0.246 OA
BRANCH   6   8
ATOM      8  C   UNL     1      -0.743   8.369   5.785  1.00  0.00     0.060 A 
ATOM      9  C   UNL     1      -1.183   7.691   3.121  1.00  0.00    -0.005 A 
ATOM     10  C   UNL     1      -2.273   7.831   3.983  1.00  0.00     0.010 A 
ATOM     11  C   UNL     1       0.120   7.941   3.567  1.00  0.00     0.010 A 
ATOM     12  C   UNL     1      -2.048   8.149   5.320  1.00  0.00     0.016 A 
ATOM     13  C   UNL     1       0.341   8.302   4.902  1.00  0.00     0.016 A 
BRANCH   9  14
ATOM     14  C   UNL     1      -1.444   7.200   1.757  1.00  0.00     0.141 C 
ATOM     15  N   UNL     1      -0.598   6.419   1.165  1.00  0.00    -0.180 NA
BRANCH  15  16
ATOM     16  N   UNL     1      -0.910   5.938  -0.069  1.00  0.00    -0.233 NA
ATOM     17  C   UNL     1      -0.242   4.702  -0.503  1.00  0.00     0.274 C 
ATOM     18  N   UNL     1      -1.146   3.986  -1.438  1.00  0.00    -0.161 NA
ATOM     19  N   UNL     1      -2.254   4.565  -1.498  1.00  0.00    -0.153 NA
ATOM     20  C   UNL     1      -2.248   5.781  -0.654  1.00  0.00     0.298 C 
BRANCH  17  21
ATOM     21  C   UNL     1       1.127   4.988  -1.164  1.00  0.00     0.201 C 
ATOM     22  C   UNL     1       1.394   5.901  -4.745  1.00  0.00     0.068 C 
ATOM     23  C   UNL     1       1.392   5.350  -3.367  1.00  0.00     0.058 C 
ATOM     24  C   UNL     1       1.091   6.008  -2.251  1.00  0.00     0.031 C 
ATOM     25  N   UNL     1       1.709   4.036  -3.133  1.00  0.00    -0.160 NA
ATOM     26  N   UNL     1       1.614   3.778  -1.897  1.00  0.00    -0.177 NA
ENDBRANCH  17  21
BRANCH  20  27
ATOM     27  S   UNL     1      -2.705   7.296  -1.575  1.00  0.00    -0.128 SA
ATOM     28  H   UNL     1      -1.797   7.516  -2.564  1.00  0.00     0.106 HD
ENDBRANCH  20  27
ENDBRANCH  15  16
ENDBRANCH   9  14
ENDBRANCH   6   8
ENDBRANCH   5   6
ENDBRANCH   4   5
ENDBRANCH   3   4
ENDBRANCH   2   3
ENDBRANCH   1   2
BRANCH   1  29
ATOM     29  C   UNL     1      -0.668  11.999   5.790  1.00  0.00     0.188 C 
BRANCH  29  30
ATOM     30  O   UNL     1       0.642  12.185   6.287  1.00  0.00    -0.376 OA
BRANCH  30  31
ATOM     31  C   UNL     1       1.265  13.454   6.165  1.00  0.00     0.202 C 
BRANCH  31  32
ATOM     32  C   UNL     1       0.554  14.749   6.573  1.00  0.00     0.261 C 
BRANCH  32  33
ATOM     33  O   UNL     1      -0.861  14.748   6.495  1.00  0.00    -0.460 OA
BRANCH  33  34
ATOM     34  C   UNL     1      -1.370  15.035   5.285  1.00  0.00     0.338 C 
ATOM     35  O   UNL     1      -0.764  15.019   4.215  1.00  0.00    -0.246 OA
BRANCH  34  36
ATOM     36  C   UNL     1      -2.778  15.408   5.437  1.00  0.00     0.060 A 
ATOM     37  C   UNL     1      -3.573  15.422   4.288  1.00  0.00     0.016 A 
ATOM     38  C   UNL     1      -3.225  15.950   6.653  1.00  0.00     0.016 A 
ATOM     39  C   UNL     1      -4.745  16.148   4.308  1.00  0.00     0.010 A 
ATOM     40  C   UNL     1      -4.393  16.682   6.668  1.00  0.00     0.010 A 
ATOM     41  C   UNL     1      -5.088  16.844   5.471  1.00  0.00    -0.014 A 
BRANCH  41  42
ATOM     42  C   UNL     1      -6.119  17.856   5.359  1.00  0.00     0.031 A 
ATOM     43  C   UNL     1      -7.517  17.386   5.406  1.00  0.00     0.074 A 
ATOM     44  C   UNL     1      -5.796  19.163   5.306  1.00  0.00     0.049 A 
ATOM     45  N   UNL     1      -8.426  17.509   4.495  1.00  0.00    -0.248 NA
ATOM     46  C   UNL     1      -7.934  16.622   6.588  1.00  0.00     0.031 C 
ATOM     47  C   UNL     1      -4.485  19.762   5.585  1.00  0.00     0.029 A 
ATOM     48  N   UNL     1      -6.611  20.244   5.149  1.00  0.00    -0.354 N 
ATOM     49  C   UNL     1      -9.593  17.027   5.077  1.00  0.00     0.074 A 
ATOM     50  C   UNL     1      -9.207  16.361   6.295  1.00  0.00     0.031 C 
ATOM     51  C   UNL     1      -4.651  21.078   5.832  1.00  0.00     0.029 A 
ATOM     52  C   UNL     1      -6.043  21.425   5.603  1.00  0.00     0.049 A 
ATOM     53  H   UNL     1      -7.512  20.192   4.755  1.00  0.00     0.167 HD
ATOM     54  C   UNL     1     -10.824  17.402   4.643  1.00  0.00     0.034 A 
ATOM     55  C   UNL     1      -6.693  22.580   5.872  1.00  0.00     0.034 A 
ATOM     56  C   UNL     1     -10.795  18.004   3.340  1.00  0.00     0.049 A 
ATOM     57  C   UNL     1      -8.001  22.540   5.178  1.00  0.00     0.074 A 
ATOM     58  C   UNL     1     -10.397  17.606   2.081  1.00  0.00     0.029 A 
ATOM     59  N   UNL     1     -10.965  19.364   3.277  1.00  0.00    -0.354 N 
ATOM     60  N   UNL     1      -8.151  22.593   3.884  1.00  0.00    -0.248 NA
ATOM     61  C   UNL     1      -9.167  22.097   5.925  1.00  0.00     0.031 C 
ATOM     62  C   UNL     1      -9.946  18.792   1.437  1.00  0.00     0.029 A 
ATOM     63  C   UNL     1     -10.091  19.847   2.342  1.00  0.00     0.049 A 
ATOM     64  H   UNL     1     -11.601  19.896   3.809  1.00  0.00     0.167 HD
ATOM     65  C   UNL     1      -9.268  21.808   3.628  1.00  0.00     0.074 A 
ATOM     66  C   UNL     1      -9.926  21.656   4.920  1.00  0.00     0.031 C 
ATOM     67  C   UNL     1      -9.394  21.113   2.458  1.00  0.00     0.034 A 
BRANCH  54  68
ATOM     68  C   UNL     1     -12.030  17.515   5.534  1.00  0.00     0.023 A 
ATOM     69  C   UNL     1     -13.298  17.611   4.923  1.00  0.00     0.012 A 
ATOM     70  C   UNL     1     -11.959  17.784   6.919  1.00  0.00     0.148 A 
ATOM     71  C   UNL     1     -14.436  17.971   5.653  1.00  0.00     0.002 A 
ATOM     72  C   UNL     1     -13.107  18.047   7.657  1.00  0.00     0.091 A 
ATOM     73  F   UNL     1     -10.769  17.922   7.516  1.00  0.00    -0.205 F 
ATOM     74  C   UNL     1     -14.345  18.170   7.026  1.00  0.00     0.022 A 
BRANCH  72  75
ATOM     75  S   UNL     1     -13.017  18.206   9.442  1.00  0.00     0.127 S 
ATOM     76  O   UNL     1     -12.831  19.644   9.604  1.00  0.00    -0.237 OA
ATOM     77  O   UNL     1     -14.322  17.698   9.867  1.00  0.00    -0.237 OA
ATOM     78  O   UNL     1     -11.898  17.353   9.826  1.00  0.00    -0.744 OA
ENDBRANCH  72  75
ENDBRANCH  54  68
BRANCH  55  79
ATOM     79  C   UNL     1      -6.355  23.617   6.871  1.00  0.00     0.023 A 
ATOM     80  C   UNL     1      -6.840  24.927   6.705  1.00  0.00     0.012 A 
ATOM     81  C   UNL     1      -5.749  23.282   8.104  1.00  0.00     0.148 A 
ATOM     82  C   UNL     1      -6.740  25.868   7.736  1.00  0.00     0.002 A 
ATOM     83  C   UNL     1      -5.629  24.227   9.118  1.00  0.00     0.091 A 
ATOM     84  F   UNL     1      -5.372  22.014   8.319  1.00  0.00    -0.205 F 
ATOM     85  C   UNL     1      -6.135  25.520   8.941  1.00  0.00     0.022 A 
BRANCH  83  86
ATOM     86  S   UNL     1      -4.844  23.841  10.689  1.00  0.00     0.127 S 
ATOM     87  O   UNL     1      -4.043  25.042  10.936  1.00  0.00    -0.237 OA
ATOM     88  O   UNL     1      -5.995  23.681  11.573  1.00  0.00    -0.237 OA
ATOM     89  O   UNL     1      -4.053  22.641  10.447  1.00  0.00    -0.744 OA
ENDBRANCH  83  86
ENDBRANCH  55  79
BRANCH  67  90
ATOM     90  C   UNL     1      -8.488  21.465   1.304  1.00  0.00     0.023 A 
ATOM     91  C   UNL     1      -7.090  21.305   1.390  1.00  0.00     0.012 A 
ATOM     92  C   UNL     1      -9.066  21.745   0.052  1.00  0.00     0.148 A 
ATOM     93  C   UNL     1      -6.285  21.437   0.257  1.00  0.00     0.002 A 
ATOM     94  C   UNL     1      -8.266  21.825  -1.082  1.00  0.00     0.091 A 
ATOM     95  F   UNL     1     -10.399  21.888  -0.016  1.00  0.00    -0.205 F 
ATOM     96  C   UNL     1      -6.873  21.680  -0.982  1.00  0.00     0.022 A 
BRANCH  94  97
ATOM     97  S   UNL     1      -8.975  21.980  -2.726  1.00  0.00     0.127 S 
ATOM     98  O   UNL     1      -8.753  23.393  -3.024  1.00  0.00    -0.237 OA
ATOM     99  O   UNL     1      -8.158  21.054  -3.513  1.00  0.00    -0.237 OA
ATOM    100  O   UNL     1     -10.369  21.574  -2.596  1.00  0.00    -0.744 OA
ENDBRANCH  94  97
ENDBRANCH  67  90
ENDBRANCH  41  42
ENDBRANCH  34  36
ENDBRANCH  33  34
ENDBRANCH  32  33
ENDBRANCH  31  32
ENDBRANCH  30  31
ENDBRANCH  29  30
ENDBRANCH   1  29
TORSDOF 24
