REMARK SMILES O=C(OCCOCCOCCOC(=O)c1ccccc1C(=O)N1CCS[C@H]1c1ccccc1)c1ccc(-c2c3nc(c(-c4cccc(S(=O)(=O)[O-])c4F)c4ccc([nH]4)c(-c4cccc(S(=O)(=O)[O-])c4F)c4nc(c(-c5cccc(S(=O)(=O)[O-])c5F)c5ccc2[nH]5)C=C4)C=C3)cc1
REMARK SMILES IDX 7 1 6 2 5 3 4 4 3 5 2 6 1 7 34 8 35 9 96 10 36 11 95 12
REMARK SMILES IDX 37 13 38 14 39 15 89 16 40 17 94 18 88 19 90 20 41 21 93 22
REMARK SMILES IDX 87 23 86 24 42 26 74 27 54 28 73 29 55 30 58 31 72 32 91 33
REMARK SMILES IDX 56 34 57 35 71 37 92 38 59 39 43 40 44 41 52 42 45 43 47 44
REMARK SMILES IDX 53 45 46 46 48 47 49 48 50 49 51 50 75 51 76 52 84 53 77 54
REMARK SMILES IDX 79 55 85 56 78 57 80 58 81 59 82 60 83 61 60 62 61 63 69 64
REMARK SMILES IDX 62 65 64 66 70 67 63 68 65 69 66 70 67 71 68 72 8 73 9 74
REMARK SMILES IDX 10 75 11 76 12 77 13 78 14 79 15 80 16 81 20 82 17 83 19 84
REMARK SMILES IDX 18 85 21 86 22 87 23 88 24 89 27 90 25 91 26 92 28 93 29 94
REMARK SMILES IDX 33 95 30 96 32 97 31 98
REMARK H PARENT 90 25 58 36
REMARK Flexibility Score: inf
ROOT
ATOM      1  C   UNL     1       2.133   1.105  -1.688  1.00  0.00     0.188 C 
ENDROOT
BRANCH   1   2
ATOM      2  O   UNL     1       3.375   0.712  -1.099  1.00  0.00    -0.376 OA
BRANCH   2   3
ATOM      3  C   UNL     1       4.163  -0.155  -1.912  1.00  0.00     0.202 C 
BRANCH   3   4
ATOM      4  C   UNL     1       4.096  -1.601  -1.427  1.00  0.00     0.261 C 
BRANCH   4   5
ATOM      5  O   UNL     1       2.747  -1.955  -1.077  1.00  0.00    -0.460 OA
BRANCH   5   6
ATOM      6  C   UNL     1       2.146  -1.734   0.122  1.00  0.00     0.338 C 
ATOM      7  O   UNL     1       0.920  -1.794   0.198  1.00  0.00    -0.246 OA
BRANCH   6   8
ATOM      8  C   UNL     1       2.927  -1.593   1.387  1.00  0.00     0.060 A 
ATOM      9  C   UNL     1       4.064  -0.797   1.553  1.00  0.00     0.016 A 
ATOM     10  C   UNL     1       2.439  -2.298   2.498  1.00  0.00     0.016 A 
ATOM     11  C   UNL     1       4.797  -0.839   2.739  1.00  0.00     0.010 A 
ATOM     12  C   UNL     1       3.134  -2.292   3.710  1.00  0.00     0.010 A 
ATOM     13  C   UNL     1       4.356  -1.616   3.813  1.00  0.00    -0.014 A 
BRANCH  13  14
ATOM     14  C   UNL     1       5.234  -1.821   4.989  1.00  0.00     0.031 A 
ATOM     15  C   UNL     1       5.900  -3.154   5.171  1.00  0.00     0.074 A 
ATOM     16  C   UNL     1       5.474  -0.819   5.852  1.00  0.00     0.049 A 
ATOM     17  N   UNL     1       6.684  -3.558   6.135  1.00  0.00    -0.248 NA
ATOM     18  C   UNL     1       5.668  -4.161   4.121  1.00  0.00     0.031 C 
ATOM     19  C   UNL     1       4.923   0.527   5.739  1.00  0.00     0.029 A 
ATOM     20  N   UNL     1       6.233  -0.775   6.993  1.00  0.00    -0.354 N 
ATOM     21  C   UNL     1       7.026  -4.865   5.816  1.00  0.00     0.074 A 
ATOM     22  C   UNL     1       6.350  -5.197   4.582  1.00  0.00     0.031 C 
ATOM     23  C   UNL     1       5.346   1.263   6.778  1.00  0.00     0.029 A 
ATOM     24  C   UNL     1       6.162   0.431   7.651  1.00  0.00     0.049 A 
ATOM     25  H   UNL     1       6.776  -1.533   7.311  1.00  0.00     0.167 HD
ATOM     26  C   UNL     1       7.855  -5.705   6.478  1.00  0.00     0.034 A 
ATOM     27  C   UNL     1       6.679   0.818   8.833  1.00  0.00     0.034 A 
ATOM     28  C   UNL     1       8.532  -5.366   7.697  1.00  0.00     0.049 A 
ATOM     29  C   UNL     1       7.553  -0.151   9.579  1.00  0.00     0.074 A 
ATOM     30  C   UNL     1       9.363  -6.155   8.470  1.00  0.00     0.029 A 
ATOM     31  N   UNL     1       8.456  -4.128   8.319  1.00  0.00    -0.354 N 
ATOM     32  N   UNL     1       7.910  -1.365   9.235  1.00  0.00    -0.248 NA
ATOM     33  C   UNL     1       8.124   0.307  10.852  1.00  0.00     0.031 C 
ATOM     34  C   UNL     1       9.792  -5.391   9.563  1.00  0.00     0.029 A 
ATOM     35  C   UNL     1       9.230  -4.127   9.465  1.00  0.00     0.049 A 
ATOM     36  H   UNL     1       7.929  -3.364   7.993  1.00  0.00     0.167 HD
ATOM     37  C   UNL     1       8.768  -1.807  10.232  1.00  0.00     0.074 A 
ATOM     38  C   UNL     1       8.895  -0.720  11.184  1.00  0.00     0.031 C 
ATOM     39  C   UNL     1       9.380  -3.010  10.363  1.00  0.00     0.034 A 
BRANCH  26  40
ATOM     40  C   UNL     1       8.092  -7.051   5.856  1.00  0.00     0.023 A 
ATOM     41  C   UNL     1       8.976  -7.153   4.762  1.00  0.00     0.012 A 
ATOM     42  C   UNL     1       7.438  -8.203   6.330  1.00  0.00     0.148 A 
ATOM     43  C   UNL     1       9.186  -8.378   4.131  1.00  0.00     0.002 A 
ATOM     44  C   UNL     1       7.673  -9.426   5.713  1.00  0.00     0.091 A 
ATOM     45  F   UNL     1       6.576  -8.075   7.348  1.00  0.00    -0.205 F 
ATOM     46  C   UNL     1       8.540  -9.515   4.610  1.00  0.00     0.022 A 
BRANCH  44  47
ATOM     47  S   UNL     1       6.912 -10.952   6.276  1.00  0.00     0.127 S 
ATOM     48  O   UNL     1       5.909 -11.182   5.237  1.00  0.00    -0.237 OA
ATOM     49  O   UNL     1       8.038 -11.886   6.254  1.00  0.00    -0.237 OA
ATOM     50  O   UNL     1       6.388 -10.668   7.605  1.00  0.00    -0.744 OA
ENDBRANCH  44  47
ENDBRANCH  26  40
BRANCH  27  51
ATOM     51  C   UNL     1       6.411   2.191   9.348  1.00  0.00     0.023 A 
ATOM     52  C   UNL     1       7.451   3.137   9.398  1.00  0.00     0.012 A 
ATOM     53  C   UNL     1       5.115   2.584   9.737  1.00  0.00     0.148 A 
ATOM     54  C   UNL     1       7.210   4.439   9.844  1.00  0.00     0.002 A 
ATOM     55  C   UNL     1       4.870   3.897  10.129  1.00  0.00     0.091 A 
ATOM     56  F   UNL     1       4.130   1.673   9.710  1.00  0.00    -0.205 F 
ATOM     57  C   UNL     1       5.918   4.824  10.197  1.00  0.00     0.022 A 
BRANCH  55  58
ATOM     58  S   UNL     1       3.191   4.450  10.449  1.00  0.00     0.127 S 
ATOM     59  O   UNL     1       3.001   4.064  11.843  1.00  0.00    -0.237 OA
ATOM     60  O   UNL     1       3.270   5.893  10.219  1.00  0.00    -0.237 OA
ATOM     61  O   UNL     1       2.387   3.738   9.460  1.00  0.00    -0.744 OA
ENDBRANCH  55  58
ENDBRANCH  27  51
BRANCH  39  62
ATOM     62  C   UNL     1      10.252  -3.211  11.569  1.00  0.00     0.023 A 
ATOM     63  C   UNL     1       9.652  -3.466  12.817  1.00  0.00     0.012 A 
ATOM     64  C   UNL     1      11.654  -3.228  11.453  1.00  0.00     0.148 A 
ATOM     65  C   UNL     1      10.438  -3.719  13.939  1.00  0.00     0.002 A 
ATOM     66  C   UNL     1      12.430  -3.519  12.568  1.00  0.00     0.091 A 
ATOM     67  F   UNL     1      12.204  -2.955  10.261  1.00  0.00    -0.205 F 
ATOM     68  C   UNL     1      11.825  -3.759  13.813  1.00  0.00     0.022 A 
BRANCH  66  69
ATOM     69  S   UNL     1      14.216  -3.671  12.457  1.00  0.00     0.127 S 
ATOM     70  O   UNL     1      14.657  -2.345  12.886  1.00  0.00    -0.237 OA
ATOM     71  O   UNL     1      14.505  -4.746  13.407  1.00  0.00    -0.237 OA
ATOM     72  O   UNL     1      14.491  -4.013  11.068  1.00  0.00    -0.744 OA
ENDBRANCH  66  69
ENDBRANCH  39  62
ENDBRANCH  13  14
ENDBRANCH   6   8
ENDBRANCH   5   6
ENDBRANCH   4   5
ENDBRANCH   3   4
ENDBRANCH   2   3
ENDBRANCH   1   2
BRANCH   1  73
ATOM     73  C   UNL     1       1.819   2.552  -1.317  1.00  0.00     0.188 C 
BRANCH  73  74
ATOM     74  O   UNL     1       2.766   3.493  -1.820  1.00  0.00    -0.376 OA
BRANCH  74  75
ATOM     75  C   UNL     1       4.053   3.490  -1.205  1.00  0.00     0.202 C 
BRANCH  75  76
ATOM     76  C   UNL     1       4.136   4.026   0.224  1.00  0.00     0.261 C 
BRANCH  76  77
ATOM     77  O   UNL     1       3.809   3.154   1.322  1.00  0.00    -0.460 OA
BRANCH  77  78
ATOM     78  C   UNL     1       2.687   3.534   1.986  1.00  0.00     0.339 C 
ATOM     79  O   UNL     1       1.742   4.134   1.498  1.00  0.00    -0.246 OA
BRANCH  78  80
ATOM     80  C   UNL     1       2.617   3.070   3.377  1.00  0.00     0.072 A 
ATOM     81  C   UNL     1       1.639   2.080   3.614  1.00  0.00     0.016 A 
ATOM     82  C   UNL     1       3.227   3.728   4.455  1.00  0.00     0.054 A 
ATOM     83  C   UNL     1       1.244   1.757   4.913  1.00  0.00     0.001 A 
ATOM     84  C   UNL     1       2.771   3.415   5.756  1.00  0.00     0.015 A 
ATOM     85  C   UNL     1       1.795   2.444   5.985  1.00  0.00     0.001 A 
BRANCH  82  86
ATOM     86  C   UNL     1       4.333   4.736   4.421  1.00  0.00     0.255 C 
ATOM     87  O   UNL     1       4.871   5.086   5.472  1.00  0.00    -0.269 OA
BRANCH  86  88
ATOM     88  N   UNL     1       4.798   5.267   3.216  1.00  0.00    -0.322 N 
ATOM     89  C   UNL     1       6.225   5.029   3.015  1.00  0.00     0.132 C 
ATOM     90  C   UNL     1       4.480   6.683   3.021  1.00  0.00     0.174 C 
ATOM     91  C   UNL     1       6.774   5.894   1.896  1.00  0.00     0.093 C 
ATOM     92  S   UNL     1       5.644   7.294   1.749  1.00  0.00    -0.130 SA
BRANCH  90  93
ATOM     93  C   UNL     1       3.005   6.942   2.747  1.00  0.00    -0.015 A 
ATOM     94  C   UNL     1       2.456   7.109   1.465  1.00  0.00     0.007 A 
ATOM     95  C   UNL     1       2.111   6.922   3.837  1.00  0.00     0.007 A 
ATOM     96  C   UNL     1       1.071   7.168   1.274  1.00  0.00     0.000 A 
ATOM     97  C   UNL     1       0.730   6.976   3.647  1.00  0.00     0.000 A 
ATOM     98  C   UNL     1       0.209   7.083   2.362  1.00  0.00     0.000 A 
ENDBRANCH  90  93
ENDBRANCH  86  88
ENDBRANCH  82  86
ENDBRANCH  78  80
ENDBRANCH  77  78
ENDBRANCH  76  77
ENDBRANCH  75  76
ENDBRANCH  74  75
ENDBRANCH  73  74
ENDBRANCH   1  73
TORSDOF 23
