REMARK SMILES Cc1ccc2nc(Cl)c([C@@H]3CC(c4cccs4)=NN3C(=O)CCCC(=O)OCCOCCOCCOC(=O)c3ccc(-c4c5nc(c(-c6cccc(S(=O)(=O)[O-])c6F)c6ccc([nH]6)c(-c6cccc(S(=O)(=O)[O-])c6F)c6nc(c(-c7cccc(S(=O)(=O)[O-])c7F)c7ccc4[nH]7)C=C6)C=C5)cc3)cc2c1
REMARK SMILES IDX 31 1 30 2 29 3 28 4 27 5 25 6 26 7 24 8 23 9 22 10 20 11
REMARK SMILES IDX 21 12 19 13 10 14 11 15 12 16 18 17 9 18 1 19 2 20 3 21
REMARK SMILES IDX 104 22 4 23 103 24 5 25 102 26 6 27 7 28 8 29 13 30 14 31
REMARK SMILES IDX 17 32 15 33 16 34 32 35 33 36 34 37 35 38 36 39 37 40 38 41
REMARK SMILES IDX 39 42 40 43 101 44 41 45 100 46 42 47 43 48 44 49 94 50
REMARK SMILES IDX 45 51 99 52 93 53 95 54 46 55 98 56 92 57 91 58 47 60 79 61
REMARK SMILES IDX 59 62 78 63 60 64 63 65 77 66 96 67 61 68 62 69 76 71 97 72
REMARK SMILES IDX 64 73 48 74 49 75 57 76 50 77 52 78 58 79 51 80 53 81 54 82
REMARK SMILES IDX 55 83 56 84 80 85 81 86 89 87 82 88 84 89 90 90 83 91 85 92
REMARK SMILES IDX 86 93 87 94 88 95 65 96 66 97 74 98 67 99 69 100 75 101
REMARK SMILES IDX 68 102 70 103 71 104 72 105 73 106
REMARK H PARENT 95 59 63 70
REMARK Flexibility Score: inf
ROOT
ATOM      1  C   UNL     1      -2.536  -2.500   0.686  1.00  0.00     0.188 C 
ENDROOT
BRANCH   1   2
ATOM      2  O   UNL     1      -3.801  -2.202   1.432  1.00  0.00    -0.376 OA
BRANCH   2   3
ATOM      3  C   UNL     1      -4.395  -0.906   1.908  1.00  0.00     0.202 C 
BRANCH   3   4
ATOM      4  C   UNL     1      -5.135   0.517   0.883  1.00  0.00     0.261 C 
BRANCH   4   5
ATOM      5  O   UNL     1      -4.359   1.043  -0.950  1.00  0.00    -0.463 OA
BRANCH   5   6
ATOM      6  C   UNL     1      -3.064   0.851  -1.837  1.00  0.00     0.305 C 
ATOM      7  O   UNL     1      -2.063   0.175  -1.519  1.00  0.00    -0.252 OA
BRANCH   6   8
ATOM      8  C   UNL     1      -2.653   1.725  -2.966  1.00  0.00     0.123 C 
BRANCH   8   9
ATOM      9  C   UNL     1      -3.572   2.603  -3.706  1.00  0.00     0.022 C 
BRANCH   9  10
ATOM     10  C   UNL     1      -4.127   3.636  -2.773  1.00  0.00     0.103 C 
BRANCH  10  11
ATOM     11  C   UNL     1      -3.082   4.452  -2.013  1.00  0.00     0.243 C 
ATOM     12  O   UNL     1      -2.602   5.413  -2.637  1.00  0.00    -0.273 OA
BRANCH  11  13
ATOM     13  N   UNL     1      -2.805   4.260  -0.655  1.00  0.00    -0.225 N 
ATOM     14  C   UNL     1      -2.465   3.094   0.315  1.00  0.00     0.150 C 
ATOM     15  C   UNL     1      -2.159   3.823   1.633  1.00  0.00     0.092 C 
ATOM     16  C   UNL     1      -2.350   5.252   1.232  1.00  0.00     0.081 C 
ATOM     17  N   UNL     1      -2.646   5.461  -0.005  1.00  0.00    -0.173 NA
BRANCH  14  18
ATOM     18  C   UNL     1      -3.548   2.030   0.509  1.00  0.00     0.015 A 
ATOM     19  C   UNL     1      -6.590  -4.219  -1.224  1.00  0.00     0.044 C 
ATOM     20  C   UNL     1      -6.348  -2.728  -1.292  1.00  0.00    -0.050 A 
ATOM     21  C   UNL     1      -7.270  -1.879  -1.874  1.00  0.00     0.005 A 
ATOM     22  C   UNL     1      -5.156  -2.211  -0.709  1.00  0.00     0.013 A 
ATOM     23  C   UNL     1      -7.125  -0.502  -1.763  1.00  0.00     0.029 A 
ATOM     24  C   UNL     1      -4.665  -0.814  -0.543  1.00  0.00     0.001 A 
ATOM     25  C   UNL     1      -6.063   0.098  -1.106  1.00  0.00     0.072 A 
ATOM     26  C   UNL     1      -3.288   0.234   0.310  1.00  0.00     0.019 A 
ATOM     27  N   UNL     1      -6.256   1.705  -0.736  1.00  0.00    -0.236 NA
ATOM     28  C   UNL     1      -5.096   2.614   0.027  1.00  0.00     0.135 A 
ATOM     29  Cl  UNL     1      -5.691   4.161   0.502  1.00  0.00    -0.062 Cl
ENDBRANCH  14  18
BRANCH  16  30
ATOM     30  C   UNL     1      -2.250   6.367   2.133  1.00  0.00     0.050 A 
ATOM     31  C   UNL     1      -1.211   6.753   2.950  1.00  0.00     0.022 A 
ATOM     32  S   UNL     1      -3.559   7.477   2.203  1.00  0.00    -0.142 S 
ATOM     33  C   UNL     1      -1.481   7.993   3.608  1.00  0.00     0.012 A 
ATOM     34  C   UNL     1      -2.728   8.489   3.296  1.00  0.00     0.065 A 
ENDBRANCH  16  30
ENDBRANCH  11  13
ENDBRANCH  10  11
ENDBRANCH   9  10
ENDBRANCH   8   9
ENDBRANCH   6   8
ENDBRANCH   5   6
ENDBRANCH   4   5
ENDBRANCH   3   4
ENDBRANCH   2   3
ENDBRANCH   1   2
BRANCH   1  35
ATOM     35  C   UNL     1      -2.492  -3.050  -0.902  1.00  0.00     0.188 C 
BRANCH  35  36
ATOM     36  O   UNL     1      -2.473  -2.142  -2.012  1.00  0.00    -0.376 OA
BRANCH  36  37
ATOM     37  C   UNL     1      -3.418  -2.019  -3.094  1.00  0.00     0.202 C 
BRANCH  37  38
ATOM     38  C   UNL     1      -3.893  -3.238  -3.891  1.00  0.00     0.261 C 
BRANCH  38  39
ATOM     39  O   UNL     1      -2.842  -4.142  -4.180  1.00  0.00    -0.460 OA
BRANCH  39  40
ATOM     40  C   UNL     1      -1.766  -3.525  -4.721  1.00  0.00     0.338 C 
ATOM     41  O   UNL     1      -1.783  -2.643  -5.562  1.00  0.00    -0.246 OA
BRANCH  40  42
ATOM     42  C   UNL     1      -0.617  -3.905  -3.883  1.00  0.00     0.060 A 
ATOM     43  C   UNL     1       0.409  -2.972  -3.712  1.00  0.00     0.016 A 
ATOM     44  C   UNL     1      -0.611  -5.126  -3.192  1.00  0.00     0.016 A 
ATOM     45  C   UNL     1       1.502  -3.304  -2.924  1.00  0.00     0.010 A 
ATOM     46  C   UNL     1       0.462  -5.444  -2.378  1.00  0.00     0.010 A 
ATOM     47  C   UNL     1       1.549  -4.563  -2.309  1.00  0.00    -0.014 A 
BRANCH  47  48
ATOM     48  C   UNL     1       2.847  -5.091  -1.863  1.00  0.00     0.031 A 
ATOM     49  C   UNL     1       3.590  -5.970  -2.829  1.00  0.00     0.074 A 
ATOM     50  C   UNL     1       3.336  -4.799  -0.650  1.00  0.00     0.049 A 
ATOM     51  N   UNL     1       4.754  -6.543  -2.695  1.00  0.00    -0.248 NA
ATOM     52  C   UNL     1       2.927  -6.248  -4.119  1.00  0.00     0.031 C 
ATOM     53  C   UNL     1       2.672  -3.977   0.360  1.00  0.00     0.029 A 
ATOM     54  N   UNL     1       4.508  -5.187  -0.060  1.00  0.00    -0.354 N 
ATOM     55  C   UNL     1       4.957  -7.248  -3.874  1.00  0.00     0.074 A 
ATOM     56  C   UNL     1       3.784  -7.073  -4.696  1.00  0.00     0.031 C 
ATOM     57  C   UNL     1       3.442  -3.942   1.462  1.00  0.00     0.029 A 
ATOM     58  C   UNL     1       4.644  -4.741   1.231  1.00  0.00     0.049 A 
ATOM     59  H   UNL     1       5.188  -5.732  -0.517  1.00  0.00     0.167 HD
ATOM     60  C   UNL     1       6.045  -7.951  -4.255  1.00  0.00     0.034 A 
ATOM     61  C   UNL     1       5.634  -4.967   2.115  1.00  0.00     0.034 A 
ATOM     62  C   UNL     1       7.210  -8.108  -3.438  1.00  0.00     0.049 A 
ATOM     63  C   UNL     1       6.832  -5.768   1.671  1.00  0.00     0.074 A 
ATOM     64  C   UNL     1       8.384  -8.773  -3.731  1.00  0.00     0.029 A 
ATOM     65  N   UNL     1       7.341  -7.595  -2.156  1.00  0.00    -0.354 N 
ATOM     66  N   UNL     1       7.076  -6.313   0.502  1.00  0.00    -0.248 NA
ATOM     67  C   UNL     1       7.910  -5.950   2.653  1.00  0.00     0.031 C 
ATOM     68  C   UNL     1       9.222  -8.676  -2.615  1.00  0.00     0.029 A 
ATOM     69  C   UNL     1       8.575  -7.934  -1.638  1.00  0.00     0.049 A 
ATOM     70  H   UNL     1       6.656  -7.067  -1.686  1.00  0.00     0.167 HD
ATOM     71  C   UNL     1       8.346  -6.871   0.597  1.00  0.00     0.074 A 
ATOM     72  C   UNL     1       8.828  -6.579   1.931  1.00  0.00     0.031 C 
ATOM     73  C   UNL     1       9.047  -7.577  -0.325  1.00  0.00     0.034 A 
BRANCH  60  74
ATOM     74  C   UNL     1       6.027  -8.556  -5.630  1.00  0.00     0.023 A 
ATOM     75  C   UNL     1       6.169  -7.718  -6.756  1.00  0.00     0.012 A 
ATOM     76  C   UNL     1       5.889  -9.944  -5.810  1.00  0.00     0.148 A 
ATOM     77  C   UNL     1       6.150  -8.251  -8.043  1.00  0.00     0.002 A 
ATOM     78  C   UNL     1       5.912 -10.473  -7.094  1.00  0.00     0.091 A 
ATOM     79  F   UNL     1       5.716 -10.715  -4.727  1.00  0.00    -0.205 F 
ATOM     80  C   UNL     1       6.033  -9.628  -8.211  1.00  0.00     0.022 A 
BRANCH  78  81
ATOM     81  S   UNL     1       5.832 -12.238  -7.413  1.00  0.00     0.127 S 
ATOM     82  O   UNL     1       4.500 -12.371  -8.001  1.00  0.00    -0.237 OA
ATOM     83  O   UNL     1       6.936 -12.430  -8.354  1.00  0.00    -0.237 OA
ATOM     84  O   UNL     1       6.014 -12.887  -6.123  1.00  0.00    -0.744 OA
ENDBRANCH  78  81
ENDBRANCH  60  74
BRANCH  61  85
ATOM     85  C   UNL     1       5.558  -4.384   3.483  1.00  0.00     0.023 A 
ATOM     86  C   UNL     1       6.441  -3.351   3.850  1.00  0.00     0.012 A 
ATOM     87  C   UNL     1       4.605  -4.838   4.416  1.00  0.00     0.148 A 
ATOM     88  C   UNL     1       6.400  -2.804   5.133  1.00  0.00     0.002 A 
ATOM     89  C   UNL     1       4.534  -4.252   5.674  1.00  0.00     0.091 A 
ATOM     90  F   UNL     1       3.783  -5.833   4.053  1.00  0.00    -0.205 F 
ATOM     91  C   UNL     1       5.442  -3.247   6.041  1.00  0.00     0.022 A 
BRANCH  89  92
ATOM     92  S   UNL     1       3.248  -4.672   6.856  1.00  0.00     0.127 S 
ATOM     93  O   UNL     1       3.987  -5.467   7.833  1.00  0.00    -0.237 OA
ATOM     94  O   UNL     1       2.824  -3.353   7.326  1.00  0.00    -0.237 OA
ATOM     95  O   UNL     1       2.234  -5.385   6.090  1.00  0.00    -0.744 OA
ENDBRANCH  89  92
ENDBRANCH  61  85
BRANCH  73  96
ATOM     96  C   UNL     1      10.418  -8.061   0.060  1.00  0.00     0.023 A 
ATOM     97  C   UNL     1      10.548  -9.145   0.949  1.00  0.00     0.012 A 
ATOM     98  C   UNL     1      11.569  -7.507  -0.534  1.00  0.00     0.148 A 
ATOM     99  C   UNL     1      11.807  -9.654   1.263  1.00  0.00     0.002 A 
ATOM    100  C   UNL     1      12.816  -8.051  -0.254  1.00  0.00     0.091 A 
ATOM    101  F   UNL     1      11.423  -6.465  -1.366  1.00  0.00    -0.205 F 
ATOM    102  C   UNL     1      12.938  -9.117   0.652  1.00  0.00     0.022 A 
BRANCH 100 103
ATOM    103  S   UNL     1      14.313  -7.487  -1.071  1.00  0.00     0.127 S 
ATOM    104  O   UNL     1      14.955  -6.710  -0.012  1.00  0.00    -0.237 OA
ATOM    105  O   UNL     1      14.985  -8.746  -1.396  1.00  0.00    -0.237 OA
ATOM    106  O   UNL     1      13.871  -6.724  -2.230  1.00  0.00    -0.744 OA
ENDBRANCH 100 103
ENDBRANCH  73  96
ENDBRANCH  47  48
ENDBRANCH  40  42
ENDBRANCH  39  40
ENDBRANCH  38  39
ENDBRANCH  37  38
ENDBRANCH  36  37
ENDBRANCH  35  36
ENDBRANCH   1  35
TORSDOF 26
