REMARK SMILES Cc1cc(/C=C2/C(=O)NC(=S)N=C2OCCOCCOCCOC(=O)c2ccc(-c3c4nc(c(-c5cccc(S(=O)(=O)[O-])c5F)c5ccc([nH]5)c(-c5cccc(S(=O)(=O)[O-])c5F)c5nc(c(-c6cccc(S(=O)(=O)[O-])c6F)c6ccc3[nH]6)C=C5)C=C4)cc2)c(C)n1-c1cccc(C(=O)[O-])c1
REMARK SMILES IDX 19 1 18 2 17 3 16 4 15 5 14 6 13 7 5 8 6 9 7 10 8 11 9 12
REMARK SMILES IDX 12 13 10 14 11 16 4 17 1 18 2 19 3 20 91 21 89 22 90 23
REMARK SMILES IDX 92 24 93 25 100 26 94 27 96 28 95 29 97 30 98 31 99 32 20 33
REMARK SMILES IDX 21 34 22 35 23 36 24 37 25 38 26 39 27 40 88 41 28 42 87 43
REMARK SMILES IDX 29 44 30 45 31 46 81 47 32 48 86 49 80 50 82 51 33 52 85 53
REMARK SMILES IDX 79 54 78 55 34 57 66 58 46 59 65 60 47 61 50 62 64 63 83 64
REMARK SMILES IDX 48 65 49 66 63 68 84 69 51 70 35 71 36 72 44 73 37 74 39 75
REMARK SMILES IDX 45 76 38 77 40 78 41 79 42 80 43 81 67 82 68 83 76 84 69 85
REMARK SMILES IDX 71 86 77 87 70 88 72 89 73 90 74 91 75 92 52 93 53 94 61 95
REMARK SMILES IDX 54 96 56 97 62 98 55 99 57 100 58 101 59 102 60 103
REMARK H PARENT 9 15 82 56 50 67
REMARK Flexibility Score: inf
ROOT
ATOM      1  C   UNL     1       1.970   2.034  -7.370  1.00  0.00     0.188 C 
ENDROOT
BRANCH   1   2
ATOM      2  C   UNL     1       1.347   3.293  -7.991  1.00  0.00     0.188 C 
BRANCH   2   3
ATOM      3  O   UNL     1       1.567   4.577  -7.422  1.00  0.00    -0.376 OA
BRANCH   3   4
ATOM      4  C   UNL     1       1.395   4.812  -6.033  1.00  0.00     0.201 C 
BRANCH   4   5
ATOM      5  C   UNL     1      -0.033   4.697  -5.510  1.00  0.00     0.260 C 
BRANCH   5   6
ATOM      6  O   UNL     1      -0.339   3.325  -5.170  1.00  0.00    -0.475 OA
BRANCH   6   7
ATOM      7  C   UNL     1      -1.238   2.661  -5.922  1.00  0.00     0.229 C 
ATOM      8  C   UNL     1      -1.065   0.510  -4.494  1.00  0.00     0.029 C 
ATOM      9  C   UNL     1      -1.341   1.224  -5.606  1.00  0.00     0.103 C 
ATOM     10  C   UNL     1      -1.864   0.419  -6.752  1.00  0.00     0.262 C 
ATOM     11  O   UNL     1      -1.868  -0.807  -6.792  1.00  0.00    -0.269 OA
ATOM     12  N   UNL     1      -2.392   1.154  -7.776  1.00  0.00    -0.297 N 
ATOM     13  N   UNL     1      -1.838   3.255  -6.895  1.00  0.00    -0.184 NA
ATOM     14  C   UNL     1      -2.490   2.517  -7.834  1.00  0.00     0.203 C 
ATOM     15  H   UNL     1      -2.736   0.652  -8.550  1.00  0.00     0.172 HD
ATOM     16  S   UNL     1      -3.314   3.192  -9.125  1.00  0.00    -0.038 S 
BRANCH   8  17
ATOM     17  C   UNL     1      -0.559   0.810  -3.185  1.00  0.00    -0.003 A 
ATOM     18  C   UNL     1       1.058  -0.269  -0.001  1.00  0.00     0.065 C 
ATOM     19  C   UNL     1       0.472   0.394  -1.201  1.00  0.00     0.020 A 
ATOM     20  C   UNL     1       0.074  -0.184  -2.387  1.00  0.00     0.031 A 
ATOM     21  N   UNL     1       0.213   1.754  -1.301  1.00  0.00    -0.318 N 
ATOM     22  C   UNL     1      -0.667   1.939  -2.384  1.00  0.00     0.027 A 
ATOM     23  C   UNL     1      -1.438   3.194  -2.592  1.00  0.00     0.065 C 
BRANCH  21  24
ATOM     24  C   UNL     1       0.870   2.788  -0.561  1.00  0.00     0.046 A 
ATOM     25  C   UNL     1       0.184   3.936  -0.152  1.00  0.00     0.026 A 
ATOM     26  C   UNL     1       2.264   2.722  -0.392  1.00  0.00     0.036 A 
ATOM     27  C   UNL     1       0.880   5.054   0.304  1.00  0.00     0.003 A 
ATOM     28  C   UNL     1       2.962   3.841   0.089  1.00  0.00    -0.001 A 
ATOM     29  C   UNL     1       2.268   5.017   0.400  1.00  0.00     0.010 A 
BRANCH  28  30
ATOM     30  C   UNL     1       4.436   3.856   0.245  1.00  0.00     0.072 C 
ATOM     31  O   UNL     1       5.110   4.829   0.524  1.00  0.00    -0.545 OA
ATOM     32  O   UNL     1       4.990   2.641   0.091  1.00  0.00    -0.545 OA
ENDBRANCH  28  30
ENDBRANCH  21  24
ENDBRANCH   8  17
ENDBRANCH   6   7
ENDBRANCH   5   6
ENDBRANCH   4   5
ENDBRANCH   3   4
ENDBRANCH   2   3
ENDBRANCH   1   2
BRANCH   1  33
ATOM     33  O   UNL     1       3.248   2.137  -6.779  1.00  0.00    -0.376 OA
BRANCH  33  34
ATOM     34  C   UNL     1       4.197   2.950  -7.455  1.00  0.00     0.202 C 
BRANCH  34  35
ATOM     35  C   UNL     1       4.776   2.492  -8.838  1.00  0.00     0.261 C 
BRANCH  35  36
ATOM     36  O   UNL     1       4.019   2.504 -10.121  1.00  0.00    -0.460 OA
BRANCH  36  37
ATOM     37  C   UNL     1       3.780   1.316 -10.818  1.00  0.00     0.338 C 
ATOM     38  O   UNL     1       3.527   0.271 -10.231  1.00  0.00    -0.246 OA
BRANCH  37  39
ATOM     39  C   UNL     1       3.857   1.374 -12.393  1.00  0.00     0.060 A 
ATOM     40  C   UNL     1       3.166   0.626 -13.401  1.00  0.00     0.016 A 
ATOM     41  C   UNL     1       4.723   2.227 -12.983  1.00  0.00     0.016 A 
ATOM     42  C   UNL     1       3.289   0.806 -14.972  1.00  0.00     0.010 A 
ATOM     43  C   UNL     1       4.764   2.342 -14.454  1.00  0.00     0.010 A 
ATOM     44  C   UNL     1       4.154   1.713 -15.639  1.00  0.00    -0.014 A 
BRANCH  44  45
ATOM     45  C   UNL     1       3.866   2.645 -17.213  1.00  0.00     0.031 A 
ATOM     46  C   UNL     1       2.857   3.631 -16.662  1.00  0.00     0.074 A 
ATOM     47  C   UNL     1       4.425   3.141 -18.550  1.00  0.00     0.049 A 
ATOM     48  N   UNL     1       3.121   4.011 -15.431  1.00  0.00    -0.248 NA
ATOM     49  C   UNL     1       2.270   4.744 -17.384  1.00  0.00     0.031 C 
ATOM     50  C   UNL     1       5.627   2.728 -19.356  1.00  0.00     0.029 A 
ATOM     51  N   UNL     1       4.079   4.319 -19.499  1.00  0.00    -0.354 N 
ATOM     52  C   UNL     1       3.877   5.100 -15.763  1.00  0.00     0.074 A 
ATOM     53  C   UNL     1       2.922   5.719 -16.724  1.00  0.00     0.031 C 
ATOM     54  C   UNL     1       5.933   3.529 -20.444  1.00  0.00     0.029 A 
ATOM     55  C   UNL     1       5.009   4.660 -20.651  1.00  0.00     0.049 A 
ATOM     56  H   UNL     1       3.258   4.844 -19.355  1.00  0.00     0.167 HD
ATOM     57  C   UNL     1       5.271   5.165 -15.836  1.00  0.00     0.034 A 
ATOM     58  C   UNL     1       5.090   5.816 -21.550  1.00  0.00     0.034 A 
ATOM     59  C   UNL     1       5.691   6.360 -16.408  1.00  0.00     0.049 A 
ATOM     60  C   UNL     1       5.967   6.665 -20.679  1.00  0.00     0.074 A 
ATOM     61  C   UNL     1       5.308   7.667 -16.416  1.00  0.00     0.029 A 
ATOM     62  N   UNL     1       6.738   6.183 -17.232  1.00  0.00    -0.354 N 
ATOM     63  N   UNL     1       7.270   6.540 -20.656  1.00  0.00    -0.248 NA
ATOM     64  C   UNL     1       5.414   7.928 -20.158  1.00  0.00     0.031 C 
ATOM     65  C   UNL     1       6.303   8.321 -17.165  1.00  0.00     0.029 A 
ATOM     66  C   UNL     1       7.234   7.372 -17.612  1.00  0.00     0.049 A 
ATOM     67  H   UNL     1       7.090   5.309 -17.515  1.00  0.00     0.167 HD
ATOM     68  C   UNL     1       7.667   7.581 -19.846  1.00  0.00     0.074 A 
ATOM     69  C   UNL     1       6.576   8.540 -19.891  1.00  0.00     0.031 C 
ATOM     70  C   UNL     1       8.211   7.217 -18.656  1.00  0.00     0.034 A 
BRANCH  57  71
ATOM     71  C   UNL     1       6.584   4.173 -15.537  1.00  0.00     0.023 A 
ATOM     72  C   UNL     1       6.858   2.950 -16.221  1.00  0.00     0.012 A 
ATOM     73  C   UNL     1       7.554   4.505 -14.573  1.00  0.00     0.148 A 
ATOM     74  C   UNL     1       7.859   2.027 -15.866  1.00  0.00     0.002 A 
ATOM     75  C   UNL     1       8.612   3.617 -14.262  1.00  0.00     0.091 A 
ATOM     76  F   UNL     1       7.420   5.668 -13.924  1.00  0.00    -0.205 F 
ATOM     77  C   UNL     1       8.737   2.360 -14.865  1.00  0.00     0.022 A 
BRANCH  75  78
ATOM     78  S   UNL     1       9.881   4.071 -13.080  1.00  0.00     0.127 S 
ATOM     79  O   UNL     1       9.273   3.664 -11.813  1.00  0.00    -0.237 OA
ATOM     80  O   UNL     1      11.040   3.268 -13.474  1.00  0.00    -0.237 OA
ATOM     81  O   UNL     1      10.060   5.506 -13.268  1.00  0.00    -0.744 OA
ENDBRANCH  75  78
ENDBRANCH  57  71
BRANCH  58  82
ATOM     82  C   UNL     1       5.542   6.658 -23.042  1.00  0.00     0.023 A 
ATOM     83  C   UNL     1       5.648   6.123 -24.335  1.00  0.00     0.012 A 
ATOM     84  C   UNL     1       5.754   8.137 -23.130  1.00  0.00     0.148 A 
ATOM     85  C   UNL     1       5.876   6.963 -25.516  1.00  0.00     0.002 A 
ATOM     86  C   UNL     1       5.796   8.967 -24.271  1.00  0.00     0.091 A 
ATOM     87  F   UNL     1       6.308   8.789 -22.124  1.00  0.00    -0.205 F 
ATOM     88  C   UNL     1       5.898   8.370 -25.498  1.00  0.00     0.022 A 
BRANCH  86  89
ATOM     89  S   UNL     1       5.838  10.808 -24.142  1.00  0.00     0.127 S 
ATOM     90  O   UNL     1       6.873  11.191 -25.103  1.00  0.00    -0.237 OA
ATOM     91  O   UNL     1       4.478  11.164 -24.549  1.00  0.00    -0.237 OA
ATOM     92  O   UNL     1       6.150  11.136 -22.755  1.00  0.00    -0.744 OA
ENDBRANCH  86  89
ENDBRANCH  58  82
BRANCH  70  93
ATOM     93  C   UNL     1       9.280   6.137 -18.780  1.00  0.00     0.023 A 
ATOM     94  C   UNL     1      10.550   6.639 -19.091  1.00  0.00     0.012 A 
ATOM     95  C   UNL     1       9.118   4.719 -18.775  1.00  0.00     0.148 A 
ATOM     96  C   UNL     1      11.617   5.788 -19.378  1.00  0.00     0.002 A 
ATOM     97  C   UNL     1      10.184   3.865 -19.082  1.00  0.00     0.091 A 
ATOM     98  F   UNL     1       7.918   4.208 -18.489  1.00  0.00    -0.205 F 
ATOM     99  C   UNL     1      11.437   4.408 -19.377  1.00  0.00     0.022 A 
BRANCH  97 100
ATOM    100  S   UNL     1      10.040   2.069 -19.273  1.00  0.00     0.127 S 
ATOM    101  O   UNL     1      10.636   1.843 -20.591  1.00  0.00    -0.237 OA
ATOM    102  O   UNL     1      10.843   1.552 -18.160  1.00  0.00    -0.237 OA
ATOM    103  O   UNL     1       8.624   1.746 -19.205  1.00  0.00    -0.744 OA
ENDBRANCH  97 100
ENDBRANCH  70  93
ENDBRANCH  44  45
ENDBRANCH  37  39
ENDBRANCH  36  37
ENDBRANCH  35  36
ENDBRANCH  34  35
ENDBRANCH  33  34
ENDBRANCH   1  33
TORSDOF 22
