REMARK SMILES CN(CC(F)(F)F)C(=O)N[C@@H]1CCCCC[C@@H]1C(=O)OCCOCCOCCOC(=O)c1ccc(-c2c3nc(c(-c4cccc(S(=O)(=O)[O-])c4F)c4ccc([nH]4)c(-c4cccc(S(=O)(=O)[O-])c4F)c4nc(c(-c5cccc(S(=O)(=O)[O-])c5F)c5ccc2[nH]5)C=C4)C=C3)cc1
REMARK SMILES IDX 24 1 23 2 22 3 21 4 20 5 18 6 19 7 17 8 11 9 10 10 8 11 9 12
REMARK SMILES IDX 2 14 1 15 3 16 4 17 5 18 6 19 7 20 12 21 13 22 14 23 16 25
REMARK SMILES IDX 15 26 25 28 26 29 27 30 28 31 29 32 30 33 31 34 32 35 33 36
REMARK SMILES IDX 94 37 34 38 93 39 35 40 36 41 37 42 87 43 38 44 92 45 86 46
REMARK SMILES IDX 88 47 39 48 91 49 85 50 84 51 40 53 72 54 52 55 71 56 53 57
REMARK SMILES IDX 56 58 70 59 89 60 54 61 55 62 69 64 90 65 57 66 41 67 42 68
REMARK SMILES IDX 50 69 43 70 45 71 51 72 44 73 46 74 47 75 48 76 49 77 73 78
REMARK SMILES IDX 74 79 82 80 75 81 77 82 83 83 76 84 78 85 79 86 80 87 81 88
REMARK SMILES IDX 58 89 59 90 67 91 60 92 62 93 68 94 61 95 63 96 64 97 65 98
REMARK SMILES IDX 66 99
REMARK H PARENT 10 13 88 52 56 63
REMARK Flexibility Score: 90.00
ROOT
ATOM      1  C   UNL     1      -2.048  -0.446   0.207  1.00  0.00     0.188 C 
ENDROOT
BRANCH   1   2
ATOM      2  O   UNL     1      -0.851  -1.006   0.763  1.00  0.00    -0.376 OA
BRANCH   2   3
ATOM      3  C   UNL     1      -1.093  -1.678   2.009  1.00  0.00     0.202 C 
BRANCH   3   4
ATOM      4  C   UNL     1      -1.018  -0.793   3.269  1.00  0.00     0.261 C 
BRANCH   4   5
ATOM      5  O   UNL     1      -1.732   0.436   3.087  1.00  0.00    -0.463 OA
BRANCH   5   6
ATOM      6  C   UNL     1      -1.553   1.393   4.048  1.00  0.00     0.311 C 
ATOM      7  O   UNL     1      -1.099   1.198   5.165  1.00  0.00    -0.252 OA
BRANCH   6   8
ATOM      8  C   UNL     1      -1.978   2.744   3.489  1.00  0.00     0.121 C 
BRANCH   8   9
ATOM      9  C   UNL     1      -0.792   3.644   3.065  1.00  0.00     0.098 C 
BRANCH   9  10
ATOM     10  N   UNL     1       0.499   2.969   3.087  1.00  0.00    -0.334 N 
ATOM     11  C   UNL     1       1.114   2.123   2.237  1.00  0.00     0.317 C 
ATOM     12  O   UNL     1       1.956   1.373   2.736  1.00  0.00    -0.249 OA
ATOM     13  H   UNL     1       1.032   3.173   3.889  1.00  0.00     0.165 HD
BRANCH  11  14
ATOM     14  N   UNL     1       0.828   2.101   0.895  1.00  0.00    -0.319 N 
ATOM     15  C   UNL     1       1.581   1.118   0.128  1.00  0.00     0.149 C 
BRANCH  14  16
ATOM     16  C   UNL     1       0.290   3.234   0.121  1.00  0.00     0.236 C 
BRANCH  16  17
ATOM     17  C   UNL     1      -1.214   3.296  -0.207  1.00  0.00     0.406 C 
ATOM     18  F   UNL     1      -1.668   4.571  -0.129  1.00  0.00    -0.169 F 
ATOM     19  F   UNL     1      -1.505   2.856  -1.445  1.00  0.00    -0.169 F 
ATOM     20  F   UNL     1      -1.980   2.561   0.617  1.00  0.00    -0.169 F 
ENDBRANCH  16  17
ENDBRANCH  14  16
ENDBRANCH  11  14
ENDBRANCH   9  10
BRANCH   9  21
ATOM     21  C   UNL     1      -0.672   5.025   3.724  1.00  0.00     0.026 C 
BRANCH  21  22
ATOM     22  C   UNL     1      -1.683   6.027   3.158  1.00  0.00     0.002 C 
BRANCH  22  23
ATOM     23  C   UNL     1      -3.092   5.904   3.724  1.00  0.00     0.000 CG0
ATOM     24  G   UNL     1      -3.757   4.540   3.570  1.00  0.00     0.000 G0
ENDBRANCH  22  23
ENDBRANCH  21  22
ENDBRANCH   9  21
ENDBRANCH   8   9
BRANCH   8  25
ATOM     25  C   UNL     1      -3.058   3.411   4.338  1.00  0.00     0.017 C 
BRANCH  25  26
ATOM     26  C   UNL     1      -3.757   4.540   3.570  1.00  0.00     0.001 CG0
ATOM     27  G   UNL     1      -3.092   5.904   3.724  1.00  0.00     0.000 G0
ENDBRANCH  25  26
ENDBRANCH   8  25
ENDBRANCH   6   8
ENDBRANCH   5   6
ENDBRANCH   4   5
ENDBRANCH   3   4
ENDBRANCH   2   3
ENDBRANCH   1   2
BRANCH   1  28
ATOM     28  C   UNL     1      -1.821   0.091  -1.208  1.00  0.00     0.188 C 
BRANCH  28  29
ATOM     29  O   UNL     1      -1.623  -0.950  -2.164  1.00  0.00    -0.376 OA
BRANCH  29  30
ATOM     30  C   UNL     1      -0.285  -1.004  -2.673  1.00  0.00     0.202 C 
BRANCH  30  31
ATOM     31  C   UNL     1      -0.017   0.001  -3.811  1.00  0.00     0.261 C 
BRANCH  31  32
ATOM     32  O   UNL     1       0.374   1.318  -3.348  1.00  0.00    -0.460 OA
BRANCH  32  33
ATOM     33  C   UNL     1      -0.274   2.377  -3.911  1.00  0.00     0.338 C 
ATOM     34  O   UNL     1      -1.240   2.321  -4.655  1.00  0.00    -0.246 OA
BRANCH  33  35
ATOM     35  C   UNL     1       0.293   3.669  -3.424  1.00  0.00     0.060 A 
ATOM     36  C   UNL     1      -0.597   4.703  -3.093  1.00  0.00     0.016 A 
ATOM     37  C   UNL     1       1.666   3.865  -3.231  1.00  0.00     0.016 A 
ATOM     38  C   UNL     1      -0.135   5.883  -2.498  1.00  0.00     0.010 A 
ATOM     39  C   UNL     1       2.135   5.075  -2.687  1.00  0.00     0.010 A 
ATOM     40  C   UNL     1       1.239   6.092  -2.312  1.00  0.00    -0.014 A 
BRANCH  40  41
ATOM     41  C   UNL     1       1.726   7.458  -1.972  1.00  0.00     0.031 A 
ATOM     42  C   UNL     1       1.784   8.464  -3.092  1.00  0.00     0.074 A 
ATOM     43  C   UNL     1       2.105   7.826  -0.732  1.00  0.00     0.049 A 
ATOM     44  N   UNL     1       2.134   9.723  -3.061  1.00  0.00    -0.248 NA
ATOM     45  C   UNL     1       1.380   7.981  -4.423  1.00  0.00     0.031 C 
ATOM     46  C   UNL     1       2.087   6.976   0.454  1.00  0.00     0.029 A 
ATOM     47  N   UNL     1       2.600   9.025  -0.269  1.00  0.00    -0.354 N 
ATOM     48  C   UNL     1       1.991  10.181  -4.364  1.00  0.00     0.074 A 
ATOM     49  C   UNL     1       1.524   9.069  -5.162  1.00  0.00     0.031 C 
ATOM     50  C   UNL     1       2.572   7.666   1.502  1.00  0.00     0.029 A 
ATOM     51  C   UNL     1       2.964   9.004   1.059  1.00  0.00     0.049 A 
ATOM     52  H   UNL     1       2.686   9.825  -0.837  1.00  0.00     0.167 HD
ATOM     53  C   UNL     1       2.227  11.415  -4.865  1.00  0.00     0.034 A 
ATOM     54  C   UNL     1       3.565   9.943   1.821  1.00  0.00     0.034 A 
ATOM     55  C   UNL     1       2.743  12.514  -4.102  1.00  0.00     0.049 A 
ATOM     56  C   UNL     1       3.901  11.287   1.217  1.00  0.00     0.074 A 
ATOM     57  C   UNL     1       3.021  13.800  -4.530  1.00  0.00     0.029 A 
ATOM     58  N   UNL     1       3.097  12.450  -2.764  1.00  0.00    -0.354 N 
ATOM     59  N   UNL     1       3.640  11.742   0.015  1.00  0.00    -0.248 NA
ATOM     60  C   UNL     1       4.592  12.256   2.083  1.00  0.00     0.031 C 
ATOM     61  C   UNL     1       3.577  14.504  -3.457  1.00  0.00     0.029 A 
ATOM     62  C   UNL     1       3.610  13.667  -2.353  1.00  0.00     0.049 A 
ATOM     63  H   UNL     1       2.998  11.655  -2.191  1.00  0.00     0.167 HD
ATOM     64  C   UNL     1       4.101  13.056  -0.006  1.00  0.00     0.074 A 
ATOM     65  C   UNL     1       4.638  13.332   1.309  1.00  0.00     0.031 C 
ATOM     66  C   UNL     1       4.092  13.950  -1.026  1.00  0.00     0.034 A 
BRANCH  53  67
ATOM     67  C   UNL     1       1.936  11.624  -6.324  1.00  0.00     0.023 A 
ATOM     68  C   UNL     1       0.598  11.714  -6.760  1.00  0.00     0.012 A 
ATOM     69  C   UNL     1       2.982  11.739  -7.257  1.00  0.00     0.148 A 
ATOM     70  C   UNL     1       0.306  11.886  -8.112  1.00  0.00     0.002 A 
ATOM     71  C   UNL     1       2.684  11.952  -8.596  1.00  0.00     0.091 A 
ATOM     72  F   UNL     1       4.244  11.615  -6.821  1.00  0.00    -0.205 F 
ATOM     73  C   UNL     1       1.348  12.015  -9.027  1.00  0.00     0.022 A 
BRANCH  71  74
ATOM     74  S   UNL     1       3.955  12.192  -9.841  1.00  0.00     0.127 S 
ATOM     75  O   UNL     1       3.842  10.957 -10.617  1.00  0.00    -0.237 OA
ATOM     76  O   UNL     1       3.484  13.392 -10.531  1.00  0.00    -0.237 OA
ATOM     77  O   UNL     1       5.205  12.359  -9.113  1.00  0.00    -0.744 OA
ENDBRANCH  71  74
ENDBRANCH  53  67
BRANCH  54  78
ATOM     78  C   UNL     1       3.895   9.668   3.253  1.00  0.00     0.023 A 
ATOM     79  C   UNL     1       3.241  10.388   4.273  1.00  0.00     0.012 A 
ATOM     80  C   UNL     1       4.880   8.725   3.607  1.00  0.00     0.148 A 
ATOM     81  C   UNL     1       3.585  10.200   5.614  1.00  0.00     0.002 A 
ATOM     82  C   UNL     1       5.181   8.505   4.947  1.00  0.00     0.091 A 
ATOM     83  F   UNL     1       5.511   8.067   2.624  1.00  0.00    -0.205 F 
ATOM     84  C   UNL     1       4.548   9.254   5.951  1.00  0.00     0.022 A 
BRANCH  82  85
ATOM     85  S   UNL     1       6.328   7.231   5.484  1.00  0.00     0.127 S 
ATOM     86  O   UNL     1       7.433   8.026   6.013  1.00  0.00    -0.237 OA
ATOM     87  O   UNL     1       5.537   6.524   6.492  1.00  0.00    -0.237 OA
ATOM     88  O   UNL     1       6.628   6.447   4.293  1.00  0.00    -0.744 OA
ENDBRANCH  82  85
ENDBRANCH  54  78
BRANCH  66  89
ATOM     89  C   UNL     1       4.642  15.330  -0.769  1.00  0.00     0.023 A 
ATOM     90  C   UNL     1       6.031  15.521  -0.630  1.00  0.00     0.012 A 
ATOM     91  C   UNL     1       3.788  16.451  -0.765  1.00  0.00     0.148 A 
ATOM     92  C   UNL     1       6.557  16.802  -0.462  1.00  0.00     0.002 A 
ATOM     93  C   UNL     1       4.324  17.728  -0.649  1.00  0.00     0.091 A 
ATOM     94  F   UNL     1       2.467  16.249  -0.883  1.00  0.00    -0.205 F 
ATOM     95  C   UNL     1       5.707  17.905  -0.485  1.00  0.00     0.022 A 
BRANCH  93  96
ATOM     96  S   UNL     1       3.316  19.211  -0.771  1.00  0.00     0.127 S 
ATOM     97  O   UNL     1       3.307  19.680   0.613  1.00  0.00    -0.237 OA
ATOM     98  O   UNL     1       4.094  20.041  -1.692  1.00  0.00    -0.237 OA
ATOM     99  O   UNL     1       2.026  18.777  -1.293  1.00  0.00    -0.744 OA
ENDBRANCH  93  96
ENDBRANCH  66  89
ENDBRANCH  40  41
ENDBRANCH  33  35
ENDBRANCH  32  33
ENDBRANCH  31  32
ENDBRANCH  30  31
ENDBRANCH  29  30
ENDBRANCH  28  29
ENDBRANCH   1  28
TORSDOF 24
