REMARK SMILES O=C(OCCOCCOCCOC(=O)c1ccc(Cn2cc(Br)cc([N+](=O)[O-])c2=O)nc1)c1ccc(-c2c3nc(c(-c4cccc(S(=O)(=O)[O-])c4F)c4ccc([nH]4)c(-c4cccc(S(=O)(=O)[O-])c4F)c4nc(c(-c5cccc(S(=O)(=O)[O-])c5F)c5ccc2[nH]5)C=C4)C=C3)cc1
REMARK SMILES IDX 7 1 6 2 5 3 4 4 3 5 2 6 1 7 33 8 34 9 95 10 35 11 94 12
REMARK SMILES IDX 36 13 37 14 38 15 88 16 39 17 93 18 87 19 89 20 40 21 92 22
REMARK SMILES IDX 86 23 85 24 41 26 73 27 53 28 72 29 54 30 57 31 71 32 90 33
REMARK SMILES IDX 55 34 56 35 70 37 91 38 58 39 42 40 43 41 51 42 44 43 46 44
REMARK SMILES IDX 52 45 45 46 47 47 48 48 49 49 50 50 74 51 75 52 83 53 76 54
REMARK SMILES IDX 78 55 84 56 77 57 79 58 80 59 81 60 82 61 59 62 60 63 68 64
REMARK SMILES IDX 61 65 63 66 69 67 62 68 64 69 65 70 66 71 67 72 8 73 9 74
REMARK SMILES IDX 10 75 11 76 12 77 13 78 14 79 15 80 16 81 32 82 17 83 31 84
REMARK SMILES IDX 18 85 19 86 20 87 21 88 29 89 22 90 25 91 30 92 23 93 24 94
REMARK SMILES IDX 26 95 27 96 28 97
REMARK H PARENT 89 25 57 36
REMARK Flexibility Score: inf
ROOT
ATOM      1  C   UNL     1       2.681   1.024  -1.363  1.00  0.00     0.188 C 
ENDROOT
BRANCH   1   2
ATOM      2  O   UNL     1       4.061   0.785  -1.099  1.00  0.00    -0.376 OA
BRANCH   2   3
ATOM      3  C   UNL     1       4.537  -0.422  -1.694  1.00  0.00     0.202 C 
BRANCH   3   4
ATOM      4  C   UNL     1       4.602  -1.577  -0.698  1.00  0.00     0.261 C 
BRANCH   4   5
ATOM      5  O   UNL     1       3.347  -1.837  -0.047  1.00  0.00    -0.460 OA
BRANCH   5   6
ATOM      6  C   UNL     1       2.797  -1.313   1.073  1.00  0.00     0.338 C 
ATOM      7  O   UNL     1       1.735  -1.806   1.458  1.00  0.00    -0.246 OA
BRANCH   6   8
ATOM      8  C   UNL     1       3.326  -0.137   1.845  1.00  0.00     0.060 A 
ATOM      9  C   UNL     1       2.401   0.520   2.685  1.00  0.00     0.016 A 
ATOM     10  C   UNL     1       4.646   0.322   1.864  1.00  0.00     0.016 A 
ATOM     11  C   UNL     1       2.788   1.569   3.529  1.00  0.00     0.010 A 
ATOM     12  C   UNL     1       5.038   1.375   2.700  1.00  0.00     0.010 A 
ATOM     13  C   UNL     1       4.120   1.986   3.557  1.00  0.00    -0.014 A 
BRANCH  13  14
ATOM     14  C   UNL     1       4.610   2.905   4.607  1.00  0.00     0.031 A 
ATOM     15  C   UNL     1       4.856   4.355   4.340  1.00  0.00     0.074 A 
ATOM     16  C   UNL     1       4.938   2.374   5.801  1.00  0.00     0.049 A 
ATOM     17  N   UNL     1       5.170   5.296   5.191  1.00  0.00    -0.248 NA
ATOM     18  C   UNL     1       4.758   4.812   2.946  1.00  0.00     0.031 C 
ATOM     19  C   UNL     1       4.850   0.951   6.135  1.00  0.00     0.029 A 
ATOM     20  N   UNL     1       5.441   2.954   6.936  1.00  0.00    -0.354 N 
ATOM     21  C   UNL     1       5.292   6.459   4.447  1.00  0.00     0.074 A 
ATOM     22  C   UNL     1       5.065   6.100   3.064  1.00  0.00     0.031 C 
ATOM     23  C   UNL     1       5.300   0.766   7.385  1.00  0.00     0.029 A 
ATOM     24  C   UNL     1       5.689   2.057   7.946  1.00  0.00     0.049 A 
ATOM     25  H   UNL     1       5.609   3.921   7.019  1.00  0.00     0.167 HD
ATOM     26  C   UNL     1       5.527   7.714   4.894  1.00  0.00     0.034 A 
ATOM     27  C   UNL     1       6.152   2.250   9.195  1.00  0.00     0.034 A 
ATOM     28  C   UNL     1       5.757   8.047   6.273  1.00  0.00     0.049 A 
ATOM     29  C   UNL     1       6.418   3.649   9.667  1.00  0.00     0.074 A 
ATOM     30  C   UNL     1       5.857   9.301   6.849  1.00  0.00     0.029 A 
ATOM     31  N   UNL     1       5.967   7.122   7.282  1.00  0.00    -0.354 N 
ATOM     32  N   UNL     1       6.257   4.775   9.014  1.00  0.00    -0.248 NA
ATOM     33  C   UNL     1       6.885   3.816  11.050  1.00  0.00     0.031 C 
ATOM     34  C   UNL     1       6.146   9.133   8.207  1.00  0.00     0.029 A 
ATOM     35  C   UNL     1       6.228   7.775   8.472  1.00  0.00     0.049 A 
ATOM     36  H   UNL     1       5.934   6.144   7.168  1.00  0.00     0.167 HD
ATOM     37  C   UNL     1       6.573   5.785   9.912  1.00  0.00     0.074 A 
ATOM     38  C   UNL     1       6.938   5.139  11.157  1.00  0.00     0.031 C 
ATOM     39  C   UNL     1       6.561   7.125   9.714  1.00  0.00     0.034 A 
BRANCH  26  40
ATOM     40  C   UNL     1       5.433   8.846   3.913  1.00  0.00     0.023 A 
ATOM     41  C   UNL     1       4.160   9.394   3.656  1.00  0.00     0.012 A 
ATOM     42  C   UNL     1       6.575   9.444   3.353  1.00  0.00     0.148 A 
ATOM     43  C   UNL     1       4.019  10.514   2.839  1.00  0.00     0.002 A 
ATOM     44  C   UNL     1       6.429  10.574   2.555  1.00  0.00     0.091 A 
ATOM     45  F   UNL     1       7.772   8.900   3.607  1.00  0.00    -0.205 F 
ATOM     46  C   UNL     1       5.154  11.106   2.294  1.00  0.00     0.022 A 
BRANCH  44  47
ATOM     47  S   UNL     1       7.829  11.452   1.850  1.00  0.00     0.127 S 
ATOM     48  O   UNL     1       7.699  11.109   0.435  1.00  0.00    -0.237 OA
ATOM     49  O   UNL     1       7.514  12.844   2.173  1.00  0.00    -0.237 OA
ATOM     50  O   UNL     1       9.009  10.922   2.518  1.00  0.00    -0.744 OA
ENDBRANCH  44  47
ENDBRANCH  26  40
BRANCH  27  51
ATOM     51  C   UNL     1       6.255   1.078  10.102  1.00  0.00     0.023 A 
ATOM     52  C   UNL     1       5.214   0.839  11.018  1.00  0.00     0.012 A 
ATOM     53  C   UNL     1       7.290   0.133   9.965  1.00  0.00     0.148 A 
ATOM     54  C   UNL     1       5.197  -0.329  11.781  1.00  0.00     0.002 A 
ATOM     55  C   UNL     1       7.250  -1.044  10.704  1.00  0.00     0.091 A 
ATOM     56  F   UNL     1       8.267   0.388   9.083  1.00  0.00    -0.205 F 
ATOM     57  C   UNL     1       6.207  -1.274  11.616  1.00  0.00     0.022 A 
BRANCH  55  58
ATOM     58  S   UNL     1       8.443  -2.369  10.487  1.00  0.00     0.127 S 
ATOM     59  O   UNL     1       9.123  -2.373  11.780  1.00  0.00    -0.237 OA
ATOM     60  O   UNL     1       7.573  -3.520  10.244  1.00  0.00    -0.237 OA
ATOM     61  O   UNL     1       9.265  -1.981   9.348  1.00  0.00    -0.744 OA
ENDBRANCH  55  58
ENDBRANCH  27  51
BRANCH  39  62
ATOM     62  C   UNL     1       6.963   8.016  10.854  1.00  0.00     0.023 A 
ATOM     63  C   UNL     1       8.332   8.238  11.095  1.00  0.00     0.012 A 
ATOM     64  C   UNL     1       5.998   8.753  11.566  1.00  0.00     0.148 A 
ATOM     65  C   UNL     1       8.737   9.188  12.031  1.00  0.00     0.002 A 
ATOM     66  C   UNL     1       6.410   9.722  12.473  1.00  0.00     0.091 A 
ATOM     67  F   UNL     1       4.703   8.519  11.312  1.00  0.00    -0.205 F 
ATOM     68  C   UNL     1       7.778   9.938  12.709  1.00  0.00     0.022 A 
BRANCH  66  69
ATOM     69  S   UNL     1       5.257  10.800  13.330  1.00  0.00     0.127 S 
ATOM     70  O   UNL     1       5.490  10.437  14.727  1.00  0.00    -0.237 OA
ATOM     71  O   UNL     1       5.743  12.128  12.954  1.00  0.00    -0.237 OA
ATOM     72  O   UNL     1       3.934  10.467  12.819  1.00  0.00    -0.744 OA
ENDBRANCH  66  69
ENDBRANCH  39  62
ENDBRANCH  13  14
ENDBRANCH   6   8
ENDBRANCH   5   6
ENDBRANCH   4   5
ENDBRANCH   3   4
ENDBRANCH   2   3
ENDBRANCH   1   2
BRANCH   1  73
ATOM     73  C   UNL     1       2.368   1.756  -2.679  1.00  0.00     0.188 C 
BRANCH  73  74
ATOM     74  O   UNL     1       3.355   1.721  -3.703  1.00  0.00    -0.376 OA
BRANCH  74  75
ATOM     75  C   UNL     1       4.538   2.501  -3.487  1.00  0.00     0.202 C 
BRANCH  75  76
ATOM     76  C   UNL     1       4.328   4.003  -3.296  1.00  0.00     0.261 C 
BRANCH  76  77
ATOM     77  O   UNL     1       3.774   4.294  -1.998  1.00  0.00    -0.460 OA
BRANCH  77  78
ATOM     78  C   UNL     1       2.944   5.359  -1.971  1.00  0.00     0.339 C 
ATOM     79  O   UNL     1       2.608   6.065  -2.917  1.00  0.00    -0.246 OA
BRANCH  78  80
ATOM     80  C   UNL     1       2.475   5.607  -0.611  1.00  0.00     0.078 A 
ATOM     81  C   UNL     1       2.797   6.798   0.030  1.00  0.00     0.019 A 
ATOM     82  C   UNL     1       1.583   4.746   0.001  1.00  0.00     0.127 A 
ATOM     83  C   UNL     1       2.206   7.086   1.259  1.00  0.00     0.026 A 
ATOM     84  N   UNL     1       1.001   5.003   1.196  1.00  0.00    -0.258 NA
ATOM     85  C   UNL     1       1.313   6.171   1.817  1.00  0.00     0.060 A 
BRANCH  85  86
ATOM     86  C   UNL     1       0.547   6.512   3.084  1.00  0.00     0.181 C 
BRANCH  86  87
ATOM     87  N   UNL     1      -0.838   6.882   2.758  1.00  0.00    -0.303 N 
ATOM     88  C   UNL     1      -1.134   8.200   2.425  1.00  0.00     0.105 A 
ATOM     89  C   UNL     1      -1.804   5.859   2.715  1.00  0.00     0.329 A 
ATOM     90  C   UNL     1      -2.353   8.564   1.995  1.00  0.00     0.041 A 
ATOM     91  C   UNL     1      -3.097   6.278   2.126  1.00  0.00     0.335 A 
ATOM     92  O   UNL     1      -1.627   4.730   3.158  1.00  0.00    -0.261 OA
ATOM     93  Br  UNL     1      -2.779  10.324   1.559  1.00  0.00    -0.049 Br
ATOM     94  C   UNL     1      -3.369   7.553   1.805  1.00  0.00     0.109 A 
BRANCH  91  95
ATOM     95  N   UNL     1      -4.099   5.289   1.840  1.00  0.00     0.068 N 
ATOM     96  O   UNL     1      -3.749   4.268   1.236  1.00  0.00    -0.258 OA
ATOM     97  O   UNL     1      -5.272   5.566   2.137  1.00  0.00    -0.258 OA
ENDBRANCH  91  95
ENDBRANCH  86  87
ENDBRANCH  85  86
ENDBRANCH  78  80
ENDBRANCH  77  78
ENDBRANCH  76  77
ENDBRANCH  75  76
ENDBRANCH  74  75
ENDBRANCH  73  74
ENDBRANCH   1  73
TORSDOF 23
