REMARK SMILES CSCC[C@H](C(=O)OCCOCCOCCOC(=O)c1ccc(-c2c3nc(c(-c4cccc(S(=O)(=O)[O-])c4F)c4ccc([nH]4)c(-c4cccc(S(=O)(=O)[O-])c4F)c4nc(c(-c5cccc(S(=O)(=O)[O-])c5F)c5ccc2[nH]5)C=C4)C=C3)cc1)N1C(=O)/C(=C/c2ccc3ncccc3c2)SC1=S
REMARK SMILES IDX 12 1 11 2 10 3 9 4 8 5 6 6 7 7 5 8 4 9 3 10 2 11 1 12 83 13
REMARK SMILES IDX 84 14 99 15 85 16 86 17 98 18 100 19 87 20 88 21 89 22 97 23
REMARK SMILES IDX 90 24 96 25 91 26 95 27 92 28 94 29 93 30 13 31 14 32 15 33
REMARK SMILES IDX 16 34 17 35 18 36 19 37 20 38 21 39 82 40 22 41 81 42 23 43
REMARK SMILES IDX 24 44 25 45 75 46 26 47 80 48 74 49 76 50 27 51 79 52 73 53
REMARK SMILES IDX 72 54 28 56 60 57 40 58 59 59 41 60 44 61 58 62 77 63 42 64
REMARK SMILES IDX 43 65 57 67 78 68 45 69 29 70 30 71 38 72 31 73 33 74 39 75
REMARK SMILES IDX 32 76 34 77 35 78 36 79 37 80 61 81 62 82 70 83 63 84 65 85
REMARK SMILES IDX 71 86 64 87 66 88 67 89 68 90 69 91 46 92 47 93 55 94 48 95
REMARK SMILES IDX 50 96 56 97 49 98 51 99 52 100 53 101 54 102
REMARK H PARENT 76 55 44 66
REMARK Flexibility Score: inf
ROOT
ATOM      1  C   UNL     1       1.883  -0.936  -5.012  1.00  0.00     0.188 C 
ENDROOT
BRANCH   1   2
ATOM      2  O   UNL     1       1.119  -2.023  -5.492  1.00  0.00    -0.376 OA
BRANCH   2   3
ATOM      3  C   UNL     1      -0.285  -2.043  -5.282  1.00  0.00     0.202 C 
BRANCH   3   4
ATOM      4  C   UNL     1      -0.884  -1.482  -3.986  1.00  0.00     0.261 C 
BRANCH   4   5
ATOM      5  O   UNL     1      -0.414  -0.160  -3.674  1.00  0.00    -0.462 OA
BRANCH   5   6
ATOM      6  C   UNL     1      -0.413   0.193  -2.363  1.00  0.00     0.329 C 
ATOM      7  O   UNL     1      -0.743  -0.567  -1.457  1.00  0.00    -0.250 OA
BRANCH   6   8
ATOM      8  C   UNL     1       0.294   1.549  -2.074  1.00  0.00     0.202 C 
BRANCH   8   9
ATOM      9  C   UNL     1       1.820   1.180  -1.975  1.00  0.00     0.048 C 
BRANCH   9  10
ATOM     10  C   UNL     1       2.706   1.752  -0.864  1.00  0.00     0.072 C 
BRANCH  10  11
ATOM     11  S   UNL     1       2.564   1.028   0.799  1.00  0.00    -0.165 SA
ATOM     12  C   UNL     1       0.851   1.381   1.235  1.00  0.00     0.085 C 
ENDBRANCH  10  11
ENDBRANCH   9  10
ENDBRANCH   8   9
BRANCH   8  13
ATOM     13  N   UNL     1       0.069   2.735  -2.966  1.00  0.00    -0.278 N 
ATOM     14  C   UNL     1      -0.810   2.717  -4.043  1.00  0.00     0.266 C 
ATOM     15  C   UNL     1       0.413   4.028  -2.613  1.00  0.00     0.149 C 
ATOM     16  O   UNL     1      -1.722   1.923  -4.231  1.00  0.00    -0.268 OA
ATOM     17  C   UNL     1      -0.696   3.974  -4.842  1.00  0.00     0.081 C 
ATOM     18  S   UNL     1       0.306   5.082  -4.003  1.00  0.00    -0.054 SA
ATOM     19  S   UNL     1       0.755   4.679  -1.119  1.00  0.00    -0.052 S 
ATOM     20  C   UNL     1      -1.402   4.212  -5.959  1.00  0.00     0.029 C 
BRANCH  20  21
ATOM     21  C   UNL     1      -1.509   5.540  -6.586  1.00  0.00    -0.024 A 
ATOM     22  C   UNL     1      -2.765   6.146  -6.640  1.00  0.00     0.010 A 
ATOM     23  C   UNL     1      -0.391   6.269  -7.002  1.00  0.00     0.018 A 
ATOM     24  C   UNL     1      -2.885   7.486  -7.026  1.00  0.00     0.029 A 
ATOM     25  C   UNL     1      -0.511   7.631  -7.337  1.00  0.00     0.001 A 
ATOM     26  C   UNL     1      -1.776   8.255  -7.344  1.00  0.00     0.070 A 
ATOM     27  C   UNL     1       0.612   8.420  -7.618  1.00  0.00     0.012 A 
ATOM     28  N   UNL     1      -1.934   9.563  -7.616  1.00  0.00    -0.256 NA
ATOM     29  C   UNL     1       0.457   9.777  -7.872  1.00  0.00     0.021 A 
ATOM     30  C   UNL     1      -0.824  10.295  -7.860  1.00  0.00     0.112 A 
ENDBRANCH  20  21
ENDBRANCH   8  13
ENDBRANCH   6   8
ENDBRANCH   5   6
ENDBRANCH   4   5
ENDBRANCH   3   4
ENDBRANCH   2   3
ENDBRANCH   1   2
BRANCH   1  31
ATOM     31  C   UNL     1       1.621   0.486  -5.557  1.00  0.00     0.188 C 
BRANCH  31  32
ATOM     32  O   UNL     1       0.774   0.720  -6.664  1.00  0.00    -0.376 OA
BRANCH  32  33
ATOM     33  C   UNL     1       0.985  -0.046  -7.838  1.00  0.00     0.202 C 
BRANCH  33  34
ATOM     34  C   UNL     1       2.379  -0.079  -8.479  1.00  0.00     0.261 C 
BRANCH  34  35
ATOM     35  O   UNL     1       3.453  -0.419  -7.584  1.00  0.00    -0.460 OA
BRANCH  35  36
ATOM     36  C   UNL     1       4.352   0.567  -7.337  1.00  0.00     0.338 C 
ATOM     37  O   UNL     1       4.346   1.701  -7.801  1.00  0.00    -0.246 OA
BRANCH  36  38
ATOM     38  C   UNL     1       5.251   0.161  -6.237  1.00  0.00     0.060 A 
ATOM     39  C   UNL     1       5.197   0.868  -5.026  1.00  0.00     0.016 A 
ATOM     40  C   UNL     1       6.164  -0.879  -6.404  1.00  0.00     0.016 A 
ATOM     41  C   UNL     1       6.046   0.527  -3.972  1.00  0.00     0.010 A 
ATOM     42  C   UNL     1       7.038  -1.196  -5.357  1.00  0.00     0.010 A 
ATOM     43  C   UNL     1       6.992  -0.490  -4.140  1.00  0.00    -0.014 A 
BRANCH  43  44
ATOM     44  C   UNL     1       8.007  -0.750  -3.089  1.00  0.00     0.031 A 
ATOM     45  C   UNL     1       9.390  -0.185  -3.249  1.00  0.00     0.074 A 
ATOM     46  C   UNL     1       7.710  -1.508  -2.017  1.00  0.00     0.049 A 
ATOM     47  N   UNL     1      10.454  -0.381  -2.516  1.00  0.00    -0.248 NA
ATOM     48  C   UNL     1       9.602   0.725  -4.388  1.00  0.00     0.031 C 
ATOM     49  C   UNL     1       6.400  -2.090  -1.728  1.00  0.00     0.029 A 
ATOM     50  N   UNL     1       8.508  -1.949  -0.988  1.00  0.00    -0.354 N 
ATOM     51  C   UNL     1      11.472   0.344  -3.123  1.00  0.00     0.074 A 
ATOM     52  C   UNL     1      10.896   0.997  -4.279  1.00  0.00     0.031 C 
ATOM     53  C   UNL     1       6.494  -2.850  -0.624  1.00  0.00     0.029 A 
ATOM     54  C   UNL     1       7.878  -2.840  -0.151  1.00  0.00     0.049 A 
ATOM     55  H   UNL     1       9.439  -1.655  -0.863  1.00  0.00     0.167 HD
ATOM     56  C   UNL     1      12.769   0.456  -2.751  1.00  0.00     0.034 A 
ATOM     57  C   UNL     1       8.371  -3.598   0.850  1.00  0.00     0.034 A 
ATOM     58  C   UNL     1      13.339  -0.179  -1.593  1.00  0.00     0.049 A 
ATOM     59  C   UNL     1       9.833  -3.492   1.209  1.00  0.00     0.074 A 
ATOM     60  C   UNL     1      14.633  -0.080  -1.111  1.00  0.00     0.029 A 
ATOM     61  N   UNL     1      12.665  -1.048  -0.750  1.00  0.00    -0.354 N 
ATOM     62  N   UNL     1      10.757  -2.714   0.698  1.00  0.00    -0.248 NA
ATOM     63  C   UNL     1      10.316  -4.354   2.299  1.00  0.00     0.031 C 
ATOM     64  C   UNL     1      14.752  -0.921  -0.001  1.00  0.00     0.029 A 
ATOM     65  C   UNL     1      13.522  -1.513   0.232  1.00  0.00     0.049 A 
ATOM     66  H   UNL     1      11.716  -1.297  -0.838  1.00  0.00     0.167 HD
ATOM     67  C   UNL     1      11.917  -2.970   1.423  1.00  0.00     0.074 A 
ATOM     68  C   UNL     1      11.573  -3.954   2.428  1.00  0.00     0.031 C 
ATOM     69  C   UNL     1      13.160  -2.453   1.261  1.00  0.00     0.034 A 
BRANCH  56  70
ATOM     70  C   UNL     1      13.678   1.301  -3.601  1.00  0.00     0.023 A 
ATOM     71  C   UNL     1      13.590   2.705  -3.543  1.00  0.00     0.012 A 
ATOM     72  C   UNL     1      14.682   0.699  -4.385  1.00  0.00     0.148 A 
ATOM     73  C   UNL     1      14.479   3.500  -4.266  1.00  0.00     0.002 A 
ATOM     74  C   UNL     1      15.591   1.497  -5.069  1.00  0.00     0.091 A 
ATOM     75  F   UNL     1      14.733  -0.639  -4.440  1.00  0.00    -0.205 F 
ATOM     76  C   UNL     1      15.485   2.897  -5.018  1.00  0.00     0.022 A 
BRANCH  74  77
ATOM     77  S   UNL     1      16.970   0.820  -5.999  1.00  0.00     0.127 S 
ATOM     78  O   UNL     1      16.616   1.201  -7.367  1.00  0.00    -0.237 OA
ATOM     79  O   UNL     1      18.105   1.551  -5.437  1.00  0.00    -0.237 OA
ATOM     80  O   UNL     1      16.972  -0.612  -5.736  1.00  0.00    -0.744 OA
ENDBRANCH  74  77
ENDBRANCH  56  70
BRANCH  57  81
ATOM     81  C   UNL     1       7.487  -4.551   1.583  1.00  0.00     0.023 A 
ATOM     82  C   UNL     1       7.215  -4.343   2.949  1.00  0.00     0.012 A 
ATOM     83  C   UNL     1       6.942  -5.680   0.940  1.00  0.00     0.148 A 
ATOM     84  C   UNL     1       6.455  -5.264   3.672  1.00  0.00     0.002 A 
ATOM     85  C   UNL     1       6.135  -6.561   1.651  1.00  0.00     0.091 A 
ATOM     86  F   UNL     1       7.230  -5.876  -0.354  1.00  0.00    -0.205 F 
ATOM     87  C   UNL     1       5.908  -6.368   3.022  1.00  0.00     0.022 A 
BRANCH  85  88
ATOM     88  S   UNL     1       5.292  -7.938   0.864  1.00  0.00     0.127 S 
ATOM     89  O   UNL     1       6.043  -9.081   1.374  1.00  0.00    -0.237 OA
ATOM     90  O   UNL     1       3.935  -7.805   1.395  1.00  0.00    -0.237 OA
ATOM     91  O   UNL     1       5.400  -7.696  -0.569  1.00  0.00    -0.744 OA
ENDBRANCH  85  88
ENDBRANCH  57  81
BRANCH  69  92
ATOM     92  C   UNL     1      14.243  -2.909   2.207  1.00  0.00     0.023 A 
ATOM     93  C   UNL     1      14.759  -4.216   2.105  1.00  0.00     0.012 A 
ATOM     94  C   UNL     1      14.801  -2.018   3.146  1.00  0.00     0.148 A 
ATOM     95  C   UNL     1      15.788  -4.641   2.946  1.00  0.00     0.002 A 
ATOM     96  C   UNL     1      15.861  -2.431   3.945  1.00  0.00     0.091 A 
ATOM     97  F   UNL     1      14.289  -0.782   3.237  1.00  0.00    -0.205 F 
ATOM     98  C   UNL     1      16.346  -3.746   3.856  1.00  0.00     0.022 A 
BRANCH  96  99
ATOM     99  S   UNL     1      16.709  -1.323   5.077  1.00  0.00     0.127 S 
ATOM    100  O   UNL     1      16.305  -1.859   6.376  1.00  0.00    -0.237 OA
ATOM    101  O   UNL     1      18.114  -1.548   4.735  1.00  0.00    -0.237 OA
ATOM    102  O   UNL     1      16.218   0.015   4.776  1.00  0.00    -0.744 OA
ENDBRANCH  96  99
ENDBRANCH  69  92
ENDBRANCH  43  44
ENDBRANCH  36  38
ENDBRANCH  35  36
ENDBRANCH  34  35
ENDBRANCH  33  34
ENDBRANCH  32  33
ENDBRANCH  31  32
ENDBRANCH   1  31
TORSDOF 25
