REMARK SMILES O=C(OCCOCCOCCOC(=O)c1ccc(-n2cc(CSc3nc4ccccc4c(=O)n3-c3ccc(Br)cc3)nn2)cc1)c1ccc(-c2c3nc(c(-c4cccc(S(=O)(=O)[O-])c4F)c4ccc([nH]4)c(-c4cccc(S(=O)(=O)[O-])c4F)c4nc(c(-c5cccc(S(=O)(=O)[O-])c5F)c5ccc2[nH]5)C=C4)C=C3)cc1
REMARK SMILES IDX 8 1 7 2 6 3 5 4 4 5 3 6 2 7 1 8 46 9 47 10 108 11 48 12
REMARK SMILES IDX 107 13 49 14 50 15 51 16 101 17 52 18 106 19 100 20 102 21
REMARK SMILES IDX 53 22 105 23 99 24 98 25 54 27 86 28 66 29 85 30 67 31 70 32
REMARK SMILES IDX 84 33 103 34 68 35 69 36 83 38 104 39 71 40 55 41 56 42
REMARK SMILES IDX 64 43 57 44 59 45 65 46 58 47 60 48 61 49 62 50 63 51 87 52
REMARK SMILES IDX 88 53 96 54 89 55 91 56 97 57 90 58 92 59 93 60 94 61 95 62
REMARK SMILES IDX 72 63 73 64 81 65 74 66 76 67 82 68 75 69 77 70 78 71 79 72
REMARK SMILES IDX 80 73 9 74 10 75 11 76 12 77 13 78 14 79 15 80 16 81 45 82
REMARK SMILES IDX 17 83 44 84 18 85 19 86 20 87 43 88 21 89 42 90 22 91 23 92
REMARK SMILES IDX 24 93 25 94 34 95 26 96 32 97 27 98 31 99 33 100 28 101
REMARK SMILES IDX 30 102 29 103 35 104 36 105 41 106 37 107 40 108 38 109
REMARK SMILES IDX 39 110
REMARK H PARENT 102 26 70 37
REMARK Flexibility Score: inf
ROOT
ATOM      1  C   UNL     1       2.513  -2.252  -0.526  1.00  0.00     0.188 C 
ENDROOT
BRANCH   1   2
ATOM      2  C   UNL     1       3.474  -1.206  -1.147  1.00  0.00     0.188 C 
BRANCH   2   3
ATOM      3  O   UNL     1       4.822  -1.327  -0.759  1.00  0.00    -0.376 OA
BRANCH   3   4
ATOM      4  C   UNL     1       5.417  -0.451   0.175  1.00  0.00     0.202 C 
BRANCH   4   5
ATOM      5  C   UNL     1       4.662   0.212   1.336  1.00  0.00     0.261 C 
BRANCH   5   6
ATOM      6  O   UNL     1       3.258  -0.027   1.402  1.00  0.00    -0.460 OA
BRANCH   6   7
ATOM      7  C   UNL     1       2.203   0.727   1.034  1.00  0.00     0.338 C 
ATOM      8  O   UNL     1       1.085   0.346   1.384  1.00  0.00    -0.246 OA
BRANCH   7   9
ATOM      9  C   UNL     1       2.271   1.936   0.161  1.00  0.00     0.060 A 
ATOM     10  C   UNL     1       3.417   2.639  -0.212  1.00  0.00     0.016 A 
ATOM     11  C   UNL     1       1.019   2.411  -0.285  1.00  0.00     0.016 A 
ATOM     12  C   UNL     1       3.297   3.894  -0.792  1.00  0.00     0.010 A 
ATOM     13  C   UNL     1       0.895   3.645  -0.898  1.00  0.00     0.010 A 
ATOM     14  C   UNL     1       2.031   4.419  -1.059  1.00  0.00    -0.014 A 
BRANCH  14  15
ATOM     15  C   UNL     1       1.947   5.767  -1.591  1.00  0.00     0.031 A 
ATOM     16  C   UNL     1       2.524   5.902  -2.948  1.00  0.00     0.074 A 
ATOM     17  C   UNL     1       1.376   6.784  -0.916  1.00  0.00     0.049 A 
ATOM     18  N   UNL     1       3.655   6.445  -3.257  1.00  0.00    -0.248 NA
ATOM     19  C   UNL     1       1.877   5.189  -4.057  1.00  0.00     0.031 C 
ATOM     20  C   UNL     1       0.559   6.712   0.299  1.00  0.00     0.029 A 
ATOM     21  N   UNL     1       1.312   8.105  -1.245  1.00  0.00    -0.354 N 
ATOM     22  C   UNL     1       3.728   6.378  -4.646  1.00  0.00     0.074 A 
ATOM     23  C   UNL     1       2.738   5.416  -5.052  1.00  0.00     0.031 C 
ATOM     24  C   UNL     1      -0.114   7.876   0.453  1.00  0.00     0.029 A 
ATOM     25  C   UNL     1       0.329   8.816  -0.562  1.00  0.00     0.049 A 
ATOM     26  H   UNL     1       1.909   8.520  -1.909  1.00  0.00     0.167 HD
ATOM     27  C   UNL     1       4.403   7.328  -5.350  1.00  0.00     0.034 A 
ATOM     28  C   UNL     1      -0.129  10.059  -0.862  1.00  0.00     0.034 A 
ATOM     29  C   UNL     1       5.268   8.095  -4.487  1.00  0.00     0.049 A 
ATOM     30  C   UNL     1       0.910  10.723  -1.681  1.00  0.00     0.074 A 
ATOM     31  C   UNL     1       6.322   7.806  -3.644  1.00  0.00     0.029 A 
ATOM     32  N   UNL     1       4.822   9.344  -4.128  1.00  0.00    -0.354 N 
ATOM     33  N   UNL     1       2.075  11.072  -1.213  1.00  0.00    -0.248 NA
ATOM     34  C   UNL     1       0.825  10.597  -3.126  1.00  0.00     0.031 C 
ATOM     35  C   UNL     1       6.151   8.681  -2.531  1.00  0.00     0.029 A 
ATOM     36  C   UNL     1       5.056   9.507  -2.792  1.00  0.00     0.049 A 
ATOM     37  H   UNL     1       4.406  10.004  -4.728  1.00  0.00     0.167 HD
ATOM     38  C   UNL     1       2.960  10.727  -2.225  1.00  0.00     0.074 A 
ATOM     39  C   UNL     1       2.128  10.547  -3.414  1.00  0.00     0.031 C 
ATOM     40  C   UNL     1       4.232  10.328  -1.934  1.00  0.00     0.034 A 
BRANCH  27  41
ATOM     41  C   UNL     1       3.993   7.860  -6.707  1.00  0.00     0.023 A 
ATOM     42  C   UNL     1       4.864   8.795  -7.314  1.00  0.00     0.012 A 
ATOM     43  C   UNL     1       2.699   7.738  -7.265  1.00  0.00     0.148 A 
ATOM     44  C   UNL     1       4.443   9.622  -8.361  1.00  0.00     0.002 A 
ATOM     45  C   UNL     1       2.309   8.509  -8.354  1.00  0.00     0.091 A 
ATOM     46  F   UNL     1       1.782   6.970  -6.675  1.00  0.00    -0.205 F 
ATOM     47  C   UNL     1       3.165   9.478  -8.882  1.00  0.00     0.022 A 
BRANCH  45  48
ATOM     48  S   UNL     1       0.680   8.348  -9.098  1.00  0.00     0.127 S 
ATOM     49  O   UNL     1       0.077   9.634  -8.760  1.00  0.00    -0.237 OA
ATOM     50  O   UNL     1       1.019   8.172 -10.510  1.00  0.00    -0.237 OA
ATOM     51  O   UNL     1       0.072   7.179  -8.476  1.00  0.00    -0.744 OA
ENDBRANCH  45  48
ENDBRANCH  27  41
BRANCH  28  52
ATOM     52  C   UNL     1      -1.490  10.635  -0.736  1.00  0.00     0.023 A 
ATOM     53  C   UNL     1      -1.667  12.034  -0.804  1.00  0.00     0.012 A 
ATOM     54  C   UNL     1      -2.633   9.816  -0.860  1.00  0.00     0.148 A 
ATOM     55  C   UNL     1      -2.931  12.594  -1.031  1.00  0.00     0.002 A 
ATOM     56  C   UNL     1      -3.888  10.377  -1.083  1.00  0.00     0.091 A 
ATOM     57  F   UNL     1      -2.477   8.487  -0.859  1.00  0.00    -0.205 F 
ATOM     58  C   UNL     1      -4.039  11.766  -1.182  1.00  0.00     0.022 A 
BRANCH  56  59
ATOM     59  S   UNL     1      -5.357   9.369  -1.328  1.00  0.00     0.127 S 
ATOM     60  O   UNL     1      -6.308   9.992  -0.407  1.00  0.00    -0.237 OA
ATOM     61  O   UNL     1      -5.641   9.589  -2.743  1.00  0.00    -0.237 OA
ATOM     62  O   UNL     1      -4.973   8.011  -0.966  1.00  0.00    -0.744 OA
ENDBRANCH  56  59
ENDBRANCH  28  52
BRANCH  40  63
ATOM     63  C   UNL     1       4.748  10.558  -0.537  1.00  0.00     0.023 A 
ATOM     64  C   UNL     1       4.183   9.949   0.603  1.00  0.00     0.012 A 
ATOM     65  C   UNL     1       5.941  11.285  -0.401  1.00  0.00     0.148 A 
ATOM     66  C   UNL     1       4.788  10.084   1.856  1.00  0.00     0.002 A 
ATOM     67  C   UNL     1       6.566  11.374   0.835  1.00  0.00     0.091 A 
ATOM     68  F   UNL     1       6.462  11.859  -1.496  1.00  0.00    -0.205 F 
ATOM     69  C   UNL     1       5.988  10.784   1.969  1.00  0.00     0.022 A 
BRANCH  67  70
ATOM     70  S   UNL     1       8.174  12.149   1.007  1.00  0.00     0.127 S 
ATOM     71  O   UNL     1       7.830  13.432   1.616  1.00  0.00    -0.237 OA
ATOM     72  O   UNL     1       8.878  11.220   1.891  1.00  0.00    -0.237 OA
ATOM     73  O   UNL     1       8.729  12.221  -0.340  1.00  0.00    -0.744 OA
ENDBRANCH  67  70
ENDBRANCH  40  63
ENDBRANCH  14  15
ENDBRANCH   7   9
ENDBRANCH   6   7
ENDBRANCH   5   6
ENDBRANCH   4   5
ENDBRANCH   3   4
ENDBRANCH   2   3
ENDBRANCH   1   2
BRANCH   1  74
ATOM     74  O   UNL     1       3.002  -3.347   0.243  1.00  0.00    -0.376 OA
BRANCH  74  75
ATOM     75  C   UNL     1       4.250  -3.931  -0.077  1.00  0.00     0.202 C 
BRANCH  75  76
ATOM     76  C   UNL     1       4.461  -4.519  -1.481  1.00  0.00     0.261 C 
BRANCH  76  77
ATOM     77  O   UNL     1       4.081  -3.676  -2.582  1.00  0.00    -0.460 OA
BRANCH  77  78
ATOM     78  C   UNL     1       2.977  -4.037  -3.278  1.00  0.00     0.338 C 
ATOM     79  O   UNL     1       2.270  -5.024  -3.094  1.00  0.00    -0.246 OA
BRANCH  78  80
ATOM     80  C   UNL     1       2.664  -2.992  -4.274  1.00  0.00     0.060 A 
ATOM     81  C   UNL     1       1.508  -2.208  -4.123  1.00  0.00     0.018 A 
ATOM     82  C   UNL     1       3.516  -2.787  -5.361  1.00  0.00     0.018 A 
ATOM     83  C   UNL     1       1.201  -1.208  -5.053  1.00  0.00     0.029 A 
ATOM     84  C   UNL     1       3.225  -1.775  -6.279  1.00  0.00     0.029 A 
ATOM     85  C   UNL     1       2.065  -0.994  -6.128  1.00  0.00     0.066 A 
BRANCH  85  86
ATOM     86  N   UNL     1       1.760  -0.037  -7.122  1.00  0.00    -0.220 N 
ATOM     87  C   UNL     1       0.567   0.098  -7.814  1.00  0.00     0.141 A 
ATOM     88  N   UNL     1       2.729   0.664  -7.736  1.00  0.00    -0.062 NA
ATOM     89  C   UNL     1       0.906   0.777  -8.967  1.00  0.00     0.093 A 
ATOM     90  N   UNL     1       2.210   1.212  -8.819  1.00  0.00    -0.134 NA
BRANCH  89  91
ATOM     91  C   UNL     1       0.366   0.944 -10.343  1.00  0.00     0.138 C 
BRANCH  91  92
ATOM     92  S   UNL     1      -1.270   0.770 -11.008  1.00  0.00    -0.081 SA
BRANCH  92  93
ATOM     93  C   UNL     1      -2.453   0.093  -9.946  1.00  0.00     0.176 A 
ATOM     94  N   UNL     1      -3.598   0.698 -10.067  1.00  0.00    -0.223 NA
ATOM     95  N   UNL     1      -2.288  -0.989  -9.095  1.00  0.00    -0.255 N 
ATOM     96  C   UNL     1      -4.633   0.376  -9.191  1.00  0.00     0.079 A 
ATOM     97  C   UNL     1      -3.027  -0.896  -7.902  1.00  0.00     0.266 A 
ATOM     98  C   UNL     1      -5.937   0.807  -9.432  1.00  0.00     0.029 A 
ATOM     99  C   UNL     1      -4.347  -0.257  -7.994  1.00  0.00     0.066 A 
ATOM    100  O   UNL     1      -2.654  -1.282  -6.794  1.00  0.00    -0.268 OA
ATOM    101  C   UNL     1      -6.915   0.674  -8.440  1.00  0.00     0.002 A 
ATOM    102  C   UNL     1      -5.293  -0.339  -6.969  1.00  0.00     0.016 A 
ATOM    103  C   UNL     1      -6.581   0.142  -7.193  1.00  0.00     0.001 A 
BRANCH  95 104
ATOM    104  C   UNL     1      -1.397  -2.128  -9.267  1.00  0.00     0.051 A 
ATOM    105  C   UNL     1      -1.497  -3.235  -8.397  1.00  0.00     0.028 A 
ATOM    106  C   UNL     1      -0.417  -2.237 -10.257  1.00  0.00     0.028 A 
ATOM    107  C   UNL     1      -0.532  -4.246  -8.355  1.00  0.00     0.018 A 
ATOM    108  C   UNL     1       0.599  -3.202 -10.185  1.00  0.00     0.018 A 
ATOM    109  C   UNL     1       0.558  -4.180  -9.204  1.00  0.00     0.018 A 
ATOM    110  Br  UNL     1       1.974  -5.414  -9.030  1.00  0.00    -0.051 Br
ENDBRANCH  95 104
ENDBRANCH  92  93
ENDBRANCH  91  92
ENDBRANCH  89  91
ENDBRANCH  85  86
ENDBRANCH  78  80
ENDBRANCH  77  78
ENDBRANCH  76  77
ENDBRANCH  75  76
ENDBRANCH  74  75
ENDBRANCH   1  74
TORSDOF 25
