REMARK SMILES CC(C)C[C@H](NC(=O)CNC(=O)[C@@H](NC(=O)OCc1ccccc1)C(C)C)C(=O)OCCOCCOCCOC(=O)c1ccc(-c2c3nc(c(-c4cccc(S(=O)(=O)[O-])c4F)c4ccc([nH]4)c(-c4cccc(S(=O)(=O)[O-])c4F)c4nc(c(-c5cccc(S(=O)(=O)[O-])c5F)c5ccc2[nH]5)C=C4)C=C3)cc1
REMARK SMILES IDX 32 1 31 2 30 3 28 4 29 5 5 6 4 7 2 8 1 9 3 10 6 11 7 12 8 14
REMARK SMILES IDX 9 15 10 16 11 17 12 19 13 20 14 21 15 22 16 24 17 25 18 26
REMARK SMILES IDX 19 27 20 28 24 29 21 30 23 31 22 32 25 33 26 34 27 35 33 36
REMARK SMILES IDX 34 37 35 38 36 39 37 40 38 41 39 42 40 43 41 44 42 45 43 46
REMARK SMILES IDX 104 47 44 48 103 49 45 50 46 51 47 52 97 53 48 54 102 55
REMARK SMILES IDX 96 56 98 57 49 58 101 59 95 60 94 61 50 63 82 64 62 65 81 66
REMARK SMILES IDX 63 67 66 68 80 69 99 70 64 71 65 72 79 74 100 75 67 76 51 77
REMARK SMILES IDX 52 78 60 79 53 80 55 81 61 82 54 83 56 84 57 85 58 86 59 87
REMARK SMILES IDX 83 88 84 89 92 90 85 91 87 92 93 93 86 94 88 95 89 96 90 97
REMARK SMILES IDX 91 98 68 99 69 100 77 101 70 102 72 103 78 104 71 105 73 106
REMARK SMILES IDX 74 107 75 108 76 109
REMARK H PARENT 6 13 10 18 14 23 98 62 66 73
REMARK Flexibility Score: inf
ROOT
ATOM      1  C   UNL     1      -6.245  -0.747  -1.109  1.00  0.00     0.202 C 
ENDROOT
BRANCH   1   2
ATOM      2  C   UNL     1      -5.318  -1.364  -2.179  1.00  0.00     0.261 C 
BRANCH   2   3
ATOM      3  O   UNL     1      -3.896  -1.410  -1.954  1.00  0.00    -0.462 OA
BRANCH   3   4
ATOM      4  C   UNL     1      -3.207  -0.383  -2.521  1.00  0.00     0.328 C 
ATOM      5  O   UNL     1      -3.773   0.570  -3.049  1.00  0.00    -0.250 OA
BRANCH   4   6
ATOM      6  C   UNL     1      -1.662  -0.587  -2.570  1.00  0.00     0.192 C 
BRANCH   6   7
ATOM      7  C   UNL     1      -1.183  -0.856  -3.999  1.00  0.00     0.040 C 
BRANCH   7   8
ATOM      8  C   UNL     1      -1.698   0.095  -5.110  1.00  0.00    -0.015 C 
ATOM      9  C   UNL     1      -1.600   1.599  -4.851  1.00  0.00     0.007 C 
ATOM     10  C   UNL     1      -0.926  -0.195  -6.394  1.00  0.00     0.007 C 
ENDBRANCH   7   8
ENDBRANCH   6   7
BRANCH   6  11
ATOM     11  N   UNL     1      -1.079  -1.551  -1.625  1.00  0.00    -0.341 N 
ATOM     12  C   UNL     1       0.026  -1.442  -0.823  1.00  0.00     0.240 C 
ATOM     13  H   UNL     1      -1.558  -2.408  -1.557  1.00  0.00     0.164 HD
ATOM     14  O   UNL     1       0.188  -2.322   0.031  1.00  0.00    -0.273 OA
BRANCH  12  15
ATOM     15  C   UNL     1       0.986  -0.218  -0.830  1.00  0.00     0.216 C 
BRANCH  15  16
ATOM     16  N   UNL     1       1.407   0.315  -2.117  1.00  0.00    -0.345 N 
ATOM     17  C   UNL     1       1.405   1.533  -2.716  1.00  0.00     0.243 C 
ATOM     18  H   UNL     1       1.789  -0.382  -2.699  1.00  0.00     0.164 HD
ATOM     19  O   UNL     1       2.043   1.582  -3.778  1.00  0.00    -0.273 OA
BRANCH  17  20
ATOM     20  C   UNL     1       0.722   2.833  -2.189  1.00  0.00     0.177 C 
BRANCH  20  21
ATOM     21  N   UNL     1      -0.645   2.557  -1.831  1.00  0.00    -0.309 N 
ATOM     22  C   UNL     1      -1.198   2.122  -0.690  1.00  0.00     0.408 C 
ATOM     23  H   UNL     1      -1.291   2.717  -2.556  1.00  0.00     0.167 HD
ATOM     24  O   UNL     1      -2.222   1.481  -0.691  1.00  0.00    -0.225 OA
BRANCH  22  25
ATOM     25  O   UNL     1      -0.579   2.576   0.401  1.00  0.00    -0.445 OA
BRANCH  25  26
ATOM     26  C   UNL     1      -1.534   2.597   1.439  1.00  0.00     0.270 C 
BRANCH  26  27
ATOM     27  C   UNL     1      -2.760   3.498   1.194  1.00  0.00    -0.011 A 
ATOM     28  C   UNL     1      -2.923   4.429   0.158  1.00  0.00     0.007 A 
ATOM     29  C   UNL     1      -3.725   3.511   2.193  1.00  0.00     0.007 A 
ATOM     30  C   UNL     1      -3.943   5.388   0.208  1.00  0.00     0.000 A 
ATOM     31  C   UNL     1      -4.657   4.534   2.327  1.00  0.00     0.000 A 
ATOM     32  C   UNL     1      -4.764   5.483   1.327  1.00  0.00     0.000 A 
ENDBRANCH  26  27
ENDBRANCH  25  26
ENDBRANCH  22  25
ENDBRANCH  20  21
BRANCH  20  33
ATOM     33  C   UNL     1       1.569   3.698  -1.238  1.00  0.00     0.015 C 
ATOM     34  C   UNL     1       2.843   4.150  -1.966  1.00  0.00     0.010 C 
ATOM     35  C   UNL     1       0.848   4.980  -0.781  1.00  0.00     0.010 C 
ENDBRANCH  20  33
ENDBRANCH  17  20
ENDBRANCH  15  16
ENDBRANCH  12  15
ENDBRANCH   6  11
ENDBRANCH   4   6
ENDBRANCH   3   4
ENDBRANCH   2   3
ENDBRANCH   1   2
BRANCH   1  36
ATOM     36  O   UNL     1      -5.835  -0.632   0.239  1.00  0.00    -0.376 OA
BRANCH  36  37
ATOM     37  C   UNL     1      -4.638   0.088   0.469  1.00  0.00     0.188 C 
BRANCH  37  38
ATOM     38  C   UNL     1      -3.484  -0.827   0.917  1.00  0.00     0.188 C 
BRANCH  38  39
ATOM     39  O   UNL     1      -3.704  -2.225   1.051  1.00  0.00    -0.376 OA
BRANCH  39  40
ATOM     40  C   UNL     1      -4.886  -2.675   1.690  1.00  0.00     0.202 C 
BRANCH  40  41
ATOM     41  C   UNL     1      -5.420  -1.997   2.975  1.00  0.00     0.261 C 
BRANCH  41  42
ATOM     42  O   UNL     1      -4.830  -0.752   3.413  1.00  0.00    -0.460 OA
BRANCH  42  43
ATOM     43  C   UNL     1      -3.776  -0.841   4.269  1.00  0.00     0.338 C 
ATOM     44  O   UNL     1      -3.259  -1.876   4.654  1.00  0.00    -0.246 OA
BRANCH  43  45
ATOM     45  C   UNL     1      -3.227   0.520   4.587  1.00  0.00     0.060 A 
ATOM     46  C   UNL     1      -1.853   0.758   4.423  1.00  0.00     0.016 A 
ATOM     47  C   UNL     1      -4.024   1.569   5.055  1.00  0.00     0.016 A 
ATOM     48  C   UNL     1      -1.294   2.049   4.630  1.00  0.00     0.010 A 
ATOM     49  C   UNL     1      -3.458   2.858   5.265  1.00  0.00     0.010 A 
ATOM     50  C   UNL     1      -2.096   3.149   4.982  1.00  0.00    -0.014 A 
BRANCH  50  51
ATOM     51  C   UNL     1      -1.534   4.527   5.305  1.00  0.00     0.031 A 
ATOM     52  C   UNL     1      -1.204   4.732   6.748  1.00  0.00     0.074 A 
ATOM     53  C   UNL     1      -1.316   5.596   4.486  1.00  0.00     0.049 A 
ATOM     54  N   UNL     1      -0.576   5.731   7.300  1.00  0.00    -0.248 NA
ATOM     55  C   UNL     1      -1.567   3.644   7.670  1.00  0.00     0.031 C 
ATOM     56  C   UNL     1      -1.356   5.592   3.046  1.00  0.00     0.029 A 
ATOM     57  N   UNL     1      -1.017   6.932   4.727  1.00  0.00    -0.354 N 
ATOM     58  C   UNL     1      -0.418   5.369   8.621  1.00  0.00     0.074 A 
ATOM     59  C   UNL     1      -1.084   4.100   8.809  1.00  0.00     0.031 C 
ATOM     60  C   UNL     1      -1.279   6.817   2.517  1.00  0.00     0.029 A 
ATOM     61  C   UNL     1      -1.049   7.743   3.594  1.00  0.00     0.049 A 
ATOM     62  H   UNL     1      -0.800   7.277   5.624  1.00  0.00     0.167 HD
ATOM     63  C   UNL     1       0.258   6.019   9.589  1.00  0.00     0.034 A 
ATOM     64  C   UNL     1      -0.830   9.057   3.372  1.00  0.00     0.034 A 
ATOM     65  C   UNL     1       0.789   7.340   9.445  1.00  0.00     0.049 A 
ATOM     66  C   UNL     1      -0.246   9.831   4.508  1.00  0.00     0.074 A 
ATOM     67  C   UNL     1       1.413   8.119  10.399  1.00  0.00     0.029 A 
ATOM     68  N   UNL     1       0.685   8.112   8.295  1.00  0.00    -0.354 N 
ATOM     69  N   UNL     1       0.025   9.402   5.714  1.00  0.00    -0.248 NA
ATOM     70  C   UNL     1       0.183  11.209   4.237  1.00  0.00     0.031 C 
ATOM     71  C   UNL     1       1.609   9.392   9.854  1.00  0.00     0.029 A 
ATOM     72  C   UNL     1       1.185   9.380   8.534  1.00  0.00     0.049 A 
ATOM     73  H   UNL     1       0.311   7.803   7.439  1.00  0.00     0.167 HD
ATOM     74  C   UNL     1       0.732  10.421   6.323  1.00  0.00     0.074 A 
ATOM     75  C   UNL     1       0.836  11.497   5.356  1.00  0.00     0.031 C 
ATOM     76  C   UNL     1       1.270  10.442   7.564  1.00  0.00     0.034 A 
BRANCH  63  77
ATOM     77  C   UNL     1       0.333   5.291  10.894  1.00  0.00     0.023 A 
ATOM     78  C   UNL     1       1.107   4.113  11.000  1.00  0.00     0.012 A 
ATOM     79  C   UNL     1      -0.505   5.677  11.950  1.00  0.00     0.148 A 
ATOM     80  C   UNL     1       0.980   3.289  12.116  1.00  0.00     0.002 A 
ATOM     81  C   UNL     1      -0.589   4.876  13.077  1.00  0.00     0.091 A 
ATOM     82  F   UNL     1      -1.256   6.776  11.799  1.00  0.00    -0.205 F 
ATOM     83  C   UNL     1       0.132   3.671  13.153  1.00  0.00     0.022 A 
BRANCH  81  84
ATOM     84  S   UNL     1      -1.632   5.296  14.472  1.00  0.00     0.127 S 
ATOM     85  O   UNL     1      -2.590   4.192  14.467  1.00  0.00    -0.237 OA
ATOM     86  O   UNL     1      -0.674   5.274  15.576  1.00  0.00    -0.237 OA
ATOM     87  O   UNL     1      -2.197   6.605  14.176  1.00  0.00    -0.744 OA
ENDBRANCH  81  84
ENDBRANCH  63  77
BRANCH  64  88
ATOM     88  C   UNL     1      -0.947   9.666   1.998  1.00  0.00     0.023 A 
ATOM     89  C   UNL     1       0.222  10.014   1.286  1.00  0.00     0.012 A 
ATOM     90  C   UNL     1      -2.199   9.906   1.390  1.00  0.00     0.148 A 
ATOM     91  C   UNL     1       0.150  10.625   0.029  1.00  0.00     0.002 A 
ATOM     92  C   UNL     1      -2.263  10.485   0.120  1.00  0.00     0.091 A 
ATOM     93  F   UNL     1      -3.307   9.574   2.067  1.00  0.00    -0.205 F 
ATOM     94  C   UNL     1      -1.090  10.859  -0.554  1.00  0.00     0.022 A 
BRANCH  92  95
ATOM     95  S   UNL     1      -3.808  10.763  -0.762  1.00  0.00     0.127 S 
ATOM     96  O   UNL     1      -3.867  12.222  -0.814  1.00  0.00    -0.237 OA
ATOM     97  O   UNL     1      -3.543  10.113  -2.046  1.00  0.00    -0.237 OA
ATOM     98  O   UNL     1      -4.842  10.120   0.038  1.00  0.00    -0.744 OA
ENDBRANCH  92  95
ENDBRANCH  64  88
BRANCH  76  99
ATOM     99  C   UNL     1       2.041  11.668   7.947  1.00  0.00     0.023 A 
ATOM    100  C   UNL     1       1.378  12.894   8.149  1.00  0.00     0.012 A 
ATOM    101  C   UNL     1       3.426  11.575   8.168  1.00  0.00     0.148 A 
ATOM    102  C   UNL     1       2.096  14.023   8.535  1.00  0.00     0.002 A 
ATOM    103  C   UNL     1       4.121  12.684   8.620  1.00  0.00     0.091 A 
ATOM    104  F   UNL     1       4.035  10.403   7.932  1.00  0.00    -0.205 F 
ATOM    105  C   UNL     1       3.463  13.913   8.787  1.00  0.00     0.022 A 
BRANCH 103 106
ATOM    106  S   UNL     1       5.850  12.597   9.088  1.00  0.00     0.127 S 
ATOM    107  O   UNL     1       6.486  13.367   8.020  1.00  0.00    -0.237 OA
ATOM    108  O   UNL     1       5.845  13.251  10.396  1.00  0.00    -0.237 OA
ATOM    109  O   UNL     1       6.188  11.180   9.122  1.00  0.00    -0.744 OA
ENDBRANCH 103 106
ENDBRANCH  76  99
ENDBRANCH  50  51
ENDBRANCH  43  45
ENDBRANCH  42  43
ENDBRANCH  41  42
ENDBRANCH  40  41
ENDBRANCH  39  40
ENDBRANCH  38  39
ENDBRANCH  37  38
ENDBRANCH  36  37
ENDBRANCH   1  36
TORSDOF 31
