REMARK SMILES CC(C)[NH2+][C@]1(C(=O)OCCOCCOCCOC(=O)c2ccc(-c3c4nc(c(-c5cccc(S(=O)(=O)[O-])c5F)c5ccc([nH]5)c(-c5cccc(S(=O)(=O)[O-])c5F)c5nc(c(-c6cccc(S(=O)(=O)[O-])c6F)c6ccc3[nH]6)C=C5)C=C4)cc2)CC[C@H](Oc2cccc(CO)c2)C1
REMARK SMILES IDX 12 1 11 2 10 3 9 4 8 5 6 6 7 7 5 8 83 9 95 10 84 11 85 12
REMARK SMILES IDX 4 13 2 16 1 17 3 18 86 19 87 20 88 21 94 22 89 23 91 24
REMARK SMILES IDX 90 25 92 26 93 27 13 29 14 30 15 31 16 32 17 33 18 34 19 35
REMARK SMILES IDX 20 36 21 37 82 38 22 39 81 40 23 41 24 42 25 43 75 44 26 45
REMARK SMILES IDX 80 46 74 47 76 48 27 49 79 50 73 51 72 52 28 54 60 55 40 56
REMARK SMILES IDX 59 57 41 58 44 59 58 60 77 61 42 62 43 63 57 65 78 66 45 67
REMARK SMILES IDX 29 68 30 69 38 70 31 71 33 72 39 73 32 74 34 75 35 76 36 77
REMARK SMILES IDX 37 78 61 79 62 80 70 81 63 82 65 83 71 84 64 85 66 86 67 87
REMARK SMILES IDX 68 88 69 89 46 90 47 91 55 92 48 93 50 94 56 95 49 96 51 97
REMARK SMILES IDX 52 98 53 99 54 100
REMARK H PARENT 4 14 4 15 93 28 76 53 44 64
REMARK Flexibility Score: inf
ROOT
ATOM      1  C   UNL     1      -2.134  -0.157  -0.791  1.00  0.00     0.188 C 
ENDROOT
BRANCH   1   2
ATOM      2  O   UNL     1      -1.188   0.507  -1.616  1.00  0.00    -0.376 OA
BRANCH   2   3
ATOM      3  C   UNL     1       0.186   0.195  -1.400  1.00  0.00     0.202 C 
BRANCH   3   4
ATOM      4  C   UNL     1       0.748   0.385   0.019  1.00  0.00     0.261 C 
BRANCH   4   5
ATOM      5  O   UNL     1       0.091  -0.367   1.069  1.00  0.00    -0.459 OA
BRANCH   5   6
ATOM      6  C   UNL     1      -0.477   0.396   2.038  1.00  0.00     0.368 C 
ATOM      7  O   UNL     1      -0.489   1.629   2.022  1.00  0.00    -0.245 OA
BRANCH   6   8
ATOM      8  C   UNL     1      -1.088  -0.361   3.259  1.00  0.00     0.198 C 
ATOM      9  C   UNL     1      -2.607  -0.151   3.183  1.00  0.00     0.085 C 
ATOM     10  C   UNL     1      -1.031  -1.905   3.248  1.00  0.00     0.126 C 
ATOM     11  C   UNL     1      -3.223  -1.203   4.091  1.00  0.00     0.052 C 
ATOM     12  C   UNL     1      -2.271  -2.407   4.048  1.00  0.00     0.180 C 
BRANCH   8  13
ATOM     13  N   UNL     1      -0.341   0.225   4.403  1.00  0.00    -0.330 N 
ATOM     14  H   UNL     1       0.520  -0.318   4.481  1.00  0.00     0.347 HD
ATOM     15  H   UNL     1      -0.307   1.209   4.136  1.00  0.00     0.347 HD
BRANCH  13  16
ATOM     16  C   UNL     1      -0.879   0.315   5.752  1.00  0.00     0.176 C 
ATOM     17  C   UNL     1       0.343   0.510   6.660  1.00  0.00     0.075 C 
ATOM     18  C   UNL     1      -1.826   1.500   5.955  1.00  0.00     0.075 C 
ENDBRANCH  13  16
ENDBRANCH   8  13
BRANCH  12  19
ATOM     19  O   UNL     1      -1.794  -2.890   5.309  1.00  0.00    -0.490 OA
BRANCH  19  20
ATOM     20  C   UNL     1      -2.600  -3.118   6.384  1.00  0.00     0.120 A 
ATOM     21  C   UNL     1      -3.989  -3.068   6.429  1.00  0.00     0.046 A 
ATOM     22  C   UNL     1      -1.894  -3.382   7.566  1.00  0.00     0.052 A 
ATOM     23  C   UNL     1      -4.656  -3.184   7.655  1.00  0.00     0.004 A 
ATOM     24  C   UNL     1      -2.551  -3.541   8.795  1.00  0.00    -0.019 A 
ATOM     25  C   UNL     1      -3.942  -3.408   8.834  1.00  0.00     0.006 A 
BRANCH  24  26
ATOM     26  C   UNL     1      -1.771  -3.811  10.052  1.00  0.00     0.191 C 
BRANCH  26  27
ATOM     27  O   UNL     1      -1.701  -2.650  10.869  1.00  0.00    -0.392 OA
ATOM     28  H   UNL     1      -1.252  -1.939  10.384  1.00  0.00     0.211 HD
ENDBRANCH  26  27
ENDBRANCH  24  26
ENDBRANCH  19  20
ENDBRANCH  12  19
ENDBRANCH   6   8
ENDBRANCH   5   6
ENDBRANCH   4   5
ENDBRANCH   3   4
ENDBRANCH   2   3
ENDBRANCH   1   2
BRANCH   1  29
ATOM     29  C   UNL     1      -2.155  -1.687  -0.874  1.00  0.00     0.188 C 
BRANCH  29  30
ATOM     30  O   UNL     1      -0.881  -2.304  -0.990  1.00  0.00    -0.376 OA
BRANCH  30  31
ATOM     31  C   UNL     1      -0.865  -3.712  -1.235  1.00  0.00     0.202 C 
BRANCH  31  32
ATOM     32  C   UNL     1      -1.659  -4.189  -2.468  1.00  0.00     0.261 C 
BRANCH  32  33
ATOM     33  O   UNL     1      -3.087  -4.003  -2.388  1.00  0.00    -0.460 OA
BRANCH  33  34
ATOM     34  C   UNL     1      -3.721  -4.427  -1.270  1.00  0.00     0.338 C 
ATOM     35  O   UNL     1      -3.285  -5.210  -0.443  1.00  0.00    -0.246 OA
BRANCH  34  36
ATOM     36  C   UNL     1      -4.921  -3.573  -1.062  1.00  0.00     0.060 A 
ATOM     37  C   UNL     1      -5.247  -3.197   0.251  1.00  0.00     0.016 A 
ATOM     38  C   UNL     1      -5.668  -3.074  -2.133  1.00  0.00     0.016 A 
ATOM     39  C   UNL     1      -6.342  -2.362   0.496  1.00  0.00     0.010 A 
ATOM     40  C   UNL     1      -6.769  -2.248  -1.887  1.00  0.00     0.010 A 
ATOM     41  C   UNL     1      -7.134  -1.917  -0.570  1.00  0.00    -0.014 A 
BRANCH  41  42
ATOM     42  C   UNL     1      -8.465  -1.309  -0.319  1.00  0.00     0.031 A 
ATOM     43  C   UNL     1      -9.668  -2.212  -0.373  1.00  0.00     0.074 A 
ATOM     44  C   UNL     1      -8.625   0.006  -0.084  1.00  0.00     0.049 A 
ATOM     45  N   UNL     1     -10.938  -1.913  -0.289  1.00  0.00    -0.248 NA
ATOM     46  C   UNL     1      -9.399  -3.650  -0.551  1.00  0.00     0.031 C 
ATOM     47  C   UNL     1      -7.551   0.991   0.015  1.00  0.00     0.029 A 
ATOM     48  N   UNL     1      -9.775   0.743   0.083  1.00  0.00    -0.354 N 
ATOM     49  C   UNL     1     -11.618  -3.116  -0.433  1.00  0.00     0.074 A 
ATOM     50  C   UNL     1     -10.623  -4.149  -0.617  1.00  0.00     0.031 C 
ATOM     51  C   UNL     1      -8.094   2.211   0.190  1.00  0.00     0.029 A 
ATOM     52  C   UNL     1      -9.553   2.097   0.184  1.00  0.00     0.049 A 
ATOM     53  H   UNL     1     -10.672   0.339   0.125  1.00  0.00     0.167 HD
ATOM     54  C   UNL     1     -12.950  -3.349  -0.402  1.00  0.00     0.034 A 
ATOM     55  C   UNL     1     -10.427   3.124   0.235  1.00  0.00     0.034 A 
ATOM     56  C   UNL     1     -13.946  -2.333  -0.212  1.00  0.00     0.049 A 
ATOM     57  C   UNL     1     -11.912   2.845   0.209  1.00  0.00     0.074 A 
ATOM     58  C   UNL     1     -15.319  -2.480  -0.143  1.00  0.00     0.029 A 
ATOM     59  N   UNL     1     -13.679  -0.981  -0.076  1.00  0.00    -0.354 N 
ATOM     60  N   UNL     1     -12.537   1.692   0.181  1.00  0.00    -0.248 NA
ATOM     61  C   UNL     1     -12.812   4.009   0.245  1.00  0.00     0.031 C 
ATOM     62  C   UNL     1     -15.886  -1.211   0.013  1.00  0.00     0.029 A 
ATOM     63  C   UNL     1     -14.863  -0.279   0.068  1.00  0.00     0.049 A 
ATOM     64  H   UNL     1     -12.780  -0.578  -0.082  1.00  0.00     0.167 HD
ATOM     65  C   UNL     1     -13.896   1.992   0.241  1.00  0.00     0.074 A 
ATOM     66  C   UNL     1     -14.005   3.433   0.319  1.00  0.00     0.031 C 
ATOM     67  C   UNL     1     -14.959   1.149   0.219  1.00  0.00     0.034 A 
BRANCH  54  68
ATOM     68  C   UNL     1     -13.407  -4.773  -0.556  1.00  0.00     0.023 A 
ATOM     69  C   UNL     1     -13.232  -5.678   0.510  1.00  0.00     0.012 A 
ATOM     70  C   UNL     1     -14.047  -5.203  -1.734  1.00  0.00     0.148 A 
ATOM     71  C   UNL     1     -13.661  -6.999   0.396  1.00  0.00     0.002 A 
ATOM     72  C   UNL     1     -14.510  -6.509  -1.825  1.00  0.00     0.091 A 
ATOM     73  F   UNL     1     -14.177  -4.333  -2.746  1.00  0.00    -0.205 F 
ATOM     74  C   UNL     1     -14.309  -7.411  -0.766  1.00  0.00     0.022 A 
BRANCH  72  75
ATOM     75  S   UNL     1     -15.421  -7.114  -3.249  1.00  0.00     0.127 S 
ATOM     76  O   UNL     1     -14.442  -8.007  -3.866  1.00  0.00    -0.237 OA
ATOM     77  O   UNL     1     -16.556  -7.793  -2.623  1.00  0.00    -0.237 OA
ATOM     78  O   UNL     1     -15.774  -5.936  -4.029  1.00  0.00    -0.744 OA
ENDBRANCH  72  75
ENDBRANCH  54  68
BRANCH  55  79
ATOM     79  C   UNL     1      -9.935   4.530   0.332  1.00  0.00     0.023 A 
ATOM     80  C   UNL     1     -10.169   5.267   1.510  1.00  0.00     0.012 A 
ATOM     81  C   UNL     1      -9.261   5.147  -0.740  1.00  0.00     0.148 A 
ATOM     82  C   UNL     1      -9.772   6.602   1.606  1.00  0.00     0.002 A 
ATOM     83  C   UNL     1      -8.822   6.461  -0.618  1.00  0.00     0.091 A 
ATOM     84  F   UNL     1      -9.070   4.439  -1.862  1.00  0.00    -0.205 F 
ATOM     85  C   UNL     1      -9.091   7.196   0.547  1.00  0.00     0.022 A 
BRANCH  83  86
ATOM     86  S   UNL     1      -7.840   7.270  -1.886  1.00  0.00     0.127 S 
ATOM     87  O   UNL     1      -8.787   8.244  -2.421  1.00  0.00    -0.237 OA
ATOM     88  O   UNL     1      -6.746   7.841  -1.100  1.00  0.00    -0.237 OA
ATOM     89  O   UNL     1      -7.434   6.212  -2.801  1.00  0.00    -0.744 OA
ENDBRANCH  83  86
ENDBRANCH  55  79
BRANCH  67  90
ATOM     90  C   UNL     1     -16.342   1.738   0.338  1.00  0.00     0.023 A 
ATOM     91  C   UNL     1     -16.914   2.416  -0.756  1.00  0.00     0.012 A 
ATOM     92  C   UNL     1     -17.115   1.519   1.497  1.00  0.00     0.148 A 
ATOM     93  C   UNL     1     -18.226   2.886  -0.690  1.00  0.00     0.002 A 
ATOM     94  C   UNL     1     -18.436   1.949   1.537  1.00  0.00     0.091 A 
ATOM     95  F   UNL     1     -16.547   0.884   2.532  1.00  0.00    -0.205 F 
ATOM     96  C   UNL     1     -18.990   2.641   0.449  1.00  0.00     0.022 A 
BRANCH  94  97
ATOM     97  S   UNL     1     -19.526   1.592   2.921  1.00  0.00     0.127 S 
ATOM     98  O   UNL     1     -19.695   2.917   3.516  1.00  0.00    -0.237 OA
ATOM     99  O   UNL     1     -20.716   1.068   2.250  1.00  0.00    -0.237 OA
ATOM    100  O   UNL     1     -18.822   0.623   3.750  1.00  0.00    -0.744 OA
ENDBRANCH  94  97
ENDBRANCH  67  90
ENDBRANCH  41  42
ENDBRANCH  34  36
ENDBRANCH  33  34
ENDBRANCH  32  33
ENDBRANCH  31  32
ENDBRANCH  30  31
ENDBRANCH  29  30
ENDBRANCH   1  29
TORSDOF 26
