REMARK SMILES CC1=C(C)C[C@@H](C(=O)OCCOCCOCCOC(=O)c2ccc(-c3c4nc(c(-c5cccc(S(=O)(=O)[O-])c5F)c5ccc([nH]5)c(-c5cccc(S(=O)(=O)[O-])c5F)c5nc(c(-c6cccc(S(=O)(=O)[O-])c6F)c6ccc3[nH]6)C=C5)C=C4)cc2)[C@@H](C(=O)N2CCN(c3cccc(C(F)(F)F)c3)CC2)C1
REMARK SMILES IDX 13 1 12 2 11 3 10 4 9 5 7 6 8 7 6 8 1 9 2 10 3 11 103 12
REMARK SMILES IDX 4 13 5 14 84 15 85 16 86 17 87 18 88 19 102 20 89 21 101 22
REMARK SMILES IDX 90 23 91 24 92 25 100 26 93 27 95 28 94 29 96 30 97 31 98 32
REMARK SMILES IDX 99 33 14 34 15 35 16 36 17 37 18 38 19 39 20 40 21 41 22 42
REMARK SMILES IDX 83 43 23 44 82 45 24 46 25 47 26 48 76 49 27 50 81 51 75 52
REMARK SMILES IDX 77 53 28 54 80 55 74 56 73 57 29 59 61 60 41 61 60 62 42 63
REMARK SMILES IDX 45 64 59 65 78 66 43 67 44 68 58 70 79 71 46 72 30 73 31 74
REMARK SMILES IDX 39 75 32 76 34 77 40 78 33 79 35 80 36 81 37 82 38 83 62 84
REMARK SMILES IDX 63 85 71 86 64 87 66 88 72 89 65 90 67 91 68 92 69 93 70 94
REMARK SMILES IDX 47 95 48 96 56 97 49 98 51 99 57 100 50 101 52 102 53 103
REMARK SMILES IDX 54 104 55 105
REMARK H PARENT 77 58 45 69
REMARK Flexibility Score: inf
ROOT
ATOM      1  C   UNL     1       0.993   0.311   7.308  1.00  0.00     0.188 C 
ENDROOT
BRANCH   1   2
ATOM      2  O   UNL     1       2.277  -0.125   7.734  1.00  0.00    -0.376 OA
BRANCH   2   3
ATOM      3  C   UNL     1       3.244  -0.300   6.692  1.00  0.00     0.202 C 
BRANCH   3   4
ATOM      4  C   UNL     1       2.947  -1.478   5.760  1.00  0.00     0.261 C 
BRANCH   4   5
ATOM      5  O   UNL     1       2.083  -1.019   4.702  1.00  0.00    -0.463 OA
BRANCH   5   6
ATOM      6  C   UNL     1       0.888  -1.611   4.553  1.00  0.00     0.310 C 
ATOM      7  O   UNL     1       0.529  -2.593   5.199  1.00  0.00    -0.252 OA
BRANCH   6   8
ATOM      8  C   UNL     1      -0.050  -0.931   3.564  1.00  0.00     0.116 C 
ATOM      9  C   UNL     1       0.969  -0.118  -0.597  1.00  0.00     0.039 C 
ATOM     10  C   UNL     1       0.312  -0.514   0.691  1.00  0.00    -0.074 C 
ATOM     11  C   UNL     1       0.269  -1.768   1.183  1.00  0.00    -0.073 C 
ATOM     12  C   UNL     1      -0.282   0.600   1.524  1.00  0.00     0.045 C 
ATOM     13  C   UNL     1       0.864  -2.994   0.557  1.00  0.00     0.039 C 
ATOM     14  C   UNL     1      -0.417  -1.990   2.505  1.00  0.00     0.046 C 
ATOM     15  C   UNL     1       0.182   0.506   2.993  1.00  0.00     0.097 C 
BRANCH  15  16
ATOM     16  C   UNL     1       1.581   1.130   3.017  1.00  0.00     0.227 C 
ATOM     17  O   UNL     1       2.585   0.470   2.737  1.00  0.00    -0.275 OA
ATOM     18  N   UNL     1       1.687   2.503   3.224  1.00  0.00    -0.339 N 
ATOM     19  C   UNL     1       3.031   3.072   3.290  1.00  0.00     0.141 C 
ATOM     20  C   UNL     1       0.661   3.540   3.000  1.00  0.00     0.141 C 
ATOM     21  C   UNL     1       3.377   3.671   1.921  1.00  0.00     0.138 C 
ATOM     22  C   UNL     1       0.964   4.382   1.726  1.00  0.00     0.138 C 
ATOM     23  N   UNL     1       2.395   4.721   1.597  1.00  0.00    -0.368 N 
BRANCH  23  24
ATOM     24  C   UNL     1       2.860   5.990   1.330  1.00  0.00     0.037 A 
ATOM     25  C   UNL     1       3.837   6.192   0.343  1.00  0.00     0.026 A 
ATOM     26  C   UNL     1       2.455   7.095   2.086  1.00  0.00     0.039 A 
ATOM     27  C   UNL     1       4.411   7.445   0.127  1.00  0.00     0.003 A 
ATOM     28  C   UNL     1       3.046   8.360   1.905  1.00  0.00     0.058 A 
ATOM     29  C   UNL     1       4.024   8.524   0.913  1.00  0.00     0.013 A 
BRANCH  28  30
ATOM     30  C   UNL     1       2.675   9.528   2.782  1.00  0.00     0.416 C 
ATOM     31  F   UNL     1       3.761  10.069   3.405  1.00  0.00    -0.166 F 
ATOM     32  F   UNL     1       2.110  10.548   2.078  1.00  0.00    -0.166 F 
ATOM     33  F   UNL     1       1.795   9.221   3.773  1.00  0.00    -0.166 F 
ENDBRANCH  28  30
ENDBRANCH  23  24
ENDBRANCH  15  16
ENDBRANCH   6   8
ENDBRANCH   5   6
ENDBRANCH   4   5
ENDBRANCH   3   4
ENDBRANCH   2   3
ENDBRANCH   1   2
BRANCH   1  34
ATOM     34  C   UNL     1       0.844   1.820   7.209  1.00  0.00     0.188 C 
BRANCH  34  35
ATOM     35  O   UNL     1       1.873   2.457   6.450  1.00  0.00    -0.376 OA
BRANCH  35  36
ATOM     36  C   UNL     1       2.674   3.343   7.238  1.00  0.00     0.202 C 
BRANCH  36  37
ATOM     37  C   UNL     1       2.070   4.752   7.329  1.00  0.00     0.261 C 
BRANCH  37  38
ATOM     38  O   UNL     1       0.754   4.699   7.905  1.00  0.00    -0.460 OA
BRANCH  38  39
ATOM     39  C   UNL     1      -0.276   4.820   7.032  1.00  0.00     0.338 C 
ATOM     40  O   UNL     1      -0.220   5.222   5.880  1.00  0.00    -0.246 OA
BRANCH  39  41
ATOM     41  C   UNL     1      -1.488   4.192   7.610  1.00  0.00     0.060 A 
ATOM     42  C   UNL     1      -2.357   3.517   6.738  1.00  0.00     0.016 A 
ATOM     43  C   UNL     1      -1.749   4.213   8.982  1.00  0.00     0.016 A 
ATOM     44  C   UNL     1      -3.509   2.901   7.228  1.00  0.00     0.010 A 
ATOM     45  C   UNL     1      -2.906   3.604   9.471  1.00  0.00     0.010 A 
ATOM     46  C   UNL     1      -3.810   2.982   8.591  1.00  0.00    -0.014 A 
BRANCH  46  47
ATOM     47  C   UNL     1      -5.166   2.638   9.078  1.00  0.00     0.031 A 
ATOM     48  C   UNL     1      -6.143   3.766   9.268  1.00  0.00     0.074 A 
ATOM     49  C   UNL     1      -5.511   1.376   9.384  1.00  0.00     0.049 A 
ATOM     50  N   UNL     1      -7.345   3.748   9.778  1.00  0.00    -0.248 NA
ATOM     51  C   UNL     1      -5.694   5.101   8.834  1.00  0.00     0.031 C 
ATOM     52  C   UNL     1      -4.654   0.201   9.237  1.00  0.00     0.029 A 
ATOM     53  N   UNL     1      -6.673   0.881   9.923  1.00  0.00    -0.354 N 
ATOM     54  C   UNL     1      -7.779   5.067   9.764  1.00  0.00     0.074 A 
ATOM     55  C   UNL     1      -6.711   5.863   9.202  1.00  0.00     0.031 C 
ATOM     56  C   UNL     1      -5.306  -0.875   9.712  1.00  0.00     0.029 A 
ATOM     57  C   UNL     1      -6.613  -0.460  10.221  1.00  0.00     0.049 A 
ATOM     58  H   UNL     1      -7.473   1.434  10.081  1.00  0.00     0.167 HD
ATOM     59  C   UNL     1      -8.966   5.573  10.171  1.00  0.00     0.034 A 
ATOM     60  C   UNL     1      -7.501  -1.249  10.858  1.00  0.00     0.034 A 
ATOM     61  C   UNL     1     -10.030   4.778  10.714  1.00  0.00     0.049 A 
ATOM     62  C   UNL     1      -8.810  -0.658  11.322  1.00  0.00     0.074 A 
ATOM     63  C   UNL     1     -11.289   5.186  11.116  1.00  0.00     0.029 A 
ATOM     64  N   UNL     1      -9.956   3.414  10.945  1.00  0.00    -0.354 N 
ATOM     65  N   UNL     1      -9.254   0.570  11.198  1.00  0.00    -0.248 NA
ATOM     66  C   UNL     1      -9.754  -1.570  11.986  1.00  0.00     0.031 C 
ATOM     67  C   UNL     1     -11.968   4.070  11.615  1.00  0.00     0.029 A 
ATOM     68  C   UNL     1     -11.143   2.962  11.493  1.00  0.00     0.049 A 
ATOM     69  H   UNL     1      -9.174   2.849  10.748  1.00  0.00     0.167 HD
ATOM     70  C   UNL     1     -10.540   0.569  11.732  1.00  0.00     0.074 A 
ATOM     71  C   UNL     1     -10.810  -0.787  12.164  1.00  0.00     0.031 C 
ATOM     72  C   UNL     1     -11.415   1.597  11.864  1.00  0.00     0.034 A 
BRANCH  59  73
ATOM     73  C   UNL     1      -9.175   7.057  10.026  1.00  0.00     0.023 A 
ATOM     74  C   UNL     1      -9.355   7.616   8.744  1.00  0.00     0.012 A 
ATOM     75  C   UNL     1      -9.227   7.891  11.159  1.00  0.00     0.148 A 
ATOM     76  C   UNL     1      -9.550   8.987   8.590  1.00  0.00     0.002 A 
ATOM     77  C   UNL     1      -9.468   9.250  11.000  1.00  0.00     0.091 A 
ATOM     78  F   UNL     1      -9.025   7.344  12.366  1.00  0.00    -0.205 F 
ATOM     79  C   UNL     1      -9.617   9.802   9.717  1.00  0.00     0.022 A 
BRANCH  77  80
ATOM     80  S   UNL     1      -9.648  10.370  12.392  1.00  0.00     0.127 S 
ATOM     81  O   UNL     1      -8.427  11.168  12.288  1.00  0.00    -0.237 OA
ATOM     82  O   UNL     1     -10.876  11.088  12.052  1.00  0.00    -0.237 OA
ATOM     83  O   UNL     1      -9.743   9.528  13.576  1.00  0.00    -0.744 OA
ENDBRANCH  77  80
ENDBRANCH  59  73
BRANCH  60  84
ATOM     84  C   UNL     1      -7.201  -2.693  11.075  1.00  0.00     0.023 A 
ATOM     85  C   UNL     1      -7.939  -3.669  10.377  1.00  0.00     0.012 A 
ATOM     86  C   UNL     1      -6.188  -3.105  11.963  1.00  0.00     0.148 A 
ATOM     87  C   UNL     1      -7.697  -5.028  10.583  1.00  0.00     0.002 A 
ATOM     88  C   UNL     1      -5.916  -4.460  12.124  1.00  0.00     0.091 A 
ATOM     89  F   UNL     1      -5.509  -2.163  12.633  1.00  0.00    -0.205 F 
ATOM     90  C   UNL     1      -6.680  -5.423  11.447  1.00  0.00     0.022 A 
BRANCH  88  91
ATOM     91  S   UNL     1      -4.551  -5.058  13.127  1.00  0.00     0.127 S 
ATOM     92  O   UNL     1      -5.253  -5.682  14.245  1.00  0.00    -0.237 OA
ATOM     93  O   UNL     1      -3.894  -5.993  12.213  1.00  0.00    -0.237 OA
ATOM     94  O   UNL     1      -3.759  -3.881  13.455  1.00  0.00    -0.744 OA
ENDBRANCH  88  91
ENDBRANCH  60  84
BRANCH  72  95
ATOM     95  C   UNL     1     -12.769   1.299  12.455  1.00  0.00     0.023 A 
ATOM     96  C   UNL     1     -12.893   1.037  13.833  1.00  0.00     0.012 A 
ATOM     97  C   UNL     1     -13.928   1.369  11.656  1.00  0.00     0.148 A 
ATOM     98  C   UNL     1     -14.148   0.817  14.402  1.00  0.00     0.002 A 
ATOM     99  C   UNL     1     -15.178   1.200  12.239  1.00  0.00     0.091 A 
ATOM    100  F   UNL     1     -13.787   1.605  10.344  1.00  0.00    -0.205 F 
ATOM    101  C   UNL     1     -15.289   0.911  13.608  1.00  0.00     0.022 A 
BRANCH  99 102
ATOM    102  S   UNL     1     -16.705   1.404  11.315  1.00  0.00     0.127 S 
ATOM    103  O   UNL     1     -17.170   0.022  11.199  1.00  0.00    -0.237 OA
ATOM    104  O   UNL     1     -17.502   2.242  12.212  1.00  0.00    -0.237 OA
ATOM    105  O   UNL     1     -16.333   2.046  10.061  1.00  0.00    -0.744 OA
ENDBRANCH  99 102
ENDBRANCH  72  95
ENDBRANCH  46  47
ENDBRANCH  39  41
ENDBRANCH  38  39
ENDBRANCH  37  38
ENDBRANCH  36  37
ENDBRANCH  35  36
ENDBRANCH  34  35
ENDBRANCH   1  34
TORSDOF 23
