REMARK SMILES Cc1ccc(S(=O)(=O)Nc2ccccc2/C=C/C(=O)OCCOCCOCCOC(=O)c2ccc(-c3c4nc(c(-c5cccc(S(=O)(=O)[O-])c5F)c5ccc([nH]5)c(-c5cccc(S(=O)(=O)[O-])c5F)c5nc(c(-c6cccc(S(=O)(=O)[O-])c6F)c6ccc3[nH]6)C=C5)C=C4)cc2)cc1
REMARK SMILES IDX 24 1 23 2 22 3 21 4 20 5 18 6 19 7 17 8 16 9 15 10 10 11
REMARK SMILES IDX 11 12 12 13 14 14 13 15 9 16 6 18 7 19 8 20 5 21 1 22 2 23
REMARK SMILES IDX 3 24 96 25 4 26 95 27 25 28 26 29 27 30 28 31 29 32 30 33
REMARK SMILES IDX 31 34 32 35 33 36 94 37 34 38 93 39 35 40 36 41 37 42 87 43
REMARK SMILES IDX 38 44 92 45 86 46 88 47 39 48 91 49 85 50 84 51 40 53 72 54
REMARK SMILES IDX 52 55 71 56 53 57 56 58 70 59 89 60 54 61 55 62 69 64 90 65
REMARK SMILES IDX 57 66 41 67 42 68 50 69 43 70 45 71 51 72 44 73 46 74 47 75
REMARK SMILES IDX 48 76 49 77 73 78 74 79 82 80 75 81 77 82 83 83 76 84 78 85
REMARK SMILES IDX 79 86 80 87 81 88 58 89 59 90 67 91 60 92 62 93 68 94 61 95
REMARK SMILES IDX 63 96 64 97 65 98 66 99
REMARK H PARENT 9 17 88 52 56 63
REMARK Flexibility Score: inf
ROOT
ATOM      1  C   UNL     1      -1.978  -5.509  -1.586  1.00  0.00     0.188 C 
ENDROOT
BRANCH   1   2
ATOM      2  O   UNL     1      -2.319  -5.563  -2.955  1.00  0.00    -0.376 OA
BRANCH   2   3
ATOM      3  C   UNL     1      -2.134  -4.336  -3.642  1.00  0.00     0.202 C 
BRANCH   3   4
ATOM      4  C   UNL     1      -2.010  -2.994  -2.816  1.00  0.00     0.261 C 
BRANCH   4   5
ATOM      5  O   UNL     1      -3.090  -2.037  -2.171  1.00  0.00    -0.460 OA
BRANCH   5   6
ATOM      6  C   UNL     1      -3.815  -0.882  -2.531  1.00  0.00     0.330 C 
ATOM      7  O   UNL     1      -4.456  -0.760  -3.565  1.00  0.00    -0.247 OA
BRANCH   6   8
ATOM      8  C   UNL     1      -3.923   0.289  -1.629  1.00  0.00     0.094 C 
ATOM      9  C   UNL     1      -3.301   1.469  -1.867  1.00  0.00     0.018 C 
BRANCH   9  10
ATOM     10  C   UNL     1      -3.232   2.711  -1.050  1.00  0.00    -0.001 A 
ATOM     11  C   UNL     1      -3.645   2.843   0.290  1.00  0.00     0.056 A 
ATOM     12  C   UNL     1      -3.555   4.090   0.937  1.00  0.00     0.027 A 
ATOM     13  C   UNL     1      -2.883   5.161   0.356  1.00  0.00     0.002 A 
ATOM     14  C   UNL     1      -2.548   3.818  -1.620  1.00  0.00     0.010 A 
ATOM     15  C   UNL     1      -2.342   5.012  -0.912  1.00  0.00     0.001 A 
BRANCH  11  16
ATOM     16  N   UNL     1      -3.969   1.716   1.103  1.00  0.00    -0.279 N 
ATOM     17  H   UNL     1      -4.745   1.161   0.862  1.00  0.00     0.180 HD
BRANCH  16  18
ATOM     18  S   UNL     1      -3.064   1.310   2.461  1.00  0.00     0.261 S 
ATOM     19  O   UNL     1      -3.550   0.027   2.907  1.00  0.00    -0.201 OA
ATOM     20  O   UNL     1      -3.057   2.432   3.389  1.00  0.00    -0.201 OA
BRANCH  18  21
ATOM     21  C   UNL     1      -1.360   1.086   1.964  1.00  0.00     0.087 A 
ATOM     22  C   UNL     1       2.808   0.552   0.976  1.00  0.00     0.044 C 
ATOM     23  C   UNL     1       1.381   0.765   1.386  1.00  0.00    -0.051 A 
ATOM     24  C   UNL     1       0.693  -0.190   2.145  1.00  0.00     0.005 A 
ATOM     25  C   UNL     1       0.687   1.889   0.932  1.00  0.00     0.005 A 
ATOM     26  C   UNL     1      -0.675  -0.046   2.414  1.00  0.00     0.022 A 
ATOM     27  C   UNL     1      -0.661   2.064   1.254  1.00  0.00     0.022 A 
ENDBRANCH  18  21
ENDBRANCH  16  18
ENDBRANCH  11  16
ENDBRANCH   9  10
ENDBRANCH   6   8
ENDBRANCH   5   6
ENDBRANCH   4   5
ENDBRANCH   3   4
ENDBRANCH   2   3
ENDBRANCH   1   2
BRANCH   1  28
ATOM     28  C   UNL     1      -0.484  -5.286  -1.281  1.00  0.00     0.188 C 
BRANCH  28  29
ATOM     29  O   UNL     1       0.312  -5.307  -2.458  1.00  0.00    -0.376 OA
BRANCH  29  30
ATOM     30  C   UNL     1       1.715  -5.081  -2.382  1.00  0.00     0.202 C 
BRANCH  30  31
ATOM     31  C   UNL     1       2.375  -4.742  -1.039  1.00  0.00     0.261 C 
BRANCH  31  32
ATOM     32  O   UNL     1       2.655  -3.332  -1.024  1.00  0.00    -0.460 OA
BRANCH  32  33
ATOM     33  C   UNL     1       1.688  -2.606  -0.424  1.00  0.00     0.338 C 
ATOM     34  O   UNL     1       1.195  -2.877   0.658  1.00  0.00    -0.246 OA
BRANCH  33  35
ATOM     35  C   UNL     1       1.143  -1.636  -1.414  1.00  0.00     0.060 A 
ATOM     36  C   UNL     1      -0.047  -1.029  -1.106  1.00  0.00     0.016 A 
ATOM     37  C   UNL     1       1.638  -1.473  -2.713  1.00  0.00     0.016 A 
ATOM     38  C   UNL     1      -0.779  -0.410  -2.121  1.00  0.00     0.010 A 
ATOM     39  C   UNL     1       0.817  -0.959  -3.742  1.00  0.00     0.010 A 
ATOM     40  C   UNL     1      -0.489  -0.529  -3.487  1.00  0.00    -0.014 A 
BRANCH  40  41
ATOM     41  C   UNL     1      -1.450  -0.342  -4.688  1.00  0.00     0.031 A 
ATOM     42  C   UNL     1      -1.466   1.046  -5.203  1.00  0.00     0.074 A 
ATOM     43  C   UNL     1      -2.356  -1.177  -5.354  1.00  0.00     0.049 A 
ATOM     44  N   UNL     1      -2.487   1.609  -5.764  1.00  0.00    -0.248 NA
ATOM     45  C   UNL     1      -0.358   1.966  -4.949  1.00  0.00     0.031 C 
ATOM     46  C   UNL     1      -2.822  -1.072  -6.739  1.00  0.00     0.029 A 
ATOM     47  N   UNL     1      -3.162  -2.265  -4.949  1.00  0.00    -0.354 N 
ATOM     48  C   UNL     1      -1.978   2.739  -6.352  1.00  0.00     0.074 A 
ATOM     49  C   UNL     1      -0.822   3.057  -5.556  1.00  0.00     0.031 C 
ATOM     50  C   UNL     1      -3.869  -1.898  -6.968  1.00  0.00     0.029 A 
ATOM     51  C   UNL     1      -4.291  -2.530  -5.729  1.00  0.00     0.049 A 
ATOM     52  H   UNL     1      -2.940  -2.808  -4.159  1.00  0.00     0.167 HD
ATOM     53  C   UNL     1      -2.336   3.032  -7.637  1.00  0.00     0.034 A 
ATOM     54  C   UNL     1      -5.548  -2.849  -5.227  1.00  0.00     0.034 A 
ATOM     55  C   UNL     1      -3.459   2.184  -8.119  1.00  0.00     0.049 A 
ATOM     56  C   UNL     1      -6.573  -1.889  -5.796  1.00  0.00     0.074 A 
ATOM     57  C   UNL     1      -3.598   1.229  -9.120  1.00  0.00     0.029 A 
ATOM     58  N   UNL     1      -4.639   2.099  -7.382  1.00  0.00    -0.354 N 
ATOM     59  N   UNL     1      -6.324  -1.103  -6.801  1.00  0.00    -0.248 NA
ATOM     60  C   UNL     1      -7.872  -1.600  -5.185  1.00  0.00     0.031 C 
ATOM     61  C   UNL     1      -4.892   0.639  -9.024  1.00  0.00     0.029 A 
ATOM     62  C   UNL     1      -5.554   1.230  -7.967  1.00  0.00     0.049 A 
ATOM     63  H   UNL     1      -4.805   2.595  -6.548  1.00  0.00     0.167 HD
ATOM     64  C   UNL     1      -7.171  -0.033  -6.734  1.00  0.00     0.074 A 
ATOM     65  C   UNL     1      -8.178  -0.428  -5.764  1.00  0.00     0.031 C 
ATOM     66  C   UNL     1      -6.899   1.128  -7.402  1.00  0.00     0.034 A 
BRANCH  53  67
ATOM     67  C   UNL     1      -1.408   3.809  -8.585  1.00  0.00     0.023 A 
ATOM     68  C   UNL     1      -1.641   3.686  -9.971  1.00  0.00     0.012 A 
ATOM     69  C   UNL     1      -0.274   4.587  -8.241  1.00  0.00     0.148 A 
ATOM     70  C   UNL     1      -0.752   4.171 -10.940  1.00  0.00     0.002 A 
ATOM     71  C   UNL     1       0.648   5.024  -9.198  1.00  0.00     0.091 A 
ATOM     72  F   UNL     1      -0.107   5.026  -6.994  1.00  0.00    -0.205 F 
ATOM     73  C   UNL     1       0.416   4.807 -10.553  1.00  0.00     0.022 A 
BRANCH  71  74
ATOM     74  S   UNL     1       2.197   5.826  -8.734  1.00  0.00     0.127 S 
ATOM     75  O   UNL     1       3.172   5.139  -9.585  1.00  0.00    -0.237 OA
ATOM     76  O   UNL     1       1.949   7.219  -9.096  1.00  0.00    -0.237 OA
ATOM     77  O   UNL     1       2.375   5.565  -7.309  1.00  0.00    -0.744 OA
ENDBRANCH  71  74
ENDBRANCH  53  67
BRANCH  54  78
ATOM     78  C   UNL     1      -5.755  -3.514  -3.844  1.00  0.00     0.023 A 
ATOM     79  C   UNL     1      -5.383  -4.864  -3.675  1.00  0.00     0.012 A 
ATOM     80  C   UNL     1      -6.143  -2.834  -2.655  1.00  0.00     0.148 A 
ATOM     81  C   UNL     1      -5.277  -5.459  -2.399  1.00  0.00     0.002 A 
ATOM     82  C   UNL     1      -5.892  -3.380  -1.384  1.00  0.00     0.091 A 
ATOM     83  F   UNL     1      -6.696  -1.619  -2.744  1.00  0.00    -0.205 F 
ATOM     84  C   UNL     1      -5.470  -4.700  -1.251  1.00  0.00     0.022 A 
BRANCH  82  85
ATOM     85  S   UNL     1      -5.833  -2.361   0.117  1.00  0.00     0.127 S 
ATOM     86  O   UNL     1      -6.407  -3.244   1.129  1.00  0.00    -0.237 OA
ATOM     87  O   UNL     1      -4.400  -2.116   0.263  1.00  0.00    -0.237 OA
ATOM     88  O   UNL     1      -6.621  -1.173  -0.184  1.00  0.00    -0.744 OA
ENDBRANCH  82  85
ENDBRANCH  54  78
BRANCH  66  89
ATOM     89  C   UNL     1      -7.857   2.292  -7.556  1.00  0.00     0.023 A 
ATOM     90  C   UNL     1      -9.233   2.176  -7.287  1.00  0.00     0.012 A 
ATOM     91  C   UNL     1      -7.431   3.520  -8.127  1.00  0.00     0.148 A 
ATOM     92  C   UNL     1     -10.117   3.246  -7.463  1.00  0.00     0.002 A 
ATOM     93  C   UNL     1      -8.311   4.574  -8.326  1.00  0.00     0.091 A 
ATOM     94  F   UNL     1      -6.176   3.663  -8.559  1.00  0.00    -0.205 F 
ATOM     95  C   UNL     1      -9.654   4.450  -7.971  1.00  0.00     0.022 A 
BRANCH  93  96
ATOM     96  S   UNL     1      -7.789   6.110  -9.097  1.00  0.00     0.127 S 
ATOM     97  O   UNL     1      -8.466   6.029 -10.392  1.00  0.00    -0.237 OA
ATOM     98  O   UNL     1      -8.340   7.107  -8.180  1.00  0.00    -0.237 OA
ATOM     99  O   UNL     1      -6.335   6.074  -9.150  1.00  0.00    -0.744 OA
ENDBRANCH  93  96
ENDBRANCH  66  89
ENDBRANCH  40  41
ENDBRANCH  33  35
ENDBRANCH  32  33
ENDBRANCH  31  32
ENDBRANCH  30  31
ENDBRANCH  29  30
ENDBRANCH  28  29
ENDBRANCH   1  28
TORSDOF 24
