REMARK SMILES O=C(OCCOCCOCCOC(=O)c1ccc(-c2c3nc(c(-c4cccc(S(=O)(=O)[O-])c4F)c4ccc([nH]4)c(-c4cccc(S(=O)(=O)[O-])c4F)c4nc(c(-c5cccc(S(=O)(=O)[O-])c5F)c5ccc2[nH]5)C=C4)C=C3)cc1)C1=Cc2cc(S(F)(F)(F)(F)F)cc(Br)c2O[C@H]1C(F)(F)F
REMARK SMILES IDX 8 1 7 2 6 3 5 4 4 5 3 6 2 7 1 8 78 9 79 10 94 11 80 12 93 13
REMARK SMILES IDX 81 14 92 15 82 16 90 17 89 18 91 19 95 20 96 21 97 22 98 23
REMARK SMILES IDX 83 24 84 25 85 26 86 27 87 28 88 29 9 30 10 31 11 32 12 33
REMARK SMILES IDX 13 34 14 35 15 36 16 37 77 38 17 39 76 40 18 41 19 42 20 43
REMARK SMILES IDX 70 44 21 45 75 46 69 47 71 48 22 49 74 50 68 51 67 52 23 54
REMARK SMILES IDX 55 55 35 56 54 57 36 58 39 59 53 60 72 61 37 62 38 63 52 65
REMARK SMILES IDX 73 66 40 67 24 68 25 69 33 70 26 71 28 72 34 73 27 74 29 75
REMARK SMILES IDX 30 76 31 77 32 78 56 79 57 80 65 81 58 82 60 83 66 84 59 85
REMARK SMILES IDX 61 86 62 87 63 88 64 89 41 90 42 91 50 92 43 93 45 94 51 95
REMARK SMILES IDX 44 96 46 97 47 98 48 99 49 100
REMARK H PARENT 71 53 39 64
REMARK Flexibility Score: inf
ROOT
ATOM      1  C   UNL     1       2.498   0.742  -2.430  1.00  0.00     0.188 C 
ENDROOT
BRANCH   1   2
ATOM      2  C   UNL     1       3.005   1.171  -1.063  1.00  0.00     0.188 C 
BRANCH   2   3
ATOM      3  O   UNL     1       4.425   1.171  -1.063  1.00  0.00    -0.376 OA
BRANCH   3   4
ATOM      4  C   UNL     1       4.898  -0.136  -1.354  1.00  0.00     0.202 C 
BRANCH   4   5
ATOM      5  C   UNL     1       4.391  -1.106  -0.299  1.00  0.00     0.261 C 
BRANCH   5   6
ATOM      6  O   UNL     1       2.971  -1.106  -0.299  1.00  0.00    -0.460 OA
BRANCH   6   7
ATOM      7  C   UNL     1       2.261   0.095  -0.031  1.00  0.00     0.338 C 
ATOM      8  O   UNL     1       0.990   0.095  -0.031  1.00  0.00    -0.246 OA
BRANCH   7   9
ATOM      9  C   UNL     1       3.021   1.379   0.256  1.00  0.00     0.087 C 
ATOM     10  C   UNL     1       4.382   1.379   0.256  1.00  0.00     0.027 C 
ATOM     11  C   UNL     1       2.261   2.664   0.542  1.00  0.00     0.316 C 
ATOM     12  C   UNL     1       5.142   0.095  -0.031  1.00  0.00     0.020 A 
ATOM     13  O   UNL     1       3.580  -0.413  -1.749  1.00  0.00    -0.474 OA
ATOM     14  C   UNL     1       6.214  -0.231   0.783  1.00  0.00     0.036 A 
ATOM     15  C   UNL     1       4.776  -0.692  -1.037  1.00  0.00     0.142 A 
ATOM     16  C   UNL     1       7.024  -1.273   0.273  1.00  0.00     0.109 A 
ATOM     17  C   UNL     1       5.545  -1.773  -1.394  1.00  0.00     0.062 A 
ATOM     18  C   UNL     1       6.652  -2.119  -0.670  1.00  0.00     0.044 A 
ATOM     19  Br  UNL     1       5.048  -2.835  -2.965  1.00  0.00    -0.047 Br
BRANCH  11  20
ATOM     20  C   UNL     1       0.767   2.393   0.482  1.00  0.00     0.430 C 
ATOM     21  F   UNL     1       0.379   2.233  -0.780  1.00  0.00    -0.167 F 
ATOM     22  F   UNL     1       0.444   1.312   1.185  1.00  0.00    -0.167 F 
ATOM     23  F   UNL     1       0.161   3.457   1.001  1.00  0.00    -0.167 F 
ENDBRANCH  11  20
BRANCH  16  24
ATOM     24  S   UNL     1       8.688  -1.460   0.962  1.00  0.00     0.310 S 
ATOM     25  F   UNL     1       8.139  -1.431   2.450  1.00  0.00    -0.094 F 
ATOM     26  F   UNL     1       8.799   0.109   1.046  1.00  0.00    -0.094 F 
ATOM     27  F   UNL     1      10.115  -1.621   1.557  1.00  0.00    -0.094 F 
ATOM     28  F   UNL     1       8.503  -3.028   1.002  1.00  0.00    -0.094 F 
ATOM     29  F   UNL     1       7.195  -1.311   0.464  1.00  0.00    -0.094 F 
ENDBRANCH  16  24
ENDBRANCH   7   9
ENDBRANCH   6   7
ENDBRANCH   5   6
ENDBRANCH   4   5
ENDBRANCH   3   4
ENDBRANCH   2   3
ENDBRANCH   1   2
BRANCH   1  30
ATOM     30  O   UNL     1       2.971  -0.565  -2.722  1.00  0.00    -0.376 OA
BRANCH  30  31
ATOM     31  C   UNL     1       4.391  -0.565  -2.722  1.00  0.00     0.202 C 
BRANCH  31  32
ATOM     32  C   UNL     1       4.898   0.405  -3.777  1.00  0.00     0.261 C 
BRANCH  32  33
ATOM     33  O   UNL     1       4.425   1.711  -3.485  1.00  0.00    -0.460 OA
BRANCH  33  34
ATOM     34  C   UNL     1       3.029   1.965  -3.429  1.00  0.00     0.338 C 
ATOM     35  O   UNL     1       2.203   1.022  -3.639  1.00  0.00    -0.246 OA
BRANCH  34  36
ATOM     36  C   UNL     1       2.522   3.363  -3.116  1.00  0.00     0.060 A 
ATOM     37  C   UNL     1       1.467   3.495  -2.228  1.00  0.00     0.016 A 
ATOM     38  C   UNL     1       3.060   4.423  -3.709  1.00  0.00     0.016 A 
ATOM     39  C   UNL     1       0.855   4.770  -2.250  1.00  0.00     0.010 A 
ATOM     40  C   UNL     1       2.486   5.665  -3.576  1.00  0.00     0.010 A 
ATOM     41  C   UNL     1       1.405   5.856  -2.761  1.00  0.00    -0.014 A 
BRANCH  41  42
ATOM     42  C   UNL     1       0.866   7.245  -2.460  1.00  0.00     0.031 A 
ATOM     43  C   UNL     1       0.411   8.059  -3.499  1.00  0.00     0.074 A 
ATOM     44  C   UNL     1       0.839   7.608  -1.124  1.00  0.00     0.049 A 
ATOM     45  N   UNL     1      -0.142   9.269  -3.402  1.00  0.00    -0.248 NA
ATOM     46  C   UNL     1       0.470   7.689  -4.921  1.00  0.00     0.031 C 
ATOM     47  C   UNL     1       1.288   6.790  -0.069  1.00  0.00     0.029 A 
ATOM     48  N   UNL     1       0.389   8.790  -0.578  1.00  0.00    -0.354 N 
ATOM     49  C   UNL     1      -0.467   9.725  -4.614  1.00  0.00     0.074 A 
ATOM     50  C   UNL     1      -0.072   8.718  -5.609  1.00  0.00     0.031 C 
ATOM     51  C   UNL     1       1.122   7.472   1.094  1.00  0.00     0.029 A 
ATOM     52  C   UNL     1       0.565   8.728   0.786  1.00  0.00     0.049 A 
ATOM     53  H   UNL     1       0.006   9.547  -1.077  1.00  0.00     0.167 HD
ATOM     54  C   UNL     1      -1.079  10.940  -4.928  1.00  0.00     0.034 A 
ATOM     55  C   UNL     1       0.267   9.703   1.726  1.00  0.00     0.034 A 
ATOM     56  C   UNL     1      -1.417  11.896  -3.984  1.00  0.00     0.049 A 
ATOM     57  C   UNL     1      -0.292  10.942   1.406  1.00  0.00     0.074 A 
ATOM     58  C   UNL     1      -2.042  13.122  -4.283  1.00  0.00     0.029 A 
ATOM     59  N   UNL     1      -1.218  11.845  -2.622  1.00  0.00    -0.354 N 
ATOM     60  N   UNL     1      -0.653  11.382   0.199  1.00  0.00    -0.248 NA
ATOM     61  C   UNL     1      -0.583  11.995   2.388  1.00  0.00     0.031 C 
ATOM     62  C   UNL     1      -2.208  13.805  -3.119  1.00  0.00     0.029 A 
ATOM     63  C   UNL     1      -1.689  13.017  -2.074  1.00  0.00     0.049 A 
ATOM     64  H   UNL     1      -0.809  11.099  -2.126  1.00  0.00     0.167 HD
ATOM     65  C   UNL     1      -1.168  12.609   0.292  1.00  0.00     0.074 A 
ATOM     66  C   UNL     1      -1.124  13.024   1.701  1.00  0.00     0.031 C 
ATOM     67  C   UNL     1      -1.677  13.399  -0.741  1.00  0.00     0.034 A 
BRANCH  54  68
ATOM     68  C   UNL     1      -1.391  11.230  -6.387  1.00  0.00     0.023 A 
ATOM     69  C   UNL     1      -2.291  10.409  -7.047  1.00  0.00     0.012 A 
ATOM     70  C   UNL     1      -0.856  12.287  -6.986  1.00  0.00     0.148 A 
ATOM     71  C   UNL     1      -2.345  10.625  -8.444  1.00  0.00     0.002 A 
ATOM     72  C   UNL     1      -1.062  12.511  -8.325  1.00  0.00     0.091 A 
ATOM     73  F   UNL     1      -0.115  13.138  -6.282  1.00  0.00    -0.205 F 
ATOM     74  C   UNL     1      -1.893  11.706  -9.053  1.00  0.00     0.022 A 
BRANCH  72  75
ATOM     75  S   UNL     1      -0.221  13.892  -9.139  1.00  0.00     0.127 S 
ATOM     76  O   UNL     1       0.666  13.357 -10.266  1.00  0.00    -0.237 OA
ATOM     77  O   UNL     1      -1.261  14.852  -9.720  1.00  0.00    -0.237 OA
ATOM     78  O   UNL     1       0.746  14.722  -7.998  1.00  0.00    -0.744 OA
ENDBRANCH  72  75
ENDBRANCH  54  68
BRANCH  55  79
ATOM     79  C   UNL     1       0.563   9.405   3.186  1.00  0.00     0.023 A 
ATOM     80  C   UNL     1      -0.460   9.486   4.116  1.00  0.00     0.012 A 
ATOM     81  C   UNL     1       1.811   9.142   3.556  1.00  0.00     0.148 A 
ATOM     82  C   UNL     1      -0.012   9.560   5.456  1.00  0.00     0.002 A 
ATOM     83  C   UNL     1       2.151   9.095   4.887  1.00  0.00     0.091 A 
ATOM     84  F   UNL     1       2.741   8.922   2.631  1.00  0.00    -0.205 F 
ATOM     85  C   UNL     1       1.200   9.226   5.861  1.00  0.00     0.022 A 
BRANCH  83  86
ATOM     86  S   UNL     1       3.882   8.856   5.357  1.00  0.00     0.127 S 
ATOM     87  O   UNL     1       4.356  10.052   6.187  1.00  0.00    -0.237 OA
ATOM     88  O   UNL     1       4.013   7.576   6.186  1.00  0.00    -0.237 OA
ATOM     89  O   UNL     1       4.843   8.723   3.949  1.00  0.00    -0.744 OA
ENDBRANCH  83  86
ENDBRANCH  55  79
BRANCH  67  90
ATOM     90  C   UNL     1      -2.252  14.759  -0.383  1.00  0.00     0.023 A 
ATOM     91  C   UNL     1      -1.424  15.663   0.263  1.00  0.00     0.012 A 
ATOM     92  C   UNL     1      -3.519  15.053  -0.646  1.00  0.00     0.148 A 
ATOM     93  C   UNL     1      -2.111  16.750   0.853  1.00  0.00     0.002 A 
ATOM     94  C   UNL     1      -4.089  16.201  -0.150  1.00  0.00     0.091 A 
ATOM     95  F   UNL     1      -4.245  14.229  -1.397  1.00  0.00    -0.205 F 
ATOM     96  C   UNL     1      -3.345  17.110   0.548  1.00  0.00     0.022 A 
BRANCH  94  97
ATOM     97  S   UNL     1      -5.851  16.512  -0.423  1.00  0.00     0.127 S 
ATOM     98  O   UNL     1      -6.564  16.627   0.926  1.00  0.00    -0.237 OA
ATOM     99  O   UNL     1      -6.023  17.817  -1.204  1.00  0.00    -0.237 OA
ATOM    100  O   UNL     1      -6.527  15.220  -1.317  1.00  0.00    -0.744 OA
ENDBRANCH  94  97
ENDBRANCH  67  90
ENDBRANCH  41  42
ENDBRANCH  34  36
ENDBRANCH  33  34
ENDBRANCH  32  33
ENDBRANCH  31  32
ENDBRANCH  30  31
ENDBRANCH   1  30
TORSDOF 22
