REMARK SMILES CCC(CC)(CC)NC(=O)NC[C@@H]1CC[C@H](C(=O)OCCOCCOCCOC(=O)c2ccc(-c3c4nc(c(-c5cccc(S(=O)(=O)[O-])c5F)c5ccc([nH]5)c(-c5cccc(S(=O)(=O)[O-])c5F)c5nc(c(-c6cccc(S(=O)(=O)[O-])c6F)c6ccc3[nH]6)C=C5)C=C4)cc2)O1
REMARK SMILES IDX 23 1 22 2 21 3 20 4 19 5 17 6 18 7 16 8 13 9 14 10 94 11
REMARK SMILES IDX 15 12 12 13 11 14 8 15 9 16 10 18 3 20 2 21 1 22 4 23 5 24
REMARK SMILES IDX 6 25 7 26 24 27 25 28 26 29 27 30 28 31 29 32 30 33 31 34
REMARK SMILES IDX 32 35 93 36 33 37 92 38 34 39 35 40 36 41 86 42 37 43 91 44
REMARK SMILES IDX 85 45 87 46 38 47 90 48 84 49 83 50 39 52 71 53 51 54 70 55
REMARK SMILES IDX 52 56 55 57 69 58 88 59 53 60 54 61 68 63 89 64 56 65 40 66
REMARK SMILES IDX 41 67 49 68 42 69 44 70 50 71 43 72 45 73 46 74 47 75 48 76
REMARK SMILES IDX 72 77 73 78 81 79 74 80 76 81 82 82 75 83 77 84 78 85 79 86
REMARK SMILES IDX 80 87 57 88 58 89 66 90 59 91 61 92 67 93 60 94 62 95 63 96
REMARK SMILES IDX 64 97 65 98
REMARK H PARENT 8 17 11 19 87 51 55 62
REMARK Flexibility Score: inf
ROOT
ATOM      1  C   UNL     1      -3.177  -3.865  -0.551  1.00  0.00     0.188 C 
ENDROOT
BRANCH   1   2
ATOM      2  O   UNL     1      -3.694  -3.629  -1.856  1.00  0.00    -0.376 OA
BRANCH   2   3
ATOM      3  C   UNL     1      -3.190  -2.497  -2.562  1.00  0.00     0.202 C 
BRANCH   3   4
ATOM      4  C   UNL     1      -3.144  -1.174  -1.784  1.00  0.00     0.261 C 
BRANCH   4   5
ATOM      5  O   UNL     1      -2.163  -1.151  -0.712  1.00  0.00    -0.461 OA
BRANCH   5   6
ATOM      6  C   UNL     1      -2.354  -0.183   0.222  1.00  0.00     0.335 C 
ATOM      7  O   UNL     1      -3.278   0.626   0.149  1.00  0.00    -0.249 OA
BRANCH   6   8
ATOM      8  C   UNL     1      -1.297  -0.088   1.352  1.00  0.00     0.228 C 
ATOM      9  C   UNL     1       0.747   1.054   1.698  1.00  0.00     0.138 C 
ATOM     10  C   UNL     1       0.992  -0.400   2.095  1.00  0.00     0.037 C 
ATOM     11  O   UNL     1      -0.556   1.121   1.105  1.00  0.00    -0.361 OA
ATOM     12  C   UNL     1      -0.269  -1.159   1.681  1.00  0.00     0.047 C 
BRANCH   9  13
ATOM     13  C   UNL     1       1.765   1.826   0.793  1.00  0.00     0.149 C 
BRANCH  13  14
ATOM     14  N   UNL     1       2.782   1.048   0.069  1.00  0.00    -0.336 N 
ATOM     15  N   UNL     1       2.769   1.315  -2.320  1.00  0.00    -0.333 N 
ATOM     16  C   UNL     1       3.373   1.257  -1.121  1.00  0.00     0.315 C 
ATOM     17  H   UNL     1       3.395   1.655  -2.999  1.00  0.00     0.165 HD
ATOM     18  O   UNL     1       4.608   1.314  -1.124  1.00  0.00    -0.249 OA
ATOM     19  H   UNL     1       3.081   0.234   0.536  1.00  0.00     0.165 HD
BRANCH  15  20
ATOM     20  C   UNL     1       1.440   1.024  -2.945  1.00  0.00     0.041 C 
BRANCH  20  21
ATOM     21  C   UNL     1       0.441   0.499  -1.923  1.00  0.00     0.025 C 
ATOM     22  C   UNL     1       0.884  -0.853  -1.382  1.00  0.00     0.006 C 
ENDBRANCH  20  21
BRANCH  20  23
ATOM     23  C   UNL     1       1.613  -0.073  -4.070  1.00  0.00     0.025 C 
ATOM     24  C   UNL     1       0.306  -0.633  -4.659  1.00  0.00     0.006 C 
ENDBRANCH  20  23
BRANCH  20  25
ATOM     25  C   UNL     1       0.921   2.296  -3.681  1.00  0.00     0.025 C 
ATOM     26  C   UNL     1       1.206   3.632  -3.014  1.00  0.00     0.006 C 
ENDBRANCH  20  25
ENDBRANCH  15  20
ENDBRANCH  13  14
ENDBRANCH   9  13
ENDBRANCH   6   8
ENDBRANCH   5   6
ENDBRANCH   4   5
ENDBRANCH   3   4
ENDBRANCH   2   3
ENDBRANCH   1   2
BRANCH   1  27
ATOM     27  C   UNL     1      -1.649  -3.933  -0.422  1.00  0.00     0.188 C 
BRANCH  27  28
ATOM     28  O   UNL     1      -0.965  -3.953  -1.663  1.00  0.00    -0.376 OA
BRANCH  28  29
ATOM     29  C   UNL     1      -0.156  -5.090  -1.912  1.00  0.00     0.202 C 
BRANCH  29  30
ATOM     30  C   UNL     1      -0.923  -6.403  -2.120  1.00  0.00     0.261 C 
BRANCH  30  31
ATOM     31  O   UNL     1      -1.852  -6.747  -1.077  1.00  0.00    -0.460 OA
BRANCH  31  32
ATOM     32  C   UNL     1      -1.334  -7.083   0.135  1.00  0.00     0.338 C 
ATOM     33  O   UNL     1      -0.170  -7.199   0.417  1.00  0.00    -0.246 OA
BRANCH  32  34
ATOM     34  C   UNL     1      -2.454  -6.984   1.116  1.00  0.00     0.060 A 
ATOM     35  C   UNL     1      -2.277  -6.180   2.254  1.00  0.00     0.016 A 
ATOM     36  C   UNL     1      -3.690  -7.584   0.866  1.00  0.00     0.016 A 
ATOM     37  C   UNL     1      -3.333  -5.988   3.149  1.00  0.00     0.010 A 
ATOM     38  C   UNL     1      -4.737  -7.412   1.776  1.00  0.00     0.010 A 
ATOM     39  C   UNL     1      -4.555  -6.637   2.935  1.00  0.00    -0.014 A 
BRANCH  39  40
ATOM     40  C   UNL     1      -5.550  -6.716   4.032  1.00  0.00     0.031 A 
ATOM     41  C   UNL     1      -5.495  -7.922   4.932  1.00  0.00     0.074 A 
ATOM     42  C   UNL     1      -6.485  -5.769   4.228  1.00  0.00     0.049 A 
ATOM     43  N   UNL     1      -6.267  -8.249   5.933  1.00  0.00    -0.248 NA
ATOM     44  C   UNL     1      -4.419  -8.890   4.657  1.00  0.00     0.031 C 
ATOM     45  C   UNL     1      -6.640  -4.550   3.437  1.00  0.00     0.029 A 
ATOM     46  N   UNL     1      -7.501  -5.704   5.150  1.00  0.00    -0.354 N 
ATOM     47  C   UNL     1      -5.787  -9.470   6.392  1.00  0.00     0.074 A 
ATOM     48  C   UNL     1      -4.668  -9.833   5.551  1.00  0.00     0.031 C 
ATOM     49  C   UNL     1      -7.709  -3.870   3.892  1.00  0.00     0.029 A 
ATOM     50  C   UNL     1      -8.326  -4.616   4.989  1.00  0.00     0.049 A 
ATOM     51  H   UNL     1      -7.627  -6.375   5.860  1.00  0.00     0.167 HD
ATOM     52  C   UNL     1      -6.225 -10.219   7.430  1.00  0.00     0.034 A 
ATOM     53  C   UNL     1      -9.458  -4.277   5.640  1.00  0.00     0.034 A 
ATOM     54  C   UNL     1      -7.338  -9.864   8.265  1.00  0.00     0.049 A 
ATOM     55  C   UNL     1      -9.957  -5.155   6.763  1.00  0.00     0.074 A 
ATOM     56  C   UNL     1      -7.843 -10.543   9.358  1.00  0.00     0.029 A 
ATOM     57  N   UNL     1      -8.130  -8.741   8.088  1.00  0.00    -0.354 N 
ATOM     58  N   UNL     1      -9.427  -6.246   7.261  1.00  0.00    -0.248 NA
ATOM     59  C   UNL     1     -11.198  -4.736   7.435  1.00  0.00     0.031 C 
ATOM     60  C   UNL     1      -8.961  -9.845   9.825  1.00  0.00     0.029 A 
ATOM     61  C   UNL     1      -9.129  -8.712   9.045  1.00  0.00     0.049 A 
ATOM     62  H   UNL     1      -8.002  -8.064   7.385  1.00  0.00     0.167 HD
ATOM     63  C   UNL     1     -10.241  -6.617   8.328  1.00  0.00     0.074 A 
ATOM     64  C   UNL     1     -11.292  -5.625   8.414  1.00  0.00     0.031 C 
ATOM     65  C   UNL     1     -10.135  -7.686   9.156  1.00  0.00     0.034 A 
BRANCH  52  66
ATOM     66  C   UNL     1      -5.480 -11.494   7.722  1.00  0.00     0.023 A 
ATOM     67  C   UNL     1      -4.181 -11.433   8.270  1.00  0.00     0.012 A 
ATOM     68  C   UNL     1      -6.069 -12.748   7.475  1.00  0.00     0.148 A 
ATOM     69  C   UNL     1      -3.466 -12.600   8.531  1.00  0.00     0.002 A 
ATOM     70  C   UNL     1      -5.368 -13.907   7.783  1.00  0.00     0.091 A 
ATOM     71  F   UNL     1      -7.292 -12.784   6.926  1.00  0.00    -0.205 F 
ATOM     72  C   UNL     1      -4.063 -13.836   8.298  1.00  0.00     0.022 A 
BRANCH  70  73
ATOM     73  S   UNL     1      -6.079 -15.545   7.590  1.00  0.00     0.127 S 
ATOM     74  O   UNL     1      -5.322 -16.062   6.450  1.00  0.00    -0.237 OA
ATOM     75  O   UNL     1      -5.756 -16.172   8.871  1.00  0.00    -0.237 OA
ATOM     76  O   UNL     1      -7.501 -15.340   7.355  1.00  0.00    -0.744 OA
ENDBRANCH  70  73
ENDBRANCH  52  66
BRANCH  53  77
ATOM     77  C   UNL     1     -10.190  -3.027   5.281  1.00  0.00     0.023 A 
ATOM     78  C   UNL     1     -10.229  -1.958   6.198  1.00  0.00     0.012 A 
ATOM     79  C   UNL     1     -10.858  -2.896   4.048  1.00  0.00     0.148 A 
ATOM     80  C   UNL     1     -10.945  -0.796   5.908  1.00  0.00     0.002 A 
ATOM     81  C   UNL     1     -11.526  -1.715   3.743  1.00  0.00     0.091 A 
ATOM     82  F   UNL     1     -10.827  -3.931   3.197  1.00  0.00    -0.205 F 
ATOM     83  C   UNL     1     -11.585  -0.670   4.679  1.00  0.00     0.022 A 
BRANCH  81  84
ATOM     84  S   UNL     1     -12.287  -1.419   2.144  1.00  0.00     0.127 S 
ATOM     85  O   UNL     1     -13.707  -1.394   2.488  1.00  0.00    -0.237 OA
ATOM     86  O   UNL     1     -11.719  -0.121   1.777  1.00  0.00    -0.237 OA
ATOM     87  O   UNL     1     -11.864  -2.524   1.295  1.00  0.00    -0.744 OA
ENDBRANCH  81  84
ENDBRANCH  53  77
BRANCH  65  88
ATOM     88  C   UNL     1     -11.145  -7.824  10.267  1.00  0.00     0.023 A 
ATOM     89  C   UNL     1     -12.475  -8.186   9.973  1.00  0.00     0.012 A 
ATOM     90  C   UNL     1     -10.753  -7.673  11.613  1.00  0.00     0.148 A 
ATOM     91  C   UNL     1     -13.405  -8.363  10.998  1.00  0.00     0.002 A 
ATOM     92  C   UNL     1     -11.671  -7.901  12.631  1.00  0.00     0.091 A 
ATOM     93  F   UNL     1      -9.488  -7.313  11.874  1.00  0.00    -0.205 F 
ATOM     94  C   UNL     1     -13.001  -8.233  12.325  1.00  0.00     0.022 A 
BRANCH  92  95
ATOM     95  S   UNL     1     -11.216  -7.856  14.368  1.00  0.00     0.127 S 
ATOM     96  O   UNL     1     -11.857  -6.619  14.812  1.00  0.00    -0.237 OA
ATOM     97  O   UNL     1     -11.830  -9.080  14.882  1.00  0.00    -0.237 OA
ATOM     98  O   UNL     1      -9.759  -7.852  14.402  1.00  0.00    -0.744 OA
ENDBRANCH  92  95
ENDBRANCH  65  88
ENDBRANCH  39  40
ENDBRANCH  32  34
ENDBRANCH  31  32
ENDBRANCH  30  31
ENDBRANCH  29  30
ENDBRANCH  28  29
ENDBRANCH  27  28
ENDBRANCH   1  27
TORSDOF 26
