REMARK SMILES CCCC[C@H](C(=O)OCCOCCOCCOC(=O)c1ccc(-c2c3nc(c(-c4cccc(S(=O)(=O)[O-])c4F)c4ccc([nH]4)c(-c4cccc(S(=O)(=O)[O-])c4F)c4nc(c(-c5cccc(S(=O)(=O)[O-])c5F)c5ccc2[nH]5)C=C4)C=C3)cc1)[C@]1(O)CCc2ccc(OC)cc21
REMARK SMILES IDX 12 1 11 2 10 3 9 4 8 5 6 6 7 7 5 8 4 9 3 10 2 11 1 12 83 13
REMARK SMILES IDX 85 14 94 15 86 16 87 17 93 18 88 19 90 20 89 21 84 22 91 24
REMARK SMILES IDX 92 25 13 26 14 27 15 28 16 29 17 30 18 31 19 32 20 33 21 34
REMARK SMILES IDX 82 35 22 36 81 37 23 38 24 39 25 40 75 41 26 42 80 43 74 44
REMARK SMILES IDX 76 45 27 46 79 47 73 48 72 49 28 51 60 52 40 53 59 54 41 55
REMARK SMILES IDX 44 56 58 57 77 58 42 59 43 60 57 62 78 63 45 64 29 65 30 66
REMARK SMILES IDX 38 67 31 68 33 69 39 70 32 71 34 72 35 73 36 74 37 75 61 76
REMARK SMILES IDX 62 77 70 78 63 79 65 80 71 81 64 82 66 83 67 84 68 85 69 86
REMARK SMILES IDX 46 87 47 88 55 89 48 90 50 91 56 92 49 93 51 94 52 95 53 96
REMARK SMILES IDX 54 97
REMARK H PARENT 84 23 76 50 44 61
REMARK Flexibility Score: inf
ROOT
ATOM      1  C   UNL     1       1.815   0.829  -1.377  1.00  0.00     0.188 C 
ENDROOT
BRANCH   1   2
ATOM      2  O   UNL     1       3.090   1.103  -0.852  1.00  0.00    -0.376 OA
BRANCH   2   3
ATOM      3  C   UNL     1       3.495   2.446  -0.973  1.00  0.00     0.202 C 
BRANCH   3   4
ATOM      4  C   UNL     1       2.473   3.506  -0.546  1.00  0.00     0.261 C 
BRANCH   4   5
ATOM      5  O   UNL     1       1.038   3.523  -1.187  1.00  0.00    -0.463 OA
BRANCH   5   6
ATOM      6  C   UNL     1      -0.276   3.054  -1.194  1.00  0.00     0.312 C 
ATOM      7  O   UNL     1      -0.643   2.517  -2.253  1.00  0.00    -0.252 OA
BRANCH   6   8
ATOM      8  C   UNL     1      -1.527   3.339  -0.111  1.00  0.00     0.135 C 
BRANCH   8   9
ATOM      9  C   UNL     1      -1.340   3.665   1.498  1.00  0.00     0.019 C 
BRANCH   9  10
ATOM     10  C   UNL     1      -0.566   5.530   2.366  1.00  0.00     0.001 C 
BRANCH  10  11
ATOM     11  C   UNL     1       0.923   6.463   1.953  1.00  0.00    -0.003 C 
ATOM     12  C   UNL     1       0.642   7.836   1.354  1.00  0.00     0.004 C 
ENDBRANCH  10  11
ENDBRANCH   9  10
ENDBRANCH   8   9
BRANCH   8  13
ATOM     13  C   UNL     1      -2.490   4.530  -0.402  1.00  0.00     0.104 C 
ATOM     14  C   UNL     1      -1.927   5.344  -1.560  1.00  0.00     0.046 C 
ATOM     15  C   UNL     1      -2.160   5.493   0.901  1.00  0.00    -0.009 A 
ATOM     16  C   UNL     1      -0.524   5.787  -1.066  1.00  0.00     0.039 C 
ATOM     17  C   UNL     1      -0.466   5.249   0.372  1.00  0.00    -0.042 A 
ATOM     18  C   UNL     1      -2.651   4.989   2.566  1.00  0.00     0.053 A 
ATOM     19  C   UNL     1       0.597   4.150   1.406  1.00  0.00     0.008 A 
ATOM     20  C   UNL     1      -1.530   4.070   3.615  1.00  0.00     0.119 A 
ATOM     21  C   UNL     1       0.096   3.627   3.054  1.00  0.00     0.047 A 
BRANCH  13  22
ATOM     22  O   UNL     1      -3.849   4.193  -0.493  1.00  0.00    -0.384 OA
ATOM     23  H   UNL     1      -3.991   3.630  -1.270  1.00  0.00     0.211 HD
ENDBRANCH  13  22
BRANCH  20  24
ATOM     24  O   UNL     1      -1.813   3.946   4.954  1.00  0.00    -0.497 OA
ATOM     25  C   UNL     1      -0.715   4.399   5.762  1.00  0.00     0.278 C 
ENDBRANCH  20  24
ENDBRANCH   8  13
ENDBRANCH   6   8
ENDBRANCH   5   6
ENDBRANCH   4   5
ENDBRANCH   3   4
ENDBRANCH   2   3
ENDBRANCH   1   2
BRANCH   1  26
ATOM     26  C   UNL     1       0.835   0.337  -0.281  1.00  0.00     0.188 C 
BRANCH  26  27
ATOM     27  O   UNL     1       1.357   0.028   1.001  1.00  0.00    -0.376 OA
BRANCH  27  28
ATOM     28  C   UNL     1       2.522  -0.783   1.041  1.00  0.00     0.202 C 
BRANCH  28  29
ATOM     29  C   UNL     1       2.714  -1.981   0.067  1.00  0.00     0.261 C 
BRANCH  29  30
ATOM     30  O   UNL     1       2.347  -1.828  -1.327  1.00  0.00    -0.460 OA
BRANCH  30  31
ATOM     31  C   UNL     1       1.186  -2.394  -1.769  1.00  0.00     0.338 C 
ATOM     32  O   UNL     1       0.453  -3.114  -1.111  1.00  0.00    -0.246 OA
BRANCH  31  33
ATOM     33  C   UNL     1       0.785  -1.820  -3.099  1.00  0.00     0.060 A 
ATOM     34  C   UNL     1      -0.363  -1.006  -3.193  1.00  0.00     0.016 A 
ATOM     35  C   UNL     1       1.552  -2.032  -4.243  1.00  0.00     0.016 A 
ATOM     36  C   UNL     1      -0.742  -0.416  -4.409  1.00  0.00     0.010 A 
ATOM     37  C   UNL     1       1.144  -1.479  -5.471  1.00  0.00     0.010 A 
ATOM     38  C   UNL     1      -0.015  -0.683  -5.572  1.00  0.00    -0.014 A 
BRANCH  38  39
ATOM     39  C   UNL     1      -0.529  -0.284  -6.916  1.00  0.00     0.031 A 
ATOM     40  C   UNL     1      -1.171  -1.340  -7.781  1.00  0.00     0.074 A 
ATOM     41  C   UNL     1      -0.392   0.966  -7.399  1.00  0.00     0.049 A 
ATOM     42  N   UNL     1      -1.548  -1.279  -9.032  1.00  0.00    -0.248 NA
ATOM     43  C   UNL     1      -1.411  -2.645  -7.144  1.00  0.00     0.031 C 
ATOM     44  C   UNL     1       0.169   2.099  -6.669  1.00  0.00     0.029 A 
ATOM     45  N   UNL     1      -0.677   1.479  -8.646  1.00  0.00    -0.354 N 
ATOM     46  C   UNL     1      -2.021  -2.548  -9.348  1.00  0.00     0.074 A 
ATOM     47  C   UNL     1      -1.887  -3.356  -8.155  1.00  0.00     0.031 C 
ATOM     48  C   UNL     1       0.238   3.159  -7.495  1.00  0.00     0.029 A 
ATOM     49  C   UNL     1      -0.236   2.772  -8.823  1.00  0.00     0.049 A 
ATOM     50  H   UNL     1      -1.149   0.970  -9.344  1.00  0.00     0.167 HD
ATOM     51  C   UNL     1      -2.517  -3.003 -10.524  1.00  0.00     0.034 A 
ATOM     52  C   UNL     1      -0.177   3.538  -9.934  1.00  0.00     0.034 A 
ATOM     53  C   UNL     1      -2.655  -2.201 -11.710  1.00  0.00     0.049 A 
ATOM     54  C   UNL     1      -0.680   2.991 -11.249  1.00  0.00     0.074 A 
ATOM     55  C   UNL     1      -3.196  -2.564 -12.931  1.00  0.00     0.029 A 
ATOM     56  N   UNL     1      -2.223  -0.892 -11.838  1.00  0.00    -0.354 N 
ATOM     57  N   UNL     1      -1.217   1.824 -11.508  1.00  0.00    -0.248 NA
ATOM     58  C   UNL     1      -0.589   3.876 -12.423  1.00  0.00     0.031 C 
ATOM     59  C   UNL     1      -3.031  -1.495 -13.816  1.00  0.00     0.029 A 
ATOM     60  C   UNL     1      -2.452  -0.442 -13.127  1.00  0.00     0.049 A 
ATOM     61  H   UNL     1      -1.813  -0.359 -11.118  1.00  0.00     0.167 HD
ATOM     62  C   UNL     1      -1.557   1.847 -12.858  1.00  0.00     0.074 A 
ATOM     63  C   UNL     1      -1.185   3.152 -13.360  1.00  0.00     0.031 C 
ATOM     64  C   UNL     1      -2.118   0.871 -13.614  1.00  0.00     0.034 A 
BRANCH  51  65
ATOM     65  C   UNL     1      -2.937  -4.449 -10.599  1.00  0.00     0.023 A 
ATOM     66  C   UNL     1      -4.083  -4.893  -9.908  1.00  0.00     0.012 A 
ATOM     67  C   UNL     1      -2.226  -5.356 -11.411  1.00  0.00     0.148 A 
ATOM     68  C   UNL     1      -4.492  -6.224  -9.994  1.00  0.00     0.002 A 
ATOM     69  C   UNL     1      -2.669  -6.667 -11.533  1.00  0.00     0.091 A 
ATOM     70  F   UNL     1      -1.131  -4.919 -12.049  1.00  0.00    -0.205 F 
ATOM     71  C   UNL     1      -3.793  -7.106 -10.814  1.00  0.00     0.022 A 
BRANCH  69  72
ATOM     72  S   UNL     1      -1.887  -7.858 -12.625  1.00  0.00     0.127 S 
ATOM     73  O   UNL     1      -1.350  -8.826 -11.669  1.00  0.00    -0.237 OA
ATOM     74  O   UNL     1      -3.023  -8.342 -13.410  1.00  0.00    -0.237 OA
ATOM     75  O   UNL     1      -0.889  -7.119 -13.385  1.00  0.00    -0.744 OA
ENDBRANCH  69  72
ENDBRANCH  51  65
BRANCH  52  76
ATOM     76  C   UNL     1       0.401   4.915  -9.869  1.00  0.00     0.023 A 
ATOM     77  C   UNL     1      -0.424   6.034 -10.098  1.00  0.00     0.012 A 
ATOM     78  C   UNL     1       1.769   5.118  -9.599  1.00  0.00     0.148 A 
ATOM     79  C   UNL     1       0.108   7.324 -10.095  1.00  0.00     0.002 A 
ATOM     80  C   UNL     1       2.281   6.408  -9.537  1.00  0.00     0.091 A 
ATOM     81  F   UNL     1       2.543   4.041  -9.402  1.00  0.00    -0.205 F 
ATOM     82  C   UNL     1       1.457   7.512  -9.805  1.00  0.00     0.022 A 
BRANCH  80  83
ATOM     83  S   UNL     1       3.977   6.755  -9.058  1.00  0.00     0.127 S 
ATOM     84  O   UNL     1       4.520   7.343 -10.280  1.00  0.00    -0.237 OA
ATOM     85  O   UNL     1       3.787   7.696  -7.953  1.00  0.00    -0.237 OA
ATOM     86  O   UNL     1       4.550   5.474  -8.669  1.00  0.00    -0.744 OA
ENDBRANCH  80  83
ENDBRANCH  52  76
BRANCH  64  87
ATOM     87  C   UNL     1      -2.417   1.173 -15.062  1.00  0.00     0.023 A 
ATOM     88  C   UNL     1      -1.368   1.300 -15.993  1.00  0.00     0.012 A 
ATOM     89  C   UNL     1      -3.752   1.237 -15.515  1.00  0.00     0.148 A 
ATOM     90  C   UNL     1      -1.641   1.516 -17.345  1.00  0.00     0.002 A 
ATOM     91  C   UNL     1      -4.016   1.398 -16.869  1.00  0.00     0.091 A 
ATOM     92  F   UNL     1      -4.737   1.123 -14.612  1.00  0.00    -0.205 F 
ATOM     93  C   UNL     1      -2.962   1.551 -17.784  1.00  0.00     0.022 A 
BRANCH  91  94
ATOM     94  S   UNL     1      -5.681   1.362 -17.543  1.00  0.00     0.127 S 
ATOM     95  O   UNL     1      -5.823   2.724 -18.057  1.00  0.00    -0.237 OA
ATOM     96  O   UNL     1      -5.573   0.329 -18.573  1.00  0.00    -0.237 OA
ATOM     97  O   UNL     1      -6.562   1.027 -16.433  1.00  0.00    -0.744 OA
ENDBRANCH  91  94
ENDBRANCH  64  87
ENDBRANCH  38  39
ENDBRANCH  31  33
ENDBRANCH  30  31
ENDBRANCH  29  30
ENDBRANCH  28  29
ENDBRANCH  27  28
ENDBRANCH  26  27
ENDBRANCH   1  26
TORSDOF 26
