REMARK SMILES O=C(OCCOCCOCCOC(=O)c1csc(S(=O)(=O)Nc2cccc(S(=O)(=O)N3CCCC3)c2)c1)c1ccc(-c2c3nc(c(-c4cccc(S(=O)(=O)[O-])c4F)c4ccc([nH]4)c(-c4cccc(S(=O)(=O)[O-])c4F)c4nc(c(-c5cccc(S(=O)(=O)[O-])c5F)c5ccc2[nH]5)C=C4)C=C3)cc1
REMARK SMILES IDX 8 1 7 2 6 3 5 4 4 5 3 6 2 7 1 8 38 9 39 10 100 11 40 12
REMARK SMILES IDX 99 13 41 14 42 15 43 16 93 17 44 18 98 19 92 20 94 21 45 22
REMARK SMILES IDX 97 23 91 24 90 25 46 27 78 28 58 29 77 30 59 31 62 32 76 33
REMARK SMILES IDX 95 34 60 35 61 36 75 38 96 39 63 40 47 41 48 42 56 43 49 44
REMARK SMILES IDX 51 45 57 46 50 47 52 48 53 49 54 50 55 51 79 52 80 53 88 54
REMARK SMILES IDX 81 55 83 56 89 57 82 58 84 59 85 60 86 61 87 62 64 63 65 64
REMARK SMILES IDX 73 65 66 66 68 67 74 68 67 69 69 70 70 71 71 72 72 73 9 74
REMARK SMILES IDX 10 75 11 76 12 77 13 78 14 79 15 80 16 81 37 82 17 83 18 84
REMARK SMILES IDX 19 85 20 86 21 87 22 88 23 90 24 91 36 92 25 93 27 94 26 95
REMARK SMILES IDX 28 96 29 97 30 98 31 99 32 100 35 101 33 102 34 103
REMARK H PARENT 94 26 62 37 22 89
REMARK Flexibility Score: inf
ROOT
ATOM      1  C   UNL     1       3.067  -0.999  -3.107  1.00  0.00     0.188 C 
ENDROOT
BRANCH   1   2
ATOM      2  C   UNL     1       3.877   0.129  -2.448  1.00  0.00     0.188 C 
BRANCH   2   3
ATOM      3  O   UNL     1       4.186  -0.096  -1.082  1.00  0.00    -0.376 OA
BRANCH   3   4
ATOM      4  C   UNL     1       5.073  -1.163  -0.813  1.00  0.00     0.202 C 
BRANCH   4   5
ATOM      5  C   UNL     1       4.813  -1.766   0.580  1.00  0.00     0.261 C 
BRANCH   5   6
ATOM      6  O   UNL     1       3.922  -0.998   1.403  1.00  0.00    -0.460 OA
BRANCH   6   7
ATOM      7  C   UNL     1       4.450  -0.322   2.447  1.00  0.00     0.338 C 
ATOM      8  O   UNL     1       4.316  -0.637   3.618  1.00  0.00    -0.246 OA
BRANCH   7   9
ATOM      9  C   UNL     1       4.915   1.008   2.017  1.00  0.00     0.060 A 
ATOM     10  C   UNL     1       6.052   1.157   1.217  1.00  0.00     0.016 A 
ATOM     11  C   UNL     1       4.186   2.121   2.416  1.00  0.00     0.016 A 
ATOM     12  C   UNL     1       6.405   2.408   0.710  1.00  0.00     0.010 A 
ATOM     13  C   UNL     1       4.540   3.372   1.915  1.00  0.00     0.010 A 
ATOM     14  C   UNL     1       5.648   3.526   1.054  1.00  0.00    -0.014 A 
BRANCH  14  15
ATOM     15  C   UNL     1       6.163   4.893   0.796  1.00  0.00     0.031 A 
ATOM     16  C   UNL     1       6.663   5.623   2.011  1.00  0.00     0.074 A 
ATOM     17  C   UNL     1       6.130   5.494  -0.411  1.00  0.00     0.049 A 
ATOM     18  N   UNL     1       7.042   6.862   2.142  1.00  0.00    -0.248 NA
ATOM     19  C   UNL     1       6.672   4.853   3.272  1.00  0.00     0.031 C 
ATOM     20  C   UNL     1       5.627   4.914  -1.659  1.00  0.00     0.029 A 
ATOM     21  N   UNL     1       6.489   6.771  -0.769  1.00  0.00    -0.354 N 
ATOM     22  C   UNL     1       7.300   7.011   3.498  1.00  0.00     0.074 A 
ATOM     23  C   UNL     1       6.871   5.806   4.160  1.00  0.00     0.031 C 
ATOM     24  C   UNL     1       5.648   5.854  -2.625  1.00  0.00     0.029 A 
ATOM     25  C   UNL     1       6.200   7.090  -2.078  1.00  0.00     0.049 A 
ATOM     26  H   UNL     1       6.914   7.402  -0.145  1.00  0.00     0.167 HD
ATOM     27  C   UNL     1       7.960   8.005   4.131  1.00  0.00     0.034 A 
ATOM     28  C   UNL     1       6.385   8.249  -2.745  1.00  0.00     0.034 A 
ATOM     29  C   UNL     1       8.479   9.145   3.446  1.00  0.00     0.049 A 
ATOM     30  C   UNL     1       7.105   9.372  -2.028  1.00  0.00     0.074 A 
ATOM     31  C   UNL     1       9.261  10.169   3.934  1.00  0.00     0.029 A 
ATOM     32  N   UNL     1       8.266   9.394   2.098  1.00  0.00    -0.354 N 
ATOM     33  N   UNL     1       7.523   9.424  -0.785  1.00  0.00    -0.248 NA
ATOM     34  C   UNL     1       7.455  10.558  -2.825  1.00  0.00     0.031 C 
ATOM     35  C   UNL     1       9.518  11.047   2.876  1.00  0.00     0.029 A 
ATOM     36  C   UNL     1       8.909  10.555   1.728  1.00  0.00     0.049 A 
ATOM     37  H   UNL     1       7.734   8.826   1.495  1.00  0.00     0.167 HD
ATOM     38  C   UNL     1       8.252  10.604  -0.673  1.00  0.00     0.074 A 
ATOM     39  C   UNL     1       8.206  11.243  -1.973  1.00  0.00     0.031 C 
ATOM     40  C   UNL     1       8.908  11.113   0.400  1.00  0.00     0.034 A 
BRANCH  27  41
ATOM     41  C   UNL     1       8.220   7.794   5.596  1.00  0.00     0.023 A 
ATOM     42  C   UNL     1       9.081   6.747   6.001  1.00  0.00     0.012 A 
ATOM     43  C   UNL     1       7.528   8.535   6.568  1.00  0.00     0.148 A 
ATOM     44  C   UNL     1       9.171   6.378   7.341  1.00  0.00     0.002 A 
ATOM     45  C   UNL     1       7.670   8.198   7.908  1.00  0.00     0.091 A 
ATOM     46  F   UNL     1       6.706   9.513   6.162  1.00  0.00    -0.205 F 
ATOM     47  C   UNL     1       8.466   7.105   8.294  1.00  0.00     0.022 A 
BRANCH  45  48
ATOM     48  S   UNL     1       6.860   9.107   9.226  1.00  0.00     0.127 S 
ATOM     49  O   UNL     1       5.930   8.107   9.748  1.00  0.00    -0.237 OA
ATOM     50  O   UNL     1       7.983   9.417  10.111  1.00  0.00    -0.237 OA
ATOM     51  O   UNL     1       6.241  10.264   8.597  1.00  0.00    -0.744 OA
ENDBRANCH  45  48
ENDBRANCH  27  41
BRANCH  28  52
ATOM     52  C   UNL     1       6.026   8.384  -4.189  1.00  0.00     0.023 A 
ATOM     53  C   UNL     1       7.056   8.409  -5.152  1.00  0.00     0.012 A 
ATOM     54  C   UNL     1       4.691   8.528  -4.618  1.00  0.00     0.148 A 
ATOM     55  C   UNL     1       6.774   8.628  -6.502  1.00  0.00     0.002 A 
ATOM     56  C   UNL     1       4.414   8.711  -5.972  1.00  0.00     0.091 A 
ATOM     57  F   UNL     1       3.722   8.495  -3.693  1.00  0.00    -0.205 F 
ATOM     58  C   UNL     1       5.455   8.779  -6.912  1.00  0.00     0.022 A 
BRANCH  56  59
ATOM     59  S   UNL     1       2.745   8.842  -6.627  1.00  0.00     0.127 S 
ATOM     60  O   UNL     1       2.753  10.188  -7.199  1.00  0.00    -0.237 OA
ATOM     61  O   UNL     1       2.731   7.757  -7.608  1.00  0.00    -0.237 OA
ATOM     62  O   UNL     1       1.859   8.651  -5.488  1.00  0.00    -0.744 OA
ENDBRANCH  56  59
ENDBRANCH  28  52
BRANCH  40  63
ATOM     63  C   UNL     1       9.705  12.373   0.210  1.00  0.00     0.023 A 
ATOM     64  C   UNL     1       9.050  13.613   0.112  1.00  0.00     0.012 A 
ATOM     65  C   UNL     1      11.112  12.328   0.282  1.00  0.00     0.148 A 
ATOM     66  C   UNL     1       9.787  14.795   0.076  1.00  0.00     0.002 A 
ATOM     67  C   UNL     1      11.835  13.511   0.305  1.00  0.00     0.091 A 
ATOM     68  F   UNL     1      11.711  11.130   0.354  1.00  0.00    -0.205 F 
ATOM     69  C   UNL     1      11.175  14.746   0.192  1.00  0.00     0.022 A 
BRANCH  67  70
ATOM     70  S   UNL     1      13.609  13.543   0.583  1.00  0.00     0.127 S 
ATOM     71  O   UNL     1      14.111  13.906  -0.741  1.00  0.00    -0.237 OA
ATOM     72  O   UNL     1      13.745  14.589   1.597  1.00  0.00    -0.237 OA
ATOM     73  O   UNL     1      13.967  12.208   1.043  1.00  0.00    -0.744 OA
ENDBRANCH  67  70
ENDBRANCH  40  63
ENDBRANCH  14  15
ENDBRANCH   7   9
ENDBRANCH   6   7
ENDBRANCH   5   6
ENDBRANCH   4   5
ENDBRANCH   3   4
ENDBRANCH   2   3
ENDBRANCH   1   2
BRANCH   1  74
ATOM     74  O   UNL     1       3.790  -1.908  -3.941  1.00  0.00    -0.376 OA
BRANCH  74  75
ATOM     75  C   UNL     1       4.878  -1.394  -4.699  1.00  0.00     0.202 C 
BRANCH  75  76
ATOM     76  C   UNL     1       4.561  -0.361  -5.796  1.00  0.00     0.261 C 
BRANCH  76  77
ATOM     77  O   UNL     1       3.968   0.866  -5.324  1.00  0.00    -0.460 OA
BRANCH  77  78
ATOM     78  C   UNL     1       2.648   1.066  -5.638  1.00  0.00     0.339 C 
ATOM     79  O   UNL     1       1.954   0.258  -6.242  1.00  0.00    -0.246 OA
BRANCH  78  80
ATOM     80  C   UNL     1       2.099   2.303  -5.082  1.00  0.00     0.072 A 
ATOM     81  C   UNL     1       2.785   3.501  -5.030  1.00  0.00     0.082 A 
ATOM     82  C   UNL     1       0.759   2.462  -4.552  1.00  0.00     0.050 A 
ATOM     83  S   UNL     1       1.829   4.778  -4.420  1.00  0.00    -0.130 S 
ATOM     84  C   UNL     1       0.481   3.751  -4.131  1.00  0.00     0.141 A 
BRANCH  84  85
ATOM     85  S   UNL     1      -0.931   4.581  -3.418  1.00  0.00     0.271 S 
ATOM     86  O   UNL     1      -0.429   5.325  -2.284  1.00  0.00    -0.200 OA
ATOM     87  O   UNL     1      -1.594   5.235  -4.524  1.00  0.00    -0.200 OA
BRANCH  85  88
ATOM     88  N   UNL     1      -2.112   3.544  -2.776  1.00  0.00    -0.279 N 
ATOM     89  H   UNL     1      -3.051   3.737  -3.001  1.00  0.00     0.180 HD
BRANCH  88  90
ATOM     90  C   UNL     1      -1.861   2.416  -1.940  1.00  0.00     0.050 A 
ATOM     91  C   UNL     1      -2.942   1.567  -1.679  1.00  0.00     0.027 A 
ATOM     92  C   UNL     1      -0.675   2.196  -1.276  1.00  0.00     0.048 A 
ATOM     93  C   UNL     1      -2.809   0.458  -0.837  1.00  0.00     0.004 A 
ATOM     94  C   UNL     1      -0.543   1.103  -0.418  1.00  0.00     0.084 A 
ATOM     95  C   UNL     1      -1.595   0.211  -0.213  1.00  0.00     0.022 A 
BRANCH  94  96
ATOM     96  S   UNL     1       0.962   0.800   0.463  1.00  0.00     0.243 S 
ATOM     97  O   UNL     1       0.580   0.463   1.813  1.00  0.00    -0.207 OA
ATOM     98  O   UNL     1       1.657  -0.140  -0.390  1.00  0.00    -0.207 OA
BRANCH  96  99
ATOM     99  N   UNL     1       1.742   2.284   0.515  1.00  0.00    -0.198 NA
ATOM    100  C   UNL     1       1.133   3.367   1.311  1.00  0.00     0.102 C 
ATOM    101  C   UNL     1       2.492   2.833  -0.628  1.00  0.00     0.102 C 
ATOM    102  C   UNL     1       1.269   4.618   0.470  1.00  0.00     0.018 C 
ATOM    103  C   UNL     1       2.415   4.347  -0.480  1.00  0.00     0.018 C 
ENDBRANCH  96  99
ENDBRANCH  94  96
ENDBRANCH  88  90
ENDBRANCH  85  88
ENDBRANCH  84  85
ENDBRANCH  78  80
ENDBRANCH  77  78
ENDBRANCH  76  77
ENDBRANCH  75  76
ENDBRANCH  74  75
ENDBRANCH   1  74
TORSDOF 25
