REMARK SMILES Nc1ncccc1C[N@@H+]1CC2(CC[NH2+]CC2)C[C@H]1C(=O)OCCOCCOCCOC(=O)c1ccc(-c2c3nc(c(-c4cccc(S(=O)(=O)[O-])c4F)c4ccc([nH]4)c(-c4cccc(S(=O)(=O)[O-])c4F)c4nc(c(-c5cccc(S(=O)(=O)[O-])c5F)c5ccc2[nH]5)C=C4)C=C3)cc1
REMARK SMILES IDX 25 1 24 2 23 3 22 4 21 5 19 6 20 7 18 8 9 9 10 10 11 12
REMARK SMILES IDX 17 13 12 14 16 15 13 16 15 17 14 18 8 21 7 22 2 23 3 24 4 25
REMARK SMILES IDX 6 26 5 27 1 28 26 31 27 32 28 33 29 34 30 35 31 36 32 37
REMARK SMILES IDX 33 38 34 39 95 40 35 41 94 42 36 43 37 44 38 45 88 46 39 47
REMARK SMILES IDX 93 48 87 49 89 50 40 51 92 52 86 53 85 54 41 56 73 57 53 58
REMARK SMILES IDX 72 59 54 60 57 61 71 62 90 63 55 64 56 65 70 67 91 68 58 69
REMARK SMILES IDX 42 70 43 71 51 72 44 73 46 74 52 75 45 76 47 77 48 78 49 79
REMARK SMILES IDX 50 80 74 81 75 82 83 83 76 84 78 85 84 86 77 87 79 88 80 89
REMARK SMILES IDX 81 90 82 91 59 92 60 93 68 94 61 95 63 96 69 97 62 98 64 99
REMARK SMILES IDX 65 100 66 101 67 102
REMARK H PARENT 9 11 14 19 14 20 1 29 1 30 89 55 57 66
REMARK Flexibility Score: inf
ROOT
ATOM      1  C   UNL     1       2.262  -4.291   4.423  1.00  0.00     0.188 C 
ENDROOT
BRANCH   1   2
ATOM      2  O   UNL     1       1.982  -4.703   5.747  1.00  0.00    -0.376 OA
BRANCH   2   3
ATOM      3  C   UNL     1       0.642  -4.729   6.205  1.00  0.00     0.202 C 
BRANCH   3   4
ATOM      4  C   UNL     1      -0.429  -3.731   5.730  1.00  0.00     0.261 C 
BRANCH   4   5
ATOM      5  O   UNL     1      -0.363  -3.302   4.361  1.00  0.00    -0.459 OA
BRANCH   5   6
ATOM      6  C   UNL     1      -0.166  -1.970   4.163  1.00  0.00     0.365 C 
ATOM      7  O   UNL     1      -0.061  -1.158   5.080  1.00  0.00    -0.245 OA
BRANCH   6   8
ATOM      8  C   UNL     1      -0.169  -1.512   2.692  1.00  0.00     0.296 C 
ATOM      9  N   UNL     1      -0.056  -2.571   1.665  1.00  0.00    -0.319 N 
ATOM     10  C   UNL     1      -1.404  -3.029   1.323  1.00  0.00     0.270 C 
ATOM     11  H   UNL     1       0.456  -3.353   2.073  1.00  0.00     0.349 HD
ATOM     12  C   UNL     1      -2.407  -1.960   1.816  1.00  0.00     0.036 C 
ATOM     13  C   UNL     1      -1.510  -0.850   2.402  1.00  0.00     0.091 C 
ATOM     14  C   UNL     1      -3.365  -2.526   2.893  1.00  0.00     0.074 C 
ATOM     15  C   UNL     1      -3.284  -1.402   0.678  1.00  0.00     0.074 C 
ATOM     16  C   UNL     1      -4.422  -3.470   2.312  1.00  0.00     0.261 C 
ATOM     17  C   UNL     1      -4.288  -2.423   0.154  1.00  0.00     0.261 C 
ATOM     18  N   UNL     1      -5.184  -2.852   1.224  1.00  0.00    -0.346 N 
ATOM     19  H   UNL     1      -5.688  -2.042   1.585  1.00  0.00     0.346 HD
ATOM     20  H   UNL     1      -5.841  -3.537   0.850  1.00  0.00     0.346 HD
BRANCH   9  21
ATOM     21  C   UNL     1       0.841  -2.280   0.519  1.00  0.00     0.303 C 
BRANCH  21  22
ATOM     22  C   UNL     1       0.685  -0.929  -0.145  1.00  0.00     0.048 A 
ATOM     23  C   UNL     1       1.492   0.161   0.182  1.00  0.00     0.132 A 
ATOM     24  N   UNL     1       1.135   1.431  -0.081  1.00  0.00    -0.239 NA
ATOM     25  C   UNL     1      -0.002   1.635  -0.773  1.00  0.00     0.113 A 
ATOM     26  C   UNL     1      -0.380  -0.692  -1.018  1.00  0.00     0.015 A 
ATOM     27  C   UNL     1      -0.755   0.614  -1.312  1.00  0.00     0.021 A 
BRANCH  23  28
ATOM     28  N   UNL     1       2.713   0.014   0.811  1.00  0.00    -0.383 N 
ATOM     29  H   UNL     1       3.255   0.807   1.025  1.00  0.00     0.158 HD
ATOM     30  H   UNL     1       3.042  -0.885   1.044  1.00  0.00     0.158 HD
ENDBRANCH  23  28
ENDBRANCH  21  22
ENDBRANCH   9  21
ENDBRANCH   6   8
ENDBRANCH   5   6
ENDBRANCH   4   5
ENDBRANCH   3   4
ENDBRANCH   2   3
ENDBRANCH   1   2
BRANCH   1  31
ATOM     31  C   UNL     1       1.602  -5.046   3.255  1.00  0.00     0.188 C 
BRANCH  31  32
ATOM     32  O   UNL     1       0.611  -6.000   3.549  1.00  0.00    -0.376 OA
BRANCH  32  33
ATOM     33  C   UNL     1       0.981  -7.308   3.940  1.00  0.00     0.202 C 
BRANCH  33  34
ATOM     34  C   UNL     1       2.416  -7.874   3.988  1.00  0.00     0.261 C 
BRANCH  34  35
ATOM     35  O   UNL     1       3.519  -6.971   3.877  1.00  0.00    -0.460 OA
BRANCH  35  36
ATOM     36  C   UNL     1       4.127  -6.924   2.667  1.00  0.00     0.338 C 
ATOM     37  O   UNL     1       3.814  -7.549   1.660  1.00  0.00    -0.246 OA
BRANCH  36  38
ATOM     38  C   UNL     1       5.118  -5.832   2.671  1.00  0.00     0.060 A 
ATOM     39  C   UNL     1       4.893  -4.702   1.870  1.00  0.00     0.016 A 
ATOM     40  C   UNL     1       6.274  -5.932   3.445  1.00  0.00     0.016 A 
ATOM     41  C   UNL     1       5.835  -3.674   1.827  1.00  0.00     0.010 A 
ATOM     42  C   UNL     1       7.229  -4.914   3.378  1.00  0.00     0.010 A 
ATOM     43  C   UNL     1       7.029  -3.795   2.548  1.00  0.00    -0.014 A 
BRANCH  43  44
ATOM     44  C   UNL     1       8.150  -2.856   2.298  1.00  0.00     0.031 A 
ATOM     45  C   UNL     1       9.268  -3.306   1.395  1.00  0.00     0.074 A 
ATOM     46  C   UNL     1       8.188  -1.636   2.867  1.00  0.00     0.049 A 
ATOM     47  N   UNL     1      10.398  -2.712   1.113  1.00  0.00    -0.248 NA
ATOM     48  C   UNL     1       9.086  -4.604   0.721  1.00  0.00     0.031 C 
ATOM     49  C   UNL     1       7.158  -1.071   3.736  1.00  0.00     0.029 A 
ATOM     50  N   UNL     1       9.159  -0.665   2.820  1.00  0.00    -0.354 N 
ATOM     51  C   UNL     1      11.071  -3.570   0.250  1.00  0.00     0.074 A 
ATOM     52  C   UNL     1      10.231  -4.734   0.067  1.00  0.00     0.031 C 
ATOM     53  C   UNL     1       7.569   0.132   4.175  1.00  0.00     0.029 A 
ATOM     54  C   UNL     1       8.903   0.407   3.644  1.00  0.00     0.049 A 
ATOM     55  H   UNL     1       9.960  -0.729   2.251  1.00  0.00     0.167 HD
ATOM     56  C   UNL     1      12.271  -3.400  -0.351  1.00  0.00     0.034 A 
ATOM     57  C   UNL     1       9.676   1.467   3.959  1.00  0.00     0.034 A 
ATOM     58  C   UNL     1      13.104  -2.241  -0.174  1.00  0.00     0.049 A 
ATOM     59  C   UNL     1      11.041   1.598   3.326  1.00  0.00     0.074 A 
ATOM     60  C   UNL     1      14.335  -1.973  -0.745  1.00  0.00     0.029 A 
ATOM     61  N   UNL     1      12.795  -1.162   0.638  1.00  0.00    -0.354 N 
ATOM     62  N   UNL     1      11.627   0.821   2.447  1.00  0.00    -0.248 NA
ATOM     63  C   UNL     1      11.841   2.774   3.706  1.00  0.00     0.031 C 
ATOM     64  C   UNL     1      14.782  -0.741  -0.259  1.00  0.00     0.029 A 
ATOM     65  C   UNL     1      13.811  -0.225   0.583  1.00  0.00     0.049 A 
ATOM     66  H   UNL     1      11.974  -1.075   1.174  1.00  0.00     0.167 HD
ATOM     67  C   UNL     1      12.834   1.440   2.132  1.00  0.00     0.074 A 
ATOM     68  C   UNL     1      12.888   2.665   2.900  1.00  0.00     0.031 C 
ATOM     69  C   UNL     1      13.817   1.026   1.295  1.00  0.00     0.034 A 
BRANCH  56  70
ATOM     70  C   UNL     1      12.748  -4.477  -1.288  1.00  0.00     0.023 A 
ATOM     71  C   UNL     1      12.130  -4.622  -2.547  1.00  0.00     0.012 A 
ATOM     72  C   UNL     1      13.850  -5.290  -0.961  1.00  0.00     0.148 A 
ATOM     73  C   UNL     1      12.586  -5.575  -3.457  1.00  0.00     0.002 A 
ATOM     74  C   UNL     1      14.328  -6.207  -1.890  1.00  0.00     0.091 A 
ATOM     75  F   UNL     1      14.412  -5.148   0.248  1.00  0.00    -0.205 F 
ATOM     76  C   UNL     1      13.691  -6.357  -3.133  1.00  0.00     0.022 A 
BRANCH  74  77
ATOM     77  S   UNL     1      15.790  -7.210  -1.605  1.00  0.00     0.127 S 
ATOM     78  O   UNL     1      15.224  -8.558  -1.584  1.00  0.00    -0.237 OA
ATOM     79  O   UNL     1      16.601  -6.907  -2.784  1.00  0.00    -0.237 OA
ATOM     80  O   UNL     1      16.353  -6.755  -0.341  1.00  0.00    -0.744 OA
ENDBRANCH  74  77
ENDBRANCH  56  70
BRANCH  57  81
ATOM     81  C   UNL     1       9.196   2.508   4.916  1.00  0.00     0.023 A 
ATOM     82  C   UNL     1       8.981   3.825   4.461  1.00  0.00     0.012 A 
ATOM     83  C   UNL     1       9.007   2.217   6.281  1.00  0.00     0.148 A 
ATOM     84  C   UNL     1       8.643   4.842   5.355  1.00  0.00     0.002 A 
ATOM     85  C   UNL     1       8.612   3.223   7.156  1.00  0.00     0.091 A 
ATOM     86  F   UNL     1       9.234   0.965   6.702  1.00  0.00    -0.205 F 
ATOM     87  C   UNL     1       8.452   4.540   6.700  1.00  0.00     0.022 A 
BRANCH  85  88
ATOM     88  S   UNL     1       8.236   2.902   8.883  1.00  0.00     0.127 S 
ATOM     89  O   UNL     1       9.380   3.511   9.556  1.00  0.00    -0.237 OA
ATOM     90  O   UNL     1       6.970   3.616   9.054  1.00  0.00    -0.237 OA
ATOM     91  O   UNL     1       8.129   1.454   8.997  1.00  0.00    -0.744 OA
ENDBRANCH  85  88
ENDBRANCH  57  81
BRANCH  69  92
ATOM     92  C   UNL     1      15.004   1.935   1.097  1.00  0.00     0.023 A 
ATOM     93  C   UNL     1      15.947   2.107   2.129  1.00  0.00     0.012 A 
ATOM     94  C   UNL     1      15.221   2.561  -0.148  1.00  0.00     0.148 A 
ATOM     95  C   UNL     1      17.065   2.920   1.939  1.00  0.00     0.002 A 
ATOM     96  C   UNL     1      16.365   3.324  -0.348  1.00  0.00     0.091 A 
ATOM     97  F   UNL     1      14.306   2.395  -1.115  1.00  0.00    -0.205 F 
ATOM     98  C   UNL     1      17.280   3.517   0.699  1.00  0.00     0.022 A 
BRANCH  96  99
ATOM     99  S   UNL     1      16.777   4.049  -1.939  1.00  0.00     0.127 S 
ATOM    100  O   UNL     1      16.595   5.475  -1.672  1.00  0.00    -0.237 OA
ATOM    101  O   UNL     1      18.169   3.634  -2.115  1.00  0.00    -0.237 OA
ATOM    102  O   UNL     1      15.846   3.472  -2.899  1.00  0.00    -0.744 OA
ENDBRANCH  96  99
ENDBRANCH  69  92
ENDBRANCH  43  44
ENDBRANCH  36  38
ENDBRANCH  35  36
ENDBRANCH  34  35
ENDBRANCH  33  34
ENDBRANCH  32  33
ENDBRANCH  31  32
ENDBRANCH   1  31
TORSDOF 23
