REMARK SMILES CC[NH+]1CC[NH+]([C@@H]2CC(=O)N(c3ccc(C(=O)OCCOCCOCCOC(=O)c4ccc(-c5c6nc(c(-c7cccc(S(=O)(=O)[O-])c7F)c7ccc([nH]7)c(-c7cccc(S(=O)(=O)[O-])c7F)c7nc(c(-c8cccc(S(=O)(=O)[O-])c8F)c8ccc5[nH]8)C=C7)C=C6)cc4)cc3)C2=O)CC1
REMARK SMILES IDX 22 1 21 2 20 3 19 4 18 5 16 6 17 7 15 8 12 9 13 10 94 11
REMARK SMILES IDX 14 12 93 13 11 14 7 15 8 16 95 17 9 18 96 19 10 20 6 21 3 22
REMARK SMILES IDX 4 23 98 24 5 26 97 27 2 29 1 30 23 31 24 32 25 33 26 34
REMARK SMILES IDX 27 35 28 36 29 37 30 38 31 39 92 40 32 41 91 42 33 43 34 44
REMARK SMILES IDX 35 45 85 46 36 47 90 48 84 49 86 50 37 51 89 52 83 53 82 54
REMARK SMILES IDX 38 56 70 57 50 58 69 59 51 60 54 61 68 62 87 63 52 64 53 65
REMARK SMILES IDX 67 67 88 68 55 69 39 70 40 71 48 72 41 73 43 74 49 75 42 76
REMARK SMILES IDX 44 77 45 78 46 79 47 80 71 81 72 82 80 83 73 84 75 85 81 86
REMARK SMILES IDX 74 87 76 88 77 89 78 90 79 91 56 92 57 93 65 94 58 95 60 96
REMARK SMILES IDX 66 97 59 98 61 99 62 100 63 101 64 102
REMARK H PARENT 3 25 6 28 86 55 54 66
REMARK Flexibility Score: inf
ROOT
ATOM      1  C   UNL     1      11.701   0.887  -3.372  1.00  0.00     0.188 C 
ENDROOT
BRANCH   1   2
ATOM      2  O   UNL     1      12.771   0.174  -3.951  1.00  0.00    -0.376 OA
BRANCH   2   3
ATOM      3  C   UNL     1      12.634  -0.455  -5.213  1.00  0.00     0.202 C 
BRANCH   3   4
ATOM      4  C   UNL     1      11.304  -0.762  -5.928  1.00  0.00     0.261 C 
BRANCH   4   5
ATOM      5  O   UNL     1      10.191   0.082  -5.633  1.00  0.00    -0.460 OA
BRANCH   5   6
ATOM      6  C   UNL     1       9.193  -0.502  -4.924  1.00  0.00     0.338 C 
ATOM      7  O   UNL     1       9.133  -1.662  -4.549  1.00  0.00    -0.246 OA
BRANCH   6   8
ATOM      8  C   UNL     1       8.226   0.531  -4.509  1.00  0.00     0.060 A 
ATOM      9  C   UNL     1       6.311   2.404  -3.676  1.00  0.00     0.052 A 
ATOM     10  C   UNL     1       6.944   1.575  -2.738  1.00  0.00     0.028 A 
ATOM     11  C   UNL     1       6.715   2.336  -5.019  1.00  0.00     0.028 A 
ATOM     12  C   UNL     1       7.869   0.616  -3.159  1.00  0.00     0.018 A 
ATOM     13  C   UNL     1       7.685   1.422  -5.435  1.00  0.00     0.018 A 
BRANCH   9  14
ATOM     14  N   UNL     1       5.204   3.203  -3.294  1.00  0.00    -0.245 N 
ATOM     15  C   UNL     1       3.622   4.303  -1.934  1.00  0.00     0.285 C 
ATOM     16  C   UNL     1       3.057   4.135  -3.336  1.00  0.00     0.176 C 
ATOM     17  C   UNL     1       5.066   3.817  -2.069  1.00  0.00     0.292 C 
ATOM     18  C   UNL     1       4.093   3.363  -4.084  1.00  0.00     0.240 C 
ATOM     19  O   UNL     1       5.932   3.972  -1.218  1.00  0.00    -0.267 OA
ATOM     20  O   UNL     1       3.890   2.936  -5.214  1.00  0.00    -0.274 OA
BRANCH  15  21
ATOM     21  N   UNL     1       2.933   3.680  -0.785  1.00  0.00    -0.315 N 
ATOM     22  N   UNL     1       0.738   1.637  -1.158  1.00  0.00    -0.326 N 
ATOM     23  C   UNL     1       0.472   3.090  -1.271  1.00  0.00     0.324 C 
ATOM     24  C   UNL     1       2.165   1.363  -1.406  1.00  0.00     0.324 C 
ATOM     25  H   UNL     1       0.218   1.129  -1.874  1.00  0.00     0.348 HD
ATOM     26  C   UNL     1       1.516   4.039  -0.615  1.00  0.00     0.325 C 
ATOM     27  C   UNL     1       3.123   2.237  -0.579  1.00  0.00     0.325 C 
ATOM     28  H   UNL     1       3.459   4.133  -0.038  1.00  0.00     0.349 HD
BRANCH  22  29
ATOM     29  C   UNL     1       0.255   1.128   0.137  1.00  0.00     0.259 C 
ATOM     30  C   UNL     1       0.539  -0.352   0.380  1.00  0.00     0.071 C 
ENDBRANCH  22  29
ENDBRANCH  15  21
ENDBRANCH   9  14
ENDBRANCH   6   8
ENDBRANCH   5   6
ENDBRANCH   4   5
ENDBRANCH   3   4
ENDBRANCH   2   3
ENDBRANCH   1   2
BRANCH   1  31
ATOM     31  C   UNL     1      11.315   2.245  -3.989  1.00  0.00     0.188 C 
BRANCH  31  32
ATOM     32  O   UNL     1      11.869   2.614  -5.232  1.00  0.00    -0.376 OA
BRANCH  32  33
ATOM     33  C   UNL     1      13.252   2.906  -5.340  1.00  0.00     0.202 C 
BRANCH  33  34
ATOM     34  C   UNL     1      14.197   3.263  -4.173  1.00  0.00     0.261 C 
BRANCH  34  35
ATOM     35  O   UNL     1      13.826   2.871  -2.850  1.00  0.00    -0.460 OA
BRANCH  35  36
ATOM     36  C   UNL     1      13.371   3.869  -2.053  1.00  0.00     0.338 C 
ATOM     37  O   UNL     1      13.224   5.042  -2.354  1.00  0.00    -0.246 OA
BRANCH  36  38
ATOM     38  C   UNL     1      12.892   3.289  -0.784  1.00  0.00     0.060 A 
ATOM     39  C   UNL     1      11.521   3.339  -0.500  1.00  0.00     0.016 A 
ATOM     40  C   UNL     1      13.790   2.748   0.136  1.00  0.00     0.016 A 
ATOM     41  C   UNL     1      11.044   2.874   0.724  1.00  0.00     0.010 A 
ATOM     42  C   UNL     1      13.312   2.301   1.372  1.00  0.00     0.010 A 
ATOM     43  C   UNL     1      11.943   2.395   1.684  1.00  0.00    -0.014 A 
BRANCH  43  44
ATOM     44  C   UNL     1      11.473   2.160   3.071  1.00  0.00     0.031 A 
ATOM     45  C   UNL     1      11.748   3.209   4.114  1.00  0.00     0.074 A 
ATOM     46  C   UNL     1      10.811   1.038   3.402  1.00  0.00     0.049 A 
ATOM     47  N   UNL     1      11.460   3.206   5.389  1.00  0.00    -0.248 NA
ATOM     48  C   UNL     1      12.448   4.422   3.658  1.00  0.00     0.031 C 
ATOM     49  C   UNL     1      10.482  -0.051   2.485  1.00  0.00     0.029 A 
ATOM     50  N   UNL     1      10.324   0.618   4.615  1.00  0.00    -0.354 N 
ATOM     51  C   UNL     1      11.975   4.394   5.896  1.00  0.00     0.074 A 
ATOM     52  C   UNL     1      12.601   5.089   4.792  1.00  0.00     0.031 C 
ATOM     53  C   UNL     1       9.877  -1.033   3.175  1.00  0.00     0.029 A 
ATOM     54  C   UNL     1       9.800  -0.653   4.585  1.00  0.00     0.049 A 
ATOM     55  H   UNL     1      10.347   1.173   5.428  1.00  0.00     0.167 HD
ATOM     56  C   UNL     1      11.923   4.870   7.162  1.00  0.00     0.034 A 
ATOM     57  C   UNL     1       9.340  -1.431   5.586  1.00  0.00     0.034 A 
ATOM     58  C   UNL     1      11.288   4.184   8.256  1.00  0.00     0.049 A 
ATOM     59  C   UNL     1       9.309  -0.887   6.992  1.00  0.00     0.074 A 
ATOM     60  C   UNL     1      11.130   4.612   9.562  1.00  0.00     0.029 A 
ATOM     61  N   UNL     1      10.727   2.919   8.179  1.00  0.00    -0.354 N 
ATOM     62  N   UNL     1       9.685   0.289   7.433  1.00  0.00    -0.248 NA
ATOM     63  C   UNL     1       8.756  -1.767   8.033  1.00  0.00     0.031 C 
ATOM     64  C   UNL     1      10.514   3.586  10.286  1.00  0.00     0.029 A 
ATOM     65  C   UNL     1      10.241   2.541   9.419  1.00  0.00     0.049 A 
ATOM     66  H   UNL     1      10.680   2.371   7.363  1.00  0.00     0.167 HD
ATOM     67  C   UNL     1       9.381   0.305   8.790  1.00  0.00     0.074 A 
ATOM     68  C   UNL     1       8.771  -0.973   9.095  1.00  0.00     0.031 C 
ATOM     69  C   UNL     1       9.594   1.285   9.704  1.00  0.00     0.034 A 
BRANCH  56  70
ATOM     70  C   UNL     1      12.574   6.201   7.436  1.00  0.00     0.023 A 
ATOM     71  C   UNL     1      11.997   7.385   6.933  1.00  0.00     0.012 A 
ATOM     72  C   UNL     1      13.733   6.281   8.232  1.00  0.00     0.148 A 
ATOM     73  C   UNL     1      12.586   8.624   7.186  1.00  0.00     0.002 A 
ATOM     74  C   UNL     1      14.286   7.522   8.521  1.00  0.00     0.091 A 
ATOM     75  F   UNL     1      14.280   5.142   8.682  1.00  0.00    -0.205 F 
ATOM     76  C   UNL     1      13.723   8.693   7.987  1.00  0.00     0.022 A 
BRANCH  74  77
ATOM     77  S   UNL     1      15.698   7.723   9.612  1.00  0.00     0.127 S 
ATOM     78  O   UNL     1      16.740   8.138   8.673  1.00  0.00    -0.237 OA
ATOM     79  O   UNL     1      15.238   8.776  10.518  1.00  0.00    -0.237 OA
ATOM     80  O   UNL     1      15.907   6.427  10.243  1.00  0.00    -0.744 OA
ENDBRANCH  74  77
ENDBRANCH  56  70
BRANCH  57  81
ATOM     81  C   UNL     1       8.856  -2.809   5.292  1.00  0.00     0.023 A 
ATOM     82  C   UNL     1       7.487  -3.114   5.418  1.00  0.00     0.012 A 
ATOM     83  C   UNL     1       9.749  -3.817   4.878  1.00  0.00     0.148 A 
ATOM     84  C   UNL     1       7.021  -4.405   5.168  1.00  0.00     0.002 A 
ATOM     85  C   UNL     1       9.270  -5.085   4.574  1.00  0.00     0.091 A 
ATOM     86  F   UNL     1      11.050  -3.510   4.779  1.00  0.00    -0.205 F 
ATOM     87  C   UNL     1       7.909  -5.386   4.736  1.00  0.00     0.022 A 
BRANCH  85  88
ATOM     88  S   UNL     1      10.317  -6.376   3.895  1.00  0.00     0.127 S 
ATOM     89  O   UNL     1      10.330  -7.352   4.982  1.00  0.00    -0.237 OA
ATOM     90  O   UNL     1       9.560  -6.782   2.711  1.00  0.00    -0.237 OA
ATOM     91  O   UNL     1      11.594  -5.739   3.606  1.00  0.00    -0.744 OA
ENDBRANCH  85  88
ENDBRANCH  57  81
BRANCH  69  92
ATOM     92  C   UNL     1       9.123   1.046  11.117  1.00  0.00     0.023 A 
ATOM     93  C   UNL     1       9.785   0.111  11.938  1.00  0.00     0.012 A 
ATOM     94  C   UNL     1       8.062   1.804  11.653  1.00  0.00     0.148 A 
ATOM     95  C   UNL     1       9.373  -0.093  13.255  1.00  0.00     0.002 A 
ATOM     96  C   UNL     1       7.693   1.634  12.982  1.00  0.00     0.091 A 
ATOM     97  F   UNL     1       7.433   2.678  10.854  1.00  0.00    -0.205 F 
ATOM     98  C   UNL     1       8.337   0.675  13.780  1.00  0.00     0.022 A 
BRANCH  96  99
ATOM     99  S   UNL     1       6.437   2.648  13.771  1.00  0.00     0.127 S 
ATOM    100  O   UNL     1       5.345   1.691  13.941  1.00  0.00    -0.237 OA
ATOM    101  O   UNL     1       7.097   3.046  15.015  1.00  0.00    -0.237 OA
ATOM    102  O   UNL     1       6.168   3.745  12.852  1.00  0.00    -0.744 OA
ENDBRANCH  96  99
ENDBRANCH  69  92
ENDBRANCH  43  44
ENDBRANCH  36  38
ENDBRANCH  35  36
ENDBRANCH  34  35
ENDBRANCH  33  34
ENDBRANCH  32  33
ENDBRANCH  31  32
ENDBRANCH   1  31
TORSDOF 23
