REMARK SMILES Cc1cccc(N2CCN(c3ncc(NC(=O)c4ccccc4F)cc3C(=O)OCCOCCOCCOC(=O)c3ccc(-c4c5nc(c(-c6cccc(S(=O)(=O)[O-])c6F)c6ccc([nH]6)c(-c6cccc(S(=O)(=O)[O-])c6F)c6nc(c(-c7cccc(S(=O)(=O)[O-])c7F)c7ccc4[nH]7)C=C6)C=C5)cc3)C[C@@H]2C)c1
REMARK SMILES IDX 34 1 33 2 32 3 31 4 30 5 29 6 27 7 28 8 26 9 11 10 12 11
REMARK SMILES IDX 13 12 25 13 14 14 10 15 7 16 8 17 105 18 9 19 104 20 106 21
REMARK SMILES IDX 6 22 1 23 2 24 3 25 107 26 4 27 5 28 15 29 16 30 17 32 18 33
REMARK SMILES IDX 19 34 23 35 20 36 22 37 24 38 21 39 35 40 36 41 37 42 38 43
REMARK SMILES IDX 39 44 40 45 41 46 42 47 103 48 43 49 102 50 44 51 45 52
REMARK SMILES IDX 46 53 96 54 47 55 101 56 95 57 97 58 48 59 100 60 94 61
REMARK SMILES IDX 93 62 49 64 81 65 61 66 80 67 62 68 65 69 79 70 98 71 63 72
REMARK SMILES IDX 64 73 78 75 99 76 66 77 50 78 51 79 59 80 52 81 54 82 60 83
REMARK SMILES IDX 53 84 55 85 56 86 57 87 58 88 82 89 83 90 91 91 84 92 86 93
REMARK SMILES IDX 92 94 85 95 87 96 88 97 89 98 90 99 67 100 68 101 76 102
REMARK SMILES IDX 69 103 71 104 77 105 70 106 72 107 73 108 74 109 75 110
REMARK H PARENT 15 31 97 63 65 74
REMARK Flexibility Score: inf
ROOT
ATOM      1  C   UNL     1      -3.944   8.200  -6.323  1.00  0.00     0.188 C 
ENDROOT
BRANCH   1   2
ATOM      2  C   UNL     1      -4.362   7.108  -5.367  1.00  0.00     0.188 C 
BRANCH   2   3
ATOM      3  O   UNL     1      -5.059   6.006  -5.841  1.00  0.00    -0.376 OA
BRANCH   3   4
ATOM      4  C   UNL     1      -5.919   5.442  -4.832  1.00  0.00     0.202 C 
BRANCH   4   5
ATOM      5  C   UNL     1      -6.639   6.294  -3.457  1.00  0.00     0.261 C 
BRANCH   5   6
ATOM      6  O   UNL     1      -6.290   6.339  -1.560  1.00  0.00    -0.460 OA
BRANCH   6   7
ATOM      7  C   UNL     1      -5.789   5.398  -0.254  1.00  0.00     0.342 C 
ATOM      8  O   UNL     1      -6.047   4.201  -0.086  1.00  0.00    -0.246 OA
BRANCH   7   9
ATOM      9  C   UNL     1      -5.128   5.891   1.015  1.00  0.00     0.104 A 
ATOM     10  C   UNL     1      -4.053   5.391   1.994  1.00  0.00     0.143 A 
ATOM     11  N   UNL     1      -3.962   6.122   3.147  1.00  0.00    -0.236 NA
ATOM     12  C   UNL     1      -4.831   7.199   3.355  1.00  0.00     0.139 A 
ATOM     13  C   UNL     1      -6.043   6.872   1.385  1.00  0.00     0.047 A 
ATOM     14  C   UNL     1      -5.906   7.567   2.545  1.00  0.00     0.061 A 
BRANCH  10  15
ATOM     15  N   UNL     1      -3.162   4.231   1.901  1.00  0.00    -0.352 N 
ATOM     16  N   UNL     1      -1.193   1.742   1.480  1.00  0.00    -0.365 N 
ATOM     17  C   UNL     1      -2.560   1.738   2.225  1.00  0.00     0.138 C 
ATOM     18  C   UNL     1      -0.787   3.094   0.558  1.00  0.00     0.098 C 
ATOM     19  C   UNL     1      -3.354   3.044   2.752  1.00  0.00     0.139 C 
ATOM     20  C   UNL     1      -1.604   4.272   1.829  1.00  0.00     0.142 C 
ATOM     21  C   UNL     1      -0.904   3.398  -1.652  1.00  0.00     0.033 C 
BRANCH  16  22
ATOM     22  C   UNL     1      -0.365   0.589   1.502  1.00  0.00     0.037 A 
ATOM     23  C   UNL     1       3.056  -0.358   0.010  1.00  0.00     0.044 C 
ATOM     24  C   UNL     1       1.677  -0.490   0.598  1.00  0.00    -0.049 A 
ATOM     25  C   UNL     1       0.995  -1.697   0.474  1.00  0.00     0.003 A 
ATOM     26  C   UNL     1       1.018   0.611   1.202  1.00  0.00     0.029 A 
ATOM     27  C   UNL     1      -0.289  -1.807   0.993  1.00  0.00     0.002 A 
ATOM     28  C   UNL     1      -0.935  -0.686   1.539  1.00  0.00     0.026 A 
ENDBRANCH  16  22
ENDBRANCH  10  15
BRANCH  14  29
ATOM     29  N   UNL     1      -6.913   8.542   2.679  1.00  0.00    -0.320 N 
ATOM     30  C   UNL     1      -6.907   9.826   3.128  1.00  0.00     0.258 C 
ATOM     31  H   UNL     1      -7.802   8.232   2.389  1.00  0.00     0.170 HD
ATOM     32  O   UNL     1      -7.936  10.501   3.124  1.00  0.00    -0.269 OA
BRANCH  30  33
ATOM     33  C   UNL     1      -5.675  10.437   3.591  1.00  0.00     0.075 A 
ATOM     34  C   UNL     1      -5.693  11.007   4.862  1.00  0.00     0.017 A 
ATOM     35  C   UNL     1      -4.531  10.465   2.800  1.00  0.00     0.135 A 
ATOM     36  C   UNL     1      -4.517  11.529   5.381  1.00  0.00     0.001 A 
ATOM     37  C   UNL     1      -3.350  10.964   3.326  1.00  0.00     0.040 A 
ATOM     38  F   UNL     1      -4.549  10.020   1.536  1.00  0.00    -0.206 F 
ATOM     39  C   UNL     1      -3.342  11.483   4.624  1.00  0.00     0.003 A 
ENDBRANCH  30  33
ENDBRANCH  14  29
ENDBRANCH   7   9
ENDBRANCH   6   7
ENDBRANCH   5   6
ENDBRANCH   4   5
ENDBRANCH   3   4
ENDBRANCH   2   3
ENDBRANCH   1   2
BRANCH   1  40
ATOM     40  O   UNL     1      -3.054   7.839  -7.355  1.00  0.00    -0.376 OA
BRANCH  40  41
ATOM     41  C   UNL     1      -2.095   6.854  -7.003  1.00  0.00     0.202 C 
BRANCH  41  42
ATOM     42  C   UNL     1      -1.129   7.144  -5.812  1.00  0.00     0.261 C 
BRANCH  42  43
ATOM     43  O   UNL     1      -1.254   8.448  -5.162  1.00  0.00    -0.460 OA
BRANCH  43  44
ATOM     44  C   UNL     1      -1.433   8.781  -3.844  1.00  0.00     0.338 C 
ATOM     45  O   UNL     1      -0.966   9.810  -3.374  1.00  0.00    -0.246 OA
BRANCH  44  46
ATOM     46  C   UNL     1      -2.497   8.060  -3.145  1.00  0.00     0.060 A 
ATOM     47  C   UNL     1      -2.260   7.183  -2.147  1.00  0.00     0.016 A 
ATOM     48  C   UNL     1      -3.757   8.506  -2.980  1.00  0.00     0.016 A 
ATOM     49  C   UNL     1      -3.162   6.102  -1.882  1.00  0.00     0.010 A 
ATOM     50  C   UNL     1      -4.662   7.481  -2.612  1.00  0.00     0.010 A 
ATOM     51  C   UNL     1      -4.376   6.003  -2.488  1.00  0.00    -0.014 A 
BRANCH  51  52
ATOM     52  C   UNL     1      -5.516   4.521  -2.465  1.00  0.00     0.031 A 
ATOM     53  C   UNL     1      -7.368   4.483  -2.022  1.00  0.00     0.074 A 
ATOM     54  C   UNL     1      -5.056   3.296  -2.805  1.00  0.00     0.049 A 
ATOM     55  N   UNL     1      -8.080   3.503  -1.523  1.00  0.00    -0.248 NA
ATOM     56  C   UNL     1      -8.368   5.750  -1.861  1.00  0.00     0.031 C 
ATOM     57  C   UNL     1      -5.863   2.104  -3.086  1.00  0.00     0.029 A 
ATOM     58  N   UNL     1      -3.746   2.843  -2.916  1.00  0.00    -0.354 N 
ATOM     59  C   UNL     1      -9.376   4.002  -1.178  1.00  0.00     0.074 A 
ATOM     60  C   UNL     1      -9.353   5.391  -1.093  1.00  0.00     0.031 C 
ATOM     61  C   UNL     1      -5.062   1.024  -3.035  1.00  0.00     0.029 A 
ATOM     62  C   UNL     1      -3.804   1.508  -2.489  1.00  0.00     0.049 A 
ATOM     63  H   UNL     1      -2.957   3.345  -3.224  1.00  0.00     0.167 HD
ATOM     64  C   UNL     1     -10.501   3.255  -1.279  1.00  0.00     0.034 A 
ATOM     65  C   UNL     1      -3.372   1.180  -1.240  1.00  0.00     0.034 A 
ATOM     66  C   UNL     1     -10.060   1.892  -1.325  1.00  0.00     0.049 A 
ATOM     67  C   UNL     1      -4.449   0.441  -0.421  1.00  0.00     0.074 A 
ATOM     68  C   UNL     1      -9.639   1.091  -2.370  1.00  0.00     0.029 A 
ATOM     69  N   UNL     1      -9.458   1.431  -0.174  1.00  0.00    -0.354 N 
ATOM     70  N   UNL     1      -5.728   0.726  -0.428  1.00  0.00    -0.248 NA
ATOM     71  C   UNL     1      -4.199  -0.749   0.403  1.00  0.00     0.031 C 
ATOM     72  C   UNL     1      -8.659   0.209  -1.839  1.00  0.00     0.029 A 
ATOM     73  C   UNL     1      -8.539   0.455  -0.481  1.00  0.00     0.049 A 
ATOM     74  H   UNL     1      -9.656   1.753   0.735  1.00  0.00     0.167 HD
ATOM     75  C   UNL     1      -6.410  -0.123   0.417  1.00  0.00     0.074 A 
ATOM     76  C   UNL     1      -5.393  -0.985   0.974  1.00  0.00     0.031 C 
ATOM     77  C   UNL     1      -7.764  -0.116   0.594  1.00  0.00     0.034 A 
BRANCH  64  78
ATOM     78  C   UNL     1     -11.873   3.791  -1.719  1.00  0.00     0.023 A 
ATOM     79  C   UNL     1     -12.672   2.841  -2.384  1.00  0.00     0.012 A 
ATOM     80  C   UNL     1     -12.418   5.112  -1.676  1.00  0.00     0.148 A 
ATOM     81  C   UNL     1     -13.864   3.172  -3.036  1.00  0.00     0.002 A 
ATOM     82  C   UNL     1     -13.577   5.459  -2.387  1.00  0.00     0.091 A 
ATOM     83  F   UNL     1     -11.901   6.051  -0.879  1.00  0.00    -0.205 F 
ATOM     84  C   UNL     1     -14.302   4.486  -3.069  1.00  0.00     0.022 A 
BRANCH  82  85
ATOM     85  S   UNL     1     -14.168   7.165  -2.541  1.00  0.00     0.127 S 
ATOM     86  O   UNL     1     -14.476   7.261  -3.971  1.00  0.00    -0.237 OA
ATOM     87  O   UNL     1     -15.340   7.173  -1.670  1.00  0.00    -0.237 OA
ATOM     88  O   UNL     1     -13.059   8.015  -2.122  1.00  0.00    -0.744 OA
ENDBRANCH  82  85
ENDBRANCH  64  78
BRANCH  65  89
ATOM     89  C   UNL     1      -2.231   2.066  -0.746  1.00  0.00     0.023 A 
ATOM     90  C   UNL     1      -0.579   1.442  -1.008  1.00  0.00     0.012 A 
ATOM     91  C   UNL     1      -2.389   3.849  -0.406  1.00  0.00     0.148 A 
ATOM     92  C   UNL     1       0.854   2.502  -0.952  1.00  0.00     0.002 A 
ATOM     93  C   UNL     1      -0.870   4.958  -0.348  1.00  0.00     0.091 A 
ATOM     94  F   UNL     1      -3.644   4.225  -0.358  1.00  0.00    -0.205 F 
ATOM     95  C   UNL     1       0.740   4.220  -0.596  1.00  0.00     0.022 A 
BRANCH  93  96
ATOM     96  S   UNL     1      -0.442   6.672   0.278  1.00  0.00     0.127 S 
ATOM     97  O   UNL     1       0.597   6.374   1.265  1.00  0.00    -0.237 OA
ATOM     98  O   UNL     1       0.097   7.308  -0.920  1.00  0.00    -0.237 OA
ATOM     99  O   UNL     1      -1.677   7.210   0.825  1.00  0.00    -0.744 OA
ENDBRANCH  93  96
ENDBRANCH  65  89
BRANCH  77 100
ATOM    100  C   UNL     1      -8.514  -0.617   1.824  1.00  0.00     0.023 A 
ATOM    101  C   UNL     1      -7.890  -0.703   3.081  1.00  0.00     0.012 A 
ATOM    102  C   UNL     1      -9.933  -0.734   1.807  1.00  0.00     0.148 A 
ATOM    103  C   UNL     1      -8.630  -0.925   4.251  1.00  0.00     0.002 A 
ATOM    104  C   UNL     1     -10.668  -0.797   2.985  1.00  0.00     0.091 A 
ATOM    105  F   UNL     1     -10.593  -0.775   0.639  1.00  0.00    -0.205 F 
ATOM    106  C   UNL     1     -10.020  -0.935   4.209  1.00  0.00     0.022 A 
BRANCH 104 107
ATOM    107  S   UNL     1     -12.441  -0.469   2.967  1.00  0.00     0.127 S 
ATOM    108  O   UNL     1     -12.998  -1.804   2.774  1.00  0.00    -0.237 OA
ATOM    109  O   UNL     1     -12.672   0.103   4.296  1.00  0.00    -0.237 OA
ATOM    110  O   UNL     1     -12.627   0.478   1.875  1.00  0.00    -0.744 OA
ENDBRANCH 104 107
ENDBRANCH  77 100
ENDBRANCH  51  52
ENDBRANCH  44  46
ENDBRANCH  43  44
ENDBRANCH  42  43
ENDBRANCH  41  42
ENDBRANCH  40  41
ENDBRANCH   1  40
TORSDOF 24
