REMARK SMILES O=C(OCCOCCOCCOC(=O)[C@H]1Cc2[nH]cnc2CN1C(=O)NCc1nc[nH]n1)c1ccc(-c2c3nc(c(-c4cccc(S(=O)(=O)[O-])c4F)c4ccc([nH]4)c(-c4cccc(S(=O)(=O)[O-])c4F)c4nc(c(-c5cccc(S(=O)(=O)[O-])c5F)c5ccc2[nH]5)C=C4)C=C3)cc1
REMARK SMILES IDX 7 1 6 2 5 3 4 4 3 5 2 6 1 7 33 8 34 9 95 10 35 11 94 12
REMARK SMILES IDX 36 13 37 14 38 15 88 16 39 17 93 18 87 19 89 20 40 21 92 22
REMARK SMILES IDX 86 23 85 24 41 26 73 27 53 28 72 29 54 30 57 31 71 32 90 33
REMARK SMILES IDX 55 34 56 35 70 37 91 38 58 39 42 40 43 41 51 42 44 43 46 44
REMARK SMILES IDX 52 45 45 46 47 47 48 48 49 49 50 50 74 51 75 52 83 53 76 54
REMARK SMILES IDX 78 55 84 56 77 57 79 58 80 59 81 60 82 61 59 62 60 63 68 64
REMARK SMILES IDX 61 65 63 66 69 67 62 68 64 69 65 70 66 71 67 72 8 73 9 74
REMARK SMILES IDX 10 75 11 76 12 77 13 78 14 79 15 80 16 81 23 82 17 83 22 84
REMARK SMILES IDX 18 85 21 86 19 87 20 89 24 90 25 91 26 92 27 94 28 95 29 96
REMARK SMILES IDX 32 97 30 98 31 99
REMARK H PARENT 89 25 57 36 18 88 26 93 31 100
REMARK Flexibility Score: inf
ROOT
ATOM      1  C   UNL     1       2.229  -0.855  -0.451  1.00  0.00     0.188 C 
ENDROOT
BRANCH   1   2
ATOM      2  O   UNL     1       3.361  -0.052  -0.758  1.00  0.00    -0.376 OA
BRANCH   2   3
ATOM      3  C   UNL     1       4.557  -0.075   0.006  1.00  0.00     0.202 C 
BRANCH   3   4
ATOM      4  C   UNL     1       4.588  -0.113   1.542  1.00  0.00     0.261 C 
BRANCH   4   5
ATOM      5  O   UNL     1       3.365  -0.248   2.270  1.00  0.00    -0.460 OA
BRANCH   5   6
ATOM      6  C   UNL     1       2.336   0.615   2.355  1.00  0.00     0.338 C 
ATOM      7  O   UNL     1       1.349   0.323   3.026  1.00  0.00    -0.246 OA
BRANCH   6   8
ATOM      8  C   UNL     1       2.300   1.851   1.546  1.00  0.00     0.060 A 
ATOM      9  C   UNL     1       3.390   2.713   1.425  1.00  0.00     0.016 A 
ATOM     10  C   UNL     1       1.046   2.205   1.009  1.00  0.00     0.016 A 
ATOM     11  C   UNL     1       3.206   3.959   0.861  1.00  0.00     0.010 A 
ATOM     12  C   UNL     1       0.851   3.460   0.465  1.00  0.00     0.010 A 
ATOM     13  C   UNL     1       1.919   4.351   0.487  1.00  0.00    -0.014 A 
BRANCH  13  14
ATOM     14  C   UNL     1       1.699   5.782   0.412  1.00  0.00     0.031 A 
ATOM     15  C   UNL     1       2.167   6.480  -0.799  1.00  0.00     0.074 A 
ATOM     16  C   UNL     1       1.150   6.420   1.464  1.00  0.00     0.049 A 
ATOM     17  N   UNL     1       3.154   7.309  -0.898  1.00  0.00    -0.248 NA
ATOM     18  C   UNL     1       1.516   6.150  -2.071  1.00  0.00     0.031 C 
ATOM     19  C   UNL     1       0.433   5.817   2.595  1.00  0.00     0.029 A 
ATOM     20  N   UNL     1       1.004   7.756   1.677  1.00  0.00    -0.354 N 
ATOM     21  C   UNL     1       3.101   7.788  -2.203  1.00  0.00     0.074 A 
ATOM     22  C   UNL     1       2.193   6.926  -2.918  1.00  0.00     0.031 C 
ATOM     23  C   UNL     1      -0.288   6.774   3.216  1.00  0.00     0.029 A 
ATOM     24  C   UNL     1       0.025   8.056   2.613  1.00  0.00     0.049 A 
ATOM     25  H   UNL     1       1.539   8.441   1.214  1.00  0.00     0.167 HD
ATOM     26  C   UNL     1       3.618   8.999  -2.546  1.00  0.00     0.034 A 
ATOM     27  C   UNL     1      -0.566   9.258   2.798  1.00  0.00     0.034 A 
ATOM     28  C   UNL     1       4.504   9.527  -1.546  1.00  0.00     0.049 A 
ATOM     29  C   UNL     1       0.327  10.294   2.231  1.00  0.00     0.074 A 
ATOM     30  C   UNL     1       5.681   9.115  -0.955  1.00  0.00     0.029 A 
ATOM     31  N   UNL     1       4.034  10.561  -0.775  1.00  0.00    -0.354 N 
ATOM     32  N   UNL     1       1.482  10.618   2.743  1.00  0.00    -0.248 NA
ATOM     33  C   UNL     1       0.113  10.716   0.857  1.00  0.00     0.031 C 
ATOM     34  C   UNL     1       5.628   9.622   0.374  1.00  0.00     0.029 A 
ATOM     35  C   UNL     1       4.431  10.327   0.514  1.00  0.00     0.049 A 
ATOM     36  H   UNL     1       3.507  11.331  -1.091  1.00  0.00     0.167 HD
ATOM     37  C   UNL     1       2.288  10.888   1.644  1.00  0.00     0.074 A 
ATOM     38  C   UNL     1       1.361  11.062   0.530  1.00  0.00     0.031 C 
ATOM     39  C   UNL     1       3.634  10.653   1.679  1.00  0.00     0.034 A 
BRANCH  26  40
ATOM     40  C   UNL     1       3.071   9.873  -3.644  1.00  0.00     0.023 A 
ATOM     41  C   UNL     1       3.861  10.956  -4.086  1.00  0.00     0.012 A 
ATOM     42  C   UNL     1       1.726   9.840  -4.073  1.00  0.00     0.148 A 
ATOM     43  C   UNL     1       3.331  11.965  -4.897  1.00  0.00     0.002 A 
ATOM     44  C   UNL     1       1.232  10.792  -4.955  1.00  0.00     0.091 A 
ATOM     45  F   UNL     1       0.871   8.968  -3.526  1.00  0.00    -0.205 F 
ATOM     46  C   UNL     1       2.019  11.874  -5.348  1.00  0.00     0.022 A 
BRANCH  44  47
ATOM     47  S   UNL     1      -0.430  10.647  -5.618  1.00  0.00     0.127 S 
ATOM     48  O   UNL     1      -1.181  11.523  -4.728  1.00  0.00    -0.237 OA
ATOM     49  O   UNL     1      -0.260  11.144  -6.984  1.00  0.00    -0.237 OA
ATOM     50  O   UNL     1      -0.733   9.221  -5.541  1.00  0.00    -0.744 OA
ENDBRANCH  44  47
ENDBRANCH  26  40
BRANCH  27  51
ATOM     51  C   UNL     1      -1.964   9.528   3.197  1.00  0.00     0.023 A 
ATOM     52  C   UNL     1      -2.304  10.778   3.744  1.00  0.00     0.012 A 
ATOM     53  C   UNL     1      -3.013   8.655   2.824  1.00  0.00     0.148 A 
ATOM     54  C   UNL     1      -3.643  11.153   3.900  1.00  0.00     0.002 A 
ATOM     55  C   UNL     1      -4.341   9.022   3.002  1.00  0.00     0.091 A 
ATOM     56  F   UNL     1      -2.713   7.504   2.206  1.00  0.00    -0.205 F 
ATOM     57  C   UNL     1      -4.661  10.277   3.530  1.00  0.00     0.022 A 
BRANCH  55  58
ATOM     58  S   UNL     1      -5.696   7.931   2.546  1.00  0.00     0.127 S 
ATOM     59  O   UNL     1      -6.609   8.085   3.679  1.00  0.00    -0.237 OA
ATOM     60  O   UNL     1      -6.160   8.530   1.298  1.00  0.00    -0.237 OA
ATOM     61  O   UNL     1      -5.108   6.601   2.434  1.00  0.00    -0.744 OA
ENDBRANCH  55  58
ENDBRANCH  27  51
BRANCH  39  62
ATOM     62  C   UNL     1       4.281  10.385   3.016  1.00  0.00     0.023 A 
ATOM     63  C   UNL     1       3.922   9.269   3.800  1.00  0.00     0.012 A 
ATOM     64  C   UNL     1       5.396  11.152   3.398  1.00  0.00     0.148 A 
ATOM     65  C   UNL     1       4.638   8.942   4.953  1.00  0.00     0.002 A 
ATOM     66  C   UNL     1       6.137  10.794   4.519  1.00  0.00     0.091 A 
ATOM     67  F   UNL     1       5.736  12.205   2.639  1.00  0.00    -0.205 F 
ATOM     68  C   UNL     1       5.755   9.696   5.306  1.00  0.00     0.022 A 
BRANCH  66  69
ATOM     69  S   UNL     1       7.667  11.635   4.940  1.00  0.00     0.127 S 
ATOM     70  O   UNL     1       7.240  12.534   6.009  1.00  0.00    -0.237 OA
ATOM     71  O   UNL     1       8.527  10.533   5.375  1.00  0.00    -0.237 OA
ATOM     72  O   UNL     1       8.113  12.279   3.710  1.00  0.00    -0.744 OA
ENDBRANCH  66  69
ENDBRANCH  39  62
ENDBRANCH  13  14
ENDBRANCH   6   8
ENDBRANCH   5   6
ENDBRANCH   4   5
ENDBRANCH   3   4
ENDBRANCH   2   3
ENDBRANCH   1   2
BRANCH   1  73
ATOM     73  C   UNL     1       2.359  -2.325  -0.041  1.00  0.00     0.188 C 
BRANCH  73  74
ATOM     74  O   UNL     1       3.621  -2.656   0.492  1.00  0.00    -0.376 OA
BRANCH  74  75
ATOM     75  C   UNL     1       4.549  -3.311  -0.351  1.00  0.00     0.202 C 
BRANCH  75  76
ATOM     76  C   UNL     1       4.405  -3.305  -1.877  1.00  0.00     0.261 C 
BRANCH  76  77
ATOM     77  O   UNL     1       4.270  -2.078  -2.636  1.00  0.00    -0.462 OA
BRANCH  77  78
ATOM     78  C   UNL     1       3.089  -1.935  -3.327  1.00  0.00     0.329 C 
ATOM     79  O   UNL     1       2.055  -2.530  -3.023  1.00  0.00    -0.250 OA
BRANCH  78  80
ATOM     80  C   UNL     1       3.195  -1.151  -4.654  1.00  0.00     0.203 C 
ATOM     81  C   UNL     1       3.809   0.254  -4.349  1.00  0.00     0.093 C 
ATOM     82  N   UNL     1       3.477  -1.660  -6.108  1.00  0.00    -0.305 N 
ATOM     83  C   UNL     1       3.465   1.153  -5.473  1.00  0.00     0.042 A 
ATOM     84  C   UNL     1       3.029  -0.692  -7.163  1.00  0.00     0.180 C 
ATOM     85  N   UNL     1       3.315   2.511  -5.483  1.00  0.00    -0.348 N 
ATOM     86  C   UNL     1       3.124   0.729  -6.732  1.00  0.00     0.081 A 
ATOM     87  C   UNL     1       2.920   2.852  -6.752  1.00  0.00     0.197 A 
ATOM     88  H   UNL     1       3.462   3.124  -4.727  1.00  0.00     0.167 HD
ATOM     89  N   UNL     1       2.801   1.796  -7.528  1.00  0.00    -0.240 NA
BRANCH  82  90
ATOM     90  C   UNL     1       3.945  -2.821  -6.696  1.00  0.00     0.318 C 
ATOM     91  O   UNL     1       4.228  -2.873  -7.902  1.00  0.00    -0.249 OA
ATOM     92  N   UNL     1       4.085  -4.016  -6.101  1.00  0.00    -0.331 N 
ATOM     93  H   UNL     1       4.306  -4.761  -6.705  1.00  0.00     0.165 HD
BRANCH  92  94
ATOM     94  C   UNL     1       3.963  -4.364  -4.742  1.00  0.00     0.197 C 
BRANCH  94  95
ATOM     95  C   UNL     1       3.480  -5.707  -4.301  1.00  0.00     0.169 A 
ATOM     96  N   UNL     1       4.310  -6.543  -3.579  1.00  0.00    -0.218 NA
ATOM     97  N   UNL     1       2.175  -5.884  -4.022  1.00  0.00    -0.157 NA
ATOM     98  C   UNL     1       3.484  -7.172  -2.774  1.00  0.00     0.216 A 
ATOM     99  N   UNL     1       2.216  -6.739  -2.993  1.00  0.00    -0.266 N 
ATOM    100  H   UNL     1       1.433  -7.016  -2.465  1.00  0.00     0.191 HD
ENDBRANCH  94  95
ENDBRANCH  92  94
ENDBRANCH  82  90
ENDBRANCH  78  80
ENDBRANCH  77  78
ENDBRANCH  76  77
ENDBRANCH  75  76
ENDBRANCH  74  75
ENDBRANCH  73  74
ENDBRANCH   1  73
TORSDOF 23
