REMARK SMILES Cc1ccc(S(=O)(=O)n2cc(C(=O)C(=O)N[C@@H](Cc3cnc[nH]3)C(=O)OCCOCCOCCOC(=O)c3ccc(-c4c5nc(c(-c6cccc(S(=O)(=O)[O-])c6F)c6ccc([nH]6)c(-c6cccc(S(=O)(=O)[O-])c6F)c6nc(c(-c7cccc(S(=O)(=O)[O-])c7F)c7ccc4[nH]7)C=C6)C=C5)cc3)c3ccccc32)cc1
REMARK SMILES IDX 30 1 29 2 28 3 27 4 26 5 24 6 25 7 17 8 16 9 14 10 15 11
REMARK SMILES IDX 12 13 13 14 11 15 9 16 10 17 106 18 101 19 105 20 102 21
REMARK SMILES IDX 104 22 103 23 6 24 7 25 8 26 5 27 1 28 2 29 3 30 108 31 4 32
REMARK SMILES IDX 107 33 18 34 19 35 20 36 23 37 21 38 22 39 31 41 32 42 33 43
REMARK SMILES IDX 34 44 35 45 36 46 37 47 38 48 39 49 100 50 40 51 99 52 41 53
REMARK SMILES IDX 42 54 43 55 93 56 44 57 98 58 92 59 94 60 45 61 97 62 91 63
REMARK SMILES IDX 90 64 46 66 78 67 58 68 77 69 59 70 62 71 76 72 95 73 60 74
REMARK SMILES IDX 61 75 75 77 96 78 63 79 47 80 48 81 56 82 49 83 51 84 57 85
REMARK SMILES IDX 50 86 52 87 53 88 54 89 55 90 79 91 80 92 88 93 81 94 83 95
REMARK SMILES IDX 89 96 82 97 84 98 85 99 86 100 87 101 64 102 65 103 73 104
REMARK SMILES IDX 66 105 68 106 74 107 67 108 69 109 70 110 71 111 72 112
REMARK H PARENT 16 12 23 40 94 65 62 76
REMARK Flexibility Score: inf
ROOT
ATOM      1  C   UNL     1      -4.666   7.588   5.306  1.00  0.00     0.188 C 
ENDROOT
BRANCH   1   2
ATOM      2  O   UNL     1      -4.539   8.692   6.112  1.00  0.00    -0.376 OA
BRANCH   2   3
ATOM      3  C   UNL     1      -5.562   8.745   7.097  1.00  0.00     0.202 C 
BRANCH   3   4
ATOM      4  C   UNL     1      -6.996   8.308   6.787  1.00  0.00     0.261 C 
BRANCH   4   5
ATOM      5  O   UNL     1      -6.882   7.420   5.376  1.00  0.00    -0.462 OA
BRANCH   5   6
ATOM      6  C   UNL     1      -6.837   7.522   3.580  1.00  0.00     0.329 C 
ATOM      7  O   UNL     1      -6.670   8.661   3.206  1.00  0.00    -0.250 OA
BRANCH   6   8
ATOM      8  C   UNL     1      -8.056   6.647   2.387  1.00  0.00     0.198 C 
BRANCH   8   9
ATOM      9  N   UNL     1      -8.365   4.893   2.035  1.00  0.00    -0.335 N 
ATOM     10  C   UNL     1      -7.394   3.861   1.655  1.00  0.00     0.293 C 
ATOM     11  O   UNL     1      -7.307   2.733   2.170  1.00  0.00    -0.265 OA
ATOM     12  H   UNL     1      -9.301   4.597   2.109  1.00  0.00     0.164 HD
BRANCH  10  13
ATOM     13  C   UNL     1      -6.309   4.257   0.735  1.00  0.00     0.252 C 
ATOM     14  O   UNL     1      -6.561   5.268   0.094  1.00  0.00    -0.283 OA
BRANCH  13  15
ATOM     15  C   UNL     1      -5.216   3.385   0.378  1.00  0.00     0.054 A 
ATOM     16  N   UNL     1      -4.091   1.585  -0.157  1.00  0.00    -0.240 N 
ATOM     17  C   UNL     1      -4.862   2.129   0.828  1.00  0.00     0.117 A 
ATOM     18  C   UNL     1      -3.810   2.518  -1.140  1.00  0.00     0.065 A 
ATOM     19  C   UNL     1      -4.437   3.694  -0.746  1.00  0.00     0.012 A 
ATOM     20  C   UNL     1      -3.075   2.508  -2.324  1.00  0.00     0.028 A 
ATOM     21  C   UNL     1      -4.375   4.865  -1.523  1.00  0.00     0.011 A 
ATOM     22  C   UNL     1      -3.004   3.706  -3.064  1.00  0.00     0.002 A 
ATOM     23  C   UNL     1      -3.646   4.873  -2.681  1.00  0.00     0.001 A 
BRANCH  16  24
ATOM     24  S   UNL     1      -3.579  -0.033  -0.104  1.00  0.00     0.268 S 
ATOM     25  O   UNL     1      -3.960  -0.612  -1.380  1.00  0.00    -0.201 OA
ATOM     26  O   UNL     1      -4.051  -0.589   1.153  1.00  0.00    -0.201 OA
BRANCH  24  27
ATOM     27  C   UNL     1      -1.813   0.007  -0.015  1.00  0.00     0.088 A 
ATOM     28  C   UNL     1       2.481  -0.007  -0.014  1.00  0.00     0.044 C 
ATOM     29  C   UNL     1       0.982  -0.009   0.002  1.00  0.00    -0.051 A 
ATOM     30  C   UNL     1       0.267  -1.215   0.004  1.00  0.00     0.005 A 
ATOM     31  C   UNL     1       0.284   1.199   0.016  1.00  0.00     0.005 A 
ATOM     32  C   UNL     1      -1.130  -1.211  -0.006  1.00  0.00     0.022 A 
ATOM     33  C   UNL     1      -1.106   1.209   0.031  1.00  0.00     0.022 A 
ENDBRANCH  24  27
ENDBRANCH  16  24
ENDBRANCH  13  15
ENDBRANCH  10  13
ENDBRANCH   8   9
BRANCH   8  34
ATOM     34  C   UNL     1      -9.652   7.695   2.823  1.00  0.00     0.092 C 
BRANCH  34  35
ATOM     35  C   UNL     1     -10.333   7.613   4.833  1.00  0.00     0.037 A 
ATOM     36  C   UNL     1     -10.199   6.239   5.917  1.00  0.00     0.134 A 
ATOM     37  N   UNL     1      -9.994   8.155   6.112  1.00  0.00    -0.348 N 
ATOM     38  N   UNL     1     -10.291   6.237   7.209  1.00  0.00    -0.245 NA
ATOM     39  C   UNL     1     -10.573   7.467   7.160  1.00  0.00     0.196 A 
ATOM     40  H   UNL     1      -9.409   8.937   6.233  1.00  0.00     0.167 HD
ENDBRANCH  34  35
ENDBRANCH   8  34
ENDBRANCH   6   8
ENDBRANCH   5   6
ENDBRANCH   4   5
ENDBRANCH   3   4
ENDBRANCH   2   3
ENDBRANCH   1   2
BRANCH   1  41
ATOM     41  C   UNL     1      -5.154   6.300   5.751  1.00  0.00     0.188 C 
BRANCH  41  42
ATOM     42  O   UNL     1      -5.053   5.366   6.834  1.00  0.00    -0.376 OA
BRANCH  42  43
ATOM     43  C   UNL     1      -5.176   6.096   7.932  1.00  0.00     0.202 C 
BRANCH  43  44
ATOM     44  C   UNL     1      -3.643   6.037   7.779  1.00  0.00     0.261 C 
BRANCH  44  45
ATOM     45  O   UNL     1      -2.857   5.603   6.313  1.00  0.00    -0.460 OA
BRANCH  45  46
ATOM     46  C   UNL     1      -3.299   4.601   5.117  1.00  0.00     0.338 C 
ATOM     47  O   UNL     1      -2.533   4.738   4.136  1.00  0.00    -0.246 OA
BRANCH  46  48
ATOM     48  C   UNL     1      -5.044   3.873   4.954  1.00  0.00     0.060 A 
ATOM     49  C   UNL     1      -5.505   4.199   3.729  1.00  0.00     0.016 A 
ATOM     50  C   UNL     1      -6.500   4.058   5.761  1.00  0.00     0.016 A 
ATOM     51  C   UNL     1      -6.905   5.084   3.754  1.00  0.00     0.010 A 
ATOM     52  C   UNL     1      -7.837   5.041   5.667  1.00  0.00     0.010 A 
ATOM     53  C   UNL     1      -7.923   5.988   4.650  1.00  0.00    -0.014 A 
BRANCH  53  54
ATOM     54  C   UNL     1      -8.495   7.956   4.515  1.00  0.00     0.031 A 
ATOM     55  C   UNL     1      -9.534   6.154   3.941  1.00  0.00     0.074 A 
ATOM     56  C   UNL     1      -7.554   9.521   5.011  1.00  0.00     0.049 A 
ATOM     57  N   UNL     1     -11.117   6.478   3.422  1.00  0.00    -0.248 NA
ATOM     58  C   UNL     1     -10.877   4.865   4.091  1.00  0.00     0.031 C 
ATOM     59  C   UNL     1      -7.590  11.345   5.759  1.00  0.00     0.029 A 
ATOM     60  N   UNL     1      -5.969  10.300   4.995  1.00  0.00    -0.354 N 
ATOM     61  C   UNL     1     -12.264   6.595   4.439  1.00  0.00     0.074 A 
ATOM     62  C   UNL     1     -12.160   5.180   4.529  1.00  0.00     0.031 C 
ATOM     63  C   UNL     1      -6.760  12.558   5.368  1.00  0.00     0.029 A 
ATOM     64  C   UNL     1      -5.761  11.828   4.672  1.00  0.00     0.049 A 
ATOM     65  H   UNL     1      -5.177   9.753   5.198  1.00  0.00     0.167 HD
ATOM     66  C   UNL     1     -12.784   7.635   5.366  1.00  0.00     0.034 A 
ATOM     67  C   UNL     1      -5.538  12.059   3.385  1.00  0.00     0.034 A 
ATOM     68  C   UNL     1     -12.202   9.167   5.521  1.00  0.00     0.049 A 
ATOM     69  C   UNL     1      -7.134  12.128   3.052  1.00  0.00     0.074 A 
ATOM     70  C   UNL     1     -11.637   9.981   6.600  1.00  0.00     0.029 A 
ATOM     71  N   UNL     1     -11.720   9.796   4.394  1.00  0.00    -0.354 N 
ATOM     72  N   UNL     1      -8.205  11.499   3.524  1.00  0.00    -0.248 NA
ATOM     73  C   UNL     1      -7.488  13.307   2.337  1.00  0.00     0.031 C 
ATOM     74  C   UNL     1     -10.840  11.043   6.029  1.00  0.00     0.029 A 
ATOM     75  C   UNL     1     -10.973  10.944   4.659  1.00  0.00     0.049 A 
ATOM     76  H   UNL     1     -11.887   9.464   3.482  1.00  0.00     0.167 HD
ATOM     77  C   UNL     1      -9.353  12.145   3.195  1.00  0.00     0.074 A 
ATOM     78  C   UNL     1      -8.800  13.126   2.293  1.00  0.00     0.031 C 
ATOM     79  C   UNL     1     -10.643  11.834   3.557  1.00  0.00     0.034 A 
BRANCH  66  80
ATOM     80  C   UNL     1     -13.701   7.318   6.577  1.00  0.00     0.023 A 
ATOM     81  C   UNL     1     -14.299   8.406   7.265  1.00  0.00     0.012 A 
ATOM     82  C   UNL     1     -13.967   6.051   7.110  1.00  0.00     0.148 A 
ATOM     83  C   UNL     1     -15.309   8.220   8.205  1.00  0.00     0.002 A 
ATOM     84  C   UNL     1     -15.047   5.836   7.955  1.00  0.00     0.091 A 
ATOM     85  F   UNL     1     -13.063   5.075   6.994  1.00  0.00    -0.205 F 
ATOM     86  C   UNL     1     -15.742   6.927   8.492  1.00  0.00     0.022 A 
BRANCH  84  87
ATOM     87  S   UNL     1     -15.582   4.137   8.280  1.00  0.00     0.127 S 
ATOM     88  O   UNL     1     -15.451   4.038   9.733  1.00  0.00    -0.237 OA
ATOM     89  O   UNL     1     -16.958   4.137   7.786  1.00  0.00    -0.237 OA
ATOM     90  O   UNL     1     -14.683   3.269   7.526  1.00  0.00    -0.744 OA
ENDBRANCH  84  87
ENDBRANCH  66  80
BRANCH  67  91
ATOM     91  C   UNL     1      -4.503  10.971   3.190  1.00  0.00     0.023 A 
ATOM     92  C   UNL     1      -3.369  10.637   4.097  1.00  0.00     0.012 A 
ATOM     93  C   UNL     1      -5.017  10.003   2.379  1.00  0.00     0.148 A 
ATOM     94  C   UNL     1      -2.785   9.366   4.118  1.00  0.00     0.002 A 
ATOM     95  C   UNL     1      -4.370   8.778   2.329  1.00  0.00     0.091 A 
ATOM     96  F   UNL     1      -6.291  10.220   1.958  1.00  0.00    -0.205 F 
ATOM     97  C   UNL     1      -3.240   8.467   3.156  1.00  0.00     0.022 A 
BRANCH  95  98
ATOM     98  S   UNL     1      -5.154   7.506   1.343  1.00  0.00     0.127 S 
ATOM     99  O   UNL     1      -4.114   7.163   0.407  1.00  0.00    -0.237 OA
ATOM    100  O   UNL     1      -5.367   6.431   2.298  1.00  0.00    -0.237 OA
ATOM    101  O   UNL     1      -6.352   8.122   0.780  1.00  0.00    -0.744 OA
ENDBRANCH  95  98
ENDBRANCH  67  91
BRANCH  79 102
ATOM    102  C   UNL     1     -11.790  12.418   2.773  1.00  0.00     0.023 A 
ATOM    103  C   UNL     1     -11.612  13.527   1.948  1.00  0.00     0.012 A 
ATOM    104  C   UNL     1     -13.099  11.915   2.817  1.00  0.00     0.148 A 
ATOM    105  C   UNL     1     -12.559  14.021   1.084  1.00  0.00     0.002 A 
ATOM    106  C   UNL     1     -14.098  12.452   2.034  1.00  0.00     0.091 A 
ATOM    107  F   UNL     1     -13.446  10.949   3.660  1.00  0.00    -0.205 F 
ATOM    108  C   UNL     1     -13.827  13.501   1.154  1.00  0.00     0.022 A 
BRANCH 106 109
ATOM    109  S   UNL     1     -15.767  11.814   2.150  1.00  0.00     0.127 S 
ATOM    110  O   UNL     1     -16.497  13.004   2.583  1.00  0.00    -0.237 OA
ATOM    111  O   UNL     1     -16.008  11.399   0.770  1.00  0.00    -0.237 OA
ATOM    112  O   UNL     1     -15.742  10.729   3.122  1.00  0.00    -0.744 OA
ENDBRANCH 106 109
ENDBRANCH  79 102
ENDBRANCH  53  54
ENDBRANCH  46  48
ENDBRANCH  45  46
ENDBRANCH  44  45
ENDBRANCH  43  44
ENDBRANCH  42  43
ENDBRANCH  41  42
ENDBRANCH   1  41
TORSDOF 27
