REMARK SMILES CC(=O)NS(=O)(=O)c1cc(-c2ccn(C(F)F)c(=O)c2)ccc1C(=O)OCCOCCOCCOC(=O)c1ccc(-c2c3nc(c(-c4cccc(S(=O)(=O)[O-])c4F)c4ccc([nH]4)c(-c4cccc(S(=O)(=O)[O-])c4F)c4nc(c(-c5cccc(S(=O)(=O)[O-])c5F)c5ccc2[nH]5)C=C4)C=C3)cc1
REMARK SMILES IDX 31 1 30 2 29 3 28 4 27 5 26 6 24 7 25 8 23 9 8 10 9 11 10 12
REMARK SMILES IDX 22 13 21 14 5 15 6 16 7 17 4 18 1 19 2 20 3 21 11 23 12 24
REMARK SMILES IDX 20 25 13 26 18 27 14 28 19 29 15 30 16 31 17 32 32 33 33 34
REMARK SMILES IDX 34 35 35 36 36 37 37 38 38 39 39 40 100 41 40 42 99 43 41 44
REMARK SMILES IDX 42 45 43 46 93 47 44 48 98 49 92 50 94 51 45 52 97 53 91 54
REMARK SMILES IDX 90 55 46 57 78 58 58 59 77 60 59 61 62 62 76 63 95 64 60 65
REMARK SMILES IDX 61 66 75 68 96 69 63 70 47 71 48 72 56 73 49 74 51 75 57 76
REMARK SMILES IDX 50 77 52 78 53 79 54 80 55 81 79 82 80 83 88 84 81 85 83 86
REMARK SMILES IDX 89 87 82 88 84 89 85 90 86 91 87 92 64 93 65 94 73 95 66 96
REMARK SMILES IDX 68 97 74 98 67 99 69 100 70 101 71 102 72 103
REMARK H PARENT 4 22 94 56 62 67
REMARK Flexibility Score: inf
ROOT
ATOM      1  C   UNL     1       5.641   0.201   1.577  1.00  0.00     0.188 C 
ENDROOT
BRANCH   1   2
ATOM      2  C   UNL     1       5.726   1.256   0.455  1.00  0.00     0.188 C 
BRANCH   2   3
ATOM      3  O   UNL     1       5.413   2.575   0.887  1.00  0.00    -0.376 OA
BRANCH   3   4
ATOM      4  C   UNL     1       4.230   3.135   0.334  1.00  0.00     0.202 C 
BRANCH   4   5
ATOM      5  C   UNL     1       2.980   2.675   1.078  1.00  0.00     0.261 C 
BRANCH   5   6
ATOM      6  O   UNL     1       2.842   1.244   1.125  1.00  0.00    -0.460 OA
BRANCH   6   7
ATOM      7  C   UNL     1       2.377   0.639   0.016  1.00  0.00     0.339 C 
ATOM      8  O   UNL     1       2.069   1.174  -1.032  1.00  0.00    -0.246 OA
BRANCH   7   9
ATOM      9  C   UNL     1       2.343  -0.825   0.224  1.00  0.00     0.080 A 
ATOM     10  C   UNL     1       1.777  -1.460   1.332  1.00  0.00     0.103 A 
ATOM     11  C   UNL     1       1.752  -2.868   1.399  1.00  0.00     0.032 A 
ATOM     12  C   UNL     1       2.260  -3.650   0.354  1.00  0.00    -0.017 A 
ATOM     13  C   UNL     1       2.883  -1.611  -0.809  1.00  0.00     0.018 A 
ATOM     14  C   UNL     1       2.844  -3.009  -0.743  1.00  0.00     0.010 A 
BRANCH  10  15
ATOM     15  S   UNL     1       0.925  -0.614   2.633  1.00  0.00     0.264 S 
ATOM     16  O   UNL     1       1.919  -0.222   3.607  1.00  0.00    -0.201 OA
ATOM     17  O   UNL     1      -0.196  -1.443   3.019  1.00  0.00    -0.201 OA
BRANCH  15  18
ATOM     18  N   UNL     1       0.291   0.770   2.005  1.00  0.00    -0.249 N 
ATOM     19  C   UNL     1      -1.145  -0.179   0.189  1.00  0.00     0.115 C 
ATOM     20  C   UNL     1      -0.722   0.966   1.063  1.00  0.00     0.230 C 
ATOM     21  O   UNL     1      -1.152   2.101   0.903  1.00  0.00    -0.274 OA
ATOM     22  H   UNL     1       0.694   1.599   2.352  1.00  0.00     0.183 HD
ENDBRANCH  15  18
ENDBRANCH  10  15
BRANCH  12  23
ATOM     23  C   UNL     1       2.097  -5.118   0.366  1.00  0.00    -0.011 A 
ATOM     24  C   UNL     1       3.204  -6.054   0.342  1.00  0.00     0.027 A 
ATOM     25  C   UNL     1       0.841  -5.601   0.347  1.00  0.00     0.080 A 
ATOM     26  C   UNL     1       2.979  -7.373   0.277  1.00  0.00     0.095 A 
ATOM     27  C   UNL     1       0.574  -7.065   0.298  1.00  0.00     0.255 A 
ATOM     28  N   UNL     1       1.692  -7.879   0.246  1.00  0.00    -0.258 N 
ATOM     29  O   UNL     1      -0.593  -7.446   0.302  1.00  0.00    -0.269 OA
BRANCH  28  30
ATOM     30  C   UNL     1       1.459  -9.297   0.149  1.00  0.00     0.451 C 
ATOM     31  F   UNL     1       0.769  -9.753   1.224  1.00  0.00    -0.185 F 
ATOM     32  F   UNL     1       0.744  -9.599  -0.962  1.00  0.00    -0.185 F 
ENDBRANCH  28  30
ENDBRANCH  12  23
ENDBRANCH   7   9
ENDBRANCH   6   7
ENDBRANCH   5   6
ENDBRANCH   4   5
ENDBRANCH   3   4
ENDBRANCH   2   3
ENDBRANCH   1   2
BRANCH   1  33
ATOM     33  O   UNL     1       5.829   0.580   2.934  1.00  0.00    -0.376 OA
BRANCH  33  34
ATOM     34  C   UNL     1       6.805   1.561   3.246  1.00  0.00     0.202 C 
BRANCH  34  35
ATOM     35  C   UNL     1       8.270   1.181   3.014  1.00  0.00     0.261 C 
BRANCH  35  36
ATOM     36  O   UNL     1       8.553   0.792   1.660  1.00  0.00    -0.460 OA
BRANCH  36  37
ATOM     37  C   UNL     1       8.851  -0.518   1.478  1.00  0.00     0.338 C 
ATOM     38  O   UNL     1       8.958  -1.378   2.336  1.00  0.00    -0.246 OA
BRANCH  37  39
ATOM     39  C   UNL     1       8.836  -0.829   0.033  1.00  0.00     0.060 A 
ATOM     40  C   UNL     1       8.027  -1.888  -0.404  1.00  0.00     0.016 A 
ATOM     41  C   UNL     1       9.621  -0.117  -0.874  1.00  0.00     0.016 A 
ATOM     42  C   UNL     1       8.012  -2.251  -1.750  1.00  0.00     0.010 A 
ATOM     43  C   UNL     1       9.629  -0.502  -2.218  1.00  0.00     0.010 A 
ATOM     44  C   UNL     1       8.844  -1.583  -2.657  1.00  0.00    -0.014 A 
BRANCH  44  45
ATOM     45  C   UNL     1       9.027  -2.111  -4.029  1.00  0.00     0.031 A 
ATOM     46  C   UNL     1      10.150  -3.077  -4.281  1.00  0.00     0.074 A 
ATOM     47  C   UNL     1       8.238  -1.707  -5.039  1.00  0.00     0.049 A 
ATOM     48  N   UNL     1      10.560  -3.592  -5.409  1.00  0.00    -0.248 NA
ATOM     49  C   UNL     1      10.910  -3.523  -3.101  1.00  0.00     0.031 C 
ATOM     50  C   UNL     1       7.104  -0.794  -4.914  1.00  0.00     0.029 A 
ATOM     51  N   UNL     1       8.298  -1.991  -6.381  1.00  0.00    -0.354 N 
ATOM     52  C   UNL     1      11.640  -4.402  -5.082  1.00  0.00     0.074 A 
ATOM     53  C   UNL     1      11.821  -4.313  -3.650  1.00  0.00     0.031 C 
ATOM     54  C   UNL     1       6.599  -0.558  -6.138  1.00  0.00     0.029 A 
ATOM     55  C   UNL     1       7.394  -1.278  -7.133  1.00  0.00     0.049 A 
ATOM     56  H   UNL     1       8.928  -2.642  -6.767  1.00  0.00     0.167 HD
ATOM     57  C   UNL     1      12.408  -5.159  -5.899  1.00  0.00     0.034 A 
ATOM     58  C   UNL     1       7.251  -1.192  -8.471  1.00  0.00     0.034 A 
ATOM     59  C   UNL     1      12.233  -5.245  -7.322  1.00  0.00     0.049 A 
ATOM     60  C   UNL     1       8.169  -1.986  -9.365  1.00  0.00     0.074 A 
ATOM     61  C   UNL     1      12.942  -6.008  -8.232  1.00  0.00     0.029 A 
ATOM     62  N   UNL     1      11.296  -4.526  -8.046  1.00  0.00    -0.354 N 
ATOM     63  N   UNL     1       9.111  -2.837  -9.036  1.00  0.00    -0.248 NA
ATOM     64  C   UNL     1       7.993  -1.821 -10.816  1.00  0.00     0.031 C 
ATOM     65  C   UNL     1      12.445  -5.735  -9.511  1.00  0.00     0.029 A 
ATOM     66  C   UNL     1      11.416  -4.814  -9.394  1.00  0.00     0.049 A 
ATOM     67  H   UNL     1      10.640  -3.902  -7.659  1.00  0.00     0.167 HD
ATOM     68  C   UNL     1       9.617  -3.331 -10.235  1.00  0.00     0.074 A 
ATOM     69  C   UNL     1       8.865  -2.697 -11.298  1.00  0.00     0.031 C 
ATOM     70  C   UNL     1      10.623  -4.217 -10.438  1.00  0.00     0.034 A 
BRANCH  57  71
ATOM     71  C   UNL     1      13.498  -5.975  -5.261  1.00  0.00     0.023 A 
ATOM     72  C   UNL     1      13.159  -7.147  -4.555  1.00  0.00     0.012 A 
ATOM     73  C   UNL     1      14.850  -5.607  -5.387  1.00  0.00     0.148 A 
ATOM     74  C   UNL     1      14.150  -7.926  -3.960  1.00  0.00     0.002 A 
ATOM     75  C   UNL     1      15.835  -6.408  -4.822  1.00  0.00     0.091 A 
ATOM     76  F   UNL     1      15.147  -4.471  -6.036  1.00  0.00    -0.205 F 
ATOM     77  C   UNL     1      15.487  -7.563  -4.101  1.00  0.00     0.022 A 
BRANCH  75  78
ATOM     78  S   UNL     1      17.585  -6.052  -5.005  1.00  0.00     0.127 S 
ATOM     79  O   UNL     1      17.918  -5.522  -3.683  1.00  0.00    -0.237 OA
ATOM     80  O   UNL     1      18.143  -7.375  -5.289  1.00  0.00    -0.237 OA
ATOM     81  O   UNL     1      17.685  -5.105  -6.106  1.00  0.00    -0.744 OA
ENDBRANCH  75  78
ENDBRANCH  57  71
BRANCH  58  82
ATOM     82  C   UNL     1       6.184  -0.331  -9.054  1.00  0.00     0.023 A 
ATOM     83  C   UNL     1       5.090  -0.933  -9.705  1.00  0.00     0.012 A 
ATOM     84  C   UNL     1       6.239   1.073  -8.961  1.00  0.00     0.148 A 
ATOM     85  C   UNL     1       4.083  -0.153 -10.273  1.00  0.00     0.002 A 
ATOM     86  C   UNL     1       5.206   1.843  -9.484  1.00  0.00     0.091 A 
ATOM     87  F   UNL     1       7.300   1.629  -8.359  1.00  0.00    -0.205 F 
ATOM     88  C   UNL     1       4.135   1.233 -10.153  1.00  0.00     0.022 A 
BRANCH  86  89
ATOM     89  S   UNL     1       5.132   3.625  -9.270  1.00  0.00     0.127 S 
ATOM     90  O   UNL     1       5.426   4.101 -10.619  1.00  0.00    -0.237 OA
ATOM     91  O   UNL     1       3.749   3.820  -8.833  1.00  0.00    -0.237 OA
ATOM     92  O   UNL     1       6.130   3.938  -8.255  1.00  0.00    -0.744 OA
ENDBRANCH  86  89
ENDBRANCH  58  82
BRANCH  70  93
ATOM     93  C   UNL     1      10.964  -4.584 -11.859  1.00  0.00     0.023 A 
ATOM     94  C   UNL     1      11.676  -3.672 -12.662  1.00  0.00     0.012 A 
ATOM     95  C   UNL     1      10.667  -5.866 -12.363  1.00  0.00     0.148 A 
ATOM     96  C   UNL     1      12.071  -4.024 -13.952  1.00  0.00     0.002 A 
ATOM     97  C   UNL     1      11.103  -6.225 -13.633  1.00  0.00     0.091 A 
ATOM     98  F   UNL     1       9.973  -6.713 -11.588  1.00  0.00    -0.205 F 
ATOM     99  C   UNL     1      11.797  -5.302 -14.432  1.00  0.00     0.022 A 
BRANCH  97 100
ATOM    100  S   UNL     1      10.877  -7.879 -14.298  1.00  0.00     0.127 S 
ATOM    101  O   UNL     1       9.842  -7.656 -15.306  1.00  0.00    -0.237 OA
ATOM    102  O   UNL     1      12.202  -8.181 -14.839  1.00  0.00    -0.237 OA
ATOM    103  O   UNL     1      10.481  -8.713 -13.171  1.00  0.00    -0.744 OA
ENDBRANCH  97 100
ENDBRANCH  70  93
ENDBRANCH  44  45
ENDBRANCH  37  39
ENDBRANCH  36  37
ENDBRANCH  35  36
ENDBRANCH  34  35
ENDBRANCH  33  34
ENDBRANCH   1  33
TORSDOF 24
