REMARK SMILES COc1ccc(-c2nc(C(C)C)cc3nn(CC(=O)OCCOCCOCCOC(=O)c4ccc(-c5c6nc(c(-c7cccc(S(=O)(=O)[O-])c7F)c7ccc([nH]7)c(-c7cccc(S(=O)(=O)[O-])c7F)c7nc(c(-c8cccc(S(=O)(=O)[O-])c8F)c8ccc5[nH]8)C=C7)C=C6)cc4)c(=O)n23)cc1
REMARK SMILES IDX 24 1 23 2 22 3 21 4 20 5 18 6 19 7 17 8 16 9 7 10 8 11 97 12
REMARK SMILES IDX 9 13 14 14 95 15 13 16 15 17 96 18 6 19 3 20 4 21 99 22 5 23
REMARK SMILES IDX 98 24 2 25 1 26 10 27 11 28 12 29 25 30 26 31 27 32 28 33
REMARK SMILES IDX 29 34 30 35 31 36 32 37 33 38 94 39 34 40 93 41 35 42 36 43
REMARK SMILES IDX 37 44 87 45 38 46 92 47 86 48 88 49 39 50 91 51 85 52 84 53
REMARK SMILES IDX 40 55 72 56 52 57 71 58 53 59 56 60 70 61 89 62 54 63 55 64
REMARK SMILES IDX 69 66 90 67 57 68 41 69 42 70 50 71 43 72 45 73 51 74 44 75
REMARK SMILES IDX 46 76 47 77 48 78 49 79 73 80 74 81 82 82 75 83 77 84 83 85
REMARK SMILES IDX 76 86 78 87 79 88 80 89 81 90 58 91 59 92 67 93 60 94 62 95
REMARK SMILES IDX 68 96 61 97 63 98 64 99 65 100 66 101
REMARK H PARENT 88 54 56 65
REMARK Flexibility Score: inf
ROOT
ATOM      1  C   UNL     1      -2.951   2.090   6.563  1.00  0.00     0.188 C 
ENDROOT
BRANCH   1   2
ATOM      2  O   UNL     1      -4.323   2.045   6.954  1.00  0.00    -0.376 OA
BRANCH   2   3
ATOM      3  C   UNL     1      -4.883   3.213   7.520  1.00  0.00     0.202 C 
BRANCH   3   4
ATOM      4  C   UNL     1      -4.276   3.647   8.864  1.00  0.00     0.261 C 
BRANCH   4   5
ATOM      5  O   UNL     1      -2.830   3.543   8.943  1.00  0.00    -0.462 OA
BRANCH   5   6
ATOM      6  C   UNL     1      -2.297   2.530   9.671  1.00  0.00     0.328 C 
ATOM      7  O   UNL     1      -2.949   1.875  10.482  1.00  0.00    -0.250 OA
BRANCH   6   8
ATOM      8  C   UNL     1      -0.804   2.206   9.390  1.00  0.00     0.272 C 
BRANCH   8   9
ATOM      9  N   UNL     1       0.067   2.907   8.435  1.00  0.00    -0.201 N 
ATOM     10  C   UNL     1       2.275   3.620   5.614  1.00  0.00     0.150 A 
ATOM     11  N   UNL     1       3.192   4.544   5.579  1.00  0.00    -0.234 NA
ATOM     12  N   UNL     1       1.518   3.367   6.774  1.00  0.00    -0.226 N 
ATOM     13  C   UNL     1       3.419   5.306   6.695  1.00  0.00     0.049 A 
ATOM     14  C   UNL     1       1.623   4.202   7.832  1.00  0.00     0.165 A 
ATOM     15  C   UNL     1       0.573   2.413   7.191  1.00  0.00     0.352 A 
ATOM     16  C   UNL     1       2.667   5.226   7.803  1.00  0.00     0.073 A 
ATOM     17  N   UNL     1       0.799   4.008   8.819  1.00  0.00    -0.149 NA
ATOM     18  O   UNL     1       0.331   1.317   6.714  1.00  0.00    -0.245 OA
BRANCH  10  19
ATOM     19  C   UNL     1       1.987   2.961   4.318  1.00  0.00     0.018 A 
ATOM     20  C   UNL     1       1.645   2.071   1.661  1.00  0.00     0.118 A 
ATOM     21  C   UNL     1       0.931   3.168   2.140  1.00  0.00     0.047 A 
ATOM     22  C   UNL     1       2.593   1.471   2.491  1.00  0.00     0.047 A 
ATOM     23  C   UNL     1       1.119   3.630   3.448  1.00  0.00     0.016 A 
ATOM     24  C   UNL     1       2.772   1.920   3.817  1.00  0.00     0.016 A 
BRANCH  20  25
ATOM     25  O   UNL     1       1.323   1.712   0.383  1.00  0.00    -0.497 OA
ATOM     26  C   UNL     1       1.956   0.563  -0.172  1.00  0.00     0.278 C 
ENDBRANCH  20  25
ENDBRANCH  10  19
BRANCH  13  27
ATOM     27  C   UNL     1       4.584   6.276   6.564  1.00  0.00     0.032 C 
ATOM     28  C   UNL     1       4.178   7.728   6.829  1.00  0.00     0.014 C 
ATOM     29  C   UNL     1       5.747   5.851   7.461  1.00  0.00     0.014 C 
ENDBRANCH  13  27
ENDBRANCH   8   9
ENDBRANCH   6   8
ENDBRANCH   5   6
ENDBRANCH   4   5
ENDBRANCH   3   4
ENDBRANCH   2   3
ENDBRANCH   1   2
BRANCH   1  30
ATOM     30  C   UNL     1      -2.293   3.461   6.232  1.00  0.00     0.188 C 
BRANCH  30  31
ATOM     31  O   UNL     1      -3.183   4.381   5.624  1.00  0.00    -0.376 OA
BRANCH  31  32
ATOM     32  C   UNL     1      -2.727   4.945   4.416  1.00  0.00     0.202 C 
BRANCH  32  33
ATOM     33  C   UNL     1      -2.775   4.007   3.219  1.00  0.00     0.261 C 
BRANCH  33  34
ATOM     34  O   UNL     1      -3.112   2.656   3.510  1.00  0.00    -0.460 OA
BRANCH  34  35
ATOM     35  C   UNL     1      -2.055   1.833   3.640  1.00  0.00     0.338 C 
ATOM     36  O   UNL     1      -0.986   2.092   4.173  1.00  0.00    -0.246 OA
BRANCH  35  37
ATOM     37  C   UNL     1      -2.233   0.619   2.877  1.00  0.00     0.060 A 
ATOM     38  C   UNL     1      -1.087  -0.173   2.777  1.00  0.00     0.016 A 
ATOM     39  C   UNL     1      -3.301   0.555   1.979  1.00  0.00     0.016 A 
ATOM     40  C   UNL     1      -0.893  -0.834   1.602  1.00  0.00     0.010 A 
ATOM     41  C   UNL     1      -3.104  -0.116   0.805  1.00  0.00     0.010 A 
ATOM     42  C   UNL     1      -1.861  -0.707   0.599  1.00  0.00    -0.014 A 
BRANCH  42  43
ATOM     43  C   UNL     1      -1.562  -1.351  -0.654  1.00  0.00     0.031 A 
ATOM     44  C   UNL     1      -1.421  -2.812  -0.481  1.00  0.00     0.074 A 
ATOM     45  C   UNL     1      -1.483  -0.662  -1.804  1.00  0.00     0.049 A 
ATOM     46  N   UNL     1      -0.373  -3.534  -0.697  1.00  0.00    -0.248 NA
ATOM     47  C   UNL     1      -2.503  -3.504   0.246  1.00  0.00     0.031 C 
ATOM     48  C   UNL     1      -1.847   0.737  -2.046  1.00  0.00     0.029 A 
ATOM     49  N   UNL     1      -1.210  -1.132  -3.047  1.00  0.00    -0.354 N 
ATOM     50  C   UNL     1      -0.761  -4.822  -0.350  1.00  0.00     0.074 A 
ATOM     51  C   UNL     1      -1.969  -4.709   0.421  1.00  0.00     0.031 C 
ATOM     52  C   UNL     1      -2.055   0.909  -3.370  1.00  0.00     0.029 A 
ATOM     53  C   UNL     1      -1.720  -0.326  -4.058  1.00  0.00     0.049 A 
ATOM     54  H   UNL     1      -0.704  -1.959  -3.216  1.00  0.00     0.167 HD
ATOM     55  C   UNL     1      -0.235  -5.904  -0.975  1.00  0.00     0.034 A 
ATOM     56  C   UNL     1      -1.966  -0.715  -5.332  1.00  0.00     0.034 A 
ATOM     57  C   UNL     1       1.028  -5.607  -1.591  1.00  0.00     0.049 A 
ATOM     58  C   UNL     1      -1.197  -1.961  -5.572  1.00  0.00     0.074 A 
ATOM     59  C   UNL     1       2.248  -5.165  -1.119  1.00  0.00     0.029 A 
ATOM     60  N   UNL     1       1.025  -5.363  -2.942  1.00  0.00    -0.354 N 
ATOM     61  N   UNL     1       0.106  -2.011  -5.606  1.00  0.00    -0.248 NA
ATOM     62  C   UNL     1      -1.863  -3.232  -5.330  1.00  0.00     0.031 C 
ATOM     63  C   UNL     1       2.733  -4.279  -2.122  1.00  0.00     0.029 A 
ATOM     64  C   UNL     1       1.815  -4.267  -3.175  1.00  0.00     0.049 A 
ATOM     65  H   UNL     1       0.540  -5.883  -3.623  1.00  0.00     0.167 HD
ATOM     66  C   UNL     1       0.427  -3.194  -4.951  1.00  0.00     0.074 A 
ATOM     67  C   UNL     1      -0.820  -3.954  -4.910  1.00  0.00     0.031 C 
ATOM     68  C   UNL     1       1.591  -3.317  -4.246  1.00  0.00     0.034 A 
BRANCH  55  69
ATOM     69  C   UNL     1      -1.064  -7.108  -1.324  1.00  0.00     0.023 A 
ATOM     70  C   UNL     1      -0.398  -8.277  -1.733  1.00  0.00     0.012 A 
ATOM     71  C   UNL     1      -2.470  -7.072  -1.495  1.00  0.00     0.148 A 
ATOM     72  C   UNL     1      -1.099  -9.354  -2.287  1.00  0.00     0.002 A 
ATOM     73  C   UNL     1      -3.171  -8.179  -1.946  1.00  0.00     0.091 A 
ATOM     74  F   UNL     1      -3.135  -5.919  -1.362  1.00  0.00    -0.205 F 
ATOM     75  C   UNL     1      -2.487  -9.315  -2.373  1.00  0.00     0.022 A 
BRANCH  73  76
ATOM     76  S   UNL     1      -4.967  -8.183  -1.990  1.00  0.00     0.127 S 
ATOM     77  O   UNL     1      -5.228  -7.974  -3.410  1.00  0.00    -0.237 OA
ATOM     78  O   UNL     1      -5.277  -9.524  -1.492  1.00  0.00    -0.237 OA
ATOM     79  O   UNL     1      -5.375  -7.110  -1.092  1.00  0.00    -0.744 OA
ENDBRANCH  73  76
ENDBRANCH  55  69
BRANCH  56  80
ATOM     80  C   UNL     1      -3.055  -0.276  -6.235  1.00  0.00     0.023 A 
ATOM     81  C   UNL     1      -2.932  -0.489  -7.622  1.00  0.00     0.012 A 
ATOM     82  C   UNL     1      -4.318   0.111  -5.730  1.00  0.00     0.148 A 
ATOM     83  C   UNL     1      -4.035  -0.348  -8.472  1.00  0.00     0.002 A 
ATOM     84  C   UNL     1      -5.407   0.266  -6.581  1.00  0.00     0.091 A 
ATOM     85  F   UNL     1      -4.477   0.231  -4.405  1.00  0.00    -0.205 F 
ATOM     86  C   UNL     1      -5.272   0.025  -7.953  1.00  0.00     0.022 A 
BRANCH  84  87
ATOM     87  S   UNL     1      -7.034   0.732  -5.974  1.00  0.00     0.127 S 
ATOM     88  O   UNL     1      -7.418   1.786  -6.915  1.00  0.00    -0.237 OA
ATOM     89  O   UNL     1      -7.778  -0.517  -6.117  1.00  0.00    -0.237 OA
ATOM     90  O   UNL     1      -6.831   1.197  -4.608  1.00  0.00    -0.744 OA
ENDBRANCH  84  87
ENDBRANCH  56  80
BRANCH  68  91
ATOM     91  C   UNL     1       2.630  -2.229  -4.400  1.00  0.00     0.023 A 
ATOM     92  C   UNL     1       2.384  -0.889  -4.030  1.00  0.00     0.012 A 
ATOM     93  C   UNL     1       3.937  -2.599  -4.762  1.00  0.00     0.148 A 
ATOM     94  C   UNL     1       3.409   0.062  -4.043  1.00  0.00     0.002 A 
ATOM     95  C   UNL     1       4.963  -1.663  -4.727  1.00  0.00     0.091 A 
ATOM     96  F   UNL     1       4.161  -3.876  -5.107  1.00  0.00    -0.205 F 
ATOM     97  C   UNL     1       4.702  -0.329  -4.378  1.00  0.00     0.022 A 
BRANCH  95  98
ATOM     98  S   UNL     1       6.670  -2.132  -5.021  1.00  0.00     0.127 S 
ATOM     99  O   UNL     1       6.905  -1.603  -6.362  1.00  0.00    -0.237 OA
ATOM    100  O   UNL     1       7.378  -1.426  -3.951  1.00  0.00    -0.237 OA
ATOM    101  O   UNL     1       6.712  -3.584  -4.901  1.00  0.00    -0.744 OA
ENDBRANCH  95  98
ENDBRANCH  68  91
ENDBRANCH  42  43
ENDBRANCH  35  37
ENDBRANCH  34  35
ENDBRANCH  33  34
ENDBRANCH  32  33
ENDBRANCH  31  32
ENDBRANCH  30  31
ENDBRANCH   1  30
TORSDOF 24
