REMARK SMILES C[C@@H](Sc1nc2ccccc2c(=O)n1N)C(=O)OCCOCCOCCOC(=O)c1ccc(-c2c3nc(c(-c4cccc(S(=O)(=O)[O-])c4F)c4ccc([nH]4)c(-c4cccc(S(=O)(=O)[O-])c4F)c4nc(c(-c5cccc(S(=O)(=O)[O-])c5F)c5ccc2[nH]5)C=C4)C=C3)cc1
REMARK SMILES IDX 22 1 21 2 20 3 19 4 18 5 16 6 17 7 2 8 1 9 3 10 4 11 5 12
REMARK SMILES IDX 14 13 6 14 12 15 7 16 11 17 13 18 8 19 10 20 9 21 15 22
REMARK SMILES IDX 23 25 24 26 25 27 26 28 27 29 28 30 29 31 30 32 31 33 92 34
REMARK SMILES IDX 32 35 91 36 33 37 34 38 35 39 85 40 36 41 90 42 84 43 86 44
REMARK SMILES IDX 37 45 89 46 83 47 82 48 38 50 70 51 50 52 69 53 51 54 54 55
REMARK SMILES IDX 68 56 87 57 52 58 53 59 67 61 88 62 55 63 39 64 40 65 48 66
REMARK SMILES IDX 41 67 43 68 49 69 42 70 44 71 45 72 46 73 47 74 71 75 72 76
REMARK SMILES IDX 80 77 73 78 75 79 81 80 74 81 76 82 77 83 78 84 79 85 56 86
REMARK SMILES IDX 57 87 65 88 58 89 60 90 66 91 59 92 61 93 62 94 63 95 64 96
REMARK H PARENT 15 23 15 24 86 49 54 60
REMARK Flexibility Score: inf
ROOT
ATOM      1  C   UNL     1      -2.275  -0.098   1.984  1.00  0.00     0.188 C 
ENDROOT
BRANCH   1   2
ATOM      2  O   UNL     1      -3.612   0.314   1.739  1.00  0.00    -0.376 OA
BRANCH   2   3
ATOM      3  C   UNL     1      -3.967   0.825   0.460  1.00  0.00     0.202 C 
BRANCH   3   4
ATOM      4  C   UNL     1      -3.108   1.920  -0.198  1.00  0.00     0.261 C 
BRANCH   4   5
ATOM      5  O   UNL     1      -1.704   1.619  -0.337  1.00  0.00    -0.462 OA
BRANCH   5   6
ATOM      6  C   UNL     1      -0.849   2.425   0.347  1.00  0.00     0.319 C 
ATOM      7  O   UNL     1      -1.221   3.358   1.054  1.00  0.00    -0.251 OA
BRANCH   6   8
ATOM      8  C   UNL     1       0.636   2.042   0.210  1.00  0.00     0.161 C 
ATOM      9  C   UNL     1       1.010   0.870  -0.702  1.00  0.00     0.032 C 
BRANCH   8  10
ATOM     10  S   UNL     1       1.492   3.579  -0.298  1.00  0.00    -0.071 SA
BRANCH  10  11
ATOM     11  C   UNL     1       3.164   3.102  -0.184  1.00  0.00     0.191 A 
ATOM     12  N   UNL     1       3.809   3.037  -1.302  1.00  0.00    -0.222 NA
ATOM     13  N   UNL     1       3.745   2.904   1.064  1.00  0.00    -0.202 N 
ATOM     14  C   UNL     1       5.185   2.799  -1.257  1.00  0.00     0.079 A 
ATOM     15  C   UNL     1       5.124   2.727   1.199  1.00  0.00     0.280 A 
ATOM     16  C   UNL     1       5.883   2.734  -2.464  1.00  0.00     0.029 A 
ATOM     17  C   UNL     1       5.892   2.696  -0.059  1.00  0.00     0.068 A 
ATOM     18  O   UNL     1       5.696   2.620   2.283  1.00  0.00    -0.267 OA
ATOM     19  C   UNL     1       7.273   2.611  -2.473  1.00  0.00     0.002 A 
ATOM     20  C   UNL     1       7.286   2.579  -0.056  1.00  0.00     0.016 A 
ATOM     21  C   UNL     1       7.976   2.547  -1.269  1.00  0.00     0.001 A 
BRANCH  13  22
ATOM     22  N   UNL     1       2.969   2.861   2.267  1.00  0.00    -0.334 N 
ATOM     23  H   UNL     1       1.992   2.980   2.227  1.00  0.00     0.178 HD
ATOM     24  H   UNL     1       3.411   2.714   3.133  1.00  0.00     0.178 HD
ENDBRANCH  13  22
ENDBRANCH  10  11
ENDBRANCH   8  10
ENDBRANCH   6   8
ENDBRANCH   5   6
ENDBRANCH   4   5
ENDBRANCH   3   4
ENDBRANCH   2   3
ENDBRANCH   1   2
BRANCH   1  25
ATOM     25  C   UNL     1      -1.554  -0.954   0.930  1.00  0.00     0.188 C 
BRANCH  25  26
ATOM     26  O   UNL     1      -2.273  -1.155  -0.265  1.00  0.00    -0.376 OA
BRANCH  26  27
ATOM     27  C   UNL     1      -2.717  -2.465  -0.575  1.00  0.00     0.202 C 
BRANCH  27  28
ATOM     28  C   UNL     1      -3.440  -3.322   0.482  1.00  0.00     0.261 C 
BRANCH  28  29
ATOM     29  O   UNL     1      -2.931  -3.283   1.824  1.00  0.00    -0.460 OA
BRANCH  29  30
ATOM     30  C   UNL     1      -1.798  -3.978   2.080  1.00  0.00     0.338 C 
ATOM     31  O   UNL     1      -1.155  -4.644   1.282  1.00  0.00    -0.246 OA
BRANCH  30  32
ATOM     32  C   UNL     1      -1.329  -3.585   3.429  1.00  0.00     0.060 A 
ATOM     33  C   UNL     1      -0.089  -2.940   3.557  1.00  0.00     0.016 A 
ATOM     34  C   UNL     1      -2.117  -3.822   4.556  1.00  0.00     0.016 A 
ATOM     35  C   UNL     1       0.374  -2.548   4.815  1.00  0.00     0.010 A 
ATOM     36  C   UNL     1      -1.639  -3.453   5.818  1.00  0.00     0.010 A 
ATOM     37  C   UNL     1      -0.380  -2.841   5.958  1.00  0.00    -0.014 A 
BRANCH  37  38
ATOM     38  C   UNL     1       0.219  -2.683   7.307  1.00  0.00     0.031 A 
ATOM     39  C   UNL     1       0.767  -3.906   7.991  1.00  0.00     0.074 A 
ATOM     40  C   UNL     1       0.263  -1.490   7.927  1.00  0.00     0.049 A 
ATOM     41  N   UNL     1       1.263  -4.033   9.194  1.00  0.00    -0.248 NA
ATOM     42  C   UNL     1       0.746  -5.156   7.213  1.00  0.00     0.031 C 
ATOM     43  C   UNL     1      -0.219  -0.227   7.372  1.00  0.00     0.029 A 
ATOM     44  N   UNL     1       0.709  -1.158   9.184  1.00  0.00    -0.354 N 
ATOM     45  C   UNL     1       1.574  -5.380   9.333  1.00  0.00     0.074 A 
ATOM     46  C   UNL     1       1.209  -6.030   8.094  1.00  0.00     0.031 C 
ATOM     47  C   UNL     1      -0.078   0.737   8.298  1.00  0.00     0.029 A 
ATOM     48  C   UNL     1       0.473   0.154   9.521  1.00  0.00     0.049 A 
ATOM     49  H   UNL     1       1.154  -1.798   9.785  1.00  0.00     0.167 HD
ATOM     50  C   UNL     1       2.120  -6.019  10.394  1.00  0.00     0.034 A 
ATOM     51  C   UNL     1       0.650   0.801  10.692  1.00  0.00     0.034 A 
ATOM     52  C   UNL     1       2.496  -5.372  11.621  1.00  0.00     0.049 A 
ATOM     53  C   UNL     1       1.231   0.060  11.870  1.00  0.00     0.074 A 
ATOM     54  C   UNL     1       3.106  -5.928  12.732  1.00  0.00     0.029 A 
ATOM     55  N   UNL     1       2.280  -4.035  11.911  1.00  0.00    -0.354 N 
ATOM     56  N   UNL     1       1.623  -1.188  11.952  1.00  0.00    -0.248 NA
ATOM     57  C   UNL     1       1.423   0.827  13.111  1.00  0.00     0.031 C 
ATOM     58  C   UNL     1       3.219  -4.936  13.710  1.00  0.00     0.029 A 
ATOM     59  C   UNL     1       2.727  -3.750  13.190  1.00  0.00     0.049 A 
ATOM     60  H   UNL     1       1.871  -3.383  11.297  1.00  0.00     0.167 HD
ATOM     61  C   UNL     1       2.143  -1.345  13.234  1.00  0.00     0.074 A 
ATOM     62  C   UNL     1       2.031  -0.059  13.889  1.00  0.00     0.031 C 
ATOM     63  C   UNL     1       2.658  -2.455  13.818  1.00  0.00     0.034 A 
BRANCH  50  64
ATOM     64  C   UNL     1       2.346  -7.503  10.275  1.00  0.00     0.023 A 
ATOM     65  C   UNL     1       3.362  -7.997   9.432  1.00  0.00     0.012 A 
ATOM     66  C   UNL     1       1.586  -8.406  11.044  1.00  0.00     0.148 A 
ATOM     67  C   UNL     1       3.596  -9.367   9.331  1.00  0.00     0.002 A 
ATOM     68  C   UNL     1       1.858  -9.767  10.975  1.00  0.00     0.091 A 
ATOM     69  F   UNL     1       0.609  -7.918  11.822  1.00  0.00    -0.205 F 
ATOM     70  C   UNL     1       2.853 -10.250  10.110  1.00  0.00     0.022 A 
BRANCH  68  71
ATOM     71  S   UNL     1       1.013 -10.976  12.000  1.00  0.00     0.127 S 
ATOM     72  O   UNL     1       0.230 -11.709  11.006  1.00  0.00    -0.237 OA
ATOM     73  O   UNL     1       2.132 -11.727  12.570  1.00  0.00    -0.237 OA
ATOM     74  O   UNL     1       0.236 -10.214  12.967  1.00  0.00    -0.744 OA
ENDBRANCH  68  71
ENDBRANCH  50  64
BRANCH  51  75
ATOM     75  C   UNL     1       0.282   2.241  10.812  1.00  0.00     0.023 A 
ATOM     76  C   UNL     1       1.292   3.208  10.984  1.00  0.00     0.012 A 
ATOM     77  C   UNL     1      -1.063   2.655  10.757  1.00  0.00     0.148 A 
ATOM     78  C   UNL     1       0.967   4.558  11.130  1.00  0.00     0.002 A 
ATOM     79  C   UNL     1      -1.376   4.006  10.846  1.00  0.00     0.091 A 
ATOM     80  F   UNL     1      -2.009   1.718  10.611  1.00  0.00    -0.205 F 
ATOM     81  C   UNL     1      -0.365   4.958  11.051  1.00  0.00     0.022 A 
BRANCH  79  82
ATOM     82  S   UNL     1      -3.048   4.627  10.636  1.00  0.00     0.127 S 
ATOM     83  O   UNL     1      -3.343   5.148  11.968  1.00  0.00    -0.237 OA
ATOM     84  O   UNL     1      -2.859   5.647   9.603  1.00  0.00    -0.237 OA
ATOM     85  O   UNL     1      -3.845   3.483  10.217  1.00  0.00    -0.744 OA
ENDBRANCH  79  82
ENDBRANCH  51  75
BRANCH  63  86
ATOM     86  C   UNL     1       3.196  -2.333  15.223  1.00  0.00     0.023 A 
ATOM     87  C   UNL     1       2.314  -2.161  16.308  1.00  0.00     0.012 A 
ATOM     88  C   UNL     1       4.577  -2.470  15.472  1.00  0.00     0.148 A 
ATOM     89  C   UNL     1       2.801  -2.091  17.614  1.00  0.00     0.002 A 
ATOM     90  C   UNL     1       5.050  -2.453  16.778  1.00  0.00     0.091 A 
ATOM     91  F   UNL     1       5.403  -2.619  14.426  1.00  0.00    -0.205 F 
ATOM     92  C   UNL     1       4.165  -2.248  17.849  1.00  0.00     0.022 A 
BRANCH  90  93
ATOM     93  S   UNL     1       6.774  -2.748  17.185  1.00  0.00     0.127 S 
ATOM     94  O   UNL     1       7.204  -1.425  17.639  1.00  0.00    -0.237 OA
ATOM     95  O   UNL     1       6.675  -3.752  18.244  1.00  0.00    -0.237 OA
ATOM     96  O   UNL     1       7.404  -3.220  15.960  1.00  0.00    -0.744 OA
ENDBRANCH  90  93
ENDBRANCH  63  86
ENDBRANCH  37  38
ENDBRANCH  30  32
ENDBRANCH  29  30
ENDBRANCH  28  29
ENDBRANCH  27  28
ENDBRANCH  26  27
ENDBRANCH  25  26
ENDBRANCH   1  25
TORSDOF 23
