REMARK SMILES Cc1ncccc1OC1(C(=O)OCCOCCOCCOC(=O)c2ccc(-c3c4nc(c(-c5cccc(S(=O)(=O)[O-])c5F)c5ccc([nH]5)c(-c5cccc(S(=O)(=O)[O-])c5F)c5nc(c(-c6cccc(S(=O)(=O)[O-])c6F)c6ccc3[nH]6)C=C5)C=C4)cc2)CCN(C(=O)c2ccc(O)nn2)CC1
REMARK SMILES IDX 17 1 16 2 15 3 14 4 13 5 12 6 10 7 11 8 9 9 87 10 100 11
REMARK SMILES IDX 88 12 99 13 89 14 90 15 91 16 8 17 7 18 1 19 2 20 3 21 4 22
REMARK SMILES IDX 6 23 5 24 92 25 93 26 98 27 94 28 97 29 95 30 96 31 18 33
REMARK SMILES IDX 19 34 20 35 21 36 22 37 23 38 24 39 25 40 86 41 26 42 85 43
REMARK SMILES IDX 27 44 28 45 29 46 79 47 30 48 84 49 78 50 80 51 31 52 83 53
REMARK SMILES IDX 77 54 76 55 32 57 64 58 44 59 63 60 45 61 48 62 62 63 81 64
REMARK SMILES IDX 46 65 47 66 61 68 82 69 49 70 33 71 34 72 42 73 35 74 37 75
REMARK SMILES IDX 43 76 36 77 38 78 39 79 40 80 41 81 65 82 66 83 74 84 67 85
REMARK SMILES IDX 69 86 75 87 68 88 70 89 71 90 72 91 73 92 50 93 51 94 59 95
REMARK SMILES IDX 52 96 54 97 60 98 53 99 55 100 56 101 57 102 58 103
REMARK H PARENT 96 32 80 56 48 67
REMARK Flexibility Score: inf
ROOT
ATOM      1  C   UNL     1       2.555  -5.084   2.311  1.00  0.00     0.188 C 
ENDROOT
BRANCH   1   2
ATOM      2  C   UNL     1       1.793  -5.952   1.306  1.00  0.00     0.188 C 
BRANCH   2   3
ATOM      3  O   UNL     1       2.489  -7.020   0.688  1.00  0.00    -0.376 OA
BRANCH   3   4
ATOM      4  C   UNL     1       3.760  -6.752   0.115  1.00  0.00     0.202 C 
BRANCH   4   5
ATOM      5  C   UNL     1       3.858  -5.612  -0.906  1.00  0.00     0.261 C 
BRANCH   5   6
ATOM      6  O   UNL     1       3.584  -4.284  -0.399  1.00  0.00    -0.460 OA
BRANCH   6   7
ATOM      7  C   UNL     1       2.481  -3.642  -0.904  1.00  0.00     0.350 C 
ATOM      8  O   UNL     1       1.683  -4.191  -1.658  1.00  0.00    -0.247 OA
BRANCH   7   9
ATOM      9  C   UNL     1       2.446  -2.100  -0.579  1.00  0.00     0.209 C 
ATOM     10  C   UNL     1       3.038  -1.802   0.797  1.00  0.00     0.082 C 
ATOM     11  C   UNL     1       3.276  -1.589  -1.750  1.00  0.00     0.082 C 
ATOM     12  C   UNL     1       3.834  -0.515   0.955  1.00  0.00     0.124 C 
ATOM     13  C   UNL     1       3.859  -0.220  -1.581  1.00  0.00     0.124 C 
ATOM     14  N   UNL     1       4.369   0.113  -0.248  1.00  0.00    -0.337 N 
ATOM     15  C   UNL     1       5.074   1.317  -0.040  1.00  0.00     0.274 C 
ATOM     16  O   UNL     1       5.400   1.744   1.064  1.00  0.00    -0.267 OA
BRANCH   9  17
ATOM     17  O   UNL     1       1.035  -1.845  -0.728  1.00  0.00    -0.474 OA
BRANCH  17  18
ATOM     18  C   UNL     1       0.094  -0.952  -0.356  1.00  0.00     0.142 A 
ATOM     19  C   UNL     1       1.244   1.345  -0.191  1.00  0.00     0.071 C 
ATOM     20  C   UNL     1       0.088   0.425  -0.127  1.00  0.00     0.079 A 
ATOM     21  N   UNL     1      -1.054   1.144   0.111  1.00  0.00    -0.258 NA
ATOM     22  C   UNL     1      -2.235   0.507   0.125  1.00  0.00     0.111 A 
ATOM     23  C   UNL     1      -1.173  -1.565  -0.310  1.00  0.00     0.050 A 
ATOM     24  C   UNL     1      -2.345  -0.846  -0.069  1.00  0.00     0.024 A 
ENDBRANCH  17  18
ENDBRANCH   9  17
BRANCH  15  25
ATOM     25  C   UNL     1       5.498   2.062  -1.244  1.00  0.00     0.151 A 
ATOM     26  C   UNL     1       6.788   1.870  -1.708  1.00  0.00     0.042 A 
ATOM     27  N   UNL     1       4.526   2.678  -1.965  1.00  0.00    -0.142 NA
ATOM     28  C   UNL     1       7.076   2.311  -2.990  1.00  0.00     0.072 A 
ATOM     29  N   UNL     1       4.819   3.117  -3.217  1.00  0.00    -0.112 NA
ATOM     30  C   UNL     1       6.060   2.914  -3.700  1.00  0.00     0.230 A 
BRANCH  30  31
ATOM     31  O   UNL     1       6.259   3.306  -4.985  1.00  0.00    -0.492 OA
ATOM     32  H   UNL     1       7.100   3.193  -5.383  1.00  0.00     0.295 HD
ENDBRANCH  30  31
ENDBRANCH  15  25
ENDBRANCH   7   9
ENDBRANCH   6   7
ENDBRANCH   5   6
ENDBRANCH   4   5
ENDBRANCH   3   4
ENDBRANCH   2   3
ENDBRANCH   1   2
BRANCH   1  33
ATOM     33  O   UNL     1       3.874  -5.514   2.593  1.00  0.00    -0.376 OA
BRANCH  33  34
ATOM     34  C   UNL     1       4.346  -5.281   3.914  1.00  0.00     0.202 C 
BRANCH  34  35
ATOM     35  C   UNL     1       3.765  -6.258   4.954  1.00  0.00     0.261 C 
BRANCH  35  36
ATOM     36  O   UNL     1       2.330  -6.237   5.098  1.00  0.00    -0.460 OA
BRANCH  36  37
ATOM     37  C   UNL     1       1.758  -5.070   5.491  1.00  0.00     0.338 C 
ATOM     38  O   UNL     1       2.350  -4.076   5.881  1.00  0.00    -0.246 OA
BRANCH  37  39
ATOM     39  C   UNL     1       0.329  -5.088   5.063  1.00  0.00     0.060 A 
ATOM     40  C   UNL     1      -0.176  -3.975   4.368  1.00  0.00     0.016 A 
ATOM     41  C   UNL     1      -0.478  -6.213   5.246  1.00  0.00     0.016 A 
ATOM     42  C   UNL     1      -1.495  -3.966   3.900  1.00  0.00     0.010 A 
ATOM     43  C   UNL     1      -1.805  -6.195   4.795  1.00  0.00     0.010 A 
ATOM     44  C   UNL     1      -2.334  -5.059   4.153  1.00  0.00    -0.014 A 
BRANCH  44  45
ATOM     45  C   UNL     1      -3.806  -4.938   3.964  1.00  0.00     0.031 A 
ATOM     46  C   UNL     1      -4.649  -4.631   5.177  1.00  0.00     0.074 A 
ATOM     47  C   UNL     1      -4.403  -5.111   2.770  1.00  0.00     0.049 A 
ATOM     48  N   UNL     1      -5.948  -4.544   5.289  1.00  0.00    -0.248 NA
ATOM     49  C   UNL     1      -3.920  -4.397   6.435  1.00  0.00     0.031 C 
ATOM     50  C   UNL     1      -3.722  -5.398   1.510  1.00  0.00     0.029 A 
ATOM     51  N   UNL     1      -5.738  -5.098   2.436  1.00  0.00    -0.354 N 
ATOM     52  C   UNL     1      -6.195  -4.286   6.633  1.00  0.00     0.074 A 
ATOM     53  C   UNL     1      -4.912  -4.237   7.297  1.00  0.00     0.031 C 
ATOM     54  C   UNL     1      -4.646  -5.567   0.545  1.00  0.00     0.029 A 
ATOM     55  C   UNL     1      -5.983  -5.429   1.123  1.00  0.00     0.049 A 
ATOM     56  H   UNL     1      -6.452  -4.874   3.076  1.00  0.00     0.167 HD
ATOM     57  C   UNL     1      -7.378  -4.094   7.262  1.00  0.00     0.034 A 
ATOM     58  C   UNL     1      -7.149  -5.624   0.470  1.00  0.00     0.034 A 
ATOM     59  C   UNL     1      -8.658  -4.122   6.609  1.00  0.00     0.049 A 
ATOM     60  C   UNL     1      -8.459  -5.443   1.202  1.00  0.00     0.074 A 
ATOM     61  C   UNL     1      -9.906  -3.883   7.158  1.00  0.00     0.029 A 
ATOM     62  N   UNL     1      -8.861  -4.425   5.273  1.00  0.00    -0.354 N 
ATOM     63  N   UNL     1      -8.672  -5.080   2.443  1.00  0.00    -0.248 NA
ATOM     64  C   UNL     1      -9.692  -5.671   0.429  1.00  0.00     0.031 C 
ATOM     65  C   UNL     1     -10.867  -4.080   6.162  1.00  0.00     0.029 A 
ATOM     66  C   UNL     1     -10.214  -4.399   4.982  1.00  0.00     0.049 A 
ATOM     67  H   UNL     1      -8.147  -4.630   4.626  1.00  0.00     0.167 HD
ATOM     68  C   UNL     1     -10.055  -4.994   2.587  1.00  0.00     0.074 A 
ATOM     69  C   UNL     1     -10.630  -5.329   1.302  1.00  0.00     0.031 C 
ATOM     70  C   UNL     1     -10.782  -4.676   3.688  1.00  0.00     0.034 A 
BRANCH  57  71
ATOM     71  C   UNL     1      -7.343  -3.826   8.743  1.00  0.00     0.023 A 
ATOM     72  C   UNL     1      -6.867  -2.589   9.223  1.00  0.00     0.012 A 
ATOM     73  C   UNL     1      -7.825  -4.784   9.657  1.00  0.00     0.148 A 
ATOM     74  C   UNL     1      -6.838  -2.323  10.591  1.00  0.00     0.002 A 
ATOM     75  C   UNL     1      -7.838  -4.492  11.015  1.00  0.00     0.091 A 
ATOM     76  F   UNL     1      -8.251  -5.963   9.182  1.00  0.00    -0.205 F 
ATOM     77  C   UNL     1      -7.333  -3.269  11.485  1.00  0.00     0.022 A 
BRANCH  75  78
ATOM     78  S   UNL     1      -8.530  -5.611  12.237  1.00  0.00     0.127 S 
ATOM     79  O   UNL     1      -7.328  -6.067  12.934  1.00  0.00    -0.237 OA
ATOM     80  O   UNL     1      -9.386  -4.719  13.019  1.00  0.00    -0.237 OA
ATOM     81  O   UNL     1      -9.243  -6.635  11.487  1.00  0.00    -0.744 OA
ENDBRANCH  75  78
ENDBRANCH  57  71
BRANCH  58  82
ATOM     82  C   UNL     1      -7.148  -5.994  -0.976  1.00  0.00     0.023 A 
ATOM     83  C   UNL     1      -7.631  -5.074  -1.929  1.00  0.00     0.012 A 
ATOM     84  C   UNL     1      -6.687  -7.252  -1.411  1.00  0.00     0.148 A 
ATOM     85  C   UNL     1      -7.683  -5.411  -3.282  1.00  0.00     0.002 A 
ATOM     86  C   UNL     1      -6.690  -7.561  -2.766  1.00  0.00     0.091 A 
ATOM     87  F   UNL     1      -6.253  -8.121  -0.488  1.00  0.00    -0.205 F 
ATOM     88  C   UNL     1      -7.204  -6.649  -3.702  1.00  0.00     0.022 A 
BRANCH  86  89
ATOM     89  S   UNL     1      -5.993  -9.084  -3.414  1.00  0.00     0.127 S 
ATOM     90  O   UNL     1      -7.181  -9.763  -3.927  1.00  0.00    -0.237 OA
ATOM     91  O   UNL     1      -5.081  -8.581  -4.441  1.00  0.00    -0.237 OA
ATOM     92  O   UNL     1      -5.338  -9.730  -2.286  1.00  0.00    -0.744 OA
ENDBRANCH  86  89
ENDBRANCH  58  82
BRANCH  70  93
ATOM     93  C   UNL     1     -12.284  -4.615   3.558  1.00  0.00     0.023 A 
ATOM     94  C   UNL     1     -13.031  -5.801   3.408  1.00  0.00     0.012 A 
ATOM     95  C   UNL     1     -12.963  -3.384   3.669  1.00  0.00     0.148 A 
ATOM     96  C   UNL     1     -14.425  -5.758   3.337  1.00  0.00     0.002 A 
ATOM     97  C   UNL     1     -14.353  -3.354   3.650  1.00  0.00     0.091 A 
ATOM     98  F   UNL     1     -12.237  -2.264   3.797  1.00  0.00    -0.205 F 
ATOM     99  C   UNL     1     -15.085  -4.538   3.470  1.00  0.00     0.022 A 
BRANCH  97 100
ATOM    100  S   UNL     1     -15.291  -1.844   3.913  1.00  0.00     0.127 S 
ATOM    101  O   UNL     1     -15.837  -1.596   2.580  1.00  0.00    -0.237 OA
ATOM    102  O   UNL     1     -16.279  -2.262   4.909  1.00  0.00    -0.237 OA
ATOM    103  O   UNL     1     -14.335  -0.854   4.390  1.00  0.00    -0.744 OA
ENDBRANCH  97 100
ENDBRANCH  70  93
ENDBRANCH  44  45
ENDBRANCH  37  39
ENDBRANCH  36  37
ENDBRANCH  35  36
ENDBRANCH  34  35
ENDBRANCH  33  34
ENDBRANCH   1  33
TORSDOF 24
