REMARK SMILES C[C@H]1[C@H](C)CC[C@@]2(C(=O)OCCOCCOCCOC(=O)c3ccc(-c4c5nc(c(-c6cccc(S(=O)(=O)[O-])c6F)c6ccc([nH]6)c(-c6cccc(S(=O)(=O)[O-])c6F)c6nc(c(-c7cccc(S(=O)(=O)[O-])c7F)c7ccc4[nH]7)C=C6)C=C5)cc3)CC[C@@]3(C)C(=CC[C@@H]4[C@@]5(C)CC[C@H](O)C(C)(C)[C@@H]5CC[C@]43C)[C@H]12
REMARK SMILES IDX 15 1 14 2 13 3 12 4 11 5 10 6 8 7 9 8 7 9 1 10 2 11 3 12
REMARK SMILES IDX 107 13 4 14 5 15 89 16 6 17 85 18 87 19 90 20 86 21 88 22
REMARK SMILES IDX 105 23 91 24 92 25 104 26 106 27 93 28 103 29 94 30 95 31
REMARK SMILES IDX 102 32 96 33 99 34 97 35 100 36 101 37 98 38 16 40 17 41
REMARK SMILES IDX 18 42 19 43 20 44 21 45 22 46 23 47 84 48 24 49 83 50 25 51
REMARK SMILES IDX 26 52 27 53 77 54 28 55 82 56 76 57 78 58 29 59 81 60 75 61
REMARK SMILES IDX 74 62 30 64 62 65 42 66 61 67 43 68 46 69 60 70 79 71 44 72
REMARK SMILES IDX 45 73 59 75 80 76 47 77 31 78 32 79 40 80 33 81 35 82 41 83
REMARK SMILES IDX 34 84 36 85 37 86 38 87 39 88 63 89 64 90 72 91 65 92 67 93
REMARK SMILES IDX 73 94 66 95 68 96 69 97 70 98 71 99 48 100 49 101 57 102
REMARK SMILES IDX 50 103 52 104 58 105 51 106 53 107 54 108 55 109 56 110
REMARK H PARENT 98 39 78 63 46 74
REMARK Flexibility Score: inf
ROOT
ATOM      1  C   UNL     1      -3.187  -1.047   3.132  1.00  0.00     0.188 C 
ENDROOT
BRANCH   1   2
ATOM      2  C   UNL     1      -3.092   0.482   3.425  1.00  0.00     0.188 C 
BRANCH   2   3
ATOM      3  O   UNL     1      -3.474   1.277   2.323  1.00  0.00    -0.376 OA
BRANCH   3   4
ATOM      4  C   UNL     1      -2.424   1.498   1.415  1.00  0.00     0.202 C 
BRANCH   4   5
ATOM      5  C   UNL     1      -1.484   0.330   1.139  1.00  0.00     0.261 C 
BRANCH   5   6
ATOM      6  O   UNL     1      -0.409  -0.072   2.086  1.00  0.00    -0.463 OA
BRANCH   6   7
ATOM      7  C   UNL     1      -0.046  -0.569   3.294  1.00  0.00     0.312 C 
ATOM      8  O   UNL     1      -0.754  -0.747   4.281  1.00  0.00    -0.252 OA
BRANCH   7   9
ATOM      9  C   UNL     1       1.429  -1.050   3.268  1.00  0.00     0.075 C 
ATOM     10  C   UNL     1       2.696  -0.034  -0.355  1.00  0.00     0.008 C 
ATOM     11  C   UNL     1       1.835  -0.675   0.733  1.00  0.00    -0.003 C 
ATOM     12  C   UNL     1       1.715  -2.231   0.531  1.00  0.00    -0.011 C 
ATOM     13  C   UNL     1       2.237  -0.214   2.229  1.00  0.00     0.036 C 
ATOM     14  C   UNL     1       1.008  -2.635  -0.779  1.00  0.00     0.008 C 
ATOM     15  C   UNL     1       0.926  -2.935   1.638  1.00  0.00     0.005 C 
ATOM     16  C   UNL     1       2.043   1.278   2.756  1.00  0.00    -0.063 C 
ATOM     17  C   UNL     1       1.422  -2.564   3.009  1.00  0.00     0.020 C 
ATOM     18  C   UNL     1       2.084  -0.902   4.661  1.00  0.00     0.020 C 
ATOM     19  C   UNL     1       2.497   1.619   4.239  1.00  0.00    -0.006 C 
ATOM     20  C   UNL     1       1.268   2.157   2.089  1.00  0.00    -0.027 C 
ATOM     21  C   UNL     1       2.024   0.507   5.214  1.00  0.00     0.013 C 
ATOM     22  C   UNL     1       4.046   1.612   4.249  1.00  0.00     0.017 C 
ATOM     23  C   UNL     1       1.923   3.072   4.785  1.00  0.00    -0.020 C 
ATOM     24  C   UNL     1       0.532   3.296   2.749  1.00  0.00     0.032 C 
ATOM     25  C   UNL     1       0.436   3.180   4.294  1.00  0.00     0.006 C 
ATOM     26  C   UNL     1       1.960   3.228   6.328  1.00  0.00     0.008 C 
ATOM     27  C   UNL     1       2.800   4.231   4.223  1.00  0.00     0.012 C 
ATOM     28  C   UNL     1      -0.556   4.237   4.999  1.00  0.00    -0.025 C 
ATOM     29  C   UNL     1       1.263   4.505   6.829  1.00  0.00     0.005 C 
ATOM     30  C   UNL     1      -0.591   5.531   4.158  1.00  0.00     0.012 C 
ATOM     31  C   UNL     1      -2.021   3.671   5.013  1.00  0.00     0.010 C 
ATOM     32  C   UNL     1      -0.240   4.441   6.534  1.00  0.00     0.003 C 
ATOM     33  C   UNL     1      -3.041   4.591   5.706  1.00  0.00     0.033 C 
ATOM     34  C   UNL     1      -1.141   5.522   7.268  1.00  0.00    -0.006 C 
ATOM     35  C   UNL     1      -2.633   5.080   7.103  1.00  0.00     0.120 C 
ATOM     36  C   UNL     1      -0.877   6.981   6.821  1.00  0.00     0.014 C 
ATOM     37  C   UNL     1      -0.855   5.537   8.795  1.00  0.00     0.014 C 
BRANCH  35  38
ATOM     38  O   UNL     1      -3.560   6.093   7.505  1.00  0.00    -0.393 OA
ATOM     39  H   UNL     1      -3.498   6.847   6.899  1.00  0.00     0.210 HD
ENDBRANCH  35  38
ENDBRANCH   7   9
ENDBRANCH   6   7
ENDBRANCH   5   6
ENDBRANCH   4   5
ENDBRANCH   3   4
ENDBRANCH   2   3
ENDBRANCH   1   2
BRANCH   1  40
ATOM     40  O   UNL     1      -4.073  -1.514   2.122  1.00  0.00    -0.376 OA
BRANCH  40  41
ATOM     41  C   UNL     1      -5.313  -0.854   1.978  1.00  0.00     0.202 C 
BRANCH  41  42
ATOM     42  C   UNL     1      -6.227  -0.811   3.212  1.00  0.00     0.261 C 
BRANCH  42  43
ATOM     43  O   UNL     1      -5.649  -0.257   4.420  1.00  0.00    -0.460 OA
BRANCH  43  44
ATOM     44  C   UNL     1      -5.287  -1.142   5.391  1.00  0.00     0.338 C 
ATOM     45  O   UNL     1      -5.510  -2.343   5.372  1.00  0.00    -0.246 OA
BRANCH  44  46
ATOM     46  C   UNL     1      -4.390  -0.524   6.422  1.00  0.00     0.060 A 
ATOM     47  C   UNL     1      -3.212  -1.205   6.780  1.00  0.00     0.016 A 
ATOM     48  C   UNL     1      -4.717   0.655   7.093  1.00  0.00     0.016 A 
ATOM     49  C   UNL     1      -2.431  -0.785   7.868  1.00  0.00     0.010 A 
ATOM     50  C   UNL     1      -3.944   1.066   8.197  1.00  0.00     0.010 A 
ATOM     51  C   UNL     1      -2.839   0.307   8.640  1.00  0.00    -0.014 A 
BRANCH  51  52
ATOM     52  C   UNL     1      -2.333   0.463  10.041  1.00  0.00     0.031 A 
ATOM     53  C   UNL     1      -3.203  -0.059  11.164  1.00  0.00     0.074 A 
ATOM     54  C   UNL     1      -1.149   1.026  10.355  1.00  0.00     0.049 A 
ATOM     55  N   UNL     1      -3.033   0.013  12.460  1.00  0.00    -0.248 NA
ATOM     56  C   UNL     1      -4.436  -0.757  10.762  1.00  0.00     0.031 C 
ATOM     57  C   UNL     1      -0.167   1.530   9.403  1.00  0.00     0.029 A 
ATOM     58  N   UNL     1      -0.589   1.293  11.587  1.00  0.00    -0.354 N 
ATOM     59  C   UNL     1      -4.152  -0.589  13.024  1.00  0.00     0.074 A 
ATOM     60  C   UNL     1      -5.001  -1.010  11.932  1.00  0.00     0.031 C 
ATOM     61  C   UNL     1       0.851   2.094  10.082  1.00  0.00     0.029 A 
ATOM     62  C   UNL     1       0.588   2.006  11.519  1.00  0.00     0.049 A 
ATOM     63  H   UNL     1      -0.992   1.001  12.436  1.00  0.00     0.167 HD
ATOM     64  C   UNL     1      -4.451  -0.796  14.329  1.00  0.00     0.034 A 
ATOM     65  C   UNL     1       1.352   2.543  12.495  1.00  0.00     0.034 A 
ATOM     66  C   UNL     1      -3.609  -0.418  15.430  1.00  0.00     0.049 A 
ATOM     67  C   UNL     1       0.978   2.339  13.948  1.00  0.00     0.074 A 
ATOM     68  C   UNL     1      -3.813  -0.639  16.782  1.00  0.00     0.029 A 
ATOM     69  N   UNL     1      -2.414   0.270  15.315  1.00  0.00    -0.354 N 
ATOM     70  N   UNL     1      -0.024   1.667  14.461  1.00  0.00    -0.248 NA
ATOM     71  C   UNL     1       1.869   2.937  14.959  1.00  0.00     0.031 C 
ATOM     72  C   UNL     1      -2.757  -0.053  17.486  1.00  0.00     0.029 A 
ATOM     73  C   UNL     1      -1.875   0.497  16.571  1.00  0.00     0.049 A 
ATOM     74  H   UNL     1      -2.006   0.556  14.466  1.00  0.00     0.167 HD
ATOM     75  C   UNL     1       0.143   1.721  15.844  1.00  0.00     0.074 A 
ATOM     76  C   UNL     1       1.350   2.479  16.091  1.00  0.00     0.031 C 
ATOM     77  C   UNL     1      -0.641   1.195  16.819  1.00  0.00     0.034 A 
BRANCH  64  78
ATOM     78  C   UNL     1      -5.753  -1.488  14.641  1.00  0.00     0.023 A 
ATOM     79  C   UNL     1      -5.897  -2.865  14.373  1.00  0.00     0.012 A 
ATOM     80  C   UNL     1      -6.815  -0.784  15.241  1.00  0.00     0.148 A 
ATOM     81  C   UNL     1      -7.093  -3.521  14.661  1.00  0.00     0.002 A 
ATOM     82  C   UNL     1      -7.986  -1.457  15.570  1.00  0.00     0.091 A 
ATOM     83  F   UNL     1      -6.665   0.528  15.469  1.00  0.00    -0.205 F 
ATOM     84  C   UNL     1      -8.131  -2.821  15.268  1.00  0.00     0.022 A 
BRANCH  82  85
ATOM     85  S   UNL     1      -9.347  -0.664  16.432  1.00  0.00     0.127 S 
ATOM     86  O   UNL     1     -10.363  -0.599  15.382  1.00  0.00    -0.237 OA
ATOM     87  O   UNL     1      -9.635  -1.623  17.499  1.00  0.00    -0.237 OA
ATOM     88  O   UNL     1      -8.840   0.621  16.891  1.00  0.00    -0.744 OA
ENDBRANCH  82  85
ENDBRANCH  64  78
BRANCH  65  89
ATOM     89  C   UNL     1       2.586   3.313  12.150  1.00  0.00     0.023 A 
ATOM     90  C   UNL     1       3.849   2.787  12.487  1.00  0.00     0.012 A 
ATOM     91  C   UNL     1       2.516   4.571  11.518  1.00  0.00     0.148 A 
ATOM     92  C   UNL     1       5.015   3.514  12.238  1.00  0.00     0.002 A 
ATOM     93  C   UNL     1       3.684   5.266  11.223  1.00  0.00     0.091 A 
ATOM     94  F   UNL     1       1.306   5.062  11.218  1.00  0.00    -0.205 F 
ATOM     95  C   UNL     1       4.933   4.748  11.601  1.00  0.00     0.022 A 
BRANCH  93  96
ATOM     96  S   UNL     1       3.698   6.815  10.314  1.00  0.00     0.127 S 
ATOM     97  O   UNL     1       4.320   7.724  11.275  1.00  0.00    -0.237 OA
ATOM     98  O   UNL     1       4.532   6.472   9.162  1.00  0.00    -0.237 OA
ATOM     99  O   UNL     1       2.309   7.106   9.993  1.00  0.00    -0.744 OA
ENDBRANCH  93  96
ENDBRANCH  65  89
BRANCH  77 100
ATOM    100  C   UNL     1      -0.207   1.361  18.257  1.00  0.00     0.023 A 
ATOM    101  C   UNL     1      -0.279   2.624  18.877  1.00  0.00     0.012 A 
ATOM    102  C   UNL     1       0.194   0.244  19.020  1.00  0.00     0.148 A 
ATOM    103  C   UNL     1       0.072   2.779  20.220  1.00  0.00     0.002 A 
ATOM    104  C   UNL     1       0.494   0.396  20.369  1.00  0.00     0.091 A 
ATOM    105  F   UNL     1       0.272  -0.950  18.413  1.00  0.00    -0.205 F 
ATOM    106  C   UNL     1       0.447   1.665  20.967  1.00  0.00     0.022 A 
BRANCH 104 107
ATOM    107  S   UNL     1       0.891  -0.997  21.434  1.00  0.00     0.127 S 
ATOM    108  O   UNL     1       2.325  -0.807  21.650  1.00  0.00    -0.237 OA
ATOM    109  O   UNL     1       0.059  -0.737  22.610  1.00  0.00    -0.237 OA
ATOM    110  O   UNL     1       0.524  -2.192  20.687  1.00  0.00    -0.744 OA
ENDBRANCH 104 107
ENDBRANCH  77 100
ENDBRANCH  51  52
ENDBRANCH  44  46
ENDBRANCH  43  44
ENDBRANCH  42  43
ENDBRANCH  41  42
ENDBRANCH  40  41
ENDBRANCH   1  40
TORSDOF 21
