REMARK SMILES COc1cccc(C(=O)Nc2ccc(NC(=O)[C@@H]3[C@@H](C(=O)OCCOCCOCCOC(=O)c4ccc(-c5c6nc(c(-c7cccc(S(=O)(=O)[O-])c7F)c7ccc([nH]7)c(-c7cccc(S(=O)(=O)[O-])c7F)c7nc(c(-c8cccc(S(=O)(=O)[O-])c8F)c8ccc5[nH]8)C=C7)C=C6)cc4)[C@@H]4C=C[C@H]3C4)cc2)c1
REMARK SMILES IDX 26 1 25 2 24 3 23 4 22 5 20 6 21 7 19 8 18 9 100 10 97 11
REMARK SMILES IDX 99 12 101 13 98 14 16 15 15 16 17 18 14 19 11 20 12 21
REMARK SMILES IDX 103 22 13 23 102 24 10 25 8 26 9 27 7 29 3 30 4 31 104 32
REMARK SMILES IDX 5 33 6 34 2 35 1 36 27 37 28 38 29 39 30 40 31 41 32 42
REMARK SMILES IDX 33 43 34 44 35 45 96 46 36 47 95 48 37 49 38 50 39 51 89 52
REMARK SMILES IDX 40 53 94 54 88 55 90 56 41 57 93 58 87 59 86 60 42 62 74 63
REMARK SMILES IDX 54 64 73 65 55 66 58 67 72 68 91 69 56 70 57 71 71 73 92 74
REMARK SMILES IDX 59 75 43 76 44 77 52 78 45 79 47 80 53 81 46 82 48 83 49 84
REMARK SMILES IDX 50 85 51 86 75 87 76 88 84 89 77 90 79 91 85 92 78 93 80 94
REMARK SMILES IDX 81 95 82 96 83 97 60 98 61 99 69 100 62 101 64 102 70 103
REMARK SMILES IDX 63 104 65 105 66 106 67 107 68 108
REMARK H PARENT 15 17 10 28 90 61 58 72
REMARK Flexibility Score: inf
ROOT
ATOM      1  C   UNL     1       3.467  -3.514  -5.926  1.00  0.00     0.188 C 
ENDROOT
BRANCH   1   2
ATOM      2  O   UNL     1       3.996  -4.199  -7.035  1.00  0.00    -0.376 OA
BRANCH   2   3
ATOM      3  C   UNL     1       5.292  -3.919  -7.529  1.00  0.00     0.202 C 
BRANCH   3   4
ATOM      4  C   UNL     1       6.287  -2.928  -6.907  1.00  0.00     0.261 C 
BRANCH   4   5
ATOM      5  O   UNL     1       6.021  -2.494  -5.576  1.00  0.00    -0.463 OA
BRANCH   5   6
ATOM      6  C   UNL     1       5.742  -1.165  -5.416  1.00  0.00     0.310 C 
ATOM      7  O   UNL     1       5.627  -0.360  -6.328  1.00  0.00    -0.252 OA
BRANCH   6   8
ATOM      8  C   UNL     1       5.585  -0.857  -3.938  1.00  0.00     0.119 C 
ATOM      9  C   UNL     1       5.433   0.655  -3.626  1.00  0.00     0.100 C 
ATOM     10  C   UNL     1       6.689   0.961  -2.764  1.00  0.00     0.025 C 
ATOM     11  C   UNL     1       6.934  -1.213  -3.255  1.00  0.00     0.027 C 
ATOM     12  C   UNL     1       6.703   0.197  -1.466  1.00  0.00    -0.027 C 
ATOM     13  C   UNL     1       7.725   0.083  -3.491  1.00  0.00     0.017 C 
ATOM     14  C   UNL     1       6.817  -1.106  -1.761  1.00  0.00    -0.027 C 
BRANCH   9  15
ATOM     15  C   UNL     1       4.060   1.202  -3.192  1.00  0.00     0.228 C 
ATOM     16  N   UNL     1       3.563   1.207  -1.925  1.00  0.00    -0.326 N 
ATOM     17  H   UNL     1       2.985   1.979  -1.727  1.00  0.00     0.169 HD
ATOM     18  O   UNL     1       3.373   1.797  -4.033  1.00  0.00    -0.274 OA
BRANCH  16  19
ATOM     19  C   UNL     1       3.716   0.329  -0.853  1.00  0.00     0.041 A 
ATOM     20  C   UNL     1       4.128  -1.361   1.319  1.00  0.00     0.041 A 
ATOM     21  C   UNL     1       4.022  -1.896   0.037  1.00  0.00     0.028 A 
ATOM     22  C   UNL     1       3.985   0.008   1.535  1.00  0.00     0.028 A 
ATOM     23  C   UNL     1       3.768  -1.050  -1.038  1.00  0.00     0.028 A 
ATOM     24  C   UNL     1       3.748   0.852   0.445  1.00  0.00     0.028 A 
BRANCH  20  25
ATOM     25  N   UNL     1       4.336  -2.226   2.390  1.00  0.00    -0.322 N 
ATOM     26  C   UNL     1       3.437  -3.145   2.900  1.00  0.00     0.255 C 
ATOM     27  O   UNL     1       3.886  -4.131   3.486  1.00  0.00    -0.269 OA
ATOM     28  H   UNL     1       5.215  -2.179   2.832  1.00  0.00     0.170 HD
BRANCH  26  29
ATOM     29  C   UNL     1       1.958  -2.896   2.900  1.00  0.00     0.043 A 
ATOM     30  C   UNL     1      -0.078  -1.816   2.108  1.00  0.00     0.119 A 
ATOM     31  C   UNL     1      -0.759  -2.303   3.222  1.00  0.00     0.046 A 
ATOM     32  C   UNL     1       1.261  -2.159   1.932  1.00  0.00     0.060 A 
ATOM     33  C   UNL     1      -0.110  -3.116   4.150  1.00  0.00     0.005 A 
ATOM     34  C   UNL     1       1.245  -3.403   3.995  1.00  0.00     0.014 A 
BRANCH  30  35
ATOM     35  O   UNL     1      -0.815  -1.005   1.291  1.00  0.00    -0.497 OA
ATOM     36  C   UNL     1      -0.187  -0.430   0.149  1.00  0.00     0.278 C 
ENDBRANCH  30  35
ENDBRANCH  26  29
ENDBRANCH  20  25
ENDBRANCH  16  19
ENDBRANCH   9  15
ENDBRANCH   6   8
ENDBRANCH   5   6
ENDBRANCH   4   5
ENDBRANCH   3   4
ENDBRANCH   2   3
ENDBRANCH   1   2
BRANCH   1  37
ATOM     37  C   UNL     1       3.765  -4.127  -4.539  1.00  0.00     0.188 C 
BRANCH  37  38
ATOM     38  O   UNL     1       4.596  -5.268  -4.408  1.00  0.00    -0.376 OA
BRANCH  38  39
ATOM     39  C   UNL     1       4.329  -6.407  -5.213  1.00  0.00     0.202 C 
BRANCH  39  40
ATOM     40  C   UNL     1       2.905  -6.981  -5.319  1.00  0.00     0.261 C 
BRANCH  40  41
ATOM     41  O   UNL     1       1.871  -6.032  -5.622  1.00  0.00    -0.460 OA
BRANCH  41  42
ATOM     42  C   UNL     1       0.957  -5.816  -4.641  1.00  0.00     0.338 C 
ATOM     43  O   UNL     1       0.920  -6.340  -3.541  1.00  0.00    -0.246 OA
BRANCH  42  44
ATOM     44  C   UNL     1       0.093  -4.678  -5.019  1.00  0.00     0.060 A 
ATOM     45  C   UNL     1       0.139  -3.510  -4.243  1.00  0.00     0.016 A 
ATOM     46  C   UNL     1      -0.762  -4.763  -6.117  1.00  0.00     0.016 A 
ATOM     47  C   UNL     1      -0.664  -2.416  -4.570  1.00  0.00     0.010 A 
ATOM     48  C   UNL     1      -1.588  -3.677  -6.423  1.00  0.00     0.010 A 
ATOM     49  C   UNL     1      -1.554  -2.504  -5.647  1.00  0.00    -0.014 A 
BRANCH  49  50
ATOM     50  C   UNL     1      -2.539  -1.427  -5.911  1.00  0.00     0.031 A 
ATOM     51  C   UNL     1      -3.949  -1.597  -5.421  1.00  0.00     0.074 A 
ATOM     52  C   UNL     1      -2.202  -0.344  -6.634  1.00  0.00     0.049 A 
ATOM     53  N   UNL     1      -5.002  -0.859  -5.654  1.00  0.00    -0.248 NA
ATOM     54  C   UNL     1      -4.206  -2.759  -4.553  1.00  0.00     0.031 C 
ATOM     55  C   UNL     1      -0.866  -0.052  -7.149  1.00  0.00     0.029 A 
ATOM     56  N   UNL     1      -2.977   0.692  -7.099  1.00  0.00    -0.354 N 
ATOM     57  C   UNL     1      -6.055  -1.485  -5.000  1.00  0.00     0.074 A 
ATOM     58  C   UNL     1      -5.512  -2.661  -4.353  1.00  0.00     0.031 C 
ATOM     59  C   UNL     1      -0.923   1.060  -7.902  1.00  0.00     0.029 A 
ATOM     60  C   UNL     1      -2.305   1.537  -7.952  1.00  0.00     0.049 A 
ATOM     61  H   UNL     1      -3.921   0.816  -6.847  1.00  0.00     0.167 HD
ATOM     62  C   UNL     1      -7.355  -1.113  -4.939  1.00  0.00     0.034 A 
ATOM     63  C   UNL     1      -2.760   2.549  -8.719  1.00  0.00     0.034 A 
ATOM     64  C   UNL     1      -7.891   0.061  -5.573  1.00  0.00     0.049 A 
ATOM     65  C   UNL     1      -4.224   2.909  -8.679  1.00  0.00     0.074 A 
ATOM     66  C   UNL     1      -9.183   0.553  -5.517  1.00  0.00     0.029 A 
ATOM     67  N   UNL     1      -7.175   0.911  -6.400  1.00  0.00    -0.354 N 
ATOM     68  N   UNL     1      -5.186   2.387  -7.955  1.00  0.00    -0.248 NA
ATOM     69  C   UNL     1      -4.665   4.010  -9.550  1.00  0.00     0.031 C 
ATOM     70  C   UNL     1      -9.257   1.680  -6.342  1.00  0.00     0.029 A 
ATOM     71  C   UNL     1      -8.003   1.909  -6.886  1.00  0.00     0.049 A 
ATOM     72  H   UNL     1      -6.217   0.820  -6.612  1.00  0.00     0.167 HD
ATOM     73  C   UNL     1      -6.334   3.112  -8.262  1.00  0.00     0.074 A 
ATOM     74  C   UNL     1      -5.945   4.125  -9.220  1.00  0.00     0.031 C 
ATOM     75  C   UNL     1      -7.599   2.943  -7.804  1.00  0.00     0.034 A 
BRANCH  62  76
ATOM     76  C   UNL     1      -8.295  -1.982  -4.147  1.00  0.00     0.023 A 
ATOM     77  C   UNL     1      -8.235  -1.977  -2.739  1.00  0.00     0.012 A 
ATOM     78  C   UNL     1      -9.278  -2.755  -4.796  1.00  0.00     0.148 A 
ATOM     79  C   UNL     1      -9.119  -2.751  -1.989  1.00  0.00     0.002 A 
ATOM     80  C   UNL     1     -10.183  -3.490  -4.041  1.00  0.00     0.091 A 
ATOM     81  F   UNL     1      -9.304  -2.763  -6.136  1.00  0.00    -0.205 F 
ATOM     82  C   UNL     1     -10.098  -3.498  -2.639  1.00  0.00     0.022 A 
BRANCH  80  83
ATOM     83  S   UNL     1     -11.528  -4.424  -4.779  1.00  0.00     0.127 S 
ATOM     84  O   UNL     1     -11.102  -5.801  -4.530  1.00  0.00    -0.237 OA
ATOM     85  O   UNL     1     -12.677  -3.989  -3.984  1.00  0.00    -0.237 OA
ATOM     86  O   UNL     1     -11.572  -4.028  -6.179  1.00  0.00    -0.744 OA
ENDBRANCH  80  83
ENDBRANCH  62  76
BRANCH  63  87
ATOM     87  C   UNL     1      -1.819   3.302  -9.596  1.00  0.00     0.023 A 
ATOM     88  C   UNL     1      -1.522   4.647  -9.301  1.00  0.00     0.012 A 
ATOM     89  C   UNL     1      -1.216   2.696 -10.717  1.00  0.00     0.148 A 
ATOM     90  C   UNL     1      -0.664   5.382 -10.120  1.00  0.00     0.002 A 
ATOM     91  C   UNL     1      -0.322   3.418 -11.498  1.00  0.00     0.091 A 
ATOM     92  F   UNL     1      -1.529   1.422 -10.994  1.00  0.00    -0.205 F 
ATOM     93  C   UNL     1      -0.057   4.766 -11.211  1.00  0.00     0.022 A 
BRANCH  91  94
ATOM     94  S   UNL     1       0.592   2.678 -12.857  1.00  0.00     0.127 S 
ATOM     95  O   UNL     1      -0.003   3.342 -14.014  1.00  0.00    -0.237 OA
ATOM     96  O   UNL     1       1.965   3.083 -12.553  1.00  0.00    -0.237 OA
ATOM     97  O   UNL     1       0.352   1.245 -12.761  1.00  0.00    -0.744 OA
ENDBRANCH  91  94
ENDBRANCH  63  87
BRANCH  75  98
ATOM     98  C   UNL     1      -8.668   3.880  -8.307  1.00  0.00     0.023 A 
ATOM     99  C   UNL     1      -9.150   3.745  -9.624  1.00  0.00     0.012 A 
ATOM    100  C   UNL     1      -9.264   4.823  -7.447  1.00  0.00     0.148 A 
ATOM    101  C   UNL     1     -10.193   4.549 -10.084  1.00  0.00     0.002 A 
ATOM    102  C   UNL     1     -10.335   5.588  -7.896  1.00  0.00     0.091 A 
ATOM    103  F   UNL     1      -8.784   4.944  -6.200  1.00  0.00    -0.205 F 
ATOM    104  C   UNL     1     -10.793   5.459  -9.217  1.00  0.00     0.022 A 
BRANCH 102 105
ATOM    105  S   UNL     1     -11.236   6.719  -6.829  1.00  0.00     0.127 S 
ATOM    106  O   UNL     1     -10.906   8.014  -7.423  1.00  0.00    -0.237 OA
ATOM    107  O   UNL     1     -12.621   6.293  -7.027  1.00  0.00    -0.237 OA
ATOM    108  O   UNL     1     -10.720   6.505  -5.484  1.00  0.00    -0.744 OA
ENDBRANCH 102 105
ENDBRANCH  75  98
ENDBRANCH  49  50
ENDBRANCH  42  44
ENDBRANCH  41  42
ENDBRANCH  40  41
ENDBRANCH  39  40
ENDBRANCH  38  39
ENDBRANCH  37  38
ENDBRANCH   1  37
TORSDOF 25
