REMARK SMILES O=C(Cc1ccccc1Nc1c(Cl)cccc1C(F)(F)F)OCCOCCOCCOC(=O)c1ccc(-c2c3nc(c(-c4cccc(S(=O)(=O)[O-])c4F)c4ccc([nH]4)c(-c4cccc(S(=O)(=O)[O-])c4F)c4nc(c(-c5cccc(S(=O)(=O)[O-])c5F)c5ccc2[nH]5)C=C4)C=C3)cc1
REMARK SMILES IDX 26 1 25 2 24 3 23 4 22 5 2 6 1 7 3 8 4 9 5 10 9 11 6 12 8 13
REMARK SMILES IDX 7 14 10 15 11 17 12 18 17 19 13 20 14 21 16 22 15 23 18 24
REMARK SMILES IDX 19 25 20 26 21 27 27 28 28 29 29 30 30 31 31 32 32 33 33 34
REMARK SMILES IDX 34 35 35 36 96 37 36 38 95 39 37 40 38 41 39 42 89 43 40 44
REMARK SMILES IDX 94 45 88 46 90 47 41 48 93 49 87 50 86 51 42 53 74 54 54 55
REMARK SMILES IDX 73 56 55 57 58 58 72 59 91 60 56 61 57 62 71 64 92 65 59 66
REMARK SMILES IDX 43 67 44 68 52 69 45 70 47 71 53 72 46 73 48 74 49 75 50 76
REMARK SMILES IDX 51 77 75 78 76 79 84 80 77 81 79 82 85 83 78 84 80 85 81 86
REMARK SMILES IDX 82 87 83 88 60 89 61 90 69 91 62 92 64 93 70 94 63 95 65 96
REMARK SMILES IDX 66 97 67 98 68 99
REMARK H PARENT 10 16 90 52 58 63
REMARK Flexibility Score: inf
ROOT
ATOM      1  C   UNL     1       3.230   0.972  -1.727  1.00  0.00     0.188 C 
ENDROOT
BRANCH   1   2
ATOM      2  O   UNL     1       4.521   0.404  -1.597  1.00  0.00    -0.376 OA
BRANCH   2   3
ATOM      3  C   UNL     1       4.984   0.197  -0.276  1.00  0.00     0.202 C 
BRANCH   3   4
ATOM      4  C   UNL     1       4.500  -1.156   0.232  1.00  0.00     0.261 C 
BRANCH   4   5
ATOM      5  O   UNL     1       3.065  -1.307   0.337  1.00  0.00    -0.463 OA
BRANCH   5   6
ATOM      6  C   UNL     1       2.236  -0.711   1.220  1.00  0.00     0.310 C 
ATOM      7  O   UNL     1       1.061  -1.074   1.279  1.00  0.00    -0.252 OA
BRANCH   6   8
ATOM      8  C   UNL     1       2.725   0.449   2.051  1.00  0.00     0.160 C 
BRANCH   8   9
ATOM      9  C   UNL     1       3.816   0.175   3.063  1.00  0.00    -0.013 A 
ATOM     10  C   UNL     1       3.903  -1.104   3.648  1.00  0.00     0.006 A 
ATOM     11  C   UNL     1       4.674   1.208   3.517  1.00  0.00     0.042 A 
ATOM     12  C   UNL     1       4.847  -1.378   4.632  1.00  0.00     0.000 A 
ATOM     13  C   UNL     1       5.585   0.914   4.540  1.00  0.00     0.026 A 
ATOM     14  C   UNL     1       5.679  -0.366   5.086  1.00  0.00     0.002 A 
BRANCH  11  15
ATOM     15  N   UNL     1       4.627   2.492   2.925  1.00  0.00    -0.354 N 
ATOM     16  H   UNL     1       3.939   2.597   2.229  1.00  0.00     0.167 HD
BRANCH  15  17
ATOM     17  C   UNL     1       5.408   3.656   3.167  1.00  0.00     0.070 A 
ATOM     18  C   UNL     1       4.729   4.809   3.636  1.00  0.00     0.065 A 
ATOM     19  C   UNL     1       6.806   3.720   3.022  1.00  0.00     0.080 A 
ATOM     20  Cl  UNL     1       3.015   4.757   3.854  1.00  0.00    -0.082 Cl
ATOM     21  C   UNL     1       5.401   5.988   3.946  1.00  0.00     0.023 A 
ATOM     22  C   UNL     1       7.477   4.915   3.380  1.00  0.00     0.015 A 
ATOM     23  C   UNL     1       6.782   6.037   3.831  1.00  0.00     0.002 A 
BRANCH  19  24
ATOM     24  C   UNL     1       7.646   2.590   2.487  1.00  0.00     0.418 C 
ATOM     25  F   UNL     1       8.741   3.041   1.796  1.00  0.00    -0.166 F 
ATOM     26  F   UNL     1       8.167   1.801   3.471  1.00  0.00    -0.166 F 
ATOM     27  F   UNL     1       7.018   1.751   1.616  1.00  0.00    -0.166 F 
ENDBRANCH  19  24
ENDBRANCH  15  17
ENDBRANCH  11  15
ENDBRANCH   8   9
ENDBRANCH   6   8
ENDBRANCH   5   6
ENDBRANCH   4   5
ENDBRANCH   3   4
ENDBRANCH   2   3
ENDBRANCH   1   2
BRANCH   1  28
ATOM     28  C   UNL     1       2.455   0.373  -2.913  1.00  0.00     0.188 C 
BRANCH  28  29
ATOM     29  O   UNL     1       3.148  -0.291  -3.965  1.00  0.00    -0.376 OA
BRANCH  29  30
ATOM     30  C   UNL     1       4.423   0.177  -4.380  1.00  0.00     0.202 C 
BRANCH  30  31
ATOM     31  C   UNL     1       4.501   1.584  -4.980  1.00  0.00     0.261 C 
BRANCH  31  32
ATOM     32  O   UNL     1       4.080   2.636  -4.093  1.00  0.00    -0.460 OA
BRANCH  32  33
ATOM     33  C   UNL     1       2.959   3.296  -4.477  1.00  0.00     0.338 C 
ATOM     34  O   UNL     1       2.294   3.088  -5.477  1.00  0.00    -0.246 OA
BRANCH  33  35
ATOM     35  C   UNL     1       2.528   4.261  -3.443  1.00  0.00     0.060 A 
ATOM     36  C   UNL     1       1.229   4.133  -2.935  1.00  0.00     0.016 A 
ATOM     37  C   UNL     1       3.322   5.350  -3.076  1.00  0.00     0.016 A 
ATOM     38  C   UNL     1       0.697   5.123  -2.107  1.00  0.00     0.010 A 
ATOM     39  C   UNL     1       2.780   6.349  -2.253  1.00  0.00     0.010 A 
ATOM     40  C   UNL     1       1.450   6.264  -1.800  1.00  0.00    -0.014 A 
BRANCH  40  41
ATOM     41  C   UNL     1       0.790   7.424  -1.143  1.00  0.00     0.031 A 
ATOM     42  C   UNL     1       0.318   8.580  -1.986  1.00  0.00     0.074 A 
ATOM     43  C   UNL     1       0.567   7.447   0.184  1.00  0.00     0.049 A 
ATOM     44  N   UNL     1      -0.295   9.675  -1.615  1.00  0.00    -0.248 NA
ATOM     45  C   UNL     1       0.549   8.482  -3.436  1.00  0.00     0.031 C 
ATOM     46  C   UNL     1       0.919   6.383   1.120  1.00  0.00     0.029 A 
ATOM     47  N   UNL     1      -0.002   8.417   0.975  1.00  0.00    -0.354 N 
ATOM     48  C   UNL     1      -0.532  10.392  -2.781  1.00  0.00     0.074 A 
ATOM     49  C   UNL     1       0.036   9.625  -3.870  1.00  0.00     0.031 C 
ATOM     50  C   UNL     1       0.596   6.779   2.363  1.00  0.00     0.029 A 
ATOM     51  C   UNL     1       0.052   8.131   2.317  1.00  0.00     0.049 A 
ATOM     52  H   UNL     1      -0.408   9.238   0.614  1.00  0.00     0.167 HD
ATOM     53  C   UNL     1      -1.194  11.563  -2.942  1.00  0.00     0.034 A 
ATOM     54  C   UNL     1      -0.272   8.872   3.394  1.00  0.00     0.034 A 
ATOM     55  C   UNL     1      -1.774  12.331  -1.872  1.00  0.00     0.049 A 
ATOM     56  C   UNL     1      -0.920  10.216   3.199  1.00  0.00     0.074 A 
ATOM     57  C   UNL     1      -2.491  13.512  -1.952  1.00  0.00     0.029 A 
ATOM     58  N   UNL     1      -1.696  12.005  -0.528  1.00  0.00    -0.354 N 
ATOM     59  N   UNL     1      -1.245  10.818   2.082  1.00  0.00    -0.248 NA
ATOM     60  C   UNL     1      -1.299  10.957   4.412  1.00  0.00     0.031 C 
ATOM     61  C   UNL     1      -2.832  13.911  -0.655  1.00  0.00     0.029 A 
ATOM     62  C   UNL     1      -2.341  12.968   0.232  1.00  0.00     0.049 A 
ATOM     63  H   UNL     1      -1.249  11.207  -0.166  1.00  0.00     0.167 HD
ATOM     64  C   UNL     1      -1.910  11.981   2.456  1.00  0.00     0.074 A 
ATOM     65  C   UNL     1      -1.952  11.992   3.903  1.00  0.00     0.031 C 
ATOM     66  C   UNL     1      -2.432  12.953   1.669  1.00  0.00     0.034 A 
BRANCH  53  67
ATOM     67  C   UNL     1      -1.379  12.069  -4.347  1.00  0.00     0.023 A 
ATOM     68  C   UNL     1      -2.342  11.457  -5.174  1.00  0.00     0.012 A 
ATOM     69  C   UNL     1      -0.664  13.184  -4.821  1.00  0.00     0.148 A 
ATOM     70  C   UNL     1      -2.579  11.936  -6.461  1.00  0.00     0.002 A 
ATOM     71  C   UNL     1      -0.931  13.679  -6.092  1.00  0.00     0.091 A 
ATOM     72  F   UNL     1       0.262  13.736  -4.024  1.00  0.00    -0.205 F 
ATOM     73  C   UNL     1      -1.882  13.053  -6.916  1.00  0.00     0.022 A 
BRANCH  71  74
ATOM     74  S   UNL     1      -0.137  15.152  -6.746  1.00  0.00     0.127 S 
ATOM     75  O   UNL     1       0.712  14.588  -7.794  1.00  0.00    -0.237 OA
ATOM     76  O   UNL     1      -1.278  15.925  -7.236  1.00  0.00    -0.237 OA
ATOM     77  O   UNL     1       0.573  15.756  -5.628  1.00  0.00    -0.744 OA
ENDBRANCH  71  74
ENDBRANCH  53  67
BRANCH  54  78
ATOM     78  C   UNL     1      -0.009   8.358   4.769  1.00  0.00     0.023 A 
ATOM     79  C   UNL     1      -1.086   7.987   5.594  1.00  0.00     0.012 A 
ATOM     80  C   UNL     1       1.307   8.267   5.269  1.00  0.00     0.148 A 
ATOM     81  C   UNL     1      -0.864   7.576   6.909  1.00  0.00     0.002 A 
ATOM     82  C   UNL     1       1.524   7.824   6.568  1.00  0.00     0.091 A 
ATOM     83  F   UNL     1       2.319   8.607   4.458  1.00  0.00    -0.205 F 
ATOM     84  C   UNL     1       0.439   7.495   7.396  1.00  0.00     0.022 A 
BRANCH  82  85
ATOM     85  S   UNL     1       3.168   7.646   7.271  1.00  0.00     0.127 S 
ATOM     86  O   UNL     1       3.061   8.430   8.500  1.00  0.00    -0.237 OA
ATOM     87  O   UNL     1       3.252   6.200   7.468  1.00  0.00    -0.237 OA
ATOM     88  O   UNL     1       4.088   8.187   6.280  1.00  0.00    -0.744 OA
ENDBRANCH  82  85
ENDBRANCH  54  78
BRANCH  66  89
ATOM     89  C   UNL     1      -3.130  14.102   2.349  1.00  0.00     0.023 A 
ATOM     90  C   UNL     1      -2.373  15.066   3.045  1.00  0.00     0.012 A 
ATOM     91  C   UNL     1      -4.528  14.253   2.263  1.00  0.00     0.148 A 
ATOM     92  C   UNL     1      -2.999  16.140   3.677  1.00  0.00     0.002 A 
ATOM     93  C   UNL     1      -5.141  15.351   2.857  1.00  0.00     0.091 A 
ATOM     94  F   UNL     1      -5.237  13.316   1.617  1.00  0.00    -0.205 F 
ATOM     95  C   UNL     1      -4.380  16.288   3.575  1.00  0.00     0.022 A 
BRANCH  93  96
ATOM     96  S   UNL     1      -6.903  15.664   2.698  1.00  0.00     0.127 S 
ATOM     97  O   UNL     1      -7.406  15.209   3.993  1.00  0.00    -0.237 OA
ATOM     98  O   UNL     1      -6.949  17.114   2.501  1.00  0.00    -0.237 OA
ATOM     99  O   UNL     1      -7.339  14.889   1.544  1.00  0.00    -0.744 OA
ENDBRANCH  93  96
ENDBRANCH  66  89
ENDBRANCH  40  41
ENDBRANCH  33  35
ENDBRANCH  32  33
ENDBRANCH  31  32
ENDBRANCH  30  31
ENDBRANCH  29  30
ENDBRANCH  28  29
ENDBRANCH   1  28
TORSDOF 24
