REMARK SMILES CS(=O)(=O)c1cc(F)ccc1N1CCC[C@@H](C(=O)OCCOCCOCCOC(=O)c2ccc(-c3c4nc(c(-c5cccc(S(=O)(=O)[O-])c5F)c5ccc([nH]5)c(-c5cccc(S(=O)(=O)[O-])c5F)c5nc(c(-c6cccc(S(=O)(=O)[O-])c6F)c6ccc3[nH]6)C=C5)C=C4)cc2)C1
REMARK SMILES IDX 24 1 23 2 22 3 21 4 20 5 19 6 17 7 18 8 16 9 12 10 13 11
REMARK SMILES IDX 94 12 14 13 15 14 11 15 5 16 6 17 7 18 10 19 8 20 9 21 2 22
REMARK SMILES IDX 1 23 3 24 4 25 25 26 26 27 27 28 28 29 29 30 30 31 31 32
REMARK SMILES IDX 32 33 93 34 33 35 92 36 34 37 35 38 36 39 86 40 37 41 91 42
REMARK SMILES IDX 85 43 87 44 38 45 90 46 84 47 83 48 39 50 71 51 51 52 70 53
REMARK SMILES IDX 52 54 55 55 69 56 88 57 53 58 54 59 68 61 89 62 56 63 40 64
REMARK SMILES IDX 41 65 49 66 42 67 44 68 50 69 43 70 45 71 46 72 47 73 48 74
REMARK SMILES IDX 72 75 73 76 81 77 74 78 76 79 82 80 75 81 77 82 78 83 79 84
REMARK SMILES IDX 80 85 57 86 58 87 66 88 59 89 61 90 67 91 60 92 62 93 63 94
REMARK SMILES IDX 64 95 65 96
REMARK H PARENT 87 49 55 60
REMARK Flexibility Score: inf
ROOT
ATOM      1  C   UNL     1       5.035  -4.593   1.335  1.00  0.00     0.188 C 
ENDROOT
BRANCH   1   2
ATOM      2  C   UNL     1       4.271  -5.256   0.165  1.00  0.00     0.188 C 
BRANCH   2   3
ATOM      3  O   UNL     1       4.994  -5.244  -1.043  1.00  0.00    -0.376 OA
BRANCH   3   4
ATOM      4  C   UNL     1       4.745  -4.233  -2.002  1.00  0.00     0.202 C 
BRANCH   4   5
ATOM      5  C   UNL     1       4.365  -2.784  -1.642  1.00  0.00     0.261 C 
BRANCH   5   6
ATOM      6  O   UNL     1       3.969  -2.512  -0.294  1.00  0.00    -0.463 OA
BRANCH   6   7
ATOM      7  C   UNL     1       2.641  -2.595  -0.032  1.00  0.00     0.310 C 
ATOM      8  O   UNL     1       1.786  -2.861  -0.866  1.00  0.00    -0.252 OA
BRANCH   7   9
ATOM      9  C   UNL     1       2.344  -2.283   1.425  1.00  0.00     0.118 C 
ATOM     10  N   UNL     1       0.864  -0.638   2.561  1.00  0.00    -0.370 N 
ATOM     11  C   UNL     1       0.094  -1.690   3.239  1.00  0.00     0.116 C 
ATOM     12  C   UNL     1       1.545  -1.006   1.338  1.00  0.00     0.131 C 
ATOM     13  C   UNL     1       0.948  -2.947   3.424  1.00  0.00     0.022 C 
ATOM     14  C   UNL     1       1.563  -3.412   2.104  1.00  0.00     0.019 C 
BRANCH  10  15
ATOM     15  C   UNL     1       1.074   0.605   3.125  1.00  0.00     0.056 A 
ATOM     16  C   UNL     1       0.887   1.863   2.507  1.00  0.00     0.093 A 
ATOM     17  C   UNL     1       1.220   3.046   3.211  1.00  0.00     0.061 A 
ATOM     18  C   UNL     1       1.708   3.004   4.505  1.00  0.00     0.124 A 
ATOM     19  C   UNL     1       1.571   0.619   4.457  1.00  0.00     0.030 A 
ATOM     20  F   UNL     1       1.992   4.145   5.145  1.00  0.00    -0.207 F 
ATOM     21  C   UNL     1       1.881   1.796   5.143  1.00  0.00     0.041 A 
BRANCH  16  22
ATOM     22  S   UNL     1       0.060   2.239   0.958  1.00  0.00     0.177 S 
ATOM     23  C   UNL     1       0.261   1.073  -0.331  1.00  0.00     0.164 C 
ATOM     24  O   UNL     1       0.734   3.428   0.450  1.00  0.00    -0.224 OA
ATOM     25  O   UNL     1      -1.357   2.302   1.268  1.00  0.00    -0.224 OA
ENDBRANCH  16  22
ENDBRANCH  10  15
ENDBRANCH   7   9
ENDBRANCH   6   7
ENDBRANCH   5   6
ENDBRANCH   4   5
ENDBRANCH   3   4
ENDBRANCH   2   3
ENDBRANCH   1   2
BRANCH   1  26
ATOM     26  O   UNL     1       6.323  -4.040   1.114  1.00  0.00    -0.376 OA
BRANCH  26  27
ATOM     27  C   UNL     1       7.290  -4.842   0.452  1.00  0.00     0.202 C 
BRANCH  27  28
ATOM     28  C   UNL     1       7.505  -6.318   0.850  1.00  0.00     0.261 C 
BRANCH  28  29
ATOM     29  O   UNL     1       6.326  -7.110   1.090  1.00  0.00    -0.460 OA
BRANCH  29  30
ATOM     30  C   UNL     1       6.074  -7.442   2.382  1.00  0.00     0.338 C 
ATOM     31  O   UNL     1       6.755  -7.156   3.359  1.00  0.00    -0.246 OA
BRANCH  30  32
ATOM     32  C   UNL     1       4.718  -8.028   2.494  1.00  0.00     0.060 A 
ATOM     33  C   UNL     1       3.721  -7.321   3.189  1.00  0.00     0.016 A 
ATOM     34  C   UNL     1       4.433  -9.276   1.944  1.00  0.00     0.016 A 
ATOM     35  C   UNL     1       2.439  -7.856   3.329  1.00  0.00     0.010 A 
ATOM     36  C   UNL     1       3.158  -9.828   2.119  1.00  0.00     0.010 A 
ATOM     37  C   UNL     1       2.160  -9.131   2.825  1.00  0.00    -0.014 A 
BRANCH  37  38
ATOM     38  C   UNL     1       0.883  -9.812   3.160  1.00  0.00     0.031 A 
ATOM     39  C   UNL     1       0.874 -10.816   4.279  1.00  0.00     0.074 A 
ATOM     40  C   UNL     1      -0.244  -9.569   2.466  1.00  0.00     0.049 A 
ATOM     41  N   UNL     1      -0.081 -11.623   4.660  1.00  0.00    -0.248 NA
ATOM     42  C   UNL     1       2.108 -10.923   5.076  1.00  0.00     0.031 C 
ATOM     43  C   UNL     1      -0.380  -8.590   1.389  1.00  0.00     0.029 A 
ATOM     44  N   UNL     1      -1.484 -10.157   2.547  1.00  0.00    -0.354 N 
ATOM     45  C   UNL     1       0.444 -12.359   5.715  1.00  0.00     0.074 A 
ATOM     46  C   UNL     1       1.802 -11.902   5.916  1.00  0.00     0.031 C 
ATOM     47  C   UNL     1      -1.625  -8.669   0.885  1.00  0.00     0.029 A 
ATOM     48  C   UNL     1      -2.358  -9.730   1.575  1.00  0.00     0.049 A 
ATOM     49  H   UNL     1      -1.723 -10.819   3.235  1.00  0.00     0.167 HD
ATOM     50  C   UNL     1      -0.152 -13.323   6.453  1.00  0.00     0.034 A 
ATOM     51  C   UNL     1      -3.594 -10.170   1.254  1.00  0.00     0.034 A 
ATOM     52  C   UNL     1      -1.505 -13.771   6.258  1.00  0.00     0.049 A 
ATOM     53  C   UNL     1      -4.215 -11.289   2.052  1.00  0.00     0.074 A 
ATOM     54  C   UNL     1      -2.199 -14.732   6.971  1.00  0.00     0.029 A 
ATOM     55  N   UNL     1      -2.364 -13.301   5.278  1.00  0.00    -0.354 N 
ATOM     56  N   UNL     1      -3.732 -11.932   3.087  1.00  0.00    -0.248 NA
ATOM     57  C   UNL     1      -5.563 -11.727   1.655  1.00  0.00     0.031 C 
ATOM     58  C   UNL     1      -3.467 -14.869   6.400  1.00  0.00     0.029 A 
ATOM     59  C   UNL     1      -3.580 -13.957   5.363  1.00  0.00     0.049 A 
ATOM     60  H   UNL     1      -2.143 -12.603   4.620  1.00  0.00     0.167 HD
ATOM     61  C   UNL     1      -4.729 -12.816   3.491  1.00  0.00     0.074 A 
ATOM     62  C   UNL     1      -5.849 -12.618   2.595  1.00  0.00     0.031 C 
ATOM     63  C   UNL     1      -4.713 -13.715   4.506  1.00  0.00     0.034 A 
BRANCH  50  64
ATOM     64  C   UNL     1       0.643 -13.959   7.562  1.00  0.00     0.023 A 
ATOM     65  C   UNL     1       0.901 -13.232   8.742  1.00  0.00     0.012 A 
ATOM     66  C   UNL     1       1.047 -15.306   7.476  1.00  0.00     0.148 A 
ATOM     67  C   UNL     1       1.564 -13.830   9.812  1.00  0.00     0.002 A 
ATOM     68  C   UNL     1       1.664 -15.910   8.565  1.00  0.00     0.091 A 
ATOM     69  F   UNL     1       0.810 -15.972   6.338  1.00  0.00    -0.205 F 
ATOM     70  C   UNL     1       1.932 -15.171   9.729  1.00  0.00     0.022 A 
BRANCH  68  71
ATOM     71  S   UNL     1       2.097 -17.653   8.594  1.00  0.00     0.127 S 
ATOM     72  O   UNL     1       3.557 -17.593   8.647  1.00  0.00    -0.237 OA
ATOM     73  O   UNL     1       1.459 -18.105   9.830  1.00  0.00    -0.237 OA
ATOM     74  O   UNL     1       1.544 -18.227   7.375  1.00  0.00    -0.744 OA
ENDBRANCH  68  71
ENDBRANCH  50  64
BRANCH  51  75
ATOM     75  C   UNL     1      -4.344  -9.530   0.134  1.00  0.00     0.023 A 
ATOM     76  C   UNL     1      -5.493  -8.767   0.418  1.00  0.00     0.012 A 
ATOM     77  C   UNL     1      -3.914  -9.651  -1.202  1.00  0.00     0.148 A 
ATOM     78  C   UNL     1      -6.214  -8.155  -0.609  1.00  0.00     0.002 A 
ATOM     79  C   UNL     1      -4.602  -8.991  -2.214  1.00  0.00     0.091 A 
ATOM     80  F   UNL     1      -2.830 -10.397  -1.454  1.00  0.00    -0.205 F 
ATOM     81  C   UNL     1      -5.762  -8.257  -1.922  1.00  0.00     0.022 A 
BRANCH  79  82
ATOM     82  S   UNL     1      -4.024  -8.955  -3.914  1.00  0.00     0.127 S 
ATOM     83  O   UNL     1      -5.087  -9.678  -4.608  1.00  0.00    -0.237 OA
ATOM     84  O   UNL     1      -3.979  -7.517  -4.182  1.00  0.00    -0.237 OA
ATOM     85  O   UNL     1      -2.722  -9.608  -3.904  1.00  0.00    -0.744 OA
ENDBRANCH  79  82
ENDBRANCH  51  75
BRANCH  63  86
ATOM     86  C   UNL     1      -5.955 -14.532   4.762  1.00  0.00     0.023 A 
ATOM     87  C   UNL     1      -6.321 -15.562   3.873  1.00  0.00     0.012 A 
ATOM     88  C   UNL     1      -6.694 -14.351   5.950  1.00  0.00     0.148 A 
ATOM     89  C   UNL     1      -7.415 -16.382   4.151  1.00  0.00     0.002 A 
ATOM     90  C   UNL     1      -7.748 -15.207   6.246  1.00  0.00     0.091 A 
ATOM     91  F   UNL     1      -6.340 -13.356   6.776  1.00  0.00    -0.205 F 
ATOM     92  C   UNL     1      -8.118 -16.215   5.342  1.00  0.00     0.022 A 
BRANCH  90  93
ATOM     93  S   UNL     1      -8.640 -15.138   7.805  1.00  0.00     0.127 S 
ATOM     94  O   UNL     1      -9.950 -14.650   7.377  1.00  0.00    -0.237 OA
ATOM     95  O   UNL     1      -8.621 -16.537   8.233  1.00  0.00    -0.237 OA
ATOM     96  O   UNL     1      -7.888 -14.232   8.661  1.00  0.00    -0.744 OA
ENDBRANCH  90  93
ENDBRANCH  63  86
ENDBRANCH  37  38
ENDBRANCH  30  32
ENDBRANCH  29  30
ENDBRANCH  28  29
ENDBRANCH  27  28
ENDBRANCH  26  27
ENDBRANCH   1  26
TORSDOF 22
