REMARK SMILES O=C(CCCN1C(=O)/C(=C\c2ccc(O)cc2O)SC1=S)OCCOCCOCCOC(=O)c1ccc(-c2c3nc(c(-c4cccc(S(=O)(=O)[O-])c4F)c4ccc([nH]4)c(-c4cccc(S(=O)(=O)[O-])c4F)c4nc(c(-c5cccc(S(=O)(=O)[O-])c5F)c5ccc2[nH]5)C=C4)C=C3)cc1
REMARK SMILES IDX 26 1 25 2 24 3 23 4 22 5 2 6 1 7 3 8 4 9 5 10 6 11 7 12
REMARK SMILES IDX 20 13 8 14 9 15 19 16 21 17 10 18 11 19 12 20 17 21 13 22
REMARK SMILES IDX 16 23 14 24 18 25 15 27 27 29 28 30 29 31 30 32 31 33 32 34
REMARK SMILES IDX 33 35 34 36 35 37 96 38 36 39 95 40 37 41 38 42 39 43 89 44
REMARK SMILES IDX 40 45 94 46 88 47 90 48 41 49 93 50 87 51 86 52 42 54 74 55
REMARK SMILES IDX 54 56 73 57 55 58 58 59 72 60 91 61 56 62 57 63 71 65 92 66
REMARK SMILES IDX 59 67 43 68 44 69 52 70 45 71 47 72 53 73 46 74 48 75 49 76
REMARK SMILES IDX 50 77 51 78 75 79 76 80 84 81 77 82 79 83 85 84 78 85 80 86
REMARK SMILES IDX 81 87 82 88 83 89 60 90 61 91 69 92 62 93 64 94 70 95 63 96
REMARK SMILES IDX 65 97 66 98 67 99 68 100
REMARK H PARENT 18 26 15 28 90 53 58 64
REMARK Flexibility Score: inf
ROOT
ATOM      1  C   UNL     1       1.857  -0.431  -1.673  1.00  0.00     0.188 C 
ENDROOT
BRANCH   1   2
ATOM      2  O   UNL     1       3.168   0.077  -1.489  1.00  0.00    -0.376 OA
BRANCH   2   3
ATOM      3  C   UNL     1       4.075  -0.722  -0.744  1.00  0.00     0.202 C 
BRANCH   3   4
ATOM      4  C   UNL     1       3.574  -1.369   0.539  1.00  0.00     0.261 C 
BRANCH   4   5
ATOM      5  O   UNL     1       2.779  -0.615   1.483  1.00  0.00    -0.463 OA
BRANCH   5   6
ATOM      6  C   UNL     1       2.424   0.681   1.513  1.00  0.00     0.305 C 
ATOM      7  O   UNL     1       1.330   0.986   1.987  1.00  0.00    -0.252 OA
BRANCH   6   8
ATOM      8  C   UNL     1       3.417   1.742   1.123  1.00  0.00     0.124 C 
BRANCH   8   9
ATOM      9  C   UNL     1       4.494   1.998   2.171  1.00  0.00     0.034 C 
BRANCH   9  10
ATOM     10  C   UNL     1       5.690   1.032   2.193  1.00  0.00     0.128 C 
BRANCH  10  11
ATOM     11  N   UNL     1       6.533   0.860   0.994  1.00  0.00    -0.293 N 
ATOM     12  C   UNL     1       6.629   1.839   0.020  1.00  0.00     0.266 C 
ATOM     13  C   UNL     1       7.327  -0.256   0.788  1.00  0.00     0.148 C 
ATOM     14  O   UNL     1       6.009   2.892   0.009  1.00  0.00    -0.268 OA
ATOM     15  C   UNL     1       7.553   1.418  -1.078  1.00  0.00     0.081 C 
ATOM     16  S   UNL     1       8.052  -0.206  -0.818  1.00  0.00    -0.054 SA
ATOM     17  S   UNL     1       7.602  -1.537   1.825  1.00  0.00    -0.052 S 
ATOM     18  C   UNL     1       8.005   2.178  -2.089  1.00  0.00     0.033 C 
BRANCH  18  19
ATOM     19  C   UNL     1       7.775   3.628  -2.161  1.00  0.00     0.018 A 
ATOM     20  C   UNL     1       8.287   4.422  -1.117  1.00  0.00     0.016 A 
ATOM     21  C   UNL     1       7.064   4.253  -3.194  1.00  0.00     0.126 A 
ATOM     22  C   UNL     1       8.006   5.787  -1.051  1.00  0.00     0.047 A 
ATOM     23  C   UNL     1       6.824   5.627  -3.155  1.00  0.00     0.092 A 
ATOM     24  C   UNL     1       7.260   6.373  -2.063  1.00  0.00     0.119 A 
BRANCH  21  25
ATOM     25  O   UNL     1       6.555   3.560  -4.259  1.00  0.00    -0.507 OA
ATOM     26  H   UNL     1       6.692   2.636  -4.326  1.00  0.00     0.293 HD
ENDBRANCH  21  25
BRANCH  24  27
ATOM     27  O   UNL     1       6.958   7.701  -2.016  1.00  0.00    -0.508 OA
ATOM     28  H   UNL     1       7.242   8.221  -1.290  1.00  0.00     0.293 HD
ENDBRANCH  24  27
ENDBRANCH  18  19
ENDBRANCH  10  11
ENDBRANCH   9  10
ENDBRANCH   8   9
ENDBRANCH   6   8
ENDBRANCH   5   6
ENDBRANCH   4   5
ENDBRANCH   3   4
ENDBRANCH   2   3
ENDBRANCH   1   2
BRANCH   1  29
ATOM     29  C   UNL     1       1.746  -1.618  -2.628  1.00  0.00     0.188 C 
BRANCH  29  30
ATOM     30  O   UNL     1       2.883  -2.474  -2.554  1.00  0.00    -0.376 OA
BRANCH  30  31
ATOM     31  C   UNL     1       3.549  -2.658  -3.804  1.00  0.00     0.202 C 
BRANCH  31  32
ATOM     32  C   UNL     1       4.398  -1.483  -4.337  1.00  0.00     0.261 C 
BRANCH  32  33
ATOM     33  O   UNL     1       3.806  -0.173  -4.314  1.00  0.00    -0.460 OA
BRANCH  33  34
ATOM     34  C   UNL     1       2.916   0.120  -5.289  1.00  0.00     0.338 C 
ATOM     35  O   UNL     1       2.483  -0.647  -6.129  1.00  0.00    -0.246 OA
BRANCH  34  36
ATOM     36  C   UNL     1       2.472   1.521  -5.122  1.00  0.00     0.060 A 
ATOM     37  C   UNL     1       1.196   1.784  -4.612  1.00  0.00     0.016 A 
ATOM     38  C   UNL     1       3.294   2.572  -5.534  1.00  0.00     0.016 A 
ATOM     39  C   UNL     1       0.736   3.101  -4.519  1.00  0.00     0.010 A 
ATOM     40  C   UNL     1       2.825   3.890  -5.456  1.00  0.00     0.010 A 
ATOM     41  C   UNL     1       1.534   4.161  -4.971  1.00  0.00    -0.014 A 
BRANCH  41  42
ATOM     42  C   UNL     1       0.970   5.533  -5.071  1.00  0.00     0.031 A 
ATOM     43  C   UNL     1       0.407   5.996  -6.388  1.00  0.00     0.074 A 
ATOM     44  C   UNL     1       0.978   6.367  -4.015  1.00  0.00     0.049 A 
ATOM     45  N   UNL     1      -0.098   7.158  -6.712  1.00  0.00    -0.248 NA
ATOM     46  C   UNL     1       0.412   5.015  -7.486  1.00  0.00     0.031 C 
ATOM     47  C   UNL     1       1.493   6.042  -2.687  1.00  0.00     0.029 A 
ATOM     48  N   UNL     1       0.567   7.674  -3.908  1.00  0.00    -0.354 N 
ATOM     49  C   UNL     1      -0.445   7.060  -8.055  1.00  0.00     0.074 A 
ATOM     50  C   UNL     1      -0.094   5.724  -8.485  1.00  0.00     0.031 C 
ATOM     51  C   UNL     1       1.407   7.134  -1.908  1.00  0.00     0.029 A 
ATOM     52  C   UNL     1       0.856   8.242  -2.688  1.00  0.00     0.049 A 
ATOM     53  H   UNL     1       0.110   8.158  -4.633  1.00  0.00     0.167 HD
ATOM     54  C   UNL     1      -1.011   7.995  -8.856  1.00  0.00     0.034 A 
ATOM     55  C   UNL     1       0.722   9.515  -2.263  1.00  0.00     0.034 A 
ATOM     56  C   UNL     1      -1.362   9.322  -8.429  1.00  0.00     0.049 A 
ATOM     57  C   UNL     1       0.112  10.544  -3.184  1.00  0.00     0.074 A 
ATOM     58  C   UNL     1      -1.983  10.322  -9.157  1.00  0.00     0.029 A 
ATOM     59  N   UNL     1      -1.103   9.846  -7.172  1.00  0.00    -0.354 N 
ATOM     60  N   UNL     1      -0.339  10.397  -4.406  1.00  0.00    -0.248 NA
ATOM     61  C   UNL     1      -0.039  11.909  -2.654  1.00  0.00     0.031 C 
ATOM     62  C   UNL     1      -2.067  11.462  -8.352  1.00  0.00     0.029 A 
ATOM     63  C   UNL     1      -1.535  11.159  -7.109  1.00  0.00     0.049 A 
ATOM     64  H   UNL     1      -0.675   9.355  -6.434  1.00  0.00     0.167 HD
ATOM     65  C   UNL     1      -0.859  11.634  -4.776  1.00  0.00     0.074 A 
ATOM     66  C   UNL     1      -0.689  12.514  -3.639  1.00  0.00     0.031 C 
ATOM     67  C   UNL     1      -1.413  12.012  -5.955  1.00  0.00     0.034 A 
BRANCH  54  68
ATOM     68  C   UNL     1      -1.304   7.613 -10.283  1.00  0.00     0.023 A 
ATOM     69  C   UNL     1      -2.374   6.741 -10.567  1.00  0.00     0.012 A 
ATOM     70  C   UNL     1      -0.572   8.180 -11.345  1.00  0.00     0.148 A 
ATOM     71  C   UNL     1      -2.696   6.418 -11.885  1.00  0.00     0.002 A 
ATOM     72  C   UNL     1      -0.926   7.889 -12.657  1.00  0.00     0.091 A 
ATOM     73  F   UNL     1       0.453   8.993 -11.052  1.00  0.00    -0.205 F 
ATOM     74  C   UNL     1      -1.980   7.001 -12.928  1.00  0.00     0.022 A 
BRANCH  72  75
ATOM     75  S   UNL     1      -0.121   8.647 -14.072  1.00  0.00     0.127 S 
ATOM     76  O   UNL     1       0.558   7.500 -14.674  1.00  0.00    -0.237 OA
ATOM     77  O   UNL     1      -1.260   9.151 -14.838  1.00  0.00    -0.237 OA
ATOM     78  O   UNL     1       0.757   9.677 -13.535  1.00  0.00    -0.744 OA
ENDBRANCH  72  75
ENDBRANCH  54  68
BRANCH  55  79
ATOM     79  C   UNL     1       1.159   9.892  -0.887  1.00  0.00     0.023 A 
ATOM     80  C   UNL     1       0.202  10.290   0.067  1.00  0.00     0.012 A 
ATOM     81  C   UNL     1       2.520   9.857  -0.520  1.00  0.00     0.148 A 
ATOM     82  C   UNL     1       0.596  10.688   1.345  1.00  0.00     0.002 A 
ATOM     83  C   UNL     1       2.900  10.190   0.774  1.00  0.00     0.091 A 
ATOM     84  F   UNL     1       3.423   9.500  -1.444  1.00  0.00    -0.205 F 
ATOM     85  C   UNL     1       1.942  10.629   1.702  1.00  0.00     0.022 A 
BRANCH  83  86
ATOM     86  S   UNL     1       4.597  10.002   1.344  1.00  0.00     0.127 S 
ATOM     87  O   UNL     1       5.058  11.386   1.372  1.00  0.00    -0.237 OA
ATOM     88  O   UNL     1       4.409   9.391   2.661  1.00  0.00    -0.237 OA
ATOM     89  O   UNL     1       5.259   9.129   0.375  1.00  0.00    -0.744 OA
ENDBRANCH  83  86
ENDBRANCH  55  79
BRANCH  67  90
ATOM     90  C   UNL     1      -1.923  13.427  -6.076  1.00  0.00     0.023 A 
ATOM     91  C   UNL     1      -1.014  14.501  -6.149  1.00  0.00     0.012 A 
ATOM     92  C   UNL     1      -3.304  13.685  -6.197  1.00  0.00     0.148 A 
ATOM     93  C   UNL     1      -1.471  15.809  -6.305  1.00  0.00     0.002 A 
ATOM     94  C   UNL     1      -3.749  14.985  -6.405  1.00  0.00     0.091 A 
ATOM     95  F   UNL     1      -4.157  12.653  -6.112  1.00  0.00    -0.205 F 
ATOM     96  C   UNL     1      -2.836  16.050  -6.445  1.00  0.00     0.022 A 
BRANCH  94  97
ATOM     97  S   UNL     1      -5.479  15.380  -6.695  1.00  0.00     0.127 S 
ATOM     98  O   UNL     1      -5.841  16.059  -5.452  1.00  0.00    -0.237 OA
ATOM     99  O   UNL     1      -5.405  16.252  -7.867  1.00  0.00    -0.237 OA
ATOM    100  O   UNL     1      -6.148  14.107  -6.928  1.00  0.00    -0.744 OA
ENDBRANCH  94  97
ENDBRANCH  67  90
ENDBRANCH  41  42
ENDBRANCH  34  36
ENDBRANCH  33  34
ENDBRANCH  32  33
ENDBRANCH  31  32
ENDBRANCH  30  31
ENDBRANCH  29  30
ENDBRANCH   1  29
TORSDOF 26
