REMARK SMILES O=C(OCCOCCOCCOC(=O)[C@H]1C[C@H]1c1ccc(C2CC2)cc1)c1ccc(-c2c3nc(c(-c4cccc(S(=O)(=O)[O-])c4F)c4ccc([nH]4)c(-c4cccc(S(=O)(=O)[O-])c4F)c4nc(c(-c5cccc(S(=O)(=O)[O-])c5F)c5ccc2[nH]5)C=C4)C=C3)cc1
REMARK SMILES IDX 7 1 6 2 5 3 4 4 3 5 2 6 1 7 27 8 28 9 89 10 29 11 88 12
REMARK SMILES IDX 30 13 31 14 32 15 82 16 33 17 87 18 81 19 83 20 34 21 86 22
REMARK SMILES IDX 80 23 79 24 35 26 67 27 47 28 66 29 48 30 51 31 65 32 84 33
REMARK SMILES IDX 49 34 50 35 64 37 85 38 52 39 36 40 37 41 45 42 38 43 40 44
REMARK SMILES IDX 46 45 39 46 41 47 42 48 43 49 44 50 68 51 69 52 77 53 70 54
REMARK SMILES IDX 72 55 78 56 71 57 73 58 74 59 75 60 76 61 53 62 54 63 62 64
REMARK SMILES IDX 55 65 57 66 63 67 56 68 58 69 59 70 60 71 61 72 8 73 9 74
REMARK SMILES IDX 10 75 11 76 12 77 13 78 14 79 15 80 16 81 17 82 18 83 19 84
REMARK SMILES IDX 26 85 20 86 25 87 21 88 22 89 23 90 24 91
REMARK H PARENT 83 25 51 36
REMARK Flexibility Score: inf
ROOT
ATOM      1  C   UNL     1       6.133   1.506   2.191  1.00  0.00     0.188 C 
ENDROOT
BRANCH   1   2
ATOM      2  O   UNL     1       5.612   1.332   3.511  1.00  0.00    -0.376 OA
BRANCH   2   3
ATOM      3  C   UNL     1       6.239   0.276   4.248  1.00  0.00     0.202 C 
BRANCH   3   4
ATOM      4  C   UNL     1       5.903  -1.158   3.800  1.00  0.00     0.261 C 
BRANCH   4   5
ATOM      5  O   UNL     1       5.638  -1.271   2.392  1.00  0.00    -0.460 OA
BRANCH   5   6
ATOM      6  C   UNL     1       4.432  -1.287   1.768  1.00  0.00     0.338 C 
ATOM      7  O   UNL     1       4.404  -1.505   0.558  1.00  0.00    -0.246 OA
BRANCH   6   8
ATOM      8  C   UNL     1       3.134  -1.056   2.474  1.00  0.00     0.060 A 
ATOM      9  C   UNL     1       2.988  -0.338   3.661  1.00  0.00     0.016 A 
ATOM     10  C   UNL     1       1.970  -1.547   1.857  1.00  0.00     0.016 A 
ATOM     11  C   UNL     1       1.756  -0.214   4.288  1.00  0.00     0.010 A 
ATOM     12  C   UNL     1       0.715  -1.381   2.453  1.00  0.00     0.010 A 
ATOM     13  C   UNL     1       0.617  -0.750   3.696  1.00  0.00    -0.014 A 
BRANCH  13  14
ATOM     14  C   UNL     1      -0.638  -0.714   4.469  1.00  0.00     0.031 A 
ATOM     15  C   UNL     1      -1.096  -1.966   5.138  1.00  0.00     0.074 A 
ATOM     16  C   UNL     1      -1.280   0.455   4.633  1.00  0.00     0.049 A 
ATOM     17  N   UNL     1      -2.137  -2.151   5.899  1.00  0.00    -0.248 NA
ATOM     18  C   UNL     1      -0.289  -3.176   4.906  1.00  0.00     0.031 C 
ATOM     19  C   UNL     1      -0.888   1.700   3.984  1.00  0.00     0.029 A 
ATOM     20  N   UNL     1      -2.370   0.803   5.383  1.00  0.00    -0.354 N 
ATOM     21  C   UNL     1      -2.164  -3.512   6.163  1.00  0.00     0.074 A 
ATOM     22  C   UNL     1      -1.010  -4.100   5.521  1.00  0.00     0.031 C 
ATOM     23  C   UNL     1      -1.690   2.690   4.399  1.00  0.00     0.029 A 
ATOM     24  C   UNL     1      -2.677   2.145   5.318  1.00  0.00     0.049 A 
ATOM     25  H   UNL     1      -2.886   0.157   5.918  1.00  0.00     0.167 HD
ATOM     26  C   UNL     1      -3.097  -4.203   6.854  1.00  0.00     0.034 A 
ATOM     27  C   UNL     1      -3.655   2.843   5.928  1.00  0.00     0.034 A 
ATOM     28  C   UNL     1      -4.234  -3.578   7.470  1.00  0.00     0.049 A 
ATOM     29  C   UNL     1      -4.625   2.058   6.768  1.00  0.00     0.074 A 
ATOM     30  C   UNL     1      -5.268  -4.166   8.171  1.00  0.00     0.029 A 
ATOM     31  N   UNL     1      -4.489  -2.212   7.442  1.00  0.00    -0.354 N 
ATOM     32  N   UNL     1      -4.618   0.774   7.044  1.00  0.00    -0.248 NA
ATOM     33  C   UNL     1      -5.743   2.798   7.363  1.00  0.00     0.031 C 
ATOM     34  C   UNL     1      -6.164  -3.156   8.541  1.00  0.00     0.029 A 
ATOM     35  C   UNL     1      -5.666  -1.935   8.110  1.00  0.00     0.049 A 
ATOM     36  H   UNL     1      -3.914  -1.540   7.009  1.00  0.00     0.167 HD
ATOM     37  C   UNL     1      -5.736   0.547   7.832  1.00  0.00     0.074 A 
ATOM     38  C   UNL     1      -6.363   1.840   8.039  1.00  0.00     0.031 C 
ATOM     39  C   UNL     1      -6.230  -0.622   8.310  1.00  0.00     0.034 A 
BRANCH  26  40
ATOM     40  C   UNL     1      -2.944  -5.697   6.897  1.00  0.00     0.023 A 
ATOM     41  C   UNL     1      -1.921  -6.289   7.665  1.00  0.00     0.012 A 
ATOM     42  C   UNL     1      -3.797  -6.516   6.132  1.00  0.00     0.148 A 
ATOM     43  C   UNL     1      -1.721  -7.670   7.633  1.00  0.00     0.002 A 
ATOM     44  C   UNL     1      -3.621  -7.893   6.141  1.00  0.00     0.091 A 
ATOM     45  F   UNL     1      -4.742  -5.929   5.384  1.00  0.00    -0.205 F 
ATOM     46  C   UNL     1      -2.574  -8.471   6.877  1.00  0.00     0.022 A 
BRANCH  44  47
ATOM     47  S   UNL     1      -4.700  -9.014   5.246  1.00  0.00     0.127 S 
ATOM     48  O   UNL     1      -3.787  -9.566   4.245  1.00  0.00    -0.237 OA
ATOM     49  O   UNL     1      -5.095  -9.954   6.295  1.00  0.00    -0.237 OA
ATOM     50  O   UNL     1      -5.782  -8.198   4.716  1.00  0.00    -0.744 OA
ENDBRANCH  44  47
ENDBRANCH  26  40
BRANCH  27  51
ATOM     51  C   UNL     1      -3.748   4.329   5.791  1.00  0.00     0.023 A 
ATOM     52  C   UNL     1      -3.598   5.145   6.931  1.00  0.00     0.012 A 
ATOM     53  C   UNL     1      -3.950   4.951   4.543  1.00  0.00     0.148 A 
ATOM     54  C   UNL     1      -3.669   6.538   6.834  1.00  0.00     0.002 A 
ATOM     55  C   UNL     1      -3.947   6.339   4.441  1.00  0.00     0.091 A 
ATOM     56  F   UNL     1      -4.137   4.174   3.466  1.00  0.00    -0.205 F 
ATOM     57  C   UNL     1      -3.824   7.136   5.587  1.00  0.00     0.022 A 
BRANCH  55  58
ATOM     58  S   UNL     1      -4.006   7.163   2.845  1.00  0.00     0.127 S 
ATOM     59  O   UNL     1      -5.421   7.504   2.736  1.00  0.00    -0.237 OA
ATOM     60  O   UNL     1      -3.115   8.307   3.043  1.00  0.00    -0.237 OA
ATOM     61  O   UNL     1      -3.508   6.177   1.893  1.00  0.00    -0.744 OA
ENDBRANCH  55  58
ENDBRANCH  27  51
BRANCH  39  62
ATOM     62  C   UNL     1      -7.500  -0.544   9.107  1.00  0.00     0.023 A 
ATOM     63  C   UNL     1      -8.724  -0.300   8.454  1.00  0.00     0.012 A 
ATOM     64  C   UNL     1      -7.483  -0.793  10.491  1.00  0.00     0.148 A 
ATOM     65  C   UNL     1      -9.914  -0.275   9.177  1.00  0.00     0.002 A 
ATOM     66  C   UNL     1      -8.678  -0.822  11.194  1.00  0.00     0.091 A 
ATOM     67  F   UNL     1      -6.301  -1.002  11.088  1.00  0.00    -0.205 F 
ATOM     68  C   UNL     1      -9.892  -0.549  10.543  1.00  0.00     0.022 A 
BRANCH  66  69
ATOM     69  S   UNL     1      -8.753  -1.270  12.930  1.00  0.00     0.127 S 
ATOM     70  O   UNL     1      -9.067   0.013  13.555  1.00  0.00    -0.237 OA
ATOM     71  O   UNL     1      -9.844  -2.245  12.950  1.00  0.00    -0.237 OA
ATOM     72  O   UNL     1      -7.445  -1.822  13.260  1.00  0.00    -0.744 OA
ENDBRANCH  66  69
ENDBRANCH  39  62
ENDBRANCH  13  14
ENDBRANCH   6   8
ENDBRANCH   5   6
ENDBRANCH   4   5
ENDBRANCH   3   4
ENDBRANCH   2   3
ENDBRANCH   1   2
BRANCH   1  73
ATOM     73  C   UNL     1       6.254   2.971   1.772  1.00  0.00     0.188 C 
BRANCH  73  74
ATOM     74  O   UNL     1       7.172   3.786   2.499  1.00  0.00    -0.376 OA
BRANCH  74  75
ATOM     75  C   UNL     1       7.027   3.844   3.915  1.00  0.00     0.202 C 
BRANCH  75  76
ATOM     76  C   UNL     1       5.805   4.569   4.498  1.00  0.00     0.261 C 
BRANCH  76  77
ATOM     77  O   UNL     1       4.560   4.203   3.901  1.00  0.00    -0.463 OA
BRANCH  77  78
ATOM     78  C   UNL     1       4.059   5.113   3.011  1.00  0.00     0.309 C 
ATOM     79  O   UNL     1       4.567   6.169   2.702  1.00  0.00    -0.252 OA
BRANCH  78  80
ATOM     80  C   UNL     1       2.882   4.573   2.285  1.00  0.00     0.107 C 
ATOM     81  C   UNL     1       1.922   3.628   2.950  1.00  0.00     0.025 C 
ATOM     82  C   UNL     1       1.466   5.016   2.579  1.00  0.00     0.034 C 
BRANCH  82  83
ATOM     83  C   UNL     1       1.200   6.088   3.602  1.00  0.00    -0.044 A 
ATOM     84  C   UNL     1       0.401   5.875   4.727  1.00  0.00     0.004 A 
ATOM     85  C   UNL     1       1.678   7.389   3.402  1.00  0.00     0.004 A 
ATOM     86  C   UNL     1       0.041   6.928   5.576  1.00  0.00     0.004 A 
ATOM     87  C   UNL     1       1.339   8.435   4.264  1.00  0.00     0.004 A 
ATOM     88  C   UNL     1       0.480   8.241   5.355  1.00  0.00    -0.045 A 
BRANCH  88  89
ATOM     89  C   UNL     1      -0.025   9.371   6.230  1.00  0.00     0.019 C 
ATOM     90  C   UNL     1       0.743  10.655   6.422  1.00  0.00     0.009 C 
ATOM     91  C   UNL     1      -0.500  10.649   5.577  1.00  0.00     0.009 C 
ENDBRANCH  88  89
ENDBRANCH  82  83
ENDBRANCH  78  80
ENDBRANCH  77  78
ENDBRANCH  76  77
ENDBRANCH  75  76
ENDBRANCH  74  75
ENDBRANCH  73  74
ENDBRANCH   1  73
TORSDOF 22
