REMARK SMILES O=C(COC1(Cc2ccccc2)CCCCC1)OCCOCCOCCOC(=O)c1ccc(-c2c3nc(c(-c4cccc(S(=O)(=O)[O-])c4F)c4ccc([nH]4)c(-c4cccc(S(=O)(=O)[O-])c4F)c4nc(c(-c5cccc(S(=O)(=O)[O-])c5F)c5ccc2[nH]5)C=C4)C=C3)cc1
REMARK SMILES IDX 22 1 21 2 20 3 19 4 18 5 2 6 1 7 3 8 4 9 5 10 13 11 17 12
REMARK SMILES IDX 14 13 16 14 15 15 6 16 7 17 8 18 12 19 9 20 11 21 10 22
REMARK SMILES IDX 23 23 24 24 25 25 26 26 27 27 28 28 29 29 30 30 31 31 92 32
REMARK SMILES IDX 32 33 91 34 33 35 34 36 35 37 85 38 36 39 90 40 84 41 86 42
REMARK SMILES IDX 37 43 89 44 83 45 82 46 38 48 70 49 50 50 69 51 51 52 54 53
REMARK SMILES IDX 68 54 87 55 52 56 53 57 67 59 88 60 55 61 39 62 40 63 48 64
REMARK SMILES IDX 41 65 43 66 49 67 42 68 44 69 45 70 46 71 47 72 71 73 72 74
REMARK SMILES IDX 80 75 73 76 75 77 81 78 74 79 76 80 77 81 78 82 79 83 56 84
REMARK SMILES IDX 57 85 65 86 58 87 60 88 66 89 59 90 61 91 62 92 63 93 64 94
REMARK H PARENT 86 47 54 58
REMARK Flexibility Score: inf
ROOT
ATOM      1  C   UNL     1       3.632   1.971  -0.370  1.00  0.00     0.188 C 
ENDROOT
BRANCH   1   2
ATOM      2  O   UNL     1       5.014   1.875  -0.050  1.00  0.00    -0.376 OA
BRANCH   2   3
ATOM      3  C   UNL     1       5.883   1.198  -0.956  1.00  0.00     0.202 C 
BRANCH   3   4
ATOM      4  C   UNL     1       5.854  -0.328  -0.965  1.00  0.00     0.261 C 
BRANCH   4   5
ATOM      5  O   UNL     1       4.620  -0.822  -1.503  1.00  0.00    -0.462 OA
BRANCH   5   6
ATOM      6  C   UNL     1       3.638  -1.370  -0.750  1.00  0.00     0.332 C 
ATOM      7  O   UNL     1       2.724  -1.961  -1.321  1.00  0.00    -0.250 OA
BRANCH   6   8
ATOM      8  C   UNL     1       3.654  -1.134   0.767  1.00  0.00     0.283 C 
BRANCH   8   9
ATOM      9  O   UNL     1       3.702  -2.279   1.565  1.00  0.00    -0.363 OA
BRANCH   9  10
ATOM     10  C   UNL     1       2.515  -2.954   2.003  1.00  0.00     0.073 C 
ATOM     11  C   UNL     1       2.982  -4.432   1.818  1.00  0.00     0.036 C 
ATOM     12  C   UNL     1       2.353  -2.704   3.516  1.00  0.00     0.036 C 
ATOM     13  C   UNL     1       2.108  -5.475   2.496  1.00  0.00     0.003 C 
ATOM     14  C   UNL     1       1.430  -3.716   4.194  1.00  0.00     0.003 C 
ATOM     15  C   UNL     1       1.903  -5.151   3.970  1.00  0.00     0.000 C 
BRANCH  10  16
ATOM     16  C   UNL     1       1.174  -2.771   1.209  1.00  0.00     0.071 C 
BRANCH  16  17
ATOM     17  C   UNL     1       0.277  -1.541   1.172  1.00  0.00    -0.045 A 
ATOM     18  C   UNL     1      -0.923  -1.678   0.442  1.00  0.00     0.004 A 
ATOM     19  C   UNL     1       0.516  -0.302   1.774  1.00  0.00     0.004 A 
ATOM     20  C   UNL     1      -1.817  -0.617   0.281  1.00  0.00     0.000 A 
ATOM     21  C   UNL     1      -0.356   0.778   1.578  1.00  0.00     0.000 A 
ATOM     22  C   UNL     1      -1.520   0.622   0.831  1.00  0.00     0.000 A 
ENDBRANCH  16  17
ENDBRANCH  10  16
ENDBRANCH   9  10
ENDBRANCH   8   9
ENDBRANCH   6   8
ENDBRANCH   5   6
ENDBRANCH   4   5
ENDBRANCH   3   4
ENDBRANCH   2   3
ENDBRANCH   1   2
BRANCH   1  23
ATOM     23  C   UNL     1       3.127   2.856  -1.518  1.00  0.00     0.188 C 
BRANCH  23  24
ATOM     24  O   UNL     1       4.028   3.260  -2.528  1.00  0.00    -0.376 OA
BRANCH  24  25
ATOM     25  C   UNL     1       5.064   4.172  -2.171  1.00  0.00     0.202 C 
BRANCH  25  26
ATOM     26  C   UNL     1       4.709   5.406  -1.341  1.00  0.00     0.261 C 
BRANCH  26  27
ATOM     27  O   UNL     1       4.351   5.088   0.020  1.00  0.00    -0.460 OA
BRANCH  27  28
ATOM     28  C   UNL     1       3.179   5.613   0.435  1.00  0.00     0.338 C 
ATOM     29  O   UNL     1       2.394   6.278  -0.244  1.00  0.00    -0.246 OA
BRANCH  28  30
ATOM     30  C   UNL     1       2.846   5.219   1.811  1.00  0.00     0.060 A 
ATOM     31  C   UNL     1       1.615   4.589   2.034  1.00  0.00     0.016 A 
ATOM     32  C   UNL     1       3.624   5.653   2.887  1.00  0.00     0.016 A 
ATOM     33  C   UNL     1       1.121   4.459   3.334  1.00  0.00     0.010 A 
ATOM     34  C   UNL     1       3.123   5.525   4.189  1.00  0.00     0.010 A 
ATOM     35  C   UNL     1       1.847   4.976   4.415  1.00  0.00    -0.014 A 
BRANCH  35  36
ATOM     36  C   UNL     1       1.199   5.105   5.747  1.00  0.00     0.031 A 
ATOM     37  C   UNL     1       0.647   6.444   6.168  1.00  0.00     0.074 A 
ATOM     38  C   UNL     1       1.079   4.049   6.572  1.00  0.00     0.049 A 
ATOM     39  N   UNL     1       0.084   6.791   7.297  1.00  0.00    -0.248 NA
ATOM     40  C   UNL     1       0.742   7.535   5.184  1.00  0.00     0.031 C 
ATOM     41  C   UNL     1       1.545   2.694   6.285  1.00  0.00     0.029 A 
ATOM     42  N   UNL     1       0.543   3.962   7.834  1.00  0.00    -0.354 N 
ATOM     43  C   UNL     1      -0.221   8.142   7.171  1.00  0.00     0.074 A 
ATOM     44  C   UNL     1       0.230   8.555   5.859  1.00  0.00     0.031 C 
ATOM     45  C   UNL     1       1.299   1.915   7.352  1.00  0.00     0.029 A 
ATOM     46  C   UNL     1       0.681   2.719   8.406  1.00  0.00     0.049 A 
ATOM     47  H   UNL     1       0.103   4.717   8.286  1.00  0.00     0.167 HD
ATOM     48  C   UNL     1      -0.838   8.963   8.054  1.00  0.00     0.034 A 
ATOM     49  C   UNL     1       0.366   2.287   9.644  1.00  0.00     0.034 A 
ATOM     50  C   UNL     1      -1.312   8.560   9.350  1.00  0.00     0.049 A 
ATOM     51  C   UNL     1      -0.286   3.232  10.623  1.00  0.00     0.074 A 
ATOM     52  C   UNL     1      -1.960   9.324  10.306  1.00  0.00     0.029 A 
ATOM     53  N   UNL     1      -1.190   7.284   9.876  1.00  0.00    -0.354 N 
ATOM     54  N   UNL     1      -0.653   4.478  10.451  1.00  0.00    -0.248 NA
ATOM     55  C   UNL     1      -0.596   2.697  11.959  1.00  0.00     0.031 C 
ATOM     56  C   UNL     1      -2.221   8.512  11.414  1.00  0.00     0.029 A 
ATOM     57  C   UNL     1      -1.749   7.239  11.142  1.00  0.00     0.049 A 
ATOM     58  H   UNL     1      -0.769   6.522   9.416  1.00  0.00     0.167 HD
ATOM     59  C   UNL     1      -1.266   4.864  11.640  1.00  0.00     0.074 A 
ATOM     60  C   UNL     1      -1.242   3.712  12.516  1.00  0.00     0.031 C 
ATOM     61  C   UNL     1      -1.783   6.070  11.983  1.00  0.00     0.034 A 
BRANCH  48  62
ATOM     62  C   UNL     1      -1.076  10.387   7.627  1.00  0.00     0.023 A 
ATOM     63  C   UNL     1      -2.105  10.668   6.705  1.00  0.00     0.012 A 
ATOM     64  C   UNL     1      -0.324  11.446   8.171  1.00  0.00     0.148 A 
ATOM     65  C   UNL     1      -2.365  11.980   6.312  1.00  0.00     0.002 A 
ATOM     66  C   UNL     1      -0.614  12.755   7.802  1.00  0.00     0.091 A 
ATOM     67  F   UNL     1       0.665  11.155   9.027  1.00  0.00    -0.205 F 
ATOM     68  C   UNL     1      -1.628  13.023   6.867  1.00  0.00     0.022 A 
BRANCH  66  69
ATOM     69  S   UNL     1       0.236  14.169   8.513  1.00  0.00     0.127 S 
ATOM     70  O   UNL     1       1.099  14.581   7.407  1.00  0.00    -0.237 OA
ATOM     71  O   UNL     1      -0.869  15.085   8.797  1.00  0.00    -0.237 OA
ATOM     72  O   UNL     1       0.925  13.668   9.694  1.00  0.00    -0.744 OA
ENDBRANCH  66  69
ENDBRANCH  48  62
BRANCH  49  73
ATOM     73  C   UNL     1       0.636   0.873  10.032  1.00  0.00     0.023 A 
ATOM     74  C   UNL     1      -0.443  -0.004  10.256  1.00  0.00     0.012 A 
ATOM     75  C   UNL     1       1.952   0.394  10.184  1.00  0.00     0.148 A 
ATOM     76  C   UNL     1      -0.218  -1.321  10.657  1.00  0.00     0.002 A 
ATOM     77  C   UNL     1       2.170  -0.935  10.529  1.00  0.00     0.091 A 
ATOM     78  F   UNL     1       2.967   1.249   9.994  1.00  0.00    -0.205 F 
ATOM     79  C   UNL     1       1.086  -1.790  10.783  1.00  0.00     0.022 A 
BRANCH  77  80
ATOM     80  S   UNL     1       3.818  -1.647  10.585  1.00  0.00     0.127 S 
ATOM     81  O   UNL     1       4.068  -1.712  12.021  1.00  0.00    -0.237 OA
ATOM     82  O   UNL     1       3.614  -2.942   9.934  1.00  0.00    -0.237 OA
ATOM     83  O   UNL     1       4.660  -0.728   9.830  1.00  0.00    -0.744 OA
ENDBRANCH  77  80
ENDBRANCH  49  73
BRANCH  61  84
ATOM     84  C   UNL     1      -2.401   6.210  13.351  1.00  0.00     0.023 A 
ATOM     85  C   UNL     1      -1.570   6.271  14.488  1.00  0.00     0.012 A 
ATOM     86  C   UNL     1      -3.794   6.357  13.506  1.00  0.00     0.148 A 
ATOM     87  C   UNL     1      -2.117   6.446  15.759  1.00  0.00     0.002 A 
ATOM     88  C   UNL     1      -4.329   6.574  14.772  1.00  0.00     0.091 A 
ATOM     89  F   UNL     1      -4.572   6.276  12.417  1.00  0.00    -0.205 F 
ATOM     90  C   UNL     1      -3.493   6.609  15.900  1.00  0.00     0.022 A 
BRANCH  88  91
ATOM     91  S   UNL     1      -6.080   6.883  15.032  1.00  0.00     0.127 S 
ATOM     92  O   UNL     1      -6.538   5.593  15.546  1.00  0.00    -0.237 OA
ATOM     93  O   UNL     1      -6.066   7.962  16.021  1.00  0.00    -0.237 OA
ATOM     94  O   UNL     1      -6.612   7.267  13.732  1.00  0.00    -0.744 OA
ENDBRANCH  88  91
ENDBRANCH  61  84
ENDBRANCH  35  36
ENDBRANCH  28  30
ENDBRANCH  27  28
ENDBRANCH  26  27
ENDBRANCH  25  26
ENDBRANCH  24  25
ENDBRANCH  23  24
ENDBRANCH   1  23
TORSDOF 24
