REMARK SMILES CCC[N@@H+]1CC2(CC[NH+](c3nccnc3C)CC2)C[C@H]1C(=O)OCCOCCOCCOC(=O)c1ccc(-c2c3nc(c(-c4cccc(S(=O)(=O)[O-])c4F)c4ccc([nH]4)c(-c4cccc(S(=O)(=O)[O-])c4F)c4nc(c(-c5cccc(S(=O)(=O)[O-])c5F)c5ccc2[nH]5)C=C4)C=C3)cc1
REMARK SMILES IDX 28 1 27 2 26 3 25 4 24 5 23 6 21 7 22 8 20 9 4 10 5 11 6 13
REMARK SMILES IDX 19 14 7 15 18 16 8 17 17 18 9 19 3 21 2 22 1 23 10 24 11 25
REMARK SMILES IDX 15 26 12 27 14 28 16 29 13 30 29 31 30 32 31 33 32 34 33 35
REMARK SMILES IDX 34 36 35 37 36 38 97 39 37 40 96 41 38 42 39 43 40 44 90 45
REMARK SMILES IDX 41 46 95 47 89 48 91 49 42 50 94 51 88 52 87 53 43 55 75 56
REMARK SMILES IDX 55 57 74 58 56 59 59 60 73 61 92 62 57 63 58 64 72 66 93 67
REMARK SMILES IDX 60 68 44 69 45 70 53 71 46 72 48 73 54 74 47 75 49 76 50 77
REMARK SMILES IDX 51 78 52 79 76 80 77 81 85 82 78 83 80 84 86 85 79 86 81 87
REMARK SMILES IDX 82 88 83 89 84 90 61 91 62 92 70 93 63 94 65 95 71 96 64 97
REMARK SMILES IDX 66 98 67 99 68 100 69 101
REMARK H PARENT 4 12 9 20 91 54 59 65
REMARK Flexibility Score: inf
ROOT
ATOM      1  C   UNL     1      -0.865  -3.464   4.187  1.00  0.00     0.188 C 
ENDROOT
BRANCH   1   2
ATOM      2  C   UNL     1      -0.072  -4.087   5.343  1.00  0.00     0.188 C 
BRANCH   2   3
ATOM      3  O   UNL     1      -0.620  -3.742   6.597  1.00  0.00    -0.376 OA
BRANCH   3   4
ATOM      4  C   UNL     1      -0.146  -2.572   7.241  1.00  0.00     0.202 C 
BRANCH   4   5
ATOM      5  C   UNL     1       0.472  -1.341   6.533  1.00  0.00     0.261 C 
BRANCH   5   6
ATOM      6  O   UNL     1       0.729  -1.392   5.123  1.00  0.00    -0.459 OA
BRANCH   6   7
ATOM      7  C   UNL     1       2.001  -1.640   4.729  1.00  0.00     0.365 C 
ATOM      8  O   UNL     1       2.923  -1.832   5.518  1.00  0.00    -0.245 OA
BRANCH   7   9
ATOM      9  C   UNL     1       2.244  -1.591   3.205  1.00  0.00     0.295 C 
ATOM     10  N   UNL     1       1.058  -1.573   2.288  1.00  0.00    -0.323 N 
ATOM     11  C   UNL     1       0.586  -0.195   2.277  1.00  0.00     0.270 C 
ATOM     12  H   UNL     1       0.295  -2.169   2.608  1.00  0.00     0.348 HD
ATOM     13  C   UNL     1       1.830   0.691   2.468  1.00  0.00     0.036 C 
ATOM     14  C   UNL     1       2.948  -0.282   2.903  1.00  0.00     0.091 C 
ATOM     15  C   UNL     1       1.537   1.751   3.562  1.00  0.00     0.075 C 
ATOM     16  C   UNL     1       2.282   1.361   1.153  1.00  0.00     0.075 C 
ATOM     17  C   UNL     1       0.668   2.906   3.051  1.00  0.00     0.269 C 
ATOM     18  C   UNL     1       1.325   2.455   0.697  1.00  0.00     0.269 C 
ATOM     19  N   UNL     1       1.210   3.386   1.797  1.00  0.00    -0.284 N 
ATOM     20  H   UNL     1       0.949   3.792   2.655  1.00  0.00     0.355 HD
BRANCH  10  21
ATOM     21  C   UNL     1       1.383  -2.159   0.972  1.00  0.00     0.262 C 
BRANCH  21  22
ATOM     22  C   UNL     1       0.357  -2.022  -0.176  1.00  0.00     0.058 C 
ATOM     23  C   UNL     1       0.591  -0.837  -1.107  1.00  0.00     0.010 C 
ENDBRANCH  21  22
ENDBRANCH  10  21
BRANCH  19  24
ATOM     24  C   UNL     1       1.510   4.697   1.542  1.00  0.00     0.247 A 
ATOM     25  N   UNL     1       0.823   5.292   0.536  1.00  0.00    -0.202 NA
ATOM     26  C   UNL     1       2.573   5.376   2.171  1.00  0.00     0.119 A 
ATOM     27  C   UNL     1       1.192   6.545   0.202  1.00  0.00     0.137 A 
ATOM     28  N   UNL     1       2.925   6.651   1.840  1.00  0.00    -0.252 NA
ATOM     29  C   UNL     1       3.446   4.709   3.192  1.00  0.00     0.075 C 
ATOM     30  C   UNL     1       2.217   7.210   0.841  1.00  0.00     0.132 A 
ENDBRANCH  19  24
ENDBRANCH   7   9
ENDBRANCH   6   7
ENDBRANCH   5   6
ENDBRANCH   4   5
ENDBRANCH   3   4
ENDBRANCH   2   3
ENDBRANCH   1   2
BRANCH   1  31
ATOM     31  O   UNL     1      -1.864  -2.525   4.522  1.00  0.00    -0.376 OA
BRANCH  31  32
ATOM     32  C   UNL     1      -3.068  -2.985   5.109  1.00  0.00     0.202 C 
BRANCH  32  33
ATOM     33  C   UNL     1      -3.507  -4.465   5.248  1.00  0.00     0.261 C 
BRANCH  33  34
ATOM     34  O   UNL     1      -2.589  -5.513   4.911  1.00  0.00    -0.460 OA
BRANCH  34  35
ATOM     35  C   UNL     1      -2.657  -6.015   3.653  1.00  0.00     0.338 C 
ATOM     36  O   UNL     1      -3.429  -5.674   2.769  1.00  0.00    -0.246 OA
BRANCH  35  37
ATOM     37  C   UNL     1      -1.481  -6.893   3.440  1.00  0.00     0.060 A 
ATOM     38  C   UNL     1      -0.497  -6.515   2.512  1.00  0.00     0.016 A 
ATOM     39  C   UNL     1      -1.339  -8.075   4.167  1.00  0.00     0.016 A 
ATOM     40  C   UNL     1       0.623  -7.324   2.299  1.00  0.00     0.010 A 
ATOM     41  C   UNL     1      -0.233  -8.899   3.929  1.00  0.00     0.010 A 
ATOM     42  C   UNL     1       0.741  -8.542   2.977  1.00  0.00    -0.014 A 
BRANCH  42  43
ATOM     43  C   UNL     1       1.785  -9.523   2.580  1.00  0.00     0.031 A 
ATOM     44  C   UNL     1       1.389 -10.676   1.696  1.00  0.00     0.074 A 
ATOM     45  C   UNL     1       3.054  -9.419   3.016  1.00  0.00     0.049 A 
ATOM     46  N   UNL     1       2.101 -11.696   1.294  1.00  0.00    -0.248 NA
ATOM     47  C   UNL     1       0.000 -10.681   1.206  1.00  0.00     0.031 C 
ATOM     48  C   UNL     1       3.573  -8.352   3.868  1.00  0.00     0.029 A 
ATOM     49  N   UNL     1       4.131 -10.253   2.827  1.00  0.00    -0.354 N 
ATOM     50  C   UNL     1       1.241 -12.485   0.540  1.00  0.00     0.074 A 
ATOM     51  C   UNL     1      -0.047 -11.825   0.538  1.00  0.00     0.031 C 
ATOM     52  C   UNL     1       4.857  -8.617   4.166  1.00  0.00     0.029 A 
ATOM     53  C   UNL     1       5.242  -9.888   3.552  1.00  0.00     0.049 A 
ATOM     54  H   UNL     1       4.109 -11.036   2.231  1.00  0.00     0.167 HD
ATOM     55  C   UNL     1       1.498 -13.651  -0.098  1.00  0.00     0.034 A 
ATOM     56  C   UNL     1       6.418 -10.524   3.732  1.00  0.00     0.034 A 
ATOM     57  C   UNL     1       2.780 -14.302  -0.112  1.00  0.00     0.049 A 
ATOM     58  C   UNL     1       6.670 -11.838   3.033  1.00  0.00     0.074 A 
ATOM     59  C   UNL     1       3.149 -15.454  -0.784  1.00  0.00     0.029 A 
ATOM     60  N   UNL     1       3.893 -13.877   0.594  1.00  0.00    -0.354 N 
ATOM     61  N   UNL     1       5.887 -12.506   2.220  1.00  0.00    -0.248 NA
ATOM     62  C   UNL     1       7.981 -12.470   3.251  1.00  0.00     0.031 C 
ATOM     63  C   UNL     1       4.472 -15.752  -0.448  1.00  0.00     0.029 A 
ATOM     64  C   UNL     1       4.944 -14.757   0.393  1.00  0.00     0.049 A 
ATOM     65  H   UNL     1       3.932 -13.070   1.156  1.00  0.00     0.167 HD
ATOM     66  C   UNL     1       6.622 -13.613   1.804  1.00  0.00     0.074 A 
ATOM     67  C   UNL     1       7.920 -13.514   2.435  1.00  0.00     0.031 C 
ATOM     68  C   UNL     1       6.250 -14.627   0.983  1.00  0.00     0.034 A 
BRANCH  55  69
ATOM     69  C   UNL     1       0.368 -14.308  -0.847  1.00  0.00     0.023 A 
ATOM     70  C   UNL     1      -0.093 -13.752  -2.056  1.00  0.00     0.012 A 
ATOM     71  C   UNL     1      -0.180 -15.523  -0.389  1.00  0.00     0.148 A 
ATOM     72  C   UNL     1      -1.101 -14.381  -2.786  1.00  0.00     0.002 A 
ATOM     73  C   UNL     1      -1.150 -16.168  -1.145  1.00  0.00     0.091 A 
ATOM     74  F   UNL     1       0.260 -16.023   0.775  1.00  0.00    -0.205 F 
ATOM     75  C   UNL     1      -1.620 -15.593  -2.337  1.00  0.00     0.022 A 
BRANCH  73  76
ATOM     76  S   UNL     1      -1.819 -17.773  -0.698  1.00  0.00     0.127 S 
ATOM     77  O   UNL     1      -3.207 -17.437  -0.384  1.00  0.00    -0.237 OA
ATOM     78  O   UNL     1      -1.641 -18.533  -1.936  1.00  0.00    -0.237 OA
ATOM     79  O   UNL     1      -1.024 -18.244   0.427  1.00  0.00    -0.744 OA
ENDBRANCH  73  76
ENDBRANCH  55  69
BRANCH  56  80
ATOM     80  C   UNL     1       7.464  -9.934   4.618  1.00  0.00     0.023 A 
ATOM     81  C   UNL     1       8.678  -9.481   4.064  1.00  0.00     0.012 A 
ATOM     82  C   UNL     1       7.267  -9.838   6.010  1.00  0.00     0.148 A 
ATOM     83  C   UNL     1       9.691  -8.980   4.884  1.00  0.00     0.002 A 
ATOM     84  C   UNL     1       8.256  -9.282   6.813  1.00  0.00     0.091 A 
ATOM     85  F   UNL     1       6.115 -10.293   6.521  1.00  0.00    -0.205 F 
ATOM     86  C   UNL     1       9.477  -8.872   6.255  1.00  0.00     0.022 A 
BRANCH  84  87
ATOM     87  S   UNL     1       8.021  -8.992   8.569  1.00  0.00     0.127 S 
ATOM     88  O   UNL     1       8.946  -9.956   9.159  1.00  0.00    -0.237 OA
ATOM     89  O   UNL     1       8.426  -7.591   8.698  1.00  0.00    -0.237 OA
ATOM     90  O   UNL     1       6.608  -9.235   8.824  1.00  0.00    -0.744 OA
ENDBRANCH  84  87
ENDBRANCH  56  80
BRANCH  68  91
ATOM     91  C   UNL     1       7.270 -15.694   0.669  1.00  0.00     0.023 A 
ATOM     92  C   UNL     1       7.657 -16.618   1.659  1.00  0.00     0.012 A 
ATOM     93  C   UNL     1       7.789 -15.824  -0.636  1.00  0.00     0.148 A 
ATOM     94  C   UNL     1       8.572 -17.630   1.367  1.00  0.00     0.002 A 
ATOM     95  C   UNL     1       8.659 -16.866  -0.933  1.00  0.00     0.091 A 
ATOM     96  F   UNL     1       7.420 -14.928  -1.563  1.00  0.00    -0.205 F 
ATOM     97  C   UNL     1       9.063 -17.761   0.070  1.00  0.00     0.022 A 
BRANCH  95  98
ATOM     98  S   UNL     1       9.266 -17.174  -2.596  1.00  0.00     0.127 S 
ATOM     99  O   UNL     1      10.679 -16.823  -2.467  1.00  0.00    -0.237 OA
ATOM    100  O   UNL     1       9.005 -18.604  -2.761  1.00  0.00    -0.237 OA
ATOM    101  O   UNL     1       8.489 -16.311  -3.476  1.00  0.00    -0.744 OA
ENDBRANCH  95  98
ENDBRANCH  68  91
ENDBRANCH  42  43
ENDBRANCH  35  37
ENDBRANCH  34  35
ENDBRANCH  33  34
ENDBRANCH  32  33
ENDBRANCH  31  32
ENDBRANCH   1  31
TORSDOF 23
