REMARK SMILES COc1cc2c(cc1OC)[C@@H](CC(=O)OCCOCCOCCOC(=O)c1ccc(-c3c4nc(c(-c5cccc(S(=O)(=O)[O-])c5F)c5ccc([nH]5)c(-c5cccc(S(=O)(=O)[O-])c5F)c5nc(c(-c6cccc(S(=O)(=O)[O-])c6F)c6ccc3[nH]6)C=C5)C=C4)cc1)N(C(=O)Nc1ccc(Cl)cc1)CC2
REMARK SMILES IDX 19 1 18 2 17 3 16 4 15 5 13 6 14 7 12 8 11 9 3 10 4 11 8 12
REMARK SMILES IDX 5 13 7 14 6 15 102 16 101 17 90 18 2 19 1 20 9 21 10 22
REMARK SMILES IDX 91 23 92 24 93 25 94 27 95 28 100 29 96 30 99 31 97 32 98 33
REMARK SMILES IDX 20 34 21 35 22 36 23 37 24 38 25 39 26 40 27 41 28 42 89 43
REMARK SMILES IDX 29 44 88 45 30 46 31 47 32 48 82 49 33 50 87 51 81 52 83 53
REMARK SMILES IDX 34 54 86 55 80 56 79 57 35 59 67 60 47 61 66 62 48 63 51 64
REMARK SMILES IDX 65 65 84 66 49 67 50 68 64 70 85 71 52 72 36 73 37 74 45 75
REMARK SMILES IDX 38 76 40 77 46 78 39 79 41 80 42 81 43 82 44 83 68 84 69 85
REMARK SMILES IDX 77 86 70 87 72 88 78 89 71 90 73 91 74 92 75 93 76 94 53 95
REMARK SMILES IDX 54 96 62 97 55 98 57 99 63 100 56 101 58 102 59 103 60 104
REMARK SMILES IDX 61 105
REMARK H PARENT 93 26 83 58 51 69
REMARK Flexibility Score: inf
ROOT
ATOM      1  C   UNL     1       3.667  -4.224   8.846  1.00  0.00     0.188 C 
ENDROOT
BRANCH   1   2
ATOM      2  O   UNL     1       4.005  -4.214  10.218  1.00  0.00    -0.376 OA
BRANCH   2   3
ATOM      3  C   UNL     1       4.054  -2.957  10.886  1.00  0.00     0.202 C 
BRANCH   3   4
ATOM      4  C   UNL     1       4.593  -1.719  10.154  1.00  0.00     0.261 C 
BRANCH   4   5
ATOM      5  O   UNL     1       3.852  -1.377   8.961  1.00  0.00    -0.463 OA
BRANCH   5   6
ATOM      6  C   UNL     1       4.584  -0.828   7.963  1.00  0.00     0.308 C 
ATOM      7  O   UNL     1       5.801  -0.662   8.027  1.00  0.00    -0.252 OA
BRANCH   6   8
ATOM      8  C   UNL     1       3.846  -0.514   6.671  1.00  0.00     0.152 C 
BRANCH   8   9
ATOM      9  C   UNL     1       2.313  -0.498   6.447  1.00  0.00     0.128 C 
ATOM     10  C   UNL     1       1.162   0.141   2.247  1.00  0.00     0.161 A 
ATOM     11  C   UNL     1       0.219   0.120   3.272  1.00  0.00     0.054 A 
ATOM     12  C   UNL     1       2.506  -0.122   2.542  1.00  0.00     0.161 A 
ATOM     13  C   UNL     1       0.607  -0.120   4.594  1.00  0.00    -0.037 A 
ATOM     14  C   UNL     1       2.886  -0.327   3.885  1.00  0.00     0.056 A 
ATOM     15  C   UNL     1       1.956  -0.291   4.940  1.00  0.00    -0.018 A 
ATOM     16  C   UNL     1      -0.410  -0.230   5.675  1.00  0.00     0.057 C 
ATOM     17  C   UNL     1       0.059   0.551   6.888  1.00  0.00     0.127 C 
ATOM     18  N   UNL     1       1.442   0.340   7.327  1.00  0.00    -0.317 N 
BRANCH  10  19
ATOM     19  O   UNL     1       0.645   0.519   1.035  1.00  0.00    -0.493 OA
ATOM     20  C   UNL     1       1.078  -0.237  -0.088  1.00  0.00     0.278 C 
ENDBRANCH  10  19
BRANCH  12  21
ATOM     21  O   UNL     1       3.402  -0.106   1.506  1.00  0.00    -0.493 OA
ATOM     22  C   UNL     1       4.691  -0.664   1.742  1.00  0.00     0.278 C 
ENDBRANCH  12  21
BRANCH  18  23
ATOM     23  C   UNL     1       1.926   0.868   8.504  1.00  0.00     0.322 C 
ATOM     24  O   UNL     1       3.088   1.258   8.631  1.00  0.00    -0.248 OA
ATOM     25  N   UNL     1       1.163   0.872   9.646  1.00  0.00    -0.308 N 
ATOM     26  H   UNL     1       1.540   0.426  10.439  1.00  0.00     0.171 HD
BRANCH  25  27
ATOM     27  C   UNL     1      -0.104   1.453   9.782  1.00  0.00     0.042 A 
ATOM     28  C   UNL     1      -0.199   2.841   9.862  1.00  0.00     0.028 A 
ATOM     29  C   UNL     1      -1.252   0.657   9.819  1.00  0.00     0.028 A 
ATOM     30  C   UNL     1      -1.454   3.445   9.825  1.00  0.00     0.022 A 
ATOM     31  C   UNL     1      -2.506   1.264   9.737  1.00  0.00     0.022 A 
ATOM     32  C   UNL     1      -2.599   2.655   9.717  1.00  0.00     0.041 A 
ATOM     33  Cl  UNL     1      -4.133   3.408   9.523  1.00  0.00    -0.084 Cl
ENDBRANCH  25  27
ENDBRANCH  18  23
ENDBRANCH   8   9
ENDBRANCH   6   8
ENDBRANCH   5   6
ENDBRANCH   4   5
ENDBRANCH   3   4
ENDBRANCH   2   3
ENDBRANCH   1   2
BRANCH   1  34
ATOM     34  C   UNL     1       2.314  -3.635   8.435  1.00  0.00     0.188 C 
BRANCH  34  35
ATOM     35  O   UNL     1       1.502  -2.961   9.365  1.00  0.00    -0.376 OA
BRANCH  35  36
ATOM     36  C   UNL     1       0.697  -3.677  10.286  1.00  0.00     0.202 C 
BRANCH  36  37
ATOM     37  C   UNL     1       0.367  -5.184  10.227  1.00  0.00     0.261 C 
BRANCH  37  38
ATOM     38  O   UNL     1       1.019  -5.985   9.243  1.00  0.00    -0.460 OA
BRANCH  38  39
ATOM     39  C   UNL     1       0.341  -6.166   8.075  1.00  0.00     0.338 C 
ATOM     40  O   UNL     1      -0.749  -5.727   7.786  1.00  0.00    -0.246 OA
BRANCH  39  41
ATOM     41  C   UNL     1       1.296  -6.769   7.112  1.00  0.00     0.060 A 
ATOM     42  C   UNL     1       1.656  -6.031   5.973  1.00  0.00     0.016 A 
ATOM     43  C   UNL     1       1.889  -8.003   7.372  1.00  0.00     0.016 A 
ATOM     44  C   UNL     1       2.633  -6.516   5.103  1.00  0.00     0.010 A 
ATOM     45  C   UNL     1       2.837  -8.506   6.477  1.00  0.00     0.010 A 
ATOM     46  C   UNL     1       3.211  -7.769   5.337  1.00  0.00    -0.014 A 
BRANCH  46  47
ATOM     47  C   UNL     1       4.106  -8.388   4.331  1.00  0.00     0.031 A 
ATOM     48  C   UNL     1       3.525  -9.389   3.374  1.00  0.00     0.074 A 
ATOM     49  C   UNL     1       5.423  -8.114   4.306  1.00  0.00     0.049 A 
ATOM     50  N   UNL     1       4.133 -10.155   2.509  1.00  0.00    -0.248 NA
ATOM     51  C   UNL     1       2.062  -9.549   3.404  1.00  0.00     0.031 C 
ATOM     52  C   UNL     1       6.106  -7.151   5.168  1.00  0.00     0.029 A 
ATOM     53  N   UNL     1       6.430  -8.663   3.548  1.00  0.00    -0.354 N 
ATOM     54  C   UNL     1       3.135 -10.920   1.919  1.00  0.00     0.074 A 
ATOM     55  C   UNL     1       1.881 -10.520   2.520  1.00  0.00     0.031 C 
ATOM     56  C   UNL     1       7.427  -7.213   4.926  1.00  0.00     0.029 A 
ATOM     57  C   UNL     1       7.686  -8.245   3.923  1.00  0.00     0.049 A 
ATOM     58  H   UNL     1       6.268  -9.293   2.809  1.00  0.00     0.167 HD
ATOM     59  C   UNL     1       3.252 -11.871   0.963  1.00  0.00     0.034 A 
ATOM     60  C   UNL     1       8.903  -8.680   3.536  1.00  0.00     0.034 A 
ATOM     61  C   UNL     1       4.496 -12.264   0.361  1.00  0.00     0.049 A 
ATOM     62  C   UNL     1       9.008  -9.778   2.507  1.00  0.00     0.074 A 
ATOM     63  C   UNL     1       4.704 -13.177  -0.658  1.00  0.00     0.029 A 
ATOM     64  N   UNL     1       5.744 -11.793   0.737  1.00  0.00    -0.354 N 
ATOM     65  N   UNL     1       8.052 -10.406   1.865  1.00  0.00    -0.248 NA
ATOM     66  C   UNL     1      10.363 -10.215   2.133  1.00  0.00     0.031 C 
ATOM     67  C   UNL     1       6.082 -13.290  -0.868  1.00  0.00     0.029 A 
ATOM     68  C   UNL     1       6.729 -12.417  -0.009  1.00  0.00     0.049 A 
ATOM     69  H   UNL     1       5.905 -11.115   1.432  1.00  0.00     0.167 HD
ATOM     70  C   UNL     1       8.688 -11.288   0.996  1.00  0.00     0.074 A 
ATOM     71  C   UNL     1      10.112 -11.095   1.173  1.00  0.00     0.031 C 
ATOM     72  C   UNL     1       8.143 -12.187   0.139  1.00  0.00     0.034 A 
BRANCH  59  73
ATOM     73  C   UNL     1       1.995 -12.558   0.504  1.00  0.00     0.023 A 
ATOM     74  C   UNL     1       1.072 -11.866  -0.305  1.00  0.00     0.012 A 
ATOM     75  C   UNL     1       1.763 -13.911   0.820  1.00  0.00     0.148 A 
ATOM     76  C   UNL     1      -0.078 -12.503  -0.771  1.00  0.00     0.002 A 
ATOM     77  C   UNL     1       0.639 -14.552   0.315  1.00  0.00     0.091 A 
ATOM     78  F   UNL     1       2.643 -14.542   1.611  1.00  0.00    -0.205 F 
ATOM     79  C   UNL     1      -0.287 -13.847  -0.471  1.00  0.00     0.022 A 
BRANCH  77  80
ATOM     80  S   UNL     1       0.320 -16.299   0.578  1.00  0.00     0.127 S 
ATOM     81  O   UNL     1      -0.856 -16.255   1.446  1.00  0.00    -0.237 OA
ATOM     82  O   UNL     1       0.056 -16.769  -0.782  1.00  0.00    -0.237 OA
ATOM     83  O   UNL     1       1.525 -16.842   1.188  1.00  0.00    -0.744 OA
ENDBRANCH  77  80
ENDBRANCH  59  73
BRANCH  60  84
ATOM     84  C   UNL     1      10.135  -8.086   4.131  1.00  0.00     0.023 A 
ATOM     85  C   UNL     1      10.998  -7.318   3.326  1.00  0.00     0.012 A 
ATOM     86  C   UNL     1      10.459  -8.287   5.488  1.00  0.00     0.148 A 
ATOM     87  C   UNL     1      12.177  -6.789   3.851  1.00  0.00     0.002 A 
ATOM     88  C   UNL     1      11.606  -7.709   6.019  1.00  0.00     0.091 A 
ATOM     89  F   UNL     1       9.636  -9.038   6.233  1.00  0.00    -0.205 F 
ATOM     90  C   UNL     1      12.476  -6.975   5.198  1.00  0.00     0.022 A 
BRANCH  88  91
ATOM     91  S   UNL     1      12.011  -7.796   7.766  1.00  0.00     0.127 S 
ATOM     92  O   UNL     1      13.199  -8.645   7.756  1.00  0.00    -0.237 OA
ATOM     93  O   UNL     1      12.260  -6.390   8.086  1.00  0.00    -0.237 OA
ATOM     94  O   UNL     1      10.836  -8.362   8.415  1.00  0.00    -0.744 OA
ENDBRANCH  88  91
ENDBRANCH  60  84
BRANCH  72  95
ATOM     95  C   UNL     1       9.077 -13.021  -0.703  1.00  0.00     0.023 A 
ATOM     96  C   UNL     1       9.832 -14.050  -0.106  1.00  0.00     0.012 A 
ATOM     97  C   UNL     1       9.138 -12.843  -2.100  1.00  0.00     0.148 A 
ATOM     98  C   UNL     1      10.655 -14.868  -0.880  1.00  0.00     0.002 A 
ATOM     99  C   UNL     1       9.921 -13.694  -2.872  1.00  0.00     0.091 A 
ATOM    100  F   UNL     1       8.422 -11.851  -2.649  1.00  0.00    -0.205 F 
ATOM    101  C   UNL     1      10.689 -14.699  -2.262  1.00  0.00     0.022 A 
BRANCH  99 102
ATOM    102  S   UNL     1       9.957 -13.616  -4.667  1.00  0.00     0.127 S 
ATOM    103  O   UNL     1      11.325 -13.162  -4.917  1.00  0.00    -0.237 OA
ATOM    104  O   UNL     1       9.699 -15.007  -5.041  1.00  0.00    -0.237 OA
ATOM    105  O   UNL     1       8.912 -12.679  -5.053  1.00  0.00    -0.744 OA
ENDBRANCH  99 102
ENDBRANCH  72  95
ENDBRANCH  46  47
ENDBRANCH  39  41
ENDBRANCH  38  39
ENDBRANCH  37  38
ENDBRANCH  36  37
ENDBRANCH  35  36
ENDBRANCH  34  35
ENDBRANCH   1  34
TORSDOF 25
