REMARK SMILES O=C(OCCOCCOCCOC(=O)[C@@H]1C=C[C@H](NC(=O)[C@@H]2Cc3ccccc3O2)C1)c1ccc(-c2c3nc(c(-c4cccc(S(=O)(=O)[O-])c4F)c4ccc([nH]4)c(-c4cccc(S(=O)(=O)[O-])c4F)c4nc(c(-c5cccc(S(=O)(=O)[O-])c5F)c5ccc2[nH]5)C=C4)C=C3)cc1
REMARK SMILES IDX 7 1 6 2 5 3 4 4 3 5 2 6 1 7 32 8 33 9 94 10 34 11 93 12
REMARK SMILES IDX 35 13 36 14 37 15 87 16 38 17 92 18 86 19 88 20 39 21 91 22
REMARK SMILES IDX 85 23 84 24 40 26 72 27 52 28 71 29 53 30 56 31 70 32 89 33
REMARK SMILES IDX 54 34 55 35 69 37 90 38 57 39 41 40 42 41 50 42 43 43 45 44
REMARK SMILES IDX 51 45 44 46 46 47 47 48 48 49 49 50 73 51 74 52 82 53 75 54
REMARK SMILES IDX 77 55 83 56 76 57 78 58 79 59 80 60 81 61 58 62 59 63 67 64
REMARK SMILES IDX 60 65 62 66 68 67 61 68 63 69 64 70 65 71 66 72 8 73 9 74
REMARK SMILES IDX 10 75 11 76 12 77 13 78 14 79 15 80 16 81 31 82 17 83 18 84
REMARK SMILES IDX 19 85 20 86 21 88 22 89 23 90 30 91 24 92 29 93 25 94 28 95
REMARK SMILES IDX 26 96 27 97
REMARK H PARENT 88 25 56 36 19 87
REMARK Flexibility Score: inf
ROOT
ATOM      1  C   UNL     1       8.230   6.911   8.688  1.00  0.00     0.188 C 
ENDROOT
BRANCH   1   2
ATOM      2  O   UNL     1       6.902   7.321   8.434  1.00  0.00    -0.376 OA
BRANCH   2   3
ATOM      3  C   UNL     1       6.155   7.803   9.546  1.00  0.00     0.202 C 
BRANCH   3   4
ATOM      4  C   UNL     1       6.424   7.303  10.982  1.00  0.00     0.261 C 
BRANCH   4   5
ATOM      5  O   UNL     1       7.266   6.144  11.253  1.00  0.00    -0.460 OA
BRANCH   5   6
ATOM      6  C   UNL     1       7.361   4.858  10.841  1.00  0.00     0.338 C 
ATOM      7  O   UNL     1       8.411   4.256  11.059  1.00  0.00    -0.246 OA
BRANCH   6   8
ATOM      8  C   UNL     1       6.293   4.163  10.069  1.00  0.00     0.060 A 
ATOM      9  C   UNL     1       5.038   4.700   9.911  1.00  0.00     0.016 A 
ATOM     10  C   UNL     1       6.540   2.902   9.471  1.00  0.00     0.016 A 
ATOM     11  C   UNL     1       4.140   4.101   9.029  1.00  0.00     0.010 A 
ATOM     12  C   UNL     1       5.639   2.313   8.536  1.00  0.00     0.010 A 
ATOM     13  C   UNL     1       4.477   3.002   8.177  1.00  0.00    -0.014 A 
BRANCH  13  14
ATOM     14  C   UNL     1       3.291   2.546   6.991  1.00  0.00     0.031 A 
ATOM     15  C   UNL     1       2.189   2.055   8.423  1.00  0.00     0.074 A 
ATOM     16  C   UNL     1       2.902   3.013   5.169  1.00  0.00     0.049 A 
ATOM     17  N   UNL     1       0.873   2.225   8.461  1.00  0.00    -0.248 NA
ATOM     18  C   UNL     1       2.618   1.643   9.794  1.00  0.00     0.031 C 
ATOM     19  C   UNL     1       3.545   4.090   4.030  1.00  0.00     0.029 A 
ATOM     20  N   UNL     1       1.778   2.740   4.214  1.00  0.00    -0.354 N 
ATOM     21  C   UNL     1       0.370   1.471   9.454  1.00  0.00     0.074 A 
ATOM     22  C   UNL     1       1.445   1.419  10.415  1.00  0.00     0.031 C 
ATOM     23  C   UNL     1       2.924   4.032   2.841  1.00  0.00     0.029 A 
ATOM     24  C   UNL     1       1.876   3.071   2.912  1.00  0.00     0.049 A 
ATOM     25  H   UNL     1       0.955   2.312   4.545  1.00  0.00     0.167 HD
ATOM     26  C   UNL     1      -0.801   0.788   9.421  1.00  0.00     0.034 A 
ATOM     27  C   UNL     1       1.153   2.459   1.961  1.00  0.00     0.034 A 
ATOM     28  C   UNL     1      -1.619   0.488   8.229  1.00  0.00     0.049 A 
ATOM     29  C   UNL     1       0.028   1.562   2.430  1.00  0.00     0.074 A 
ATOM     30  C   UNL     1      -2.849  -0.152   8.225  1.00  0.00     0.029 A 
ATOM     31  N   UNL     1      -1.291   0.623   6.859  1.00  0.00    -0.354 N 
ATOM     32  N   UNL     1      -0.359   1.296   3.669  1.00  0.00    -0.248 NA
ATOM     33  C   UNL     1      -0.801   0.972   1.395  1.00  0.00     0.031 C 
ATOM     34  C   UNL     1      -3.211  -0.451   6.903  1.00  0.00     0.029 A 
ATOM     35  C   UNL     1      -2.273   0.078   6.021  1.00  0.00     0.049 A 
ATOM     36  H   UNL     1      -0.467   1.051   6.531  1.00  0.00     0.167 HD
ATOM     37  C   UNL     1      -1.524   0.550   3.580  1.00  0.00     0.074 A 
ATOM     38  C   UNL     1      -1.760   0.426   2.135  1.00  0.00     0.031 C 
ATOM     39  C   UNL     1      -2.352   0.041   4.547  1.00  0.00     0.034 A 
BRANCH  26  40
ATOM     40  C   UNL     1      -1.243   0.308  10.771  1.00  0.00     0.023 A 
ATOM     41  C   UNL     1      -1.593   1.278  11.738  1.00  0.00     0.012 A 
ATOM     42  C   UNL     1      -1.337  -1.054  11.091  1.00  0.00     0.148 A 
ATOM     43  C   UNL     1      -1.979   0.900  13.020  1.00  0.00     0.002 A 
ATOM     44  C   UNL     1      -1.762  -1.426  12.360  1.00  0.00     0.091 A 
ATOM     45  F   UNL     1      -0.994  -1.955  10.160  1.00  0.00    -0.205 F 
ATOM     46  C   UNL     1      -2.067  -0.453  13.329  1.00  0.00     0.022 A 
BRANCH  44  47
ATOM     47  S   UNL     1      -1.966  -3.140  12.848  1.00  0.00     0.127 S 
ATOM     48  O   UNL     1      -0.954  -3.267  13.897  1.00  0.00    -0.237 OA
ATOM     49  O   UNL     1      -3.348  -3.155  13.327  1.00  0.00    -0.237 OA
ATOM     50  O   UNL     1      -1.721  -3.933  11.652  1.00  0.00    -0.744 OA
ENDBRANCH  44  47
ENDBRANCH  26  40
BRANCH  27  51
ATOM     51  C   UNL     1       1.608   2.628   0.572  1.00  0.00     0.023 A 
ATOM     52  C   UNL     1       1.177   3.734  -0.170  1.00  0.00     0.012 A 
ATOM     53  C   UNL     1       2.687   1.852   0.106  1.00  0.00     0.148 A 
ATOM     54  C   UNL     1       1.849   4.092  -1.337  1.00  0.00     0.002 A 
ATOM     55  C   UNL     1       3.416   2.275  -0.994  1.00  0.00     0.091 A 
ATOM     56  F   UNL     1       2.982   0.713   0.744  1.00  0.00    -0.205 F 
ATOM     57  C   UNL     1       2.992   3.391  -1.726  1.00  0.00     0.022 A 
BRANCH  55  58
ATOM     58  S   UNL     1       5.027   1.569  -1.376  1.00  0.00     0.127 S 
ATOM     59  O   UNL     1       4.714   0.680  -2.490  1.00  0.00    -0.237 OA
ATOM     60  O   UNL     1       5.808   2.755  -1.731  1.00  0.00    -0.237 OA
ATOM     61  O   UNL     1       5.461   0.922  -0.143  1.00  0.00    -0.744 OA
ENDBRANCH  55  58
ENDBRANCH  27  51
BRANCH  39  62
ATOM     62  C   UNL     1      -3.617  -0.579   3.971  1.00  0.00     0.023 A 
ATOM     63  C   UNL     1      -3.573  -1.777   3.226  1.00  0.00     0.012 A 
ATOM     64  C   UNL     1      -4.850   0.087   4.134  1.00  0.00     0.148 A 
ATOM     65  C   UNL     1      -4.716  -2.245   2.576  1.00  0.00     0.002 A 
ATOM     66  C   UNL     1      -5.998  -0.434   3.556  1.00  0.00     0.091 A 
ATOM     67  F   UNL     1      -4.870   1.229   4.835  1.00  0.00    -0.205 F 
ATOM     68  C   UNL     1      -5.928  -1.580   2.748  1.00  0.00     0.022 A 
BRANCH  66  69
ATOM     69  S   UNL     1      -7.620   0.287   3.820  1.00  0.00     0.127 S 
ATOM     70  O   UNL     1      -7.949   0.777   2.482  1.00  0.00    -0.237 OA
ATOM     71  O   UNL     1      -8.399  -0.871   4.256  1.00  0.00    -0.237 OA
ATOM     72  O   UNL     1      -7.444   1.319   4.833  1.00  0.00    -0.744 OA
ENDBRANCH  66  69
ENDBRANCH  39  62
ENDBRANCH  13  14
ENDBRANCH   6   8
ENDBRANCH   5   6
ENDBRANCH   4   5
ENDBRANCH   3   4
ENDBRANCH   2   3
ENDBRANCH   1   2
BRANCH   1  73
ATOM     73  C   UNL     1       9.337   7.426   7.762  1.00  0.00     0.188 C 
BRANCH  73  74
ATOM     74  O   UNL     1       9.397   8.813   7.469  1.00  0.00    -0.376 OA
BRANCH  74  75
ATOM     75  C   UNL     1       8.192   9.456   7.067  1.00  0.00     0.202 C 
BRANCH  75  76
ATOM     76  C   UNL     1       7.409   8.939   5.845  1.00  0.00     0.261 C 
BRANCH  76  77
ATOM     77  O   UNL     1       7.425   7.517   5.684  1.00  0.00    -0.463 OA
BRANCH  77  78
ATOM     78  C   UNL     1       8.307   7.064   4.758  1.00  0.00     0.312 C 
ATOM     79  O   UNL     1       8.979   7.781   4.023  1.00  0.00    -0.252 OA
BRANCH  78  80
ATOM     80  C   UNL     1       8.443   5.560   4.735  1.00  0.00     0.124 C 
ATOM     81  C   UNL     1       7.480   4.961   3.793  1.00  0.00    -0.014 C 
ATOM     82  C   UNL     1       8.190   4.703   5.992  1.00  0.00     0.048 C 
ATOM     83  C   UNL     1       6.673   4.182   4.507  1.00  0.00    -0.006 C 
ATOM     84  C   UNL     1       6.711   4.309   5.992  1.00  0.00     0.106 C 
BRANCH  84  85
ATOM     85  N   UNL     1       5.659   5.288   6.510  1.00  0.00    -0.347 N 
ATOM     86  C   UNL     1       4.258   5.353   6.725  1.00  0.00     0.261 C 
ATOM     87  H   UNL     1       6.084   6.134   6.778  1.00  0.00     0.164 HD
ATOM     88  O   UNL     1       3.936   6.477   7.192  1.00  0.00    -0.271 OA
BRANCH  86  89
ATOM     89  C   UNL     1       2.838   4.292   6.517  1.00  0.00     0.266 C 
ATOM     90  C   UNL     1       1.527   2.618   6.326  1.00  0.00     0.095 C 
ATOM     91  O   UNL     1       4.524   3.397   5.875  1.00  0.00    -0.480 OA
ATOM     92  C   UNL     1       2.696   1.058   5.688  1.00  0.00    -0.002 A 
ATOM     93  C   UNL     1       4.338   1.613   5.391  1.00  0.00     0.123 A 
ATOM     94  C   UNL     1       2.225   0.028   4.880  1.00  0.00     0.008 A 
ATOM     95  C   UNL     1       4.916   1.323   4.156  1.00  0.00     0.047 A 
ATOM     96  C   UNL     1       3.034  -0.287   3.743  1.00  0.00     0.001 A 
ATOM     97  C   UNL     1       4.260   0.364   3.374  1.00  0.00     0.004 A 
ENDBRANCH  86  89
ENDBRANCH  84  85
ENDBRANCH  78  80
ENDBRANCH  77  78
ENDBRANCH  76  77
ENDBRANCH  75  76
ENDBRANCH  74  75
ENDBRANCH  73  74
ENDBRANCH   1  73
TORSDOF 22
