REMARK SMILES CS(=O)(=O)c1ccc(/C=C(/C(=O)OCCOCCOCCOC(=O)c2ccc(-c3c4nc(c(-c5cccc(S(=O)(=O)[O-])c5F)c5ccc([nH]5)c(-c5cccc(S(=O)(=O)[O-])c5F)c5nc(c(-c6cccc(S(=O)(=O)[O-])c6F)c6ccc3[nH]6)C=C5)C=C4)cc2)c2cccc(Br)c2)cc1
REMARK SMILES IDX 18 1 17 2 16 3 15 4 14 5 13 6 11 7 12 8 10 9 9 10 8 11 5 12
REMARK SMILES IDX 6 13 96 14 7 15 95 16 2 17 1 18 3 19 4 20 88 21 89 22 94 23
REMARK SMILES IDX 90 24 92 25 91 26 93 27 19 28 20 29 21 30 22 31 23 32 24 33
REMARK SMILES IDX 25 34 26 35 87 36 27 37 86 38 28 39 29 40 30 41 80 42 31 43
REMARK SMILES IDX 85 44 79 45 81 46 32 47 84 48 78 49 77 50 33 52 65 53 45 54
REMARK SMILES IDX 64 55 46 56 49 57 63 58 82 59 47 60 48 61 62 63 83 64 50 65
REMARK SMILES IDX 34 66 35 67 43 68 36 69 38 70 44 71 37 72 39 73 40 74 41 75
REMARK SMILES IDX 42 76 66 77 67 78 75 79 68 80 70 81 76 82 69 83 71 84 72 85
REMARK SMILES IDX 73 86 74 87 51 88 52 89 60 90 53 91 55 92 61 93 54 94 56 95
REMARK SMILES IDX 57 96 58 97 59 98
REMARK H PARENT 81 51 49 62
REMARK Flexibility Score: inf
ROOT
ATOM      1  C   UNL     1       0.911   0.484   9.848  1.00  0.00     0.188 C 
ENDROOT
BRANCH   1   2
ATOM      2  C   UNL     1       1.909  -0.451  10.562  1.00  0.00     0.188 C 
BRANCH   2   3
ATOM      3  O   UNL     1       2.689   0.197  11.556  1.00  0.00    -0.376 OA
BRANCH   3   4
ATOM      4  C   UNL     1       4.073   0.325  11.265  1.00  0.00     0.202 C 
BRANCH   4   5
ATOM      5  C   UNL     1       4.398   1.399  10.222  1.00  0.00     0.261 C 
BRANCH   5   6
ATOM      6  O   UNL     1       3.701   1.249   8.972  1.00  0.00    -0.460 OA
BRANCH   6   7
ATOM      7  C   UNL     1       4.170   0.318   8.107  1.00  0.00     0.338 C 
ATOM      8  O   UNL     1       5.153  -0.381   8.293  1.00  0.00    -0.246 OA
BRANCH   7   9
ATOM      9  C   UNL     1       3.269   0.205   6.908  1.00  0.00     0.067 C 
ATOM     10  C   UNL     1       2.651   1.316   6.436  1.00  0.00     0.024 C 
BRANCH  10  11
ATOM     11  C   UNL     1       1.864   1.465   5.189  1.00  0.00    -0.025 A 
ATOM     12  C   UNL     1       0.772   1.700   2.618  1.00  0.00     0.067 A 
ATOM     13  C   UNL     1       0.446   0.598   3.408  1.00  0.00     0.021 A 
ATOM     14  C   UNL     1       1.532   2.745   3.142  1.00  0.00     0.021 A 
ATOM     15  C   UNL     1       0.972   0.500   4.700  1.00  0.00     0.009 A 
ATOM     16  C   UNL     1       2.073   2.624   4.425  1.00  0.00     0.009 A 
BRANCH  12  17
ATOM     17  S   UNL     1       0.281   1.729   0.912  1.00  0.00     0.175 S 
ATOM     18  C   UNL     1       1.048   0.281   0.223  1.00  0.00     0.163 C 
ATOM     19  O   UNL     1       0.914   2.883   0.293  1.00  0.00    -0.224 OA
ATOM     20  O   UNL     1      -1.156   1.560   0.873  1.00  0.00    -0.224 OA
ENDBRANCH  12  17
ENDBRANCH  10  11
BRANCH   9  21
ATOM     21  C   UNL     1       3.120  -1.118   6.268  1.00  0.00    -0.010 A 
ATOM     22  C   UNL     1       2.305  -2.091   6.872  1.00  0.00     0.009 A 
ATOM     23  C   UNL     1       3.671  -1.376   5.007  1.00  0.00     0.024 A 
ATOM     24  C   UNL     1       2.022  -3.289   6.215  1.00  0.00     0.002 A 
ATOM     25  C   UNL     1       3.367  -2.568   4.349  1.00  0.00     0.018 A 
ATOM     26  C   UNL     1       2.544  -3.524   4.945  1.00  0.00     0.016 A 
ATOM     27  Br  UNL     1       4.025  -2.858   2.600  1.00  0.00    -0.051 Br
ENDBRANCH   9  21
ENDBRANCH   7   9
ENDBRANCH   6   7
ENDBRANCH   5   6
ENDBRANCH   4   5
ENDBRANCH   3   4
ENDBRANCH   2   3
ENDBRANCH   1   2
BRANCH   1  28
ATOM     28  O   UNL     1       0.567   1.741  10.420  1.00  0.00    -0.376 OA
BRANCH  28  29
ATOM     29  C   UNL     1       0.381   1.832  11.825  1.00  0.00     0.202 C 
BRANCH  29  30
ATOM     30  C   UNL     1      -0.738   1.003  12.467  1.00  0.00     0.261 C 
BRANCH  30  31
ATOM     31  O   UNL     1      -0.715  -0.394  12.132  1.00  0.00    -0.460 OA
BRANCH  31  32
ATOM     32  C   UNL     1      -1.725  -0.810  11.328  1.00  0.00     0.338 C 
ATOM     33  O   UNL     1      -2.644  -0.139  10.892  1.00  0.00    -0.246 OA
BRANCH  32  34
ATOM     34  C   UNL     1      -1.471  -2.195  10.880  1.00  0.00     0.060 A 
ATOM     35  C   UNL     1      -1.435  -2.444   9.501  1.00  0.00     0.016 A 
ATOM     36  C   UNL     1      -1.345  -3.242  11.793  1.00  0.00     0.016 A 
ATOM     37  C   UNL     1      -1.302  -3.749   9.027  1.00  0.00     0.010 A 
ATOM     38  C   UNL     1      -1.242  -4.553  11.317  1.00  0.00     0.010 A 
ATOM     39  C   UNL     1      -1.252  -4.813   9.934  1.00  0.00    -0.014 A 
BRANCH  39  40
ATOM     40  C   UNL     1      -1.411  -6.205   9.450  1.00  0.00     0.031 A 
ATOM     41  C   UNL     1      -2.796  -6.788   9.395  1.00  0.00     0.074 A 
ATOM     42  C   UNL     1      -0.347  -6.947   9.097  1.00  0.00     0.049 A 
ATOM     43  N   UNL     1      -3.172  -8.002   9.091  1.00  0.00    -0.248 NA
ATOM     44  C   UNL     1      -3.905  -5.877   9.727  1.00  0.00     0.031 C 
ATOM     45  C   UNL     1       1.040  -6.489   9.088  1.00  0.00     0.029 A 
ATOM     46  N   UNL     1      -0.272  -8.263   8.710  1.00  0.00    -0.354 N 
ATOM     47  C   UNL     1      -4.556  -8.011   9.223  1.00  0.00     0.074 A 
ATOM     48  C   UNL     1      -4.954  -6.681   9.630  1.00  0.00     0.031 C 
ATOM     49  C   UNL     1       1.836  -7.521   8.757  1.00  0.00     0.029 A 
ATOM     50  C   UNL     1       1.017  -8.717   8.559  1.00  0.00     0.049 A 
ATOM     51  H   UNL     1      -1.065  -8.826   8.556  1.00  0.00     0.167 HD
ATOM     52  C   UNL     1      -5.420  -9.033   9.021  1.00  0.00     0.034 A 
ATOM     53  C   UNL     1       1.479  -9.962   8.324  1.00  0.00     0.034 A 
ATOM     54  C   UNL     1      -5.027 -10.355   8.622  1.00  0.00     0.049 A 
ATOM     55  C   UNL     1       0.498 -11.095   8.151  1.00  0.00     0.074 A 
ATOM     56  C   UNL     1      -5.831 -11.453   8.371  1.00  0.00     0.029 A 
ATOM     57  N   UNL     1      -3.717 -10.765   8.431  1.00  0.00    -0.354 N 
ATOM     58  N   UNL     1      -0.813 -11.064   8.168  1.00  0.00    -0.248 NA
ATOM     59  C   UNL     1       1.060 -12.431   7.899  1.00  0.00     0.031 C 
ATOM     60  C   UNL     1      -5.003 -12.534   8.050  1.00  0.00     0.029 A 
ATOM     61  C   UNL     1      -3.687 -12.102   8.075  1.00  0.00     0.049 A 
ATOM     62  H   UNL     1      -2.924 -10.190   8.534  1.00  0.00     0.167 HD
ATOM     63  C   UNL     1      -1.230 -12.363   7.889  1.00  0.00     0.074 A 
ATOM     64  C   UNL     1      -0.033 -13.153   7.693  1.00  0.00     0.031 C 
ATOM     65  C   UNL     1      -2.490 -12.859   7.814  1.00  0.00     0.034 A 
BRANCH  52  66
ATOM     66  C   UNL     1      -6.884  -8.751   9.217  1.00  0.00     0.023 A 
ATOM     67  C   UNL     1      -7.584  -8.005   8.248  1.00  0.00     0.012 A 
ATOM     68  C   UNL     1      -7.574  -9.257  10.336  1.00  0.00     0.148 A 
ATOM     69  C   UNL     1      -8.945  -7.743   8.403  1.00  0.00     0.002 A 
ATOM     70  C   UNL     1      -8.938  -9.025  10.464  1.00  0.00     0.091 A 
ATOM     71  F   UNL     1      -6.881  -9.940  11.259  1.00  0.00    -0.205 F 
ATOM     72  C   UNL     1      -9.622  -8.261   9.505  1.00  0.00     0.022 A 
BRANCH  70  73
ATOM     73  S   UNL     1      -9.909  -9.707  11.811  1.00  0.00     0.127 S 
ATOM     74  O   UNL     1     -10.165  -8.517  12.622  1.00  0.00    -0.237 OA
ATOM     75  O   UNL     1     -11.083 -10.231  11.112  1.00  0.00    -0.237 OA
ATOM     76  O   UNL     1      -9.072 -10.722  12.434  1.00  0.00    -0.744 OA
ENDBRANCH  70  73
ENDBRANCH  52  66
BRANCH  53  77
ATOM     77  C   UNL     1       2.945 -10.209   8.218  1.00  0.00     0.023 A 
ATOM     78  C   UNL     1       3.499 -10.562   6.972  1.00  0.00     0.012 A 
ATOM     79  C   UNL     1       3.790 -10.099   9.339  1.00  0.00     0.148 A 
ATOM     80  C   UNL     1       4.863 -10.833   6.852  1.00  0.00     0.002 A 
ATOM     81  C   UNL     1       5.155 -10.319   9.202  1.00  0.00     0.091 A 
ATOM     82  F   UNL     1       3.240  -9.783  10.520  1.00  0.00    -0.205 F 
ATOM     83  C   UNL     1       5.692 -10.702   7.963  1.00  0.00     0.022 A 
BRANCH  81  84
ATOM     84  S   UNL     1       6.313 -10.061  10.551  1.00  0.00     0.127 S 
ATOM     85  O   UNL     1       6.696 -11.431  10.882  1.00  0.00    -0.237 OA
ATOM     86  O   UNL     1       7.358  -9.267   9.905  1.00  0.00    -0.237 OA
ATOM     87  O   UNL     1       5.564  -9.346  11.576  1.00  0.00    -0.744 OA
ENDBRANCH  81  84
ENDBRANCH  53  77
BRANCH  65  88
ATOM     88  C   UNL     1      -2.659 -14.312   7.453  1.00  0.00     0.023 A 
ATOM     89  C   UNL     1      -2.370 -15.310   8.403  1.00  0.00     0.012 A 
ATOM     90  C   UNL     1      -3.202 -14.680   6.205  1.00  0.00     0.148 A 
ATOM     91  C   UNL     1      -2.597 -16.655   8.108  1.00  0.00     0.002 A 
ATOM     92  C   UNL     1      -3.469 -16.017   5.936  1.00  0.00     0.091 A 
ATOM     93  F   UNL     1      -3.452 -13.716   5.307  1.00  0.00    -0.205 F 
ATOM     94  C   UNL     1      -3.158 -17.007   6.883  1.00  0.00     0.022 A 
BRANCH  92  95
ATOM     95  S   UNL     1      -4.282 -16.549   4.425  1.00  0.00     0.127 S 
ATOM     96  O   UNL     1      -3.173 -17.151   3.686  1.00  0.00    -0.237 OA
ATOM     97  O   UNL     1      -5.273 -17.504   4.922  1.00  0.00    -0.237 OA
ATOM     98  O   UNL     1      -4.849 -15.346   3.832  1.00  0.00    -0.744 OA
ENDBRANCH  92  95
ENDBRANCH  65  88
ENDBRANCH  39  40
ENDBRANCH  32  34
ENDBRANCH  31  32
ENDBRANCH  30  31
ENDBRANCH  29  30
ENDBRANCH  28  29
ENDBRANCH   1  28
TORSDOF 23
