REMARK SMILES CCCOc1ccccc1/C=C1\SC(=S)N([C@@H](C(=O)OCCOCCOCCOC(=O)c2ccc(-c3c4nc(c(-c5cccc(S(=O)(=O)[O-])c5F)c5ccc([nH]5)c(-c5cccc(S(=O)(=O)[O-])c5F)c5nc(c(-c6cccc(S(=O)(=O)[O-])c6F)c6ccc3[nH]6)C=C5)C=C4)cc2)C(C)C)C1=O
REMARK SMILES IDX 24 1 23 2 22 3 21 4 20 5 18 6 19 7 17 8 16 9 11 10 12 11
REMARK SMILES IDX 13 12 98 13 14 14 99 15 15 16 10 17 5 18 6 19 7 20 9 21 8 22
REMARK SMILES IDX 4 23 3 24 2 25 1 26 95 27 96 28 97 29 25 30 26 31 27 32
REMARK SMILES IDX 28 33 29 34 30 35 31 36 32 37 33 38 94 39 34 40 93 41 35 42
REMARK SMILES IDX 36 43 37 44 87 45 38 46 92 47 86 48 88 49 39 50 91 51 85 52
REMARK SMILES IDX 84 53 40 55 72 56 52 57 71 58 53 59 56 60 70 61 89 62 54 63
REMARK SMILES IDX 55 64 69 66 90 67 57 68 41 69 42 70 50 71 43 72 45 73 51 74
REMARK SMILES IDX 44 75 46 76 47 77 48 78 49 79 73 80 74 81 82 82 75 83 77 84
REMARK SMILES IDX 83 85 76 86 78 87 79 88 80 89 81 90 58 91 59 92 67 93 60 94
REMARK SMILES IDX 62 95 68 96 61 97 63 98 64 99 65 100 66 101
REMARK H PARENT 88 54 56 65
REMARK Flexibility Score: inf
ROOT
ATOM      1  C   UNL     1      -1.019  -5.114   0.597  1.00  0.00     0.188 C 
ENDROOT
BRANCH   1   2
ATOM      2  O   UNL     1      -1.963  -6.167   0.424  1.00  0.00    -0.376 OA
BRANCH   2   3
ATOM      3  C   UNL     1      -3.219  -5.845  -0.154  1.00  0.00     0.202 C 
BRANCH   3   4
ATOM      4  C   UNL     1      -4.167  -5.069   0.760  1.00  0.00     0.261 C 
BRANCH   4   5
ATOM      5  O   UNL     1      -3.651  -3.775   1.156  1.00  0.00    -0.462 OA
BRANCH   5   6
ATOM      6  C   UNL     1      -3.898  -3.440   2.448  1.00  0.00     0.329 C 
ATOM      7  O   UNL     1      -4.562  -4.136   3.212  1.00  0.00    -0.250 OA
BRANCH   6   8
ATOM      8  C   UNL     1      -3.214  -2.144   2.933  1.00  0.00     0.204 C 
BRANCH   8   9
ATOM      9  N   UNL     1      -2.950  -1.095   1.889  1.00  0.00    -0.278 N 
ATOM     10  C   UNL     1      -0.549   0.430  -0.346  1.00  0.00     0.033 C 
ATOM     11  C   UNL     1      -1.667   0.187   0.350  1.00  0.00     0.081 C 
ATOM     12  S   UNL     1      -3.080   1.123   0.530  1.00  0.00    -0.054 SA
ATOM     13  C   UNL     1      -1.747  -1.018   1.221  1.00  0.00     0.267 C 
ATOM     14  C   UNL     1      -3.843  -0.085   1.577  1.00  0.00     0.149 C 
ATOM     15  O   UNL     1      -0.794  -1.767   1.366  1.00  0.00    -0.268 OA
ATOM     16  S   UNL     1      -5.432   0.075   2.067  1.00  0.00    -0.052 S 
BRANCH  10  17
ATOM     17  C   UNL     1      -0.069   1.688  -0.941  1.00  0.00     0.018 A 
ATOM     18  C   UNL     1       0.384   2.735  -0.116  1.00  0.00     0.126 A 
ATOM     19  C   UNL     1       1.000   3.865  -0.663  1.00  0.00     0.047 A 
ATOM     20  C   UNL     1       1.242   3.926  -2.034  1.00  0.00     0.004 A 
ATOM     21  C   UNL     1       0.182   1.763  -2.316  1.00  0.00     0.012 A 
ATOM     22  C   UNL     1       0.839   2.875  -2.857  1.00  0.00     0.001 A 
BRANCH  18  23
ATOM     23  O   UNL     1       0.208   2.639   1.242  1.00  0.00    -0.493 OA
BRANCH  23  24
ATOM     24  C   UNL     1       1.440   2.519   1.973  1.00  0.00     0.229 C 
BRANCH  24  25
ATOM     25  C   UNL     1       1.799   1.052   2.216  1.00  0.00     0.038 C 
ATOM     26  C   UNL     1       2.632   0.450   1.090  1.00  0.00     0.007 C 
ENDBRANCH  24  25
ENDBRANCH  23  24
ENDBRANCH  18  23
ENDBRANCH  10  17
ENDBRANCH   8   9
BRANCH   8  27
ATOM     27  C   UNL     1      -1.986  -2.443   3.863  1.00  0.00     0.017 C 
ATOM     28  C   UNL     1      -1.581  -1.173   4.625  1.00  0.00     0.010 C 
ATOM     29  C   UNL     1      -2.220  -3.571   4.875  1.00  0.00     0.010 C 
ENDBRANCH   8  27
ENDBRANCH   6   8
ENDBRANCH   5   6
ENDBRANCH   4   5
ENDBRANCH   3   4
ENDBRANCH   2   3
ENDBRANCH   1   2
BRANCH   1  30
ATOM     30  C   UNL     1      -1.047  -3.954  -0.402  1.00  0.00     0.188 C 
BRANCH  30  31
ATOM     31  O   UNL     1      -1.102  -4.386  -1.758  1.00  0.00    -0.376 OA
BRANCH  31  32
ATOM     32  C   UNL     1      -0.268  -3.607  -2.610  1.00  0.00     0.202 C 
BRANCH  32  33
ATOM     33  C   UNL     1       1.063  -4.339  -2.787  1.00  0.00     0.261 C 
BRANCH  33  34
ATOM     34  O   UNL     1       1.792  -4.521  -1.557  1.00  0.00    -0.460 OA
BRANCH  34  35
ATOM     35  C   UNL     1       2.269  -3.402  -0.976  1.00  0.00     0.338 C 
ATOM     36  O   UNL     1       2.153  -2.254  -1.395  1.00  0.00    -0.246 OA
BRANCH  35  37
ATOM     37  C   UNL     1       2.850  -3.750   0.332  1.00  0.00     0.060 A 
ATOM     38  C   UNL     1       2.362  -3.124   1.484  1.00  0.00     0.016 A 
ATOM     39  C   UNL     1       3.917  -4.644   0.416  1.00  0.00     0.016 A 
ATOM     40  C   UNL     1       2.981  -3.333   2.716  1.00  0.00     0.010 A 
ATOM     41  C   UNL     1       4.527  -4.866   1.653  1.00  0.00     0.010 A 
ATOM     42  C   UNL     1       4.088  -4.184   2.803  1.00  0.00    -0.014 A 
BRANCH  42  43
ATOM     43  C   UNL     1       4.867  -4.295   4.060  1.00  0.00     0.031 A 
ATOM     44  C   UNL     1       6.229  -3.661   4.133  1.00  0.00     0.074 A 
ATOM     45  C   UNL     1       4.389  -4.989   5.109  1.00  0.00     0.049 A 
ATOM     46  N   UNL     1       7.147  -3.773   5.056  1.00  0.00    -0.248 NA
ATOM     47  C   UNL     1       6.608  -2.787   3.009  1.00  0.00     0.031 C 
ATOM     48  C   UNL     1       3.073  -5.623   5.176  1.00  0.00     0.029 A 
ATOM     49  N   UNL     1       4.978  -5.306   6.308  1.00  0.00    -0.354 N 
ATOM     50  C   UNL     1       8.230  -3.028   4.606  1.00  0.00     0.074 A 
ATOM     51  C   UNL     1       7.853  -2.463   3.328  1.00  0.00     0.031 C 
ATOM     52  C   UNL     1       2.968  -6.285   6.340  1.00  0.00     0.029 A 
ATOM     53  C   UNL     1       4.223  -6.160   7.078  1.00  0.00     0.049 A 
ATOM     54  H   UNL     1       5.855  -4.957   6.588  1.00  0.00     0.167 HD
ATOM     55  C   UNL     1       9.426  -2.826   5.206  1.00  0.00     0.034 A 
ATOM     56  C   UNL     1       4.527  -6.801   8.224  1.00  0.00     0.034 A 
ATOM     57  C   UNL     1       9.786  -3.358   6.492  1.00  0.00     0.049 A 
ATOM     58  C   UNL     1       5.882  -6.592   8.851  1.00  0.00     0.074 A 
ATOM     59  C   UNL     1      10.961  -3.176   7.199  1.00  0.00     0.029 A 
ATOM     60  N   UNL     1       8.978  -4.181   7.261  1.00  0.00    -0.354 N 
ATOM     61  N   UNL     1       6.865  -5.818   8.458  1.00  0.00    -0.248 NA
ATOM     62  C   UNL     1       6.162  -7.332  10.091  1.00  0.00     0.031 C 
ATOM     63  C   UNL     1      10.871  -3.905   8.390  1.00  0.00     0.029 A 
ATOM     64  C   UNL     1       9.632  -4.523   8.432  1.00  0.00     0.049 A 
ATOM     65  H   UNL     1       8.073  -4.478   7.012  1.00  0.00     0.167 HD
ATOM     66  C   UNL     1       7.864  -5.952   9.417  1.00  0.00     0.074 A 
ATOM     67  C   UNL     1       7.359  -6.866  10.421  1.00  0.00     0.031 C 
ATOM     68  C   UNL     1       9.094  -5.384   9.454  1.00  0.00     0.034 A 
BRANCH  55  69
ATOM     69  C   UNL     1      10.433  -1.969   4.486  1.00  0.00     0.023 A 
ATOM     70  C   UNL     1      10.257  -0.572   4.447  1.00  0.00     0.012 A 
ATOM     71  C   UNL     1      11.580  -2.540   3.902  1.00  0.00     0.148 A 
ATOM     72  C   UNL     1      11.194   0.243   3.813  1.00  0.00     0.002 A 
ATOM     73  C   UNL     1      12.530  -1.718   3.307  1.00  0.00     0.091 A 
ATOM     74  F   UNL     1      11.716  -3.874   3.930  1.00  0.00    -0.205 F 
ATOM     75  C   UNL     1      12.334  -0.328   3.254  1.00  0.00     0.022 A 
BRANCH  73  76
ATOM     76  S   UNL     1      14.064  -2.353   2.621  1.00  0.00     0.127 S 
ATOM     77  O   UNL     1      13.827  -2.207   1.186  1.00  0.00    -0.237 OA
ATOM     78  O   UNL     1      15.054  -1.427   3.173  1.00  0.00    -0.237 OA
ATOM     79  O   UNL     1      14.181  -3.722   3.101  1.00  0.00    -0.744 OA
ENDBRANCH  73  76
ENDBRANCH  55  69
BRANCH  56  80
ATOM     80  C   UNL     1       3.526  -7.699   8.865  1.00  0.00     0.023 A 
ATOM     81  C   UNL     1       2.946  -7.322  10.091  1.00  0.00     0.012 A 
ATOM     82  C   UNL     1       3.140  -8.915   8.267  1.00  0.00     0.148 A 
ATOM     83  C   UNL     1       2.020  -8.153  10.725  1.00  0.00     0.002 A 
ATOM     84  C   UNL     1       2.178  -9.711   8.877  1.00  0.00     0.091 A 
ATOM     85  F   UNL     1       3.721  -9.268   7.112  1.00  0.00    -0.205 F 
ATOM     86  C   UNL     1       1.629  -9.340  10.114  1.00  0.00     0.022 A 
BRANCH  84  87
ATOM     87  S   UNL     1       1.527 -11.195   8.101  1.00  0.00     0.127 S 
ATOM     88  O   UNL     1       2.139 -12.247   8.908  1.00  0.00    -0.237 OA
ATOM     89  O   UNL     1       0.085 -11.030   8.294  1.00  0.00    -0.237 OA
ATOM     90  O   UNL     1       1.957 -11.129   6.711  1.00  0.00    -0.744 OA
ENDBRANCH  84  87
ENDBRANCH  56  80
BRANCH  68  91
ATOM     91  C   UNL     1       9.979  -5.696  10.634  1.00  0.00     0.023 A 
ATOM     92  C   UNL     1      10.597  -6.958  10.728  1.00  0.00     0.012 A 
ATOM     93  C   UNL     1      10.267  -4.710  11.598  1.00  0.00     0.148 A 
ATOM     94  C   UNL     1      11.470  -7.243  11.777  1.00  0.00     0.002 A 
ATOM     95  C   UNL     1      11.173  -4.986  12.616  1.00  0.00     0.091 A 
ATOM     96  F   UNL     1       9.655  -3.522  11.501  1.00  0.00    -0.205 F 
ATOM     97  C   UNL     1      11.768  -6.255  12.713  1.00  0.00     0.022 A 
BRANCH  95  98
ATOM     98  S   UNL     1      11.689  -3.746  13.810  1.00  0.00     0.127 S 
ATOM     99  O   UNL     1      11.013  -4.201  15.024  1.00  0.00    -0.237 OA
ATOM    100  O   UNL     1      13.143  -3.911  13.823  1.00  0.00    -0.237 OA
ATOM    101  O   UNL     1      11.232  -2.467  13.282  1.00  0.00    -0.744 OA
ENDBRANCH  95  98
ENDBRANCH  68  91
ENDBRANCH  42  43
ENDBRANCH  35  37
ENDBRANCH  34  35
ENDBRANCH  33  34
ENDBRANCH  32  33
ENDBRANCH  31  32
ENDBRANCH  30  31
ENDBRANCH   1  30
TORSDOF 26
