REMARK SMILES O=C(OCCOCCOCCOC(=O)c1ccccc1C(=O)Nc1ccc(N2C(=O)[C@H]3[C@@H]4CC[C@@H](C4)[C@@H]3C2=O)cc1)c1ccc(-c2c3nc(c(-c4cccc(S(=O)(=O)[O-])c4F)c4ccc([nH]4)c(-c4cccc(S(=O)(=O)[O-])c4F)c4nc(c(-c5cccc(S(=O)(=O)[O-])c5F)c5ccc2[nH]5)C=C4)C=C3)cc1
REMARK SMILES IDX 7 1 6 2 5 3 4 4 3 5 2 6 1 7 42 8 43 9 104 10 44 11 103 12
REMARK SMILES IDX 45 13 46 14 47 15 97 16 48 17 102 18 96 19 98 20 49 21
REMARK SMILES IDX 101 22 95 23 94 24 50 26 82 27 62 28 81 29 63 30 66 31 80 32
REMARK SMILES IDX 99 33 64 34 65 35 79 37 100 38 67 39 51 40 52 41 60 42 53 43
REMARK SMILES IDX 55 44 61 45 54 46 56 47 57 48 58 49 59 50 83 51 84 52 92 53
REMARK SMILES IDX 85 54 87 55 93 56 86 57 88 58 89 59 90 60 91 61 68 62 69 63
REMARK SMILES IDX 77 64 70 65 72 66 78 67 71 68 73 69 74 70 75 71 76 72 8 73
REMARK SMILES IDX 9 74 10 75 11 76 12 77 13 78 14 79 15 80 16 81 20 82 17 83
REMARK SMILES IDX 19 84 18 85 21 86 22 87 23 88 24 90 25 91 41 92 26 93 40 94
REMARK SMILES IDX 27 95 28 96 29 97 38 98 30 99 31 100 37 101 39 102 32 103
REMARK SMILES IDX 35 104 33 105 36 106 34 107
REMARK H PARENT 98 25 66 36 23 89
REMARK Flexibility Score: inf
ROOT
ATOM      1  C   UNL     1       0.641   0.056  -1.746  1.00  0.00     0.188 C 
ENDROOT
BRANCH   1   2
ATOM      2  O   UNL     1       1.523   0.633  -0.750  1.00  0.00    -0.376 OA
BRANCH   2   3
ATOM      3  C   UNL     1       2.608  -0.210  -0.297  1.00  0.00     0.202 C 
BRANCH   3   4
ATOM      4  C   UNL     1       2.448  -0.998   1.000  1.00  0.00     0.261 C 
BRANCH   4   5
ATOM      5  O   UNL     1       1.136  -0.839   1.534  1.00  0.00    -0.460 OA
BRANCH   5   6
ATOM      6  C   UNL     1       0.771   0.165   2.369  1.00  0.00     0.338 C 
ATOM      7  O   UNL     1      -0.401   0.281   2.709  1.00  0.00    -0.246 OA
BRANCH   6   8
ATOM      8  C   UNL     1       1.801   1.046   2.983  1.00  0.00     0.060 A 
ATOM      9  C   UNL     1       2.796   1.683   2.245  1.00  0.00     0.016 A 
ATOM     10  C   UNL     1       1.745   1.272   4.357  1.00  0.00     0.016 A 
ATOM     11  C   UNL     1       3.821   2.388   2.862  1.00  0.00     0.010 A 
ATOM     12  C   UNL     1       2.710   2.077   4.974  1.00  0.00     0.010 A 
ATOM     13  C   UNL     1       3.786   2.601   4.236  1.00  0.00    -0.014 A 
BRANCH  13  14
ATOM     14  C   UNL     1       4.938   3.248   4.909  1.00  0.00     0.031 A 
ATOM     15  C   UNL     1       5.701   2.447   5.918  1.00  0.00     0.074 A 
ATOM     16  C   UNL     1       5.345   4.490   4.584  1.00  0.00     0.049 A 
ATOM     17  N   UNL     1       6.562   2.849   6.811  1.00  0.00    -0.248 NA
ATOM     18  C   UNL     1       5.443   0.996   5.937  1.00  0.00     0.031 C 
ATOM     19  C   UNL     1       4.765   5.318   3.530  1.00  0.00     0.029 A 
ATOM     20  N   UNL     1       6.355   5.268   5.092  1.00  0.00    -0.354 N 
ATOM     21  C   UNL     1       6.856   1.726   7.570  1.00  0.00     0.074 A 
ATOM     22  C   UNL     1       6.122   0.616   7.007  1.00  0.00     0.031 C 
ATOM     23  C   UNL     1       5.456   6.463   3.430  1.00  0.00     0.029 A 
ATOM     24  C   UNL     1       6.462   6.500   4.485  1.00  0.00     0.049 A 
ATOM     25  H   UNL     1       6.948   4.974   5.821  1.00  0.00     0.167 HD
ATOM     26  C   UNL     1       7.661   1.641   8.652  1.00  0.00     0.034 A 
ATOM     27  C   UNL     1       7.255   7.550   4.776  1.00  0.00     0.034 A 
ATOM     28  C   UNL     1       8.451   2.738   9.131  1.00  0.00     0.049 A 
ATOM     29  C   UNL     1       8.178   7.424   5.960  1.00  0.00     0.074 A 
ATOM     30  C   UNL     1       9.254   2.807  10.252  1.00  0.00     0.029 A 
ATOM     31  N   UNL     1       8.563   3.957   8.476  1.00  0.00    -0.354 N 
ATOM     32  N   UNL     1       8.378   6.388   6.741  1.00  0.00    -0.248 NA
ATOM     33  C   UNL     1       8.973   8.607   6.317  1.00  0.00     0.031 C 
ATOM     34  C   UNL     1       9.865   4.067  10.266  1.00  0.00     0.029 A 
ATOM     35  C   UNL     1       9.440   4.780   9.153  1.00  0.00     0.049 A 
ATOM     36  H   UNL     1       8.086   4.199   7.649  1.00  0.00     0.167 HD
ATOM     37  C   UNL     1       9.317   6.790   7.682  1.00  0.00     0.074 A 
ATOM     38  C   UNL     1       9.677   8.155   7.348  1.00  0.00     0.031 C 
ATOM     39  C   UNL     1       9.809   6.113   8.749  1.00  0.00     0.034 A 
BRANCH  26  40
ATOM     40  C   UNL     1       7.683   0.326   9.374  1.00  0.00     0.023 A 
ATOM     41  C   UNL     1       8.441  -0.746   8.864  1.00  0.00     0.012 A 
ATOM     42  C   UNL     1       6.900   0.135  10.530  1.00  0.00     0.148 A 
ATOM     43  C   UNL     1       8.392  -1.999   9.476  1.00  0.00     0.002 A 
ATOM     44  C   UNL     1       6.880  -1.108  11.150  1.00  0.00     0.091 A 
ATOM     45  F   UNL     1       6.153   1.156  10.973  1.00  0.00    -0.205 F 
ATOM     46  C   UNL     1       7.618  -2.179  10.620  1.00  0.00     0.022 A 
BRANCH  44  47
ATOM     47  S   UNL     1       5.932  -1.416  12.644  1.00  0.00     0.127 S 
ATOM     48  O   UNL     1       4.764  -2.119  12.116  1.00  0.00    -0.237 OA
ATOM     49  O   UNL     1       6.844  -2.252  13.427  1.00  0.00    -0.237 OA
ATOM     50  O   UNL     1       5.672  -0.105  13.224  1.00  0.00    -0.744 OA
ENDBRANCH  44  47
ENDBRANCH  26  40
BRANCH  27  51
ATOM     51  C   UNL     1       7.214   8.781   3.930  1.00  0.00     0.023 A 
ATOM     52  C   UNL     1       8.341   9.133   3.163  1.00  0.00     0.012 A 
ATOM     53  C   UNL     1       6.048   9.562   3.809  1.00  0.00     0.148 A 
ATOM     54  C   UNL     1       8.307  10.235   2.302  1.00  0.00     0.002 A 
ATOM     55  C   UNL     1       5.997  10.613   2.896  1.00  0.00     0.091 A 
ATOM     56  F   UNL     1       4.982   9.255   4.564  1.00  0.00    -0.205 F 
ATOM     57  C   UNL     1       7.130  10.964   2.153  1.00  0.00     0.022 A 
BRANCH  55  58
ATOM     58  S   UNL     1       4.434  11.431   2.554  1.00  0.00     0.127 S 
ATOM     59  O   UNL     1       4.328  12.380   3.658  1.00  0.00    -0.237 OA
ATOM     60  O   UNL     1       4.657  12.042   1.242  1.00  0.00    -0.237 OA
ATOM     61  O   UNL     1       3.464  10.340   2.533  1.00  0.00    -0.744 OA
ENDBRANCH  55  58
ENDBRANCH  27  51
BRANCH  39  62
ATOM     62  C   UNL     1      10.785   6.838   9.629  1.00  0.00     0.023 A 
ATOM     63  C   UNL     1      10.297   7.742  10.591  1.00  0.00     0.012 A 
ATOM     64  C   UNL     1      12.160   6.549   9.575  1.00  0.00     0.148 A 
ATOM     65  C   UNL     1      11.170   8.359  11.485  1.00  0.00     0.002 A 
ATOM     66  C   UNL     1      13.020   7.144  10.490  1.00  0.00     0.091 A 
ATOM     67  F   UNL     1      12.607   5.705   8.633  1.00  0.00    -0.205 F 
ATOM     68  C   UNL     1      12.528   8.051  11.443  1.00  0.00     0.022 A 
BRANCH  66  69
ATOM     69  S   UNL     1      14.764   6.719  10.534  1.00  0.00     0.127 S 
ATOM     70  O   UNL     1      15.340   7.713   9.632  1.00  0.00    -0.237 OA
ATOM     71  O   UNL     1      15.108   6.905  11.945  1.00  0.00    -0.237 OA
ATOM     72  O   UNL     1      14.829   5.334  10.085  1.00  0.00    -0.744 OA
ENDBRANCH  66  69
ENDBRANCH  39  62
ENDBRANCH  13  14
ENDBRANCH   6   8
ENDBRANCH   5   6
ENDBRANCH   4   5
ENDBRANCH   3   4
ENDBRANCH   2   3
ENDBRANCH   1   2
BRANCH   1  73
ATOM     73  C   UNL     1       0.275   0.875  -3.126  1.00  0.00     0.188 C 
BRANCH  73  74
ATOM     74  O   UNL     1       1.230   0.869  -4.236  1.00  0.00    -0.376 OA
BRANCH  74  75
ATOM     75  C   UNL     1       1.906   2.055  -4.814  1.00  0.00     0.202 C 
BRANCH  75  76
ATOM     76  C   UNL     1       3.659   2.437  -4.468  1.00  0.00     0.261 C 
BRANCH  76  77
ATOM     77  O   UNL     1       4.420   2.666  -2.579  1.00  0.00    -0.460 OA
BRANCH  77  78
ATOM     78  C   UNL     1       4.559   3.238  -1.244  1.00  0.00     0.339 C 
ATOM     79  O   UNL     1       5.137   2.575  -0.378  1.00  0.00    -0.246 OA
BRANCH  78  80
ATOM     80  C   UNL     1       3.911   4.564  -0.760  1.00  0.00     0.072 A 
ATOM     81  C   UNL     1       2.813   4.498   0.132  1.00  0.00     0.016 A 
ATOM     82  C   UNL     1       4.354   5.853  -1.118  1.00  0.00     0.054 A 
ATOM     83  C   UNL     1       2.260   5.647   0.733  1.00  0.00     0.001 A 
ATOM     84  C   UNL     1       3.815   6.999  -0.479  1.00  0.00     0.015 A 
ATOM     85  C   UNL     1       2.791   6.898   0.457  1.00  0.00     0.001 A 
BRANCH  82  86
ATOM     86  C   UNL     1       5.354   6.160  -2.164  1.00  0.00     0.256 C 
ATOM     87  O   UNL     1       6.126   7.105  -2.006  1.00  0.00    -0.269 OA
ATOM     88  N   UNL     1       5.462   5.425  -3.318  1.00  0.00    -0.322 N 
ATOM     89  H   UNL     1       6.090   5.764  -3.995  1.00  0.00     0.170 HD
BRANCH  88  90
ATOM     90  C   UNL     1       4.780   4.254  -3.637  1.00  0.00     0.041 A 
ATOM     91  C   UNL     1       5.893   2.880  -3.865  1.00  0.00     0.028 A 
ATOM     92  C   UNL     1       3.082   3.971  -3.109  1.00  0.00     0.028 A 
ATOM     93  C   UNL     1       5.409   1.216  -3.501  1.00  0.00     0.029 A 
ATOM     94  C   UNL     1       2.613   2.260  -2.643  1.00  0.00     0.029 A 
ATOM     95  C   UNL     1       3.770   0.844  -2.954  1.00  0.00     0.052 A 
BRANCH  95  96
ATOM     96  N   UNL     1       3.337  -0.511  -3.383  1.00  0.00    -0.250 N 
ATOM     97  C   UNL     1       2.879  -0.876  -4.675  1.00  0.00     0.237 C 
ATOM     98  C   UNL     1       3.714  -1.723  -2.811  1.00  0.00     0.237 C 
ATOM     99  O   UNL     1       3.186  -0.475  -5.783  1.00  0.00    -0.274 OA
ATOM    100  C   UNL     1       1.968  -2.031  -4.358  1.00  0.00     0.095 C 
ATOM    101  C   UNL     1       2.973  -2.831  -3.564  1.00  0.00     0.095 C 
ATOM    102  O   UNL     1       4.581  -1.943  -1.979  1.00  0.00    -0.274 OA
ATOM    103  C   UNL     1       1.003  -3.096  -4.897  1.00  0.00     0.002 C 
ATOM    104  C   UNL     1       2.102  -4.029  -3.147  1.00  0.00     0.002 C 
ATOM    105  C   UNL     1      -0.116  -3.204  -3.808  1.00  0.00     0.005 C 
ATOM    106  C   UNL     1       1.680  -4.447  -4.582  1.00  0.00     0.009 C 
ATOM    107  C   UNL     1       0.694  -3.695  -2.572  1.00  0.00     0.005 C 
ENDBRANCH  95  96
ENDBRANCH  88  90
ENDBRANCH  82  86
ENDBRANCH  78  80
ENDBRANCH  77  78
ENDBRANCH  76  77
ENDBRANCH  75  76
ENDBRANCH  74  75
ENDBRANCH  73  74
ENDBRANCH   1  73
TORSDOF 23
