REMARK SMILES CN(C)S(=O)(=O)c1ccc(-n2c(CCC(=O)OCCOCCOCCOC(=O)c3ccc(-c4c5nc(c(-c6cccc(S(=O)(=O)[O-])c6F)c6ccc([nH]6)c(-c6cccc(S(=O)(=O)[O-])c6F)c6nc(c(-c7cccc(S(=O)(=O)[O-])c7F)c7ccc4[nH]7)C=C6)C=C5)cc3)ccc2-c2ccc(F)cc2)cc1
REMARK SMILES IDX 21 1 20 2 19 3 18 4 17 5 15 6 16 7 14 8 13 9 12 10 11 11
REMARK SMILES IDX 94 12 92 13 93 14 10 15 7 16 8 17 103 18 9 19 102 20 4 21
REMARK SMILES IDX 5 22 6 23 2 24 1 25 3 26 95 27 96 28 101 29 97 30 100 31
REMARK SMILES IDX 98 32 99 33 22 34 23 35 24 36 25 37 26 38 27 39 28 40 29 41
REMARK SMILES IDX 30 42 91 43 31 44 90 45 32 46 33 47 34 48 84 49 35 50 89 51
REMARK SMILES IDX 83 52 85 53 36 54 88 55 82 56 81 57 37 59 69 60 49 61 68 62
REMARK SMILES IDX 50 63 53 64 67 65 86 66 51 67 52 68 66 70 87 71 54 72 38 73
REMARK SMILES IDX 39 74 47 75 40 76 42 77 48 78 41 79 43 80 44 81 45 82 46 83
REMARK SMILES IDX 70 84 71 85 79 86 72 87 74 88 80 89 73 90 75 91 76 92 77 93
REMARK SMILES IDX 78 94 55 95 56 96 64 97 57 98 59 99 65 100 58 101 60 102
REMARK SMILES IDX 61 103 62 104 63 105
REMARK H PARENT 85 58 53 69
REMARK Flexibility Score: inf
ROOT
ATOM      1  C   UNL     1       1.933  -2.733   4.890  1.00  0.00     0.188 C 
ENDROOT
BRANCH   1   2
ATOM      2  O   UNL     1       0.456  -2.875   4.519  1.00  0.00    -0.376 OA
BRANCH   2   3
ATOM      3  C   UNL     1      -1.104  -3.997   4.004  1.00  0.00     0.202 C 
BRANCH   3   4
ATOM      4  C   UNL     1      -1.583  -5.586   4.442  1.00  0.00     0.261 C 
BRANCH   4   5
ATOM      5  O   UNL     1      -1.350  -6.082   5.788  1.00  0.00    -0.463 OA
BRANCH   5   6
ATOM      6  C   UNL     1      -0.566  -7.188   5.904  1.00  0.00     0.306 C 
ATOM      7  O   UNL     1      -0.495  -8.060   5.043  1.00  0.00    -0.252 OA
BRANCH   6   8
ATOM      8  C   UNL     1       0.274  -7.248   7.180  1.00  0.00     0.129 C 
BRANCH   8   9
ATOM      9  C   UNL     1       0.896  -5.977   7.776  1.00  0.00     0.066 C 
BRANCH   9  10
ATOM     10  C   UNL     1      -0.098  -4.965   8.223  1.00  0.00     0.024 A 
ATOM     11  N   UNL     1      -0.701  -3.999   7.416  1.00  0.00    -0.314 N 
ATOM     12  C   UNL     1      -1.746  -3.434   8.181  1.00  0.00     0.053 A 
ATOM     13  C   UNL     1      -0.536  -4.779   9.521  1.00  0.00     0.024 A 
ATOM     14  C   UNL     1      -1.561  -3.825   9.496  1.00  0.00     0.029 A 
BRANCH  11  15
ATOM     15  C   UNL     1      -0.395  -3.689   6.041  1.00  0.00     0.046 A 
ATOM     16  C   UNL     1       0.197  -2.708   2.604  1.00  0.00     0.082 A 
ATOM     17  C   UNL     1      -0.812  -1.693   3.668  1.00  0.00     0.024 A 
ATOM     18  C   UNL     1       0.902  -4.256   3.203  1.00  0.00     0.024 A 
ATOM     19  C   UNL     1      -1.097  -2.164   5.378  1.00  0.00     0.028 A 
ATOM     20  C   UNL     1       0.650  -4.736   4.943  1.00  0.00     0.028 A 
BRANCH  16  21
ATOM     21  S   UNL     1       0.824  -2.086   1.078  1.00  0.00     0.242 S 
ATOM     22  O   UNL     1       0.213  -2.879   0.032  1.00  0.00    -0.207 OA
ATOM     23  O   UNL     1       2.261  -2.025   1.241  1.00  0.00    -0.207 OA
BRANCH  21  24
ATOM     24  N   UNL     1       0.233  -0.479   0.918  1.00  0.00    -0.204 NA
ATOM     25  C   UNL     1       1.025   0.311  -0.069  1.00  0.00     0.124 C 
ATOM     26  C   UNL     1      -1.212  -0.357   0.620  1.00  0.00     0.124 C 
ENDBRANCH  21  24
ENDBRANCH  16  21
ENDBRANCH  11  15
BRANCH  12  27
ATOM     27  C   UNL     1      -2.874  -2.629   7.692  1.00  0.00    -0.001 A 
ATOM     28  C   UNL     1      -3.082  -1.328   8.181  1.00  0.00     0.013 A 
ATOM     29  C   UNL     1      -3.740  -3.132   6.706  1.00  0.00     0.013 A 
ATOM     30  C   UNL     1      -4.088  -0.522   7.640  1.00  0.00     0.040 A 
ATOM     31  C   UNL     1      -4.736  -2.321   6.158  1.00  0.00     0.040 A 
ATOM     32  C   UNL     1      -4.895  -1.022   6.625  1.00  0.00     0.123 A 
ATOM     33  F   UNL     1      -5.836  -0.238   6.081  1.00  0.00    -0.207 F 
ENDBRANCH  12  27
ENDBRANCH   9  10
ENDBRANCH   8   9
ENDBRANCH   6   8
ENDBRANCH   5   6
ENDBRANCH   4   5
ENDBRANCH   3   4
ENDBRANCH   2   3
ENDBRANCH   1   2
BRANCH   1  34
ATOM     34  C   UNL     1       2.172  -2.375   6.375  1.00  0.00     0.188 C 
BRANCH  34  35
ATOM     35  O   UNL     1       1.478  -1.259   6.948  1.00  0.00    -0.376 OA
BRANCH  35  36
ATOM     36  C   UNL     1       1.121  -0.158   6.116  1.00  0.00     0.202 C 
BRANCH  36  37
ATOM     37  C   UNL     1       2.184   0.878   5.837  1.00  0.00     0.261 C 
BRANCH  37  38
ATOM     38  O   UNL     1       3.264   0.230   5.207  1.00  0.00    -0.460 OA
BRANCH  38  39
ATOM     39  C   UNL     1       4.187  -0.211   6.094  1.00  0.00     0.338 C 
ATOM     40  O   UNL     1       4.134  -0.171   7.303  1.00  0.00    -0.246 OA
BRANCH  39  41
ATOM     41  C   UNL     1       5.349  -0.688   5.307  1.00  0.00     0.060 A 
ATOM     42  C   UNL     1       6.352  -1.108   6.182  1.00  0.00     0.016 A 
ATOM     43  C   UNL     1       5.600   0.225   4.280  1.00  0.00     0.016 A 
ATOM     44  C   UNL     1       7.414  -0.256   6.348  1.00  0.00     0.010 A 
ATOM     45  C   UNL     1       6.552   1.172   4.539  1.00  0.00     0.010 A 
ATOM     46  C   UNL     1       7.463   0.908   5.563  1.00  0.00    -0.014 A 
BRANCH  46  47
ATOM     47  C   UNL     1       8.735   1.616   5.540  1.00  0.00     0.031 A 
ATOM     48  C   UNL     1       9.639   0.791   4.573  1.00  0.00     0.074 A 
ATOM     49  C   UNL     1       8.842   2.675   6.402  1.00  0.00     0.049 A 
ATOM     50  N   UNL     1      10.807   0.260   4.777  1.00  0.00    -0.248 NA
ATOM     51  C   UNL     1       9.052   0.244   3.301  1.00  0.00     0.031 C 
ATOM     52  C   UNL     1       7.745   3.284   7.201  1.00  0.00     0.029 A 
ATOM     53  N   UNL     1       9.894   3.468   6.788  1.00  0.00    -0.354 N 
ATOM     54  C   UNL     1      11.165  -0.386   3.567  1.00  0.00     0.074 A 
ATOM     55  C   UNL     1       9.959  -0.624   2.857  1.00  0.00     0.031 C 
ATOM     56  C   UNL     1       8.216   4.256   8.025  1.00  0.00     0.029 A 
ATOM     57  C   UNL     1       9.651   4.390   7.842  1.00  0.00     0.049 A 
ATOM     58  H   UNL     1      10.776   3.402   6.355  1.00  0.00     0.167 HD
ATOM     59  C   UNL     1      12.439  -0.386   3.074  1.00  0.00     0.034 A 
ATOM     60  C   UNL     1      10.577   5.139   8.531  1.00  0.00     0.034 A 
ATOM     61  C   UNL     1      13.261   0.351   3.979  1.00  0.00     0.049 A 
ATOM     62  C   UNL     1      11.843   4.850   7.840  1.00  0.00     0.074 A 
ATOM     63  C   UNL     1      13.703   0.083   5.246  1.00  0.00     0.029 A 
ATOM     64  N   UNL     1      13.286   1.710   3.746  1.00  0.00    -0.354 N 
ATOM     65  N   UNL     1      12.152   5.275   6.649  1.00  0.00    -0.248 NA
ATOM     66  C   UNL     1      12.743   3.855   8.435  1.00  0.00     0.031 C 
ATOM     67  C   UNL     1      13.509   1.316   5.900  1.00  0.00     0.029 A 
ATOM     68  C   UNL     1      13.285   2.335   4.963  1.00  0.00     0.049 A 
ATOM     69  H   UNL     1      13.303   2.150   2.866  1.00  0.00     0.167 HD
ATOM     70  C   UNL     1      13.052   4.326   6.236  1.00  0.00     0.074 A 
ATOM     71  C   UNL     1      13.608   3.734   7.435  1.00  0.00     0.031 C 
ATOM     72  C   UNL     1      12.904   3.724   5.024  1.00  0.00     0.034 A 
BRANCH  59  73
ATOM     73  C   UNL     1      13.024  -0.638   1.702  1.00  0.00     0.023 A 
ATOM     74  C   UNL     1      14.447  -0.681   1.675  1.00  0.00     0.012 A 
ATOM     75  C   UNL     1      12.364  -0.528   0.466  1.00  0.00     0.148 A 
ATOM     76  C   UNL     1      15.179  -0.448   0.515  1.00  0.00     0.002 A 
ATOM     77  C   UNL     1      13.105  -0.362  -0.707  1.00  0.00     0.091 A 
ATOM     78  F   UNL     1      11.030  -0.507   0.418  1.00  0.00    -0.205 F 
ATOM     79  C   UNL     1      14.504  -0.268  -0.676  1.00  0.00     0.022 A 
BRANCH  77  80
ATOM     80  S   UNL     1      12.351  -0.239  -2.334  1.00  0.00     0.127 S 
ATOM     81  O   UNL     1      12.626   1.151  -2.691  1.00  0.00    -0.237 OA
ATOM     82  O   UNL     1      13.127  -1.224  -3.092  1.00  0.00    -0.237 OA
ATOM     83  O   UNL     1      10.951  -0.595  -2.156  1.00  0.00    -0.744 OA
ENDBRANCH  77  80
ENDBRANCH  59  73
BRANCH  60  84
ATOM     84  C   UNL     1      10.678   5.972   9.800  1.00  0.00     0.023 A 
ATOM     85  C   UNL     1       9.592   6.548  10.472  1.00  0.00     0.012 A 
ATOM     86  C   UNL     1      11.954   6.155  10.432  1.00  0.00     0.148 A 
ATOM     87  C   UNL     1       9.759   7.171  11.734  1.00  0.00     0.002 A 
ATOM     88  C   UNL     1      12.096   6.636  11.730  1.00  0.00     0.091 A 
ATOM     89  F   UNL     1      13.076   5.907   9.750  1.00  0.00    -0.205 F 
ATOM     90  C   UNL     1      10.995   7.167  12.387  1.00  0.00     0.022 A 
BRANCH  88  91
ATOM     91  S   UNL     1      13.642   6.453  12.650  1.00  0.00     0.127 S 
ATOM     92  O   UNL     1      13.900   7.816  13.108  1.00  0.00    -0.237 OA
ATOM     93  O   UNL     1      13.246   5.517  13.703  1.00  0.00    -0.237 OA
ATOM     94  O   UNL     1      14.621   5.922  11.710  1.00  0.00    -0.744 OA
ENDBRANCH  88  91
ENDBRANCH  60  84
BRANCH  72  95
ATOM     95  C   UNL     1      12.136   4.531   3.974  1.00  0.00     0.023 A 
ATOM     96  C   UNL     1      12.706   5.761   3.594  1.00  0.00     0.012 A 
ATOM     97  C   UNL     1      10.867   4.221   3.420  1.00  0.00     0.148 A 
ATOM     98  C   UNL     1      12.058   6.641   2.721  1.00  0.00     0.002 A 
ATOM     99  C   UNL     1      10.199   5.116   2.570  1.00  0.00     0.091 A 
ATOM    100  F   UNL     1      10.314   3.048   3.710  1.00  0.00    -0.205 F 
ATOM    101  C   UNL     1      10.805   6.324   2.213  1.00  0.00     0.022 A 
BRANCH  99 102
ATOM    102  S   UNL     1       8.522   4.859   1.937  1.00  0.00     0.127 S 
ATOM    103  O   UNL     1       7.865   6.131   2.249  1.00  0.00    -0.237 OA
ATOM    104  O   UNL     1       8.754   4.644   0.512  1.00  0.00    -0.237 OA
ATOM    105  O   UNL     1       7.979   3.717   2.663  1.00  0.00    -0.744 OA
ENDBRANCH  99 102
ENDBRANCH  72  95
ENDBRANCH  46  47
ENDBRANCH  39  41
ENDBRANCH  38  39
ENDBRANCH  37  38
ENDBRANCH  36  37
ENDBRANCH  35  36
ENDBRANCH  34  35
ENDBRANCH   1  34
TORSDOF 26
