REMARK SMILES O=C(Cc1cccn1-c1ccccc1F)OCCOCCOCCOC(=O)c1ccc(-c2c3nc(c(-c4cccc(S(=O)(=O)[O-])c4F)c4ccc([nH]4)c(-c4cccc(S(=O)(=O)[O-])c4F)c4nc(c(-c5cccc(S(=O)(=O)[O-])c5F)c5ccc2[nH]5)C=C4)C=C3)cc1
REMARK SMILES IDX 21 1 20 2 19 3 18 4 17 5 16 6 2 7 1 8 3 9 4 10 5 11 8 12
REMARK SMILES IDX 6 13 7 14 9 15 10 16 14 17 11 18 13 19 15 20 12 21 22 22
REMARK SMILES IDX 23 23 24 24 25 25 26 26 27 27 28 28 29 29 90 30 30 31 89 32
REMARK SMILES IDX 31 33 32 34 33 35 83 36 34 37 88 38 82 39 84 40 35 41 87 42
REMARK SMILES IDX 81 43 80 44 36 46 68 47 48 48 67 49 49 50 52 51 66 52 85 53
REMARK SMILES IDX 50 54 51 55 65 57 86 58 53 59 37 60 38 61 46 62 39 63 41 64
REMARK SMILES IDX 47 65 40 66 42 67 43 68 44 69 45 70 69 71 70 72 78 73 71 74
REMARK SMILES IDX 73 75 79 76 72 77 74 78 75 79 76 80 77 81 54 82 55 83 63 84
REMARK SMILES IDX 56 85 58 86 64 87 57 88 59 89 60 90 61 91 62 92
REMARK H PARENT 84 45 52 56
REMARK Flexibility Score: inf
ROOT
ATOM      1  C   UNL     1       2.225   2.750  -0.355  1.00  0.00     0.188 C 
ENDROOT
BRANCH   1   2
ATOM      2  C   UNL     1       3.092   2.131   0.760  1.00  0.00     0.188 C 
BRANCH   2   3
ATOM      3  O   UNL     1       4.468   2.027   0.447  1.00  0.00    -0.376 OA
BRANCH   3   4
ATOM      4  C   UNL     1       5.012   0.766   0.117  1.00  0.00     0.202 C 
BRANCH   4   5
ATOM      5  C   UNL     1       4.397   0.057  -1.089  1.00  0.00     0.261 C 
BRANCH   5   6
ATOM      6  O   UNL     1       2.995  -0.277  -1.036  1.00  0.00    -0.463 OA
BRANCH   6   7
ATOM      7  C   UNL     1       2.309  -0.991  -0.124  1.00  0.00     0.311 C 
ATOM      8  O   UNL     1       1.085  -1.072  -0.238  1.00  0.00    -0.252 OA
BRANCH   7   9
ATOM      9  C   UNL     1       3.007  -1.570   1.080  1.00  0.00     0.177 C 
BRANCH   9  10
ATOM     10  C   UNL     1       3.857  -2.772   0.799  1.00  0.00     0.034 A 
ATOM     11  C   UNL     1       5.221  -2.863   0.575  1.00  0.00     0.024 A 
ATOM     12  N   UNL     1       3.373  -4.069   0.933  1.00  0.00    -0.318 N 
ATOM     13  C   UNL     1       5.577  -4.230   0.583  1.00  0.00     0.020 A 
ATOM     14  C   UNL     1       4.432  -4.944   0.849  1.00  0.00     0.091 A 
BRANCH  12  15
ATOM     15  C   UNL     1       2.080  -4.404   1.373  1.00  0.00     0.081 A 
ATOM     16  C   UNL     1       1.907  -4.814   2.699  1.00  0.00     0.030 A 
ATOM     17  C   UNL     1       0.983  -4.106   0.570  1.00  0.00     0.147 A 
ATOM     18  C   UNL     1       0.615  -4.866   3.225  1.00  0.00     0.002 A 
ATOM     19  C   UNL     1      -0.301  -4.157   1.096  1.00  0.00     0.041 A 
ATOM     20  F   UNL     1       1.153  -3.763  -0.715  1.00  0.00    -0.205 F 
ATOM     21  C   UNL     1      -0.484  -4.524   2.431  1.00  0.00     0.003 A 
ENDBRANCH  12  15
ENDBRANCH   9  10
ENDBRANCH   7   9
ENDBRANCH   6   7
ENDBRANCH   5   6
ENDBRANCH   4   5
ENDBRANCH   3   4
ENDBRANCH   2   3
ENDBRANCH   1   2
BRANCH   1  22
ATOM     22  O   UNL     1       2.690   3.774  -1.236  1.00  0.00    -0.376 OA
BRANCH  22  23
ATOM     23  C   UNL     1       4.070   4.071  -1.356  1.00  0.00     0.202 C 
BRANCH  23  24
ATOM     24  C   UNL     1       4.585   5.132  -0.382  1.00  0.00     0.261 C 
BRANCH  24  25
ATOM     25  O   UNL     1       4.311   4.856   0.987  1.00  0.00    -0.460 OA
BRANCH  25  26
ATOM     26  C   UNL     1       3.094   5.279   1.397  1.00  0.00     0.338 C 
ATOM     27  O   UNL     1       2.181   5.708   0.714  1.00  0.00    -0.246 OA
BRANCH  26  28
ATOM     28  C   UNL     1       3.012   5.230   2.858  1.00  0.00     0.060 A 
ATOM     29  C   UNL     1       1.731   5.173   3.425  1.00  0.00     0.016 A 
ATOM     30  C   UNL     1       4.143   5.566   3.601  1.00  0.00     0.016 A 
ATOM     31  C   UNL     1       1.549   5.662   4.704  1.00  0.00     0.010 A 
ATOM     32  C   UNL     1       3.951   6.100   4.854  1.00  0.00     0.010 A 
ATOM     33  C   UNL     1       2.650   6.215   5.362  1.00  0.00    -0.014 A 
BRANCH  33  34
ATOM     34  C   UNL     1       2.452   7.026   6.572  1.00  0.00     0.031 A 
ATOM     35  C   UNL     1       2.651   6.236   7.855  1.00  0.00     0.074 A 
ATOM     36  C   UNL     1       2.181   8.346   6.337  1.00  0.00     0.049 A 
ATOM     37  N   UNL     1       2.268   6.518   9.062  1.00  0.00    -0.248 NA
ATOM     38  C   UNL     1       3.280   4.888   7.782  1.00  0.00     0.031 C 
ATOM     39  C   UNL     1       1.991   8.932   4.989  1.00  0.00     0.029 A 
ATOM     40  N   UNL     1       2.023   9.458   7.139  1.00  0.00    -0.354 N 
ATOM     41  C   UNL     1       2.817   5.525   9.896  1.00  0.00     0.074 A 
ATOM     42  C   UNL     1       3.299   4.479   9.050  1.00  0.00     0.031 C 
ATOM     43  C   UNL     1       1.684  10.241   5.068  1.00  0.00     0.029 A 
ATOM     44  C   UNL     1       1.703  10.658   6.457  1.00  0.00     0.049 A 
ATOM     45  H   UNL     1       2.125   9.421   8.117  1.00  0.00     0.167 HD
ATOM     46  C   UNL     1       2.980   5.684  11.236  1.00  0.00     0.034 A 
ATOM     47  C   UNL     1       1.454  11.905   6.962  1.00  0.00     0.034 A 
ATOM     48  C   UNL     1       2.541   6.977  11.644  1.00  0.00     0.049 A 
ATOM     49  C   UNL     1       1.804  11.847   8.392  1.00  0.00     0.074 A 
ATOM     50  C   UNL     1       1.304   7.522  11.863  1.00  0.00     0.029 A 
ATOM     51  N   UNL     1       3.473   7.983  11.544  1.00  0.00    -0.354 N 
ATOM     52  N   UNL     1       3.018  11.745   8.853  1.00  0.00    -0.248 NA
ATOM     53  C   UNL     1       0.728  11.790   9.388  1.00  0.00     0.031 C 
ATOM     54  C   UNL     1       1.466   8.892  11.566  1.00  0.00     0.029 A 
ATOM     55  C   UNL     1       2.806   9.148  11.255  1.00  0.00     0.049 A 
ATOM     56  H   UNL     1       4.446   7.885  11.660  1.00  0.00     0.167 HD
ATOM     57  C   UNL     1       2.812  11.252  10.120  1.00  0.00     0.074 A 
ATOM     58  C   UNL     1       1.460  11.604  10.481  1.00  0.00     0.031 C 
ATOM     59  C   UNL     1       3.531  10.184  10.551  1.00  0.00     0.034 A 
BRANCH  46  60
ATOM     60  C   UNL     1       3.693   4.846  12.257  1.00  0.00     0.023 A 
ATOM     61  C   UNL     1       3.204   4.955  13.585  1.00  0.00     0.012 A 
ATOM     62  C   UNL     1       4.924   4.196  12.062  1.00  0.00     0.148 A 
ATOM     63  C   UNL     1       3.938   4.513  14.682  1.00  0.00     0.002 A 
ATOM     64  C   UNL     1       5.635   3.713  13.164  1.00  0.00     0.091 A 
ATOM     65  F   UNL     1       5.447   4.127  10.832  1.00  0.00    -0.205 F 
ATOM     66  C   UNL     1       5.159   3.897  14.471  1.00  0.00     0.022 A 
BRANCH  64  67
ATOM     67  S   UNL     1       7.190   2.830  12.992  1.00  0.00     0.127 S 
ATOM     68  O   UNL     1       8.171   3.884  13.232  1.00  0.00    -0.237 OA
ATOM     69  O   UNL     1       7.100   1.833  14.063  1.00  0.00    -0.237 OA
ATOM     70  O   UNL     1       7.157   2.253  11.654  1.00  0.00    -0.744 OA
ENDBRANCH  64  67
ENDBRANCH  46  60
BRANCH  47  71
ATOM     71  C   UNL     1       0.837  13.181   6.430  1.00  0.00     0.023 A 
ATOM     72  C   UNL     1       0.562  13.422   5.075  1.00  0.00     0.012 A 
ATOM     73  C   UNL     1       0.366  14.175   7.336  1.00  0.00     0.148 A 
ATOM     74  C   UNL     1      -0.234  14.508   4.662  1.00  0.00     0.002 A 
ATOM     75  C   UNL     1      -0.526  15.168   6.947  1.00  0.00     0.091 A 
ATOM     76  F   UNL     1       0.806  14.183   8.599  1.00  0.00    -0.205 F 
ATOM     77  C   UNL     1      -0.824  15.348   5.600  1.00  0.00     0.022 A 
BRANCH  75  78
ATOM     78  S   UNL     1      -1.469  16.120   8.154  1.00  0.00     0.127 S 
ATOM     79  O   UNL     1      -1.128  17.496   7.800  1.00  0.00    -0.237 OA
ATOM     80  O   UNL     1      -2.840  15.724   7.831  1.00  0.00    -0.237 OA
ATOM     81  O   UNL     1      -1.012  15.682   9.466  1.00  0.00    -0.744 OA
ENDBRANCH  75  78
ENDBRANCH  47  71
BRANCH  59  82
ATOM     82  C   UNL     1       4.918  10.066   9.937  1.00  0.00     0.023 A 
ATOM     83  C   UNL     1       5.832  11.101  10.222  1.00  0.00     0.012 A 
ATOM     84  C   UNL     1       5.336   9.055   9.041  1.00  0.00     0.148 A 
ATOM     85  C   UNL     1       7.105  11.134   9.646  1.00  0.00     0.002 A 
ATOM     86  C   UNL     1       6.610   9.087   8.466  1.00  0.00     0.091 A 
ATOM     87  F   UNL     1       4.481   8.078   8.737  1.00  0.00    -0.205 F 
ATOM     88  C   UNL     1       7.497  10.126   8.773  1.00  0.00     0.022 A 
BRANCH  86  89
ATOM     89  S   UNL     1       7.217   7.842   7.311  1.00  0.00     0.127 S 
ATOM     90  O   UNL     1       7.286   8.588   6.053  1.00  0.00    -0.237 OA
ATOM     91  O   UNL     1       8.522   7.501   7.876  1.00  0.00    -0.237 OA
ATOM     92  O   UNL     1       6.240   6.762   7.325  1.00  0.00    -0.744 OA
ENDBRANCH  86  89
ENDBRANCH  59  82
ENDBRANCH  33  34
ENDBRANCH  26  28
ENDBRANCH  25  26
ENDBRANCH  24  25
ENDBRANCH  23  24
ENDBRANCH  22  23
ENDBRANCH   1  22
TORSDOF 22
