REMARK SMILES CO[C@H]1CCC[C@H]1NC(=O)N[C@](C)(C(=O)OCCOCCOCCOC(=O)c1ccc(-c2c3nc(c(-c4cccc(S(=O)(=O)[O-])c4F)c4ccc([nH]4)c(-c4cccc(S(=O)(=O)[O-])c4F)c4nc(c(-c5cccc(S(=O)(=O)[O-])c5F)c5ccc2[nH]5)C=C4)C=C3)cc1)C(F)(F)F
REMARK SMILES IDX 20 1 19 2 18 3 17 4 16 5 14 6 15 7 12 8 13 9 11 10 8 11 9 12
REMARK SMILES IDX 10 14 7 16 3 17 4 18 5 19 6 20 2 21 1 22 91 23 92 24 93 25
REMARK SMILES IDX 94 26 21 27 22 28 23 29 24 30 25 31 26 32 27 33 28 34 29 35
REMARK SMILES IDX 90 36 30 37 89 38 31 39 32 40 33 41 83 42 34 43 88 44 82 45
REMARK SMILES IDX 84 46 35 47 87 48 81 49 80 50 36 52 68 53 48 54 67 55 49 56
REMARK SMILES IDX 52 57 66 58 85 59 50 60 51 61 65 63 86 64 53 65 37 66 38 67
REMARK SMILES IDX 46 68 39 69 41 70 47 71 40 72 42 73 43 74 44 75 45 76 69 77
REMARK SMILES IDX 70 78 78 79 71 80 73 81 79 82 72 83 74 84 75 85 76 86 77 87
REMARK SMILES IDX 54 88 55 89 63 90 56 91 58 92 64 93 57 94 59 95 60 96 61 97
REMARK SMILES IDX 62 98
REMARK H PARENT 8 13 11 15 84 51 52 62
REMARK Flexibility Score: inf
ROOT
ATOM      1  C   UNL     1      -0.106   1.121  -2.360  1.00  0.00     0.188 C 
ENDROOT
BRANCH   1   2
ATOM      2  O   UNL     1       0.234   1.187  -3.736  1.00  0.00    -0.376 OA
BRANCH   2   3
ATOM      3  C   UNL     1       0.571  -0.000  -4.440  1.00  0.00     0.202 C 
BRANCH   3   4
ATOM      4  C   UNL     1       1.567  -0.988  -3.812  1.00  0.00     0.261 C 
BRANCH   4   5
ATOM      5  O   UNL     1       0.984  -1.704  -2.708  1.00  0.00    -0.461 OA
BRANCH   5   6
ATOM      6  C   UNL     1       1.833  -2.484  -1.980  1.00  0.00     0.341 C 
ATOM      7  O   UNL     1       2.958  -2.782  -2.366  1.00  0.00    -0.249 OA
BRANCH   6   8
ATOM      8  C   UNL     1       1.253  -2.908  -0.602  1.00  0.00     0.232 C 
ATOM      9  C   UNL     1      -0.202  -3.405  -0.758  1.00  0.00     0.058 C 
BRANCH   8  10
ATOM     10  N   UNL     1       2.120  -4.089  -0.200  1.00  0.00    -0.315 N 
ATOM     11  N   UNL     1       2.262  -4.599   2.124  1.00  0.00    -0.333 N 
ATOM     12  C   UNL     1       2.456  -4.863   0.832  1.00  0.00     0.316 C 
ATOM     13  H   UNL     1       2.435  -5.367   2.716  1.00  0.00     0.165 HD
ATOM     14  O   UNL     1       3.008  -5.931   0.548  1.00  0.00    -0.249 OA
ATOM     15  H   UNL     1       2.618  -4.395  -0.993  1.00  0.00     0.166 HD
BRANCH  11  16
ATOM     16  C   UNL     1       1.852  -3.416   2.820  1.00  0.00     0.112 C 
ATOM     17  C   UNL     1       0.729  -3.528   3.850  1.00  0.00     0.140 C 
ATOM     18  C   UNL     1       0.730  -2.120   4.467  1.00  0.00     0.034 C 
ATOM     19  C   UNL     1       2.137  -1.541   4.234  1.00  0.00     0.005 C 
ATOM     20  C   UNL     1       2.942  -2.654   3.562  1.00  0.00     0.028 C 
BRANCH  17  21
ATOM     21  O   UNL     1       1.042  -4.474   4.873  1.00  0.00    -0.379 OA
ATOM     22  C   UNL     1       0.363  -5.708   4.694  1.00  0.00     0.195 C 
ENDBRANCH  17  21
ENDBRANCH  11  16
ENDBRANCH   8  10
BRANCH   8  23
ATOM     23  C   UNL     1       1.359  -1.592   0.197  1.00  0.00     0.422 C 
ATOM     24  F   UNL     1       1.183  -0.486  -0.540  1.00  0.00    -0.168 F 
ATOM     25  F   UNL     1       0.396  -1.499   1.153  1.00  0.00    -0.168 F 
ATOM     26  F   UNL     1       2.565  -1.446   0.786  1.00  0.00    -0.168 F 
ENDBRANCH   8  23
ENDBRANCH   6   8
ENDBRANCH   5   6
ENDBRANCH   4   5
ENDBRANCH   3   4
ENDBRANCH   2   3
ENDBRANCH   1   2
BRANCH   1  27
ATOM     27  C   UNL     1      -1.186   0.122  -1.893  1.00  0.00     0.188 C 
BRANCH  27  28
ATOM     28  O   UNL     1      -2.345  -0.106  -2.680  1.00  0.00    -0.376 OA
BRANCH  28  29
ATOM     29  C   UNL     1      -2.874   0.992  -3.400  1.00  0.00     0.202 C 
BRANCH  29  30
ATOM     30  C   UNL     1      -3.521   2.123  -2.592  1.00  0.00     0.261 C 
BRANCH  30  31
ATOM     31  O   UNL     1      -2.793   2.522  -1.419  1.00  0.00    -0.460 OA
BRANCH  31  32
ATOM     32  C   UNL     1      -3.268   2.023  -0.254  1.00  0.00     0.338 C 
ATOM     33  O   UNL     1      -4.247   1.290  -0.118  1.00  0.00    -0.246 OA
BRANCH  32  34
ATOM     34  C   UNL     1      -2.363   2.347   0.868  1.00  0.00     0.060 A 
ATOM     35  C   UNL     1      -2.049   1.325   1.775  1.00  0.00     0.016 A 
ATOM     36  C   UNL     1      -1.893   3.645   1.087  1.00  0.00     0.016 A 
ATOM     37  C   UNL     1      -1.327   1.608   2.934  1.00  0.00     0.010 A 
ATOM     38  C   UNL     1      -1.177   3.931   2.258  1.00  0.00     0.010 A 
ATOM     39  C   UNL     1      -0.934   2.924   3.210  1.00  0.00    -0.014 A 
BRANCH  39  40
ATOM     40  C   UNL     1      -0.470   3.271   4.579  1.00  0.00     0.031 A 
ATOM     41  C   UNL     1      -1.472   3.822   5.560  1.00  0.00     0.074 A 
ATOM     42  C   UNL     1       0.804   3.078   4.965  1.00  0.00     0.049 A 
ATOM     43  N   UNL     1      -1.306   4.172   6.809  1.00  0.00    -0.248 NA
ATOM     44  C   UNL     1      -2.847   4.002   5.064  1.00  0.00     0.031 C 
ATOM     45  C   UNL     1       1.875   2.548   4.125  1.00  0.00     0.029 A 
ATOM     46  N   UNL     1       1.413   3.328   6.172  1.00  0.00    -0.354 N 
ATOM     47  C   UNL     1      -2.544   4.631   7.242  1.00  0.00     0.074 A 
ATOM     48  C   UNL     1      -3.450   4.530   6.119  1.00  0.00     0.031 C 
ATOM     49  C   UNL     1       3.018   2.532   4.836  1.00  0.00     0.029 A 
ATOM     50  C   UNL     1       2.762   3.064   6.175  1.00  0.00     0.049 A 
ATOM     51  H   UNL     1       0.929   3.663   6.960  1.00  0.00     0.167 HD
ATOM     52  C   UNL     1      -2.907   5.080   8.467  1.00  0.00     0.034 A 
ATOM     53  C   UNL     1       3.685   3.242   7.142  1.00  0.00     0.034 A 
ATOM     54  C   UNL     1      -2.021   5.173   9.595  1.00  0.00     0.049 A 
ATOM     55  C   UNL     1       3.260   3.766   8.492  1.00  0.00     0.074 A 
ATOM     56  C   UNL     1      -2.309   5.589  10.883  1.00  0.00     0.029 A 
ATOM     57  N   UNL     1      -0.672   4.859   9.569  1.00  0.00    -0.354 N 
ATOM     58  N   UNL     1       2.061   4.078   8.921  1.00  0.00    -0.248 NA
ATOM     59  C   UNL     1       4.316   3.928   9.506  1.00  0.00     0.031 C 
ATOM     60  C   UNL     1      -1.127   5.546  11.632  1.00  0.00     0.029 A 
ATOM     61  C   UNL     1      -0.111   5.078  10.816  1.00  0.00     0.049 A 
ATOM     62  H   UNL     1      -0.184   4.528   8.780  1.00  0.00     0.167 HD
ATOM     63  C   UNL     1       2.212   4.432  10.260  1.00  0.00     0.074 A 
ATOM     64  C   UNL     1       3.616   4.276  10.577  1.00  0.00     0.031 C 
ATOM     65  C   UNL     1       1.275   4.862  11.142  1.00  0.00     0.034 A 
BRANCH  52  66
ATOM     66  C   UNL     1      -4.345   5.484   8.658  1.00  0.00     0.023 A 
ATOM     67  C   UNL     1      -5.341   4.489   8.739  1.00  0.00     0.012 A 
ATOM     68  C   UNL     1      -4.704   6.838   8.798  1.00  0.00     0.148 A 
ATOM     69  C   UNL     1      -6.678   4.838   8.925  1.00  0.00     0.002 A 
ATOM     70  C   UNL     1      -6.033   7.175   9.025  1.00  0.00     0.091 A 
ATOM     71  F   UNL     1      -3.746   7.769   8.692  1.00  0.00    -0.205 F 
ATOM     72  C   UNL     1      -7.022   6.178   9.078  1.00  0.00     0.022 A 
BRANCH  70  73
ATOM     73  S   UNL     1      -6.565   8.867   9.306  1.00  0.00     0.127 S 
ATOM     74  O   UNL     1      -7.258   9.170   8.055  1.00  0.00    -0.237 OA
ATOM     75  O   UNL     1      -7.442   8.726  10.469  1.00  0.00    -0.237 OA
ATOM     76  O   UNL     1      -5.351   9.633   9.552  1.00  0.00    -0.744 OA
ENDBRANCH  70  73
ENDBRANCH  52  66
BRANCH  53  77
ATOM     77  C   UNL     1       5.111   2.884   6.892  1.00  0.00     0.023 A 
ATOM     78  C   UNL     1       5.682   1.789   7.570  1.00  0.00     0.012 A 
ATOM     79  C   UNL     1       5.904   3.626   5.996  1.00  0.00     0.148 A 
ATOM     80  C   UNL     1       7.026   1.462   7.388  1.00  0.00     0.002 A 
ATOM     81  C   UNL     1       7.228   3.261   5.778  1.00  0.00     0.091 A 
ATOM     82  F   UNL     1       5.349   4.677   5.377  1.00  0.00    -0.205 F 
ATOM     83  C   UNL     1       7.796   2.191   6.487  1.00  0.00     0.022 A 
BRANCH  81  84
ATOM     84  S   UNL     1       8.259   4.070   4.549  1.00  0.00     0.127 S 
ATOM     85  O   UNL     1       9.196   4.814   5.386  1.00  0.00    -0.237 OA
ATOM     86  O   UNL     1       8.837   2.927   3.841  1.00  0.00    -0.237 OA
ATOM     87  O   UNL     1       7.350   4.875   3.745  1.00  0.00    -0.744 OA
ENDBRANCH  81  84
ENDBRANCH  53  77
BRANCH  65  88
ATOM     88  C   UNL     1       1.717   5.158  12.554  1.00  0.00     0.023 A 
ATOM     89  C   UNL     1       2.496   6.302  12.821  1.00  0.00     0.012 A 
ATOM     90  C   UNL     1       1.299   4.344  13.626  1.00  0.00     0.148 A 
ATOM     91  C   UNL     1       2.882   6.610  14.126  1.00  0.00     0.002 A 
ATOM     92  C   UNL     1       1.647   4.684  14.929  1.00  0.00     0.091 A 
ATOM     93  F   UNL     1       0.574   3.249  13.355  1.00  0.00    -0.205 F 
ATOM     94  C   UNL     1       2.449   5.809  15.180  1.00  0.00     0.022 A 
BRANCH  92  95
ATOM     95  S   UNL     1       1.049   3.763  16.352  1.00  0.00     0.127 S 
ATOM     96  O   UNL     1       2.227   2.978  16.716  1.00  0.00    -0.237 OA
ATOM     97  O   UNL     1       0.711   4.828  17.297  1.00  0.00    -0.237 OA
ATOM     98  O   UNL     1      -0.096   2.998  15.876  1.00  0.00    -0.744 OA
ENDBRANCH  92  95
ENDBRANCH  65  88
ENDBRANCH  39  40
ENDBRANCH  32  34
ENDBRANCH  31  32
ENDBRANCH  30  31
ENDBRANCH  29  30
ENDBRANCH  28  29
ENDBRANCH  27  28
ENDBRANCH   1  27
TORSDOF 24
