REMARK SMILES Cc1ccc(-c2cc(C(=O)OCCOCCOCCOC(=O)c3ccc(-c4c5nc(c(-c6cccc(S(=O)(=O)[O-])c6F)c6ccc([nH]6)c(-c6cccc(S(=O)(=O)[O-])c6F)c6nc(c(-c7cccc(S(=O)(=O)[O-])c7F)c7ccc4[nH]7)C=C6)C=C5)cc3)c3c(-c4cccc([N+](=O)[O-])c4)[nH]nc3n2)cc1
REMARK SMILES IDX 16 1 15 2 14 3 13 4 12 5 11 6 9 7 10 8 8 9 6 10 7 11 100 12
REMARK SMILES IDX 99 13 86 14 98 15 87 16 97 17 5 19 1 20 2 21 3 22 102 23
REMARK SMILES IDX 4 24 101 25 88 26 89 27 96 28 90 29 92 30 91 31 93 32 94 33
REMARK SMILES IDX 95 34 17 35 18 36 19 37 20 38 21 39 22 40 23 41 24 42 85 43
REMARK SMILES IDX 25 44 84 45 26 46 27 47 28 48 78 49 29 50 83 51 77 52 79 53
REMARK SMILES IDX 30 54 82 55 76 56 75 57 31 59 63 60 43 61 62 62 44 63 47 64
REMARK SMILES IDX 61 65 80 66 45 67 46 68 60 70 81 71 48 72 32 73 33 74 41 75
REMARK SMILES IDX 34 76 36 77 42 78 35 79 37 80 38 81 39 82 40 83 64 84 65 85
REMARK SMILES IDX 73 86 66 87 68 88 74 89 67 90 69 91 70 92 71 93 72 94 49 95
REMARK SMILES IDX 50 96 58 97 51 98 53 99 59 100 52 101 54 102 55 103 56 104
REMARK SMILES IDX 57 105
REMARK H PARENT 97 18 79 58 47 69
REMARK Flexibility Score: inf
ROOT
ATOM      1  C   UNL     1      -4.495  -0.534  -7.701  1.00  0.00     0.188 C 
ENDROOT
BRANCH   1   2
ATOM      2  C   UNL     1      -5.078   0.778  -7.160  1.00  0.00     0.188 C 
BRANCH   2   3
ATOM      3  O   UNL     1      -3.959   1.461  -6.522  1.00  0.00    -0.376 OA
BRANCH   3   4
ATOM      4  C   UNL     1      -4.272   2.292  -5.375  1.00  0.00     0.202 C 
BRANCH   4   5
ATOM      5  C   UNL     1      -3.336   1.898  -4.014  1.00  0.00     0.261 C 
BRANCH   5   6
ATOM      6  O   UNL     1      -3.832   1.026  -2.531  1.00  0.00    -0.460 OA
BRANCH   6   7
ATOM      7  C   UNL     1      -4.770   1.006  -1.354  1.00  0.00     0.339 C 
ATOM      8  O   UNL     1      -5.616   1.817  -0.976  1.00  0.00    -0.246 OA
BRANCH   7   9
ATOM      9  C   UNL     1      -4.554   0.062  -0.285  1.00  0.00     0.075 A 
ATOM     10  C   UNL     1      -2.699  -0.434   1.216  1.00  0.00     0.074 A 
ATOM     11  C   UNL     1      -3.216   0.120   0.054  1.00  0.00     0.045 A 
ATOM     12  N   UNL     1      -3.384  -1.125   2.144  1.00  0.00    -0.226 NA
ATOM     13  C   UNL     1      -4.723  -1.137   1.921  1.00  0.00     0.182 A 
ATOM     14  C   UNL     1      -5.381  -0.530   0.750  1.00  0.00     0.061 A 
ATOM     15  N   UNL     1      -5.572  -1.716   2.760  1.00  0.00    -0.154 NA
ATOM     16  C   UNL     1      -6.757  -0.720   1.042  1.00  0.00     0.076 A 
ATOM     17  N   UNL     1      -6.749  -1.449   2.221  1.00  0.00    -0.275 N 
ATOM     18  H   UNL     1      -7.586  -1.754   2.641  1.00  0.00     0.190 HD
BRANCH  10  19
ATOM     19  C   UNL     1      -1.248  -0.392   1.273  1.00  0.00     0.000 A 
ATOM     20  C   UNL     1       2.788  -0.213  -0.155  1.00  0.00     0.044 C 
ATOM     21  C   UNL     1       1.400  -0.266   0.400  1.00  0.00    -0.051 A 
ATOM     22  C   UNL     1       0.747  -1.502   0.501  1.00  0.00     0.004 A 
ATOM     23  C   UNL     1       0.744   0.905   0.792  1.00  0.00     0.004 A 
ATOM     24  C   UNL     1      -0.566  -1.565   0.942  1.00  0.00     0.010 A 
ATOM     25  C   UNL     1      -0.572   0.844   1.239  1.00  0.00     0.010 A 
ENDBRANCH  10  19
BRANCH  16  26
ATOM     26  C   UNL     1      -8.164  -0.502   0.601  1.00  0.00     0.007 A 
ATOM     27  C   UNL     1      -8.905   0.622   1.023  1.00  0.00     0.011 A 
ATOM     28  C   UNL     1      -8.920  -1.621   0.175  1.00  0.00     0.096 A 
ATOM     29  C   UNL     1     -10.321   0.656   0.961  1.00  0.00     0.008 A 
ATOM     30  C   UNL     1     -10.336  -1.572   0.083  1.00  0.00     0.270 A 
ATOM     31  C   UNL     1     -11.042  -0.433   0.472  1.00  0.00     0.085 A 
BRANCH  30  32
ATOM     32  N   UNL     1     -11.078  -2.702  -0.507  1.00  0.00     0.062 N 
ATOM     33  O   UNL     1     -12.259  -2.511  -0.846  1.00  0.00    -0.258 OA
ATOM     34  O   UNL     1     -10.525  -3.815  -0.501  1.00  0.00    -0.258 OA
ENDBRANCH  30  32
ENDBRANCH  16  26
ENDBRANCH   7   9
ENDBRANCH   6   7
ENDBRANCH   5   6
ENDBRANCH   4   5
ENDBRANCH   3   4
ENDBRANCH   2   3
ENDBRANCH   1   2
BRANCH   1  35
ATOM     35  O   UNL     1      -5.202  -1.288  -8.664  1.00  0.00    -0.376 OA
BRANCH  35  36
ATOM     36  C   UNL     1      -6.556  -1.645  -8.450  1.00  0.00     0.202 C 
BRANCH  36  37
ATOM     37  C   UNL     1      -7.068  -2.268  -7.126  1.00  0.00     0.261 C 
BRANCH  37  38
ATOM     38  O   UNL     1      -6.158  -3.099  -6.381  1.00  0.00    -0.460 OA
BRANCH  38  39
ATOM     39  C   UNL     1      -6.529  -3.311  -5.058  1.00  0.00     0.338 C 
ATOM     40  O   UNL     1      -6.811  -4.410  -4.612  1.00  0.00    -0.246 OA
BRANCH  39  41
ATOM     41  C   UNL     1      -6.292  -2.098  -4.226  1.00  0.00     0.060 A 
ATOM     42  C   UNL     1      -7.096  -1.500  -3.270  1.00  0.00     0.016 A 
ATOM     43  C   UNL     1      -5.159  -1.432  -4.487  1.00  0.00     0.016 A 
ATOM     44  C   UNL     1      -6.999  -0.070  -2.926  1.00  0.00     0.010 A 
ATOM     45  C   UNL     1      -5.152  -0.061  -4.222  1.00  0.00     0.010 A 
ATOM     46  C   UNL     1      -6.085   0.793  -3.520  1.00  0.00    -0.014 A 
BRANCH  46  47
ATOM     47  C   UNL     1      -5.994   2.526  -3.232  1.00  0.00     0.031 A 
ATOM     48  C   UNL     1      -4.807   3.601  -2.412  1.00  0.00     0.074 A 
ATOM     49  C   UNL     1      -7.037   3.275  -3.671  1.00  0.00     0.049 A 
ATOM     50  N   UNL     1      -5.014   4.881  -2.144  1.00  0.00    -0.248 NA
ATOM     51  C   UNL     1      -3.440   3.329  -1.812  1.00  0.00     0.031 C 
ATOM     52  C   UNL     1      -7.013   4.719  -3.875  1.00  0.00     0.029 A 
ATOM     53  N   UNL     1      -8.368   2.941  -3.893  1.00  0.00    -0.354 N 
ATOM     54  C   UNL     1      -3.835   5.501  -1.684  1.00  0.00     0.074 A 
ATOM     55  C   UNL     1      -2.905   4.481  -1.463  1.00  0.00     0.031 C 
ATOM     56  C   UNL     1      -8.260   5.188  -3.827  1.00  0.00     0.029 A 
ATOM     57  C   UNL     1      -9.147   4.074  -3.591  1.00  0.00     0.049 A 
ATOM     58  H   UNL     1      -8.705   2.070  -4.204  1.00  0.00     0.167 HD
ATOM     59  C   UNL     1      -3.664   6.844  -1.567  1.00  0.00     0.034 A 
ATOM     60  C   UNL     1     -10.270   4.143  -2.830  1.00  0.00     0.034 A 
ATOM     61  C   UNL     1      -4.963   7.477  -1.508  1.00  0.00     0.049 A 
ATOM     62  C   UNL     1     -10.063   5.008  -1.586  1.00  0.00     0.074 A 
ATOM     63  C   UNL     1      -5.765   8.161  -2.396  1.00  0.00     0.029 A 
ATOM     64  N   UNL     1      -5.758   7.153  -0.422  1.00  0.00    -0.354 N 
ATOM     65  N   UNL     1      -9.211   5.992  -1.458  1.00  0.00    -0.248 NA
ATOM     66  C   UNL     1     -10.772   4.751  -0.332  1.00  0.00     0.031 C 
ATOM     67  C   UNL     1      -7.087   8.164  -1.863  1.00  0.00     0.029 A 
ATOM     68  C   UNL     1      -7.075   7.510  -0.642  1.00  0.00     0.049 A 
ATOM     69  H   UNL     1      -5.427   6.725   0.401  1.00  0.00     0.167 HD
ATOM     70  C   UNL     1      -9.093   6.344  -0.120  1.00  0.00     0.074 A 
ATOM     71  C   UNL     1     -10.177   5.612   0.512  1.00  0.00     0.031 C 
ATOM     72  C   UNL     1      -8.067   7.129   0.364  1.00  0.00     0.034 A 
BRANCH  59  73
ATOM     73  C   UNL     1      -2.316   7.569  -1.783  1.00  0.00     0.023 A 
ATOM     74  C   UNL     1      -2.392   8.906  -2.230  1.00  0.00     0.012 A 
ATOM     75  C   UNL     1      -1.001   7.024  -1.774  1.00  0.00     0.148 A 
ATOM     76  C   UNL     1      -1.292   9.589  -2.777  1.00  0.00     0.002 A 
ATOM     77  C   UNL     1       0.077   7.666  -2.402  1.00  0.00     0.091 A 
ATOM     78  F   UNL     1      -0.712   5.941  -1.050  1.00  0.00    -0.205 F 
ATOM     79  C   UNL     1      -0.070   8.948  -2.920  1.00  0.00     0.022 A 
BRANCH  77  80
ATOM     80  S   UNL     1       1.640   6.807  -2.708  1.00  0.00     0.127 S 
ATOM     81  O   UNL     1       1.980   7.237  -4.066  1.00  0.00    -0.237 OA
ATOM     82  O   UNL     1       2.514   7.342  -1.667  1.00  0.00    -0.237 OA
ATOM     83  O   UNL     1       1.328   5.384  -2.604  1.00  0.00    -0.744 OA
ENDBRANCH  77  80
ENDBRANCH  59  73
BRANCH  60  84
ATOM     84  C   UNL     1     -11.225   3.015  -3.017  1.00  0.00     0.023 A 
ATOM     85  C   UNL     1     -12.229   3.148  -4.005  1.00  0.00     0.012 A 
ATOM     86  C   UNL     1     -10.845   1.727  -2.647  1.00  0.00     0.148 A 
ATOM     87  C   UNL     1     -12.804   2.028  -4.630  1.00  0.00     0.002 A 
ATOM     88  C   UNL     1     -11.313   0.646  -3.402  1.00  0.00     0.091 A 
ATOM     89  F   UNL     1      -9.836   1.607  -1.774  1.00  0.00    -0.205 F 
ATOM     90  C   UNL     1     -12.326   0.767  -4.341  1.00  0.00     0.022 A 
BRANCH  88  91
ATOM     91  S   UNL     1     -10.259  -0.763  -3.617  1.00  0.00     0.127 S 
ATOM     92  O   UNL     1     -11.162  -1.863  -3.978  1.00  0.00    -0.237 OA
ATOM     93  O   UNL     1      -9.400  -0.299  -4.719  1.00  0.00    -0.237 OA
ATOM     94  O   UNL     1      -9.666  -0.896  -2.338  1.00  0.00    -0.744 OA
ENDBRANCH  88  91
ENDBRANCH  60  84
BRANCH  72  95
ATOM     95  C   UNL     1      -7.781   7.549   1.828  1.00  0.00     0.023 A 
ATOM     96  C   UNL     1      -8.400   6.973   2.951  1.00  0.00     0.012 A 
ATOM     97  C   UNL     1      -6.769   8.516   2.127  1.00  0.00     0.148 A 
ATOM     98  C   UNL     1      -8.057   7.327   4.270  1.00  0.00     0.002 A 
ATOM     99  C   UNL     1      -6.353   8.780   3.435  1.00  0.00     0.091 A 
ATOM    100  F   UNL     1      -6.206   9.229   1.140  1.00  0.00    -0.205 F 
ATOM    101  C   UNL     1      -7.013   8.207   4.515  1.00  0.00     0.022 A 
BRANCH  99 102
ATOM    102  S   UNL     1      -4.859   9.744   3.737  1.00  0.00     0.127 S 
ATOM    103  O   UNL     1      -5.349  11.116   3.652  1.00  0.00    -0.237 OA
ATOM    104  O   UNL     1      -4.468   9.323   5.085  1.00  0.00    -0.237 OA
ATOM    105  O   UNL     1      -3.943   9.307   2.692  1.00  0.00    -0.744 OA
ENDBRANCH  99 102
ENDBRANCH  72  95
ENDBRANCH  46  47
ENDBRANCH  39  41
ENDBRANCH  38  39
ENDBRANCH  37  38
ENDBRANCH  36  37
ENDBRANCH  35  36
ENDBRANCH   1  35
TORSDOF 23
