REMARK SMILES Cc1cc(Cl)ccc1-c1ccc(C(=O)OCCOCCOCCOC(=O)c2ccc(-c3c4nc(c(-c5cccc(S(=O)(=O)[O-])c5F)c5ccc([nH]5)c(-c5cccc(S(=O)(=O)[O-])c5F)c5nc(c(-c6cccc(S(=O)(=O)[O-])c6F)c6ccc3[nH]6)C=C5)C=C4)cc2)c(Cl)c1
REMARK SMILES IDX 20 1 19 2 18 3 17 4 16 5 15 6 13 7 14 8 12 9 9 10 10 11
REMARK SMILES IDX 92 12 11 13 90 14 91 15 8 16 1 17 2 18 3 19 4 20 7 21 5 22
REMARK SMILES IDX 6 23 21 24 22 25 23 26 24 27 25 28 26 29 27 30 28 31 89 32
REMARK SMILES IDX 29 33 88 34 30 35 31 36 32 37 82 38 33 39 87 40 81 41 83 42
REMARK SMILES IDX 34 43 86 44 80 45 79 46 35 48 67 49 47 50 66 51 48 52 51 53
REMARK SMILES IDX 65 54 84 55 49 56 50 57 64 59 85 60 52 61 36 62 37 63 45 64
REMARK SMILES IDX 38 65 40 66 46 67 39 68 41 69 42 70 43 71 44 72 68 73 69 74
REMARK SMILES IDX 77 75 70 76 72 77 78 78 71 79 73 80 74 81 75 82 76 83 53 84
REMARK SMILES IDX 54 85 62 86 55 87 57 88 63 89 56 90 58 91 59 92 60 93 61 94
REMARK H PARENT 83 47 51 58
REMARK Flexibility Score: inf
ROOT
ATOM      1  C   UNL     1      -8.300  -0.731   1.288  1.00  0.00     0.188 C 
ENDROOT
BRANCH   1   2
ATOM      2  C   UNL     1      -9.120  -1.147   0.046  1.00  0.00     0.188 C 
BRANCH   2   3
ATOM      3  O   UNL     1     -10.356  -1.770   0.305  1.00  0.00    -0.376 OA
BRANCH   3   4
ATOM      4  C   UNL     1     -10.433  -3.175   0.476  1.00  0.00     0.202 C 
BRANCH   4   5
ATOM      5  C   UNL     1      -9.229  -4.136   0.524  1.00  0.00     0.261 C 
BRANCH   5   6
ATOM      6  O   UNL     1      -7.939  -3.551   0.714  1.00  0.00    -0.460 OA
BRANCH   6   7
ATOM      7  C   UNL     1      -7.044  -3.757  -0.283  1.00  0.00     0.339 C 
ATOM      8  O   UNL     1      -7.220  -4.397  -1.306  1.00  0.00    -0.246 OA
BRANCH   7   9
ATOM      9  C   UNL     1      -5.839  -2.931  -0.074  1.00  0.00     0.078 A 
ATOM     10  C   UNL     1      -3.453  -1.431   0.075  1.00  0.00    -0.017 A 
ATOM     11  C   UNL     1      -4.287  -1.328  -1.046  1.00  0.00     0.010 A 
ATOM     12  C   UNL     1      -3.876  -2.240   1.149  1.00  0.00     0.030 A 
ATOM     13  C   UNL     1      -5.467  -2.074  -1.124  1.00  0.00     0.018 A 
ATOM     14  C   UNL     1      -5.054  -2.995   1.077  1.00  0.00     0.056 A 
ATOM     15  Cl  UNL     1      -5.413  -4.042   2.403  1.00  0.00    -0.083 Cl
BRANCH  10  16
ATOM     16  C   UNL     1      -2.089  -0.870   0.067  1.00  0.00    -0.015 A 
ATOM     17  C   UNL     1      -2.807   1.603   0.063  1.00  0.00     0.045 C 
ATOM     18  C   UNL     1      -1.776   0.506   0.054  1.00  0.00    -0.042 A 
ATOM     19  C   UNL     1      -0.421   0.904   0.019  1.00  0.00     0.024 A 
ATOM     20  C   UNL     1       0.606  -0.038   0.002  1.00  0.00     0.041 A 
ATOM     21  C   UNL     1      -1.023  -1.798   0.040  1.00  0.00     0.010 A 
ATOM     22  Cl  UNL     1       2.248   0.474  -0.030  1.00  0.00    -0.084 Cl
ATOM     23  C   UNL     1       0.310  -1.392   0.011  1.00  0.00     0.021 A 
ENDBRANCH  10  16
ENDBRANCH   7   9
ENDBRANCH   6   7
ENDBRANCH   5   6
ENDBRANCH   4   5
ENDBRANCH   3   4
ENDBRANCH   2   3
ENDBRANCH   1   2
BRANCH   1  24
ATOM     24  O   UNL     1      -8.677  -1.157   2.585  1.00  0.00    -0.376 OA
BRANCH  24  25
ATOM     25  C   UNL     1      -9.998  -0.913   3.043  1.00  0.00     0.202 C 
BRANCH  25  26
ATOM     26  C   UNL     1     -10.714   0.432   2.825  1.00  0.00     0.261 C 
BRANCH  26  27
ATOM     27  O   UNL     1     -10.548   1.049   1.543  1.00  0.00    -0.460 OA
BRANCH  27  28
ATOM     28  C   UNL     1      -9.761   2.151   1.520  1.00  0.00     0.338 C 
ATOM     29  O   UNL     1      -9.168   2.660   2.461  1.00  0.00    -0.246 OA
BRANCH  28  30
ATOM     30  C   UNL     1      -9.565   2.570   0.121  1.00  0.00     0.060 A 
ATOM     31  C   UNL     1      -8.288   2.463  -0.451  1.00  0.00     0.016 A 
ATOM     32  C   UNL     1     -10.630   3.092  -0.610  1.00  0.00     0.016 A 
ATOM     33  C   UNL     1      -8.072   2.881  -1.763  1.00  0.00     0.010 A 
ATOM     34  C   UNL     1     -10.406   3.537  -1.913  1.00  0.00     0.010 A 
ATOM     35  C   UNL     1      -9.124   3.452  -2.488  1.00  0.00    -0.014 A 
BRANCH  35  36
ATOM     36  C   UNL     1      -8.870   4.110  -3.790  1.00  0.00     0.031 A 
ATOM     37  C   UNL     1      -8.760   5.608  -3.826  1.00  0.00     0.074 A 
ATOM     38  C   UNL     1      -8.796   3.395  -4.925  1.00  0.00     0.049 A 
ATOM     39  N   UNL     1      -8.687   6.409  -4.854  1.00  0.00    -0.248 NA
ATOM     40  C   UNL     1      -8.743   6.292  -2.522  1.00  0.00     0.031 C 
ATOM     41  C   UNL     1      -8.879   1.938  -5.014  1.00  0.00     0.029 A 
ATOM     42  N   UNL     1      -8.685   3.809  -6.229  1.00  0.00    -0.354 N 
ATOM     43  C   UNL     1      -8.652   7.694  -4.327  1.00  0.00     0.074 A 
ATOM     44  C   UNL     1      -8.720   7.565  -2.888  1.00  0.00     0.031 C 
ATOM     45  C   UNL     1      -8.868   1.581  -6.310  1.00  0.00     0.029 A 
ATOM     46  C   UNL     1      -8.815   2.785  -7.138  1.00  0.00     0.049 A 
ATOM     47  H   UNL     1      -8.527   4.746  -6.488  1.00  0.00     0.167 HD
ATOM     48  C   UNL     1      -8.565   8.876  -4.983  1.00  0.00     0.034 A 
ATOM     49  C   UNL     1      -8.927   2.821  -8.481  1.00  0.00     0.034 A 
ATOM     50  C   UNL     1      -8.502   8.998  -6.414  1.00  0.00     0.049 A 
ATOM     51  C   UNL     1      -8.869   4.150  -9.191  1.00  0.00     0.074 A 
ATOM     52  C   UNL     1      -8.381  10.146  -7.175  1.00  0.00     0.029 A 
ATOM     53  N   UNL     1      -8.577   7.936  -7.302  1.00  0.00    -0.354 N 
ATOM     54  N   UNL     1      -8.738   5.353  -8.685  1.00  0.00    -0.248 NA
ATOM     55  C   UNL     1      -8.944   4.124 -10.660  1.00  0.00     0.031 C 
ATOM     56  C   UNL     1      -8.418   9.781  -8.525  1.00  0.00     0.029 A 
ATOM     57  C   UNL     1      -8.514   8.401  -8.604  1.00  0.00     0.049 A 
ATOM     58  H   UNL     1      -8.662   6.989  -7.044  1.00  0.00     0.167 HD
ATOM     59  C   UNL     1      -8.673   6.220  -9.771  1.00  0.00     0.074 A 
ATOM     60  C   UNL     1      -8.765   5.403 -10.963  1.00  0.00     0.031 C 
ATOM     61  C   UNL     1      -8.554   7.572  -9.782  1.00  0.00     0.034 A 
BRANCH  48  62
ATOM     62  C   UNL     1      -8.525  10.130  -4.149  1.00  0.00     0.023 A 
ATOM     63  C   UNL     1      -7.384  10.418  -3.372  1.00  0.00     0.012 A 
ATOM     64  C   UNL     1      -9.600  11.039  -4.160  1.00  0.00     0.148 A 
ATOM     65  C   UNL     1      -7.332  11.569  -2.586  1.00  0.00     0.002 A 
ATOM     66  C   UNL     1      -9.520  12.209  -3.413  1.00  0.00     0.091 A 
ATOM     67  F   UNL     1     -10.685  10.738  -4.888  1.00  0.00    -0.205 F 
ATOM     68  C   UNL     1      -8.394  12.467  -2.614  1.00  0.00     0.022 A 
BRANCH  66  69
ATOM     69  S   UNL     1     -10.800  13.468  -3.446  1.00  0.00     0.127 S 
ATOM     70  O   UNL     1     -11.368  13.345  -2.104  1.00  0.00    -0.237 OA
ATOM     71  O   UNL     1     -10.023  14.688  -3.669  1.00  0.00    -0.237 OA
ATOM     72  O   UNL     1     -11.693  13.107  -4.538  1.00  0.00    -0.744 OA
ENDBRANCH  66  69
ENDBRANCH  48  62
BRANCH  49  73
ATOM     73  C   UNL     1      -9.100   1.554  -9.247  1.00  0.00     0.023 A 
ATOM     74  C   UNL     1      -8.060   1.093 -10.077  1.00  0.00     0.012 A 
ATOM     75  C   UNL     1     -10.284   0.798  -9.143  1.00  0.00     0.148 A 
ATOM     76  C   UNL     1      -8.209  -0.082 -10.815  1.00  0.00     0.002 A 
ATOM     77  C   UNL     1     -10.403  -0.400  -9.836  1.00  0.00     0.091 A 
ATOM     78  F   UNL     1     -11.265   1.262  -8.357  1.00  0.00    -0.205 F 
ATOM     79  C   UNL     1      -9.374  -0.833 -10.687  1.00  0.00     0.022 A 
BRANCH  77  80
ATOM     80  S   UNL     1     -11.812  -1.495  -9.638  1.00  0.00     0.127 S 
ATOM     81  O   UNL     1     -12.431  -1.429 -10.960  1.00  0.00    -0.237 OA
ATOM     82  O   UNL     1     -11.160  -2.767  -9.325  1.00  0.00    -0.237 OA
ATOM     83  O   UNL     1     -12.598  -0.935  -8.547  1.00  0.00    -0.744 OA
ENDBRANCH  77  80
ENDBRANCH  49  73
BRANCH  61  84
ATOM     84  C   UNL     1      -8.453   8.261 -11.119  1.00  0.00     0.023 A 
ATOM     85  C   UNL     1      -9.581   8.358 -11.957  1.00  0.00     0.012 A 
ATOM     86  C   UNL     1      -7.250   8.886 -11.507  1.00  0.00     0.148 A 
ATOM     87  C   UNL     1      -9.505   9.037 -13.173  1.00  0.00     0.002 A 
ATOM     88  C   UNL     1      -7.196   9.606 -12.693  1.00  0.00     0.091 A 
ATOM     89  F   UNL     1      -6.182   8.769 -10.704  1.00  0.00    -0.205 F 
ATOM     90  C   UNL     1      -8.318   9.671 -13.535  1.00  0.00     0.022 A 
BRANCH  88  91
ATOM     91  S   UNL     1      -5.742  10.537 -13.192  1.00  0.00     0.127 S 
ATOM     92  O   UNL     1      -5.270   9.761 -14.338  1.00  0.00    -0.237 OA
ATOM     93  O   UNL     1      -6.313  11.841 -13.532  1.00  0.00    -0.237 OA
ATOM     94  O   UNL     1      -4.854  10.547 -12.038  1.00  0.00    -0.744 OA
ENDBRANCH  88  91
ENDBRANCH  61  84
ENDBRANCH  35  36
ENDBRANCH  28  30
ENDBRANCH  27  28
ENDBRANCH  26  27
ENDBRANCH  25  26
ENDBRANCH  24  25
ENDBRANCH   1  24
TORSDOF 21
