REMARK SMILES CCOc1cncc(N(CC(=O)OCCOCCOCCOC(=O)c2ccc(-c3c4nc(c(-c5cccc(S(=O)(=O)[O-])c5F)c5ccc([nH]5)c(-c5cccc(S(=O)(=O)[O-])c5F)c5nc(c(-c6cccc(S(=O)(=O)[O-])c6F)c6ccc3[nH]6)C=C5)C=C4)cc2)C(C)(C)C)n1
REMARK SMILES IDX 17 1 16 2 15 3 14 4 13 5 11 6 12 7 10 8 9 9 8 10 4 11 5 12
REMARK SMILES IDX 92 13 6 14 7 15 3 16 2 17 1 18 88 19 89 20 90 21 91 22 18 23
REMARK SMILES IDX 19 24 20 25 21 26 22 27 23 28 24 29 25 30 26 31 87 32 27 33
REMARK SMILES IDX 86 34 28 35 29 36 30 37 80 38 31 39 85 40 79 41 81 42 32 43
REMARK SMILES IDX 84 44 78 45 77 46 33 48 65 49 45 50 64 51 46 52 49 53 63 54
REMARK SMILES IDX 82 55 47 56 48 57 62 59 83 60 50 61 34 62 35 63 43 64 36 65
REMARK SMILES IDX 38 66 44 67 37 68 39 69 40 70 41 71 42 72 66 73 67 74 75 75
REMARK SMILES IDX 68 76 70 77 76 78 69 79 71 80 72 81 73 82 74 83 51 84 52 85
REMARK SMILES IDX 60 86 53 87 55 88 61 89 54 90 56 91 57 92 58 93 59 94
REMARK H PARENT 81 47 49 58
REMARK Flexibility Score: inf
ROOT
ATOM      1  C   UNL     1       5.833   3.316   8.486  1.00  0.00     0.188 C 
ENDROOT
BRANCH   1   2
ATOM      2  O   UNL     1       6.554   4.508   8.169  1.00  0.00    -0.376 OA
BRANCH   2   3
ATOM      3  C   UNL     1       6.459   4.982   6.827  1.00  0.00     0.202 C 
BRANCH   3   4
ATOM      4  C   UNL     1       7.105   4.073   5.779  1.00  0.00     0.261 C 
BRANCH   4   5
ATOM      5  O   UNL     1       6.357   2.853   5.617  1.00  0.00    -0.462 OA
BRANCH   5   6
ATOM      6  C   UNL     1       6.896   1.971   4.736  1.00  0.00     0.325 C 
ATOM      7  O   UNL     1       7.895   2.198   4.060  1.00  0.00    -0.250 OA
BRANCH   6   8
ATOM      8  C   UNL     1       6.175   0.620   4.734  1.00  0.00     0.241 C 
BRANCH   8   9
ATOM      9  N   UNL     1       4.707   0.669   4.504  1.00  0.00    -0.339 N 
BRANCH   9  10
ATOM     10  C   UNL     1       4.241   1.034   3.231  1.00  0.00     0.152 A 
ATOM     11  C   UNL     1       2.483   1.290   1.735  1.00  0.00     0.234 A 
ATOM     12  C   UNL     1       3.333   1.708   0.734  1.00  0.00     0.179 A 
ATOM     13  N   UNL     1       2.912   0.973   2.976  1.00  0.00    -0.193 NA
ATOM     14  N   UNL     1       4.661   1.787   0.922  1.00  0.00    -0.255 NA
ATOM     15  C   UNL     1       5.077   1.445   2.175  1.00  0.00     0.158 A 
BRANCH  11  16
ATOM     16  O   UNL     1       1.133   1.250   1.500  1.00  0.00    -0.477 OA
BRANCH  16  17
ATOM     17  C   UNL     1       0.694  -0.101   1.323  1.00  0.00     0.228 C 
ATOM     18  C   UNL     1       0.536  -0.377  -0.165  1.00  0.00     0.049 C 
ENDBRANCH  16  17
ENDBRANCH  11  16
ENDBRANCH   9  10
BRANCH   9  19
ATOM     19  C   UNL     1       3.746   0.033   5.474  1.00  0.00     0.034 C 
ATOM     20  C   UNL     1       2.590   1.000   5.833  1.00  0.00     0.034 C 
ATOM     21  C   UNL     1       3.178  -1.292   4.917  1.00  0.00     0.034 C 
ATOM     22  C   UNL     1       4.432  -0.358   6.800  1.00  0.00     0.034 C 
ENDBRANCH   9  19
ENDBRANCH   8   9
ENDBRANCH   6   8
ENDBRANCH   5   6
ENDBRANCH   4   5
ENDBRANCH   3   4
ENDBRANCH   2   3
ENDBRANCH   1   2
BRANCH   1  23
ATOM     23  C   UNL     1       4.395   3.239   7.949  1.00  0.00     0.188 C 
BRANCH  23  24
ATOM     24  O   UNL     1       3.602   4.414   8.093  1.00  0.00    -0.376 OA
BRANCH  24  25
ATOM     25  C   UNL     1       3.447   4.903   9.422  1.00  0.00     0.202 C 
BRANCH  25  26
ATOM     26  C   UNL     1       2.667   3.948  10.323  1.00  0.00     0.261 C 
BRANCH  26  27
ATOM     27  O   UNL     1       3.513   2.854  10.720  1.00  0.00    -0.460 OA
BRANCH  27  28
ATOM     28  C   UNL     1       2.842   1.814  11.264  1.00  0.00     0.338 C 
ATOM     29  O   UNL     1       1.646   1.762  11.509  1.00  0.00    -0.246 OA
BRANCH  28  30
ATOM     30  C   UNL     1       3.765   0.691  11.494  1.00  0.00     0.060 A 
ATOM     31  C   UNL     1       4.323   0.024  10.404  1.00  0.00     0.016 A 
ATOM     32  C   UNL     1       3.948   0.201  12.783  1.00  0.00     0.016 A 
ATOM     33  C   UNL     1       4.996  -1.187  10.588  1.00  0.00     0.010 A 
ATOM     34  C   UNL     1       4.672  -0.981  12.975  1.00  0.00     0.010 A 
ATOM     35  C   UNL     1       5.154  -1.718  11.876  1.00  0.00    -0.014 A 
BRANCH  35  36
ATOM     36  C   UNL     1       5.696  -3.094  12.076  1.00  0.00     0.031 A 
ATOM     37  C   UNL     1       4.814  -4.156  12.689  1.00  0.00     0.074 A 
ATOM     38  C   UNL     1       6.954  -3.415  11.715  1.00  0.00     0.049 A 
ATOM     39  N   UNL     1       5.128  -5.354  13.110  1.00  0.00    -0.248 NA
ATOM     40  C   UNL     1       3.392  -3.816  12.862  1.00  0.00     0.031 C 
ATOM     41  C   UNL     1       7.911  -2.510  11.081  1.00  0.00     0.029 A 
ATOM     42  N   UNL     1       7.647  -4.596  11.844  1.00  0.00    -0.354 N 
ATOM     43  C   UNL     1       3.968  -5.877  13.670  1.00  0.00     0.074 A 
ATOM     44  C   UNL     1       2.938  -4.872  13.520  1.00  0.00     0.031 C 
ATOM     45  C   UNL     1       9.062  -3.168  10.866  1.00  0.00     0.029 A 
ATOM     46  C   UNL     1       8.949  -4.522  11.404  1.00  0.00     0.049 A 
ATOM     47  H   UNL     1       7.250  -5.416  12.216  1.00  0.00     0.167 HD
ATOM     48  C   UNL     1       3.771  -7.085  14.249  1.00  0.00     0.034 A 
ATOM     49  C   UNL     1       9.949  -5.426  11.459  1.00  0.00     0.034 A 
ATOM     50  C   UNL     1       4.763  -8.122  14.323  1.00  0.00     0.049 A 
ATOM     51  C   UNL     1       9.699  -6.771  12.087  1.00  0.00     0.074 A 
ATOM     52  C   UNL     1       4.644  -9.391  14.864  1.00  0.00     0.029 A 
ATOM     53  N   UNL     1       6.052  -8.021  13.824  1.00  0.00    -0.354 N 
ATOM     54  N   UNL     1       8.588  -7.257  12.584  1.00  0.00    -0.248 NA
ATOM     55  C   UNL     1      10.842  -7.695  12.155  1.00  0.00     0.031 C 
ATOM     56  C   UNL     1       5.863 -10.057  14.690  1.00  0.00     0.029 A 
ATOM     57  C   UNL     1       6.737  -9.204  14.038  1.00  0.00     0.049 A 
ATOM     58  H   UNL     1       6.425  -7.224  13.382  1.00  0.00     0.167 HD
ATOM     59  C   UNL     1       8.894  -8.544  13.015  1.00  0.00     0.074 A 
ATOM     60  C   UNL     1      10.285  -8.777  12.685  1.00  0.00     0.031 C 
ATOM     61  C   UNL     1       8.105  -9.441  13.656  1.00  0.00     0.034 A 
BRANCH  48  62
ATOM     62  C   UNL     1       2.411  -7.363  14.832  1.00  0.00     0.023 A 
ATOM     63  C   UNL     1       1.335  -7.679  13.979  1.00  0.00     0.012 A 
ATOM     64  C   UNL     1       2.210  -7.354  16.226  1.00  0.00     0.148 A 
ATOM     65  C   UNL     1       0.073  -7.955  14.503  1.00  0.00     0.002 A 
ATOM     66  C   UNL     1       0.957  -7.666  16.743  1.00  0.00     0.091 A 
ATOM     67  F   UNL     1       3.239  -7.024  17.020  1.00  0.00    -0.205 F 
ATOM     68  C   UNL     1      -0.114  -7.958  15.883  1.00  0.00     0.022 A 
BRANCH  66  69
ATOM     69  S   UNL     1       0.646  -7.760  18.510  1.00  0.00     0.127 S 
ATOM     70  O   UNL     1      -0.044  -6.495  18.757  1.00  0.00    -0.237 OA
ATOM     71  O   UNL     1      -0.203  -8.948  18.616  1.00  0.00    -0.237 OA
ATOM     72  O   UNL     1       1.954  -7.898  19.135  1.00  0.00    -0.744 OA
ENDBRANCH  66  69
ENDBRANCH  48  62
BRANCH  49  73
ATOM     73  C   UNL     1      11.283  -5.091  10.882  1.00  0.00     0.023 A 
ATOM     74  C   UNL     1      11.722  -5.759   9.722  1.00  0.00     0.012 A 
ATOM     75  C   UNL     1      12.100  -4.096  11.450  1.00  0.00     0.148 A 
ATOM     76  C   UNL     1      12.956  -5.450   9.148  1.00  0.00     0.002 A 
ATOM     77  C   UNL     1      13.299  -3.749  10.837  1.00  0.00     0.091 A 
ATOM     78  F   UNL     1      11.685  -3.494  12.574  1.00  0.00    -0.205 F 
ATOM     79  C   UNL     1      13.736  -4.435   9.695  1.00  0.00     0.022 A 
BRANCH  77  80
ATOM     80  S   UNL     1      14.274  -2.347  11.395  1.00  0.00     0.127 S 
ATOM     81  O   UNL     1      15.330  -3.001  12.162  1.00  0.00    -0.237 OA
ATOM     82  O   UNL     1      14.708  -1.750  10.131  1.00  0.00    -0.237 OA
ATOM     83  O   UNL     1      13.347  -1.518  12.155  1.00  0.00    -0.744 OA
ENDBRANCH  77  80
ENDBRANCH  49  73
BRANCH  61  84
ATOM     84  C   UNL     1       8.721 -10.761  14.039  1.00  0.00     0.023 A 
ATOM     85  C   UNL     1       9.603 -10.817  15.136  1.00  0.00     0.012 A 
ATOM     86  C   UNL     1       8.383 -11.948  13.362  1.00  0.00     0.148 A 
ATOM     87  C   UNL     1      10.161 -12.031  15.536  1.00  0.00     0.002 A 
ATOM     88  C   UNL     1       8.913 -13.160  13.791  1.00  0.00     0.091 A 
ATOM     89  F   UNL     1       7.560 -11.873  12.305  1.00  0.00    -0.205 F 
ATOM     90  C   UNL     1       9.808 -13.203  14.871  1.00  0.00     0.022 A 
BRANCH  88  91
ATOM     91  S   UNL     1       8.441 -14.721  13.035  1.00  0.00     0.127 S 
ATOM     92  O   UNL     1       9.544 -14.950  12.106  1.00  0.00    -0.237 OA
ATOM     93  O   UNL     1       8.409 -15.633  14.180  1.00  0.00    -0.237 OA
ATOM     94  O   UNL     1       7.138 -14.480  12.428  1.00  0.00    -0.744 OA
ENDBRANCH  88  91
ENDBRANCH  61  84
ENDBRANCH  35  36
ENDBRANCH  28  30
ENDBRANCH  27  28
ENDBRANCH  26  27
ENDBRANCH  25  26
ENDBRANCH  24  25
ENDBRANCH  23  24
ENDBRANCH   1  23
TORSDOF 25
