REMARK SMILES O=C(OCCOCCOCCOC(=O)[C@@H]1CSc2ccccc21)c1ccc(-c2c3nc(c(-c4cccc(S(=O)(=O)[O-])c4F)c4ccc([nH]4)c(-c4cccc(S(=O)(=O)[O-])c4F)c4nc(c(-c5cccc(S(=O)(=O)[O-])c5F)c5ccc2[nH]5)C=C4)C=C3)cc1
REMARK SMILES IDX 6 1 5 2 4 3 3 4 2 5 1 6 24 7 25 8 86 9 26 10 85 11 27 12
REMARK SMILES IDX 28 13 29 14 79 15 30 16 84 17 78 18 80 19 31 20 83 21 77 22
REMARK SMILES IDX 76 23 32 25 64 26 44 27 63 28 45 29 48 30 62 31 81 32 46 33
REMARK SMILES IDX 47 34 61 36 82 37 49 38 33 39 34 40 42 41 35 42 37 43 43 44
REMARK SMILES IDX 36 45 38 46 39 47 40 48 41 49 65 50 66 51 74 52 67 53 69 54
REMARK SMILES IDX 75 55 68 56 70 57 71 58 72 59 73 60 50 61 51 62 59 63 52 64
REMARK SMILES IDX 54 65 60 66 53 67 55 68 56 69 57 70 58 71 7 72 8 73 9 74
REMARK SMILES IDX 10 75 11 76 12 77 13 78 14 79 15 80 16 81 23 82 17 83 18 84
REMARK SMILES IDX 22 85 19 86 21 87 20 88
REMARK H PARENT 80 24 48 35
REMARK Flexibility Score: inf
ROOT
ATOM      1  O   UNL     1      -0.788   4.445   4.521  1.00  0.00    -0.376 OA
ENDROOT
BRANCH   1   2
ATOM      2  C   UNL     1      -1.672   4.240   5.628  1.00  0.00     0.202 C 
BRANCH   2   3
ATOM      3  C   UNL     1      -1.426   5.137   6.855  1.00  0.00     0.261 C 
BRANCH   3   4
ATOM      4  O   UNL     1      -0.830   6.409   6.554  1.00  0.00    -0.460 OA
BRANCH   4   5
ATOM      5  C   UNL     1       0.478   6.742   6.427  1.00  0.00     0.338 C 
ATOM      6  O   UNL     1       0.741   7.934   6.254  1.00  0.00    -0.246 OA
BRANCH   5   7
ATOM      7  C   UNL     1       1.620   5.764   6.425  1.00  0.00     0.060 A 
ATOM      8  C   UNL     1       2.912   6.307   6.304  1.00  0.00     0.016 A 
ATOM      9  C   UNL     1       1.522   4.373   6.506  1.00  0.00     0.016 A 
ATOM     10  C   UNL     1       4.043   5.485   6.246  1.00  0.00     0.010 A 
ATOM     11  C   UNL     1       2.647   3.548   6.485  1.00  0.00     0.010 A 
ATOM     12  C   UNL     1       3.916   4.092   6.341  1.00  0.00    -0.014 A 
BRANCH  12  13
ATOM     13  C   UNL     1       5.104   3.232   6.499  1.00  0.00     0.031 A 
ATOM     14  C   UNL     1       5.537   2.236   5.471  1.00  0.00     0.074 A 
ATOM     15  C   UNL     1       5.767   3.313   7.663  1.00  0.00     0.049 A 
ATOM     16  N   UNL     1       6.738   1.774   5.251  1.00  0.00    -0.248 NA
ATOM     17  C   UNL     1       4.519   1.690   4.564  1.00  0.00     0.031 C 
ATOM     18  C   UNL     1       5.344   4.112   8.816  1.00  0.00     0.029 A 
ATOM     19  N   UNL     1       6.908   2.692   8.079  1.00  0.00    -0.354 N 
ATOM     20  C   UNL     1       6.641   1.016   4.091  1.00  0.00     0.074 A 
ATOM     21  C   UNL     1       5.255   1.002   3.698  1.00  0.00     0.031 C 
ATOM     22  C   UNL     1       6.214   3.924   9.817  1.00  0.00     0.029 A 
ATOM     23  C   UNL     1       7.255   3.006   9.367  1.00  0.00     0.049 A 
ATOM     24  H   UNL     1       7.431   2.080   7.512  1.00  0.00     0.167 HD
ATOM     25  C   UNL     1       7.636   0.392   3.425  1.00  0.00     0.034 A 
ATOM     26  C   UNL     1       8.307   2.601  10.098  1.00  0.00     0.034 A 
ATOM     27  C   UNL     1       8.924   0.161   4.011  1.00  0.00     0.049 A 
ATOM     28  C   UNL     1       9.338   1.742   9.434  1.00  0.00     0.074 A 
ATOM     29  C   UNL     1      10.007  -0.512   3.482  1.00  0.00     0.029 A 
ATOM     30  N   UNL     1       9.241   0.483   5.323  1.00  0.00    -0.354 N 
ATOM     31  N   UNL     1       9.380   1.336   8.186  1.00  0.00    -0.248 NA
ATOM     32  C   UNL     1      10.476   1.311  10.251  1.00  0.00     0.031 C 
ATOM     33  C   UNL     1      10.936  -0.690   4.513  1.00  0.00     0.029 A 
ATOM     34  C   UNL     1      10.455  -0.072   5.661  1.00  0.00     0.049 A 
ATOM     35  H   UNL     1       8.681   1.028   5.922  1.00  0.00     0.167 HD
ATOM     36  C   UNL     1      10.556   0.611   8.059  1.00  0.00     0.074 A 
ATOM     37  C   UNL     1      11.199   0.640   9.360  1.00  0.00     0.031 C 
ATOM     38  C   UNL     1      11.057  -0.020   6.970  1.00  0.00     0.034 A 
BRANCH  25  39
ATOM     39  C   UNL     1       7.381  -0.098   2.029  1.00  0.00     0.023 A 
ATOM     40  C   UNL     1       7.539   0.810   0.962  1.00  0.00     0.012 A 
ATOM     41  C   UNL     1       7.111  -1.450   1.754  1.00  0.00     0.148 A 
ATOM     42  C   UNL     1       7.448   0.377  -0.361  1.00  0.00     0.002 A 
ATOM     43  C   UNL     1       7.028  -1.877   0.432  1.00  0.00     0.091 A 
ATOM     44  F   UNL     1       6.950  -2.288   2.786  1.00  0.00    -0.205 F 
ATOM     45  C   UNL     1       7.201  -0.967  -0.626  1.00  0.00     0.022 A 
BRANCH  43  46
ATOM     46  S   UNL     1       6.712  -3.586  -0.019  1.00  0.00     0.127 S 
ATOM     47  O   UNL     1       5.473  -3.461  -0.792  1.00  0.00    -0.237 OA
ATOM     48  O   UNL     1       7.895  -3.915  -0.817  1.00  0.00    -0.237 OA
ATOM     49  O   UNL     1       6.581  -4.316   1.229  1.00  0.00    -0.744 OA
ENDBRANCH  43  46
ENDBRANCH  25  39
BRANCH  26  50
ATOM     50  C   UNL     1       8.416   3.097  11.492  1.00  0.00     0.023 A 
ATOM     51  C   UNL     1       9.262   4.183  11.774  1.00  0.00     0.012 A 
ATOM     52  C   UNL     1       7.529   2.630  12.483  1.00  0.00     0.148 A 
ATOM     53  C   UNL     1       9.214   4.808  13.020  1.00  0.00     0.002 A 
ATOM     54  C   UNL     1       7.458   3.281  13.708  1.00  0.00     0.091 A 
ATOM     55  F   UNL     1       6.726   1.600  12.179  1.00  0.00    -0.205 F 
ATOM     56  C   UNL     1       8.303   4.369  13.980  1.00  0.00     0.022 A 
BRANCH  54  57
ATOM     57  S   UNL     1       6.226   2.871  14.950  1.00  0.00     0.127 S 
ATOM     58  O   UNL     1       7.056   2.339  16.028  1.00  0.00    -0.237 OA
ATOM     59  O   UNL     1       5.625   4.178  15.222  1.00  0.00    -0.237 OA
ATOM     60  O   UNL     1       5.327   1.915  14.319  1.00  0.00    -0.744 OA
ENDBRANCH  54  57
ENDBRANCH  26  50
BRANCH  38  61
ATOM     61  C   UNL     1      12.348  -0.764   7.126  1.00  0.00     0.023 A 
ATOM     62  C   UNL     1      12.338  -2.045   7.708  1.00  0.00     0.012 A 
ATOM     63  C   UNL     1      13.524  -0.267   6.535  1.00  0.00     0.148 A 
ATOM     64  C   UNL     1      13.489  -2.828   7.695  1.00  0.00     0.002 A 
ATOM     65  C   UNL     1      14.654  -1.068   6.489  1.00  0.00     0.091 A 
ATOM     66  F   UNL     1      13.494   0.959   5.992  1.00  0.00    -0.205 F 
ATOM     67  C   UNL     1      14.640  -2.347   7.072  1.00  0.00     0.022 A 
BRANCH  65  68
ATOM     68  S   UNL     1      16.149  -0.573   5.629  1.00  0.00     0.127 S 
ATOM     69  O   UNL     1      17.107  -0.481   6.731  1.00  0.00    -0.237 OA
ATOM     70  O   UNL     1      16.368  -1.698   4.721  1.00  0.00    -0.237 OA
ATOM     71  O   UNL     1      15.842   0.691   4.973  1.00  0.00    -0.744 OA
ENDBRANCH  65  68
ENDBRANCH  38  61
ENDBRANCH  12  13
ENDBRANCH   5   7
ENDBRANCH   4   5
ENDBRANCH   3   4
ENDBRANCH   2   3
ENDBRANCH   1   2
BRANCH   1  72
ATOM     72  C   UNL     1      -1.061   5.656   3.810  1.00  0.00     0.188 C 
BRANCH  72  73
ATOM     73  C   UNL     1      -1.286   5.482   2.310  1.00  0.00     0.188 C 
BRANCH  73  74
ATOM     74  O   UNL     1      -2.276   4.557   1.884  1.00  0.00    -0.376 OA
BRANCH  74  75
ATOM     75  C   UNL     1      -2.062   3.189   2.216  1.00  0.00     0.202 C 
BRANCH  75  76
ATOM     76  C   UNL     1      -0.816   2.460   1.674  1.00  0.00     0.261 C 
BRANCH  76  77
ATOM     77  O   UNL     1       0.452   3.118   1.861  1.00  0.00    -0.463 OA
BRANCH  77  78
ATOM     78  C   UNL     1       1.057   3.596   0.732  1.00  0.00     0.314 C 
ATOM     79  O   UNL     1       0.525   3.614  -0.374  1.00  0.00    -0.252 OA
BRANCH  78  80
ATOM     80  C   UNL     1       2.440   4.178   0.972  1.00  0.00     0.140 C 
ATOM     81  C   UNL     1       3.237   3.349   1.983  1.00  0.00     0.095 C 
ATOM     82  C   UNL     1       2.488   5.614   1.459  1.00  0.00    -0.019 A 
ATOM     83  S   UNL     1       4.536   4.447   2.620  1.00  0.00    -0.125 SA
ATOM     84  C   UNL     1       3.527   5.865   2.362  1.00  0.00     0.011 A 
ATOM     85  C   UNL     1       1.705   6.676   1.022  1.00  0.00     0.006 A 
ATOM     86  C   UNL     1       3.730   7.116   2.921  1.00  0.00     0.015 A 
ATOM     87  C   UNL     1       1.894   7.943   1.585  1.00  0.00     0.000 A 
ATOM     88  C   UNL     1       2.887   8.158   2.547  1.00  0.00     0.001 A 
ENDBRANCH  78  80
ENDBRANCH  77  78
ENDBRANCH  76  77
ENDBRANCH  75  76
ENDBRANCH  74  75
ENDBRANCH  73  74
ENDBRANCH  72  73
ENDBRANCH   1  72
TORSDOF 20
