REMARK SMILES O=C(OCCOCCOCCOC(=O)[C@H]1CC[C@@H]2CCCC[C@H]2N1C(=O)N1CCSCC1)c1ccc(-c2c3nc(c(-c4cccc(S(=O)(=O)[O-])c4F)c4ccc([nH]4)c(-c4cccc(S(=O)(=O)[O-])c4F)c4nc(c(-c5cccc(S(=O)(=O)[O-])c5F)c5ccc2[nH]5)C=C4)C=C3)cc1
REMARK SMILES IDX 7 1 6 2 5 3 4 4 3 5 2 6 1 7 33 8 34 9 95 10 35 11 94 12
REMARK SMILES IDX 36 13 37 14 38 15 88 16 39 17 93 18 87 19 89 20 40 21 92 22
REMARK SMILES IDX 86 23 85 24 41 26 73 27 53 28 72 29 54 30 57 31 71 32 90 33
REMARK SMILES IDX 55 34 56 35 70 37 91 38 58 39 42 40 43 41 51 42 44 43 46 44
REMARK SMILES IDX 52 45 45 46 47 47 48 48 49 49 50 50 74 51 75 52 83 53 76 54
REMARK SMILES IDX 78 55 84 56 77 57 79 58 80 59 81 60 82 61 59 62 60 63 68 64
REMARK SMILES IDX 61 65 63 66 69 67 62 68 64 69 65 70 66 71 67 72 8 73 9 74
REMARK SMILES IDX 10 75 11 76 12 77 13 78 14 79 15 80 16 81 24 82 17 83 23 84
REMARK SMILES IDX 18 85 22 86 19 87 21 88 20 89 25 90 26 91 27 92 28 93 32 94
REMARK SMILES IDX 29 95 31 96 30 97
REMARK H PARENT 89 25 57 36
REMARK Flexibility Score: inf
ROOT
ATOM      1  C   UNL     1       5.147  -6.744  -1.523  1.00  0.00     0.188 C 
ENDROOT
BRANCH   1   2
ATOM      2  O   UNL     1       4.322  -7.681  -0.829  1.00  0.00    -0.376 OA
BRANCH   2   3
ATOM      3  C   UNL     1       4.253  -8.990  -1.421  1.00  0.00     0.202 C 
BRANCH   3   4
ATOM      4  C   UNL     1       3.903  -9.040  -2.920  1.00  0.00     0.261 C 
BRANCH   4   5
ATOM      5  O   UNL     1       2.580  -8.535  -3.112  1.00  0.00    -0.460 OA
BRANCH   5   6
ATOM      6  C   UNL     1       2.458  -7.199  -3.350  1.00  0.00     0.338 C 
ATOM      7  O   UNL     1       3.193  -6.493  -3.990  1.00  0.00    -0.246 OA
BRANCH   6   8
ATOM      8  C   UNL     1       1.261  -6.780  -2.583  1.00  0.00     0.060 A 
ATOM      9  C   UNL     1       1.041  -7.390  -1.343  1.00  0.00     0.016 A 
ATOM     10  C   UNL     1       0.341  -5.866  -3.094  1.00  0.00     0.016 A 
ATOM     11  C   UNL     1      -0.159  -7.230  -0.691  1.00  0.00     0.010 A 
ATOM     12  C   UNL     1      -0.856  -5.654  -2.396  1.00  0.00     0.010 A 
ATOM     13  C   UNL     1      -1.124  -6.374  -1.216  1.00  0.00    -0.014 A 
BRANCH  13  14
ATOM     14  C   UNL     1      -2.453  -6.396  -0.570  1.00  0.00     0.031 A 
ATOM     15  C   UNL     1      -3.564  -7.122  -1.248  1.00  0.00     0.074 A 
ATOM     16  C   UNL     1      -2.613  -5.979   0.700  1.00  0.00     0.049 A 
ATOM     17  N   UNL     1      -4.801  -7.242  -0.859  1.00  0.00    -0.248 NA
ATOM     18  C   UNL     1      -3.238  -7.854  -2.484  1.00  0.00     0.031 C 
ATOM     19  C   UNL     1      -1.532  -5.490   1.538  1.00  0.00     0.029 A 
ATOM     20  N   UNL     1      -3.707  -5.908   1.522  1.00  0.00    -0.354 N 
ATOM     21  C   UNL     1      -5.411  -8.038  -1.810  1.00  0.00     0.074 A 
ATOM     22  C   UNL     1      -4.411  -8.389  -2.793  1.00  0.00     0.031 C 
ATOM     23  C   UNL     1      -2.001  -5.181   2.756  1.00  0.00     0.029 A 
ATOM     24  C   UNL     1      -3.438  -5.272   2.716  1.00  0.00     0.049 A 
ATOM     25  H   UNL     1      -4.590  -6.272   1.286  1.00  0.00     0.167 HD
ATOM     26  C   UNL     1      -6.701  -8.432  -1.840  1.00  0.00     0.034 A 
ATOM     27  C   UNL     1      -4.258  -4.708   3.620  1.00  0.00     0.034 A 
ATOM     28  C   UNL     1      -7.666  -8.061  -0.843  1.00  0.00     0.049 A 
ATOM     29  C   UNL     1      -5.715  -4.910   3.410  1.00  0.00     0.074 A 
ATOM     30  C   UNL     1      -9.005  -8.393  -0.777  1.00  0.00     0.029 A 
ATOM     31  N   UNL     1      -7.399  -7.246   0.248  1.00  0.00    -0.354 N 
ATOM     32  N   UNL     1      -6.301  -5.621   2.480  1.00  0.00    -0.248 NA
ATOM     33  C   UNL     1      -6.616  -4.290   4.382  1.00  0.00     0.031 C 
ATOM     34  C   UNL     1      -9.560  -7.732   0.323  1.00  0.00     0.029 A 
ATOM     35  C   UNL     1      -8.558  -7.023   0.968  1.00  0.00     0.049 A 
ATOM     36  H   UNL     1      -6.514  -6.880   0.477  1.00  0.00     0.167 HD
ATOM     37  C   UNL     1      -7.646  -5.583   2.783  1.00  0.00     0.074 A 
ATOM     38  C   UNL     1      -7.785  -4.764   3.974  1.00  0.00     0.031 C 
ATOM     39  C   UNL     1      -8.667  -6.197   2.143  1.00  0.00     0.034 A 
BRANCH  26  40
ATOM     40  C   UNL     1      -7.144  -9.235  -3.023  1.00  0.00     0.023 A 
ATOM     41  C   UNL     1      -6.828 -10.603  -3.124  1.00  0.00     0.012 A 
ATOM     42  C   UNL     1      -7.902  -8.615  -4.033  1.00  0.00     0.148 A 
ATOM     43  C   UNL     1      -7.254 -11.342  -4.228  1.00  0.00     0.002 A 
ATOM     44  C   UNL     1      -8.355  -9.364  -5.107  1.00  0.00     0.091 A 
ATOM     45  F   UNL     1      -8.153  -7.302  -3.924  1.00  0.00    -0.205 F 
ATOM     46  C   UNL     1      -8.026 -10.726  -5.212  1.00  0.00     0.022 A 
BRANCH  44  47
ATOM     47  S   UNL     1      -9.393  -8.672  -6.396  1.00  0.00     0.127 S 
ATOM     48  O   UNL     1      -8.557  -8.859  -7.581  1.00  0.00    -0.237 OA
ATOM     49  O   UNL     1     -10.569  -9.539  -6.333  1.00  0.00    -0.237 OA
ATOM     50  O   UNL     1      -9.630  -7.284  -6.025  1.00  0.00    -0.744 OA
ENDBRANCH  44  47
ENDBRANCH  26  40
BRANCH  27  51
ATOM     51  C   UNL     1      -3.748  -3.848   4.724  1.00  0.00     0.023 A 
ATOM     52  C   UNL     1      -3.563  -4.380   6.009  1.00  0.00     0.012 A 
ATOM     53  C   UNL     1      -3.476  -2.481   4.501  1.00  0.00     0.148 A 
ATOM     54  C   UNL     1      -3.117  -3.565   7.053  1.00  0.00     0.002 A 
ATOM     55  C   UNL     1      -2.985  -1.683   5.533  1.00  0.00     0.091 A 
ATOM     56  F   UNL     1      -3.720  -1.988   3.279  1.00  0.00    -0.205 F 
ATOM     57  C   UNL     1      -2.820  -2.224   6.815  1.00  0.00     0.022 A 
BRANCH  55  58
ATOM     58  S   UNL     1      -2.554   0.051   5.307  1.00  0.00     0.127 S 
ATOM     59  O   UNL     1      -3.048   0.663   6.541  1.00  0.00    -0.237 OA
ATOM     60  O   UNL     1      -1.098  -0.005   5.197  1.00  0.00    -0.237 OA
ATOM     61  O   UNL     1      -3.261   0.477   4.107  1.00  0.00    -0.744 OA
ENDBRANCH  55  58
ENDBRANCH  27  51
BRANCH  39  62
ATOM     62  C   UNL     1     -10.018  -6.026   2.757  1.00  0.00     0.023 A 
ATOM     63  C   UNL     1     -10.692  -4.796   2.642  1.00  0.00     0.012 A 
ATOM     64  C   UNL     1     -10.617  -7.100   3.437  1.00  0.00     0.148 A 
ATOM     65  C   UNL     1     -11.943  -4.630   3.229  1.00  0.00     0.002 A 
ATOM     66  C   UNL     1     -11.886  -6.945   3.968  1.00  0.00     0.091 A 
ATOM     67  F   UNL     1      -9.930  -8.246   3.556  1.00  0.00    -0.205 F 
ATOM     68  C   UNL     1     -12.544  -5.707   3.879  1.00  0.00     0.022 A 
BRANCH  66  69
ATOM     69  S   UNL     1     -12.773  -8.302   4.732  1.00  0.00     0.127 S 
ATOM     70  O   UNL     1     -12.818  -7.880   6.131  1.00  0.00    -0.237 OA
ATOM     71  O   UNL     1     -14.060  -8.255   4.037  1.00  0.00    -0.237 OA
ATOM     72  O   UNL     1     -11.987  -9.500   4.469  1.00  0.00    -0.744 OA
ENDBRANCH  66  69
ENDBRANCH  39  62
ENDBRANCH  13  14
ENDBRANCH   6   8
ENDBRANCH   5   6
ENDBRANCH   4   5
ENDBRANCH   3   4
ENDBRANCH   2   3
ENDBRANCH   1   2
BRANCH   1  73
ATOM     73  C   UNL     1       6.067  -5.882  -0.649  1.00  0.00     0.188 C 
BRANCH  73  74
ATOM     74  O   UNL     1       6.996  -6.566   0.180  1.00  0.00    -0.376 OA
BRANCH  74  75
ATOM     75  C   UNL     1       6.434  -7.469   1.124  1.00  0.00     0.202 C 
BRANCH  75  76
ATOM     76  C   UNL     1       5.428  -6.924   2.153  1.00  0.00     0.261 C 
BRANCH  76  77
ATOM     77  O   UNL     1       4.367  -6.098   1.631  1.00  0.00    -0.462 OA
BRANCH  77  78
ATOM     78  C   UNL     1       4.032  -5.031   2.416  1.00  0.00     0.329 C 
ATOM     79  O   UNL     1       4.527  -4.829   3.524  1.00  0.00    -0.250 OA
BRANCH  78  80
ATOM     80  C   UNL     1       2.970  -4.080   1.800  1.00  0.00     0.197 C 
ATOM     81  C   UNL     1       2.962  -4.017   0.272  1.00  0.00     0.038 C 
ATOM     82  N   UNL     1       1.583  -3.996   2.320  1.00  0.00    -0.308 N 
ATOM     83  C   UNL     1       2.329  -2.718  -0.207  1.00  0.00     0.008 C 
ATOM     84  C   UNL     1       0.919  -2.687   1.920  1.00  0.00     0.091 C 
ATOM     85  C   UNL     1       0.925  -2.551   0.362  1.00  0.00     0.012 C 
ATOM     86  C   UNL     1      -0.510  -2.387   2.402  1.00  0.00     0.025 C 
ATOM     87  C   UNL     1       0.351  -1.211  -0.132  1.00  0.00     0.006 C 
ATOM     88  C   UNL     1      -1.030  -1.031   1.923  1.00  0.00     0.002 C 
ATOM     89  C   UNL     1      -1.044  -0.957   0.406  1.00  0.00     0.000 C 
BRANCH  82  90
ATOM     90  C   UNL     1       1.363  -4.587   3.572  1.00  0.00     0.321 C 
ATOM     91  O   UNL     1       0.887  -3.990   4.531  1.00  0.00    -0.248 OA
ATOM     92  N   UNL     1       1.778  -5.931   3.693  1.00  0.00    -0.323 N 
ATOM     93  C   UNL     1       1.130  -6.963   2.883  1.00  0.00     0.132 C 
ATOM     94  C   UNL     1       2.170  -6.353   5.039  1.00  0.00     0.132 C 
ATOM     95  C   UNL     1       1.861  -8.299   2.735  1.00  0.00     0.091 C 
ATOM     96  C   UNL     1       3.122  -7.547   5.062  1.00  0.00     0.091 C 
ATOM     97  S   UNL     1       2.404  -9.039   4.305  1.00  0.00    -0.158 SA
ENDBRANCH  82  90
ENDBRANCH  78  80
ENDBRANCH  77  78
ENDBRANCH  76  77
ENDBRANCH  75  76
ENDBRANCH  74  75
ENDBRANCH  73  74
ENDBRANCH   1  73
TORSDOF 21
