REMARK SMILES O=C(OCCOCCOCCOC(=O)[C@@H]1[C@@H](C(=O)NCCCn2ccnc2)[C@@H]2C=C[C@H]1C2)c1ccc(-c2c3nc(c(-c4cccc(S(=O)(=O)[O-])c4F)c4ccc([nH]4)c(-c4cccc(S(=O)(=O)[O-])c4F)c4nc(c(-c5cccc(S(=O)(=O)[O-])c5F)c5ccc2[nH]5)C=C4)C=C3)cc1
REMARK SMILES IDX 8 1 7 2 6 3 5 4 4 5 3 6 2 7 1 8 33 9 34 10 95 11 35 12 94 13
REMARK SMILES IDX 36 14 37 15 38 16 88 17 39 18 93 19 87 20 89 21 40 22 92 23
REMARK SMILES IDX 86 24 85 25 41 27 73 28 53 29 72 30 54 31 57 32 71 33 90 34
REMARK SMILES IDX 55 35 56 36 70 38 91 39 58 40 42 41 43 42 51 43 44 44 46 45
REMARK SMILES IDX 52 46 45 47 47 48 48 49 49 50 50 51 74 52 75 53 83 54 76 55
REMARK SMILES IDX 78 56 84 57 77 58 79 59 80 60 81 61 82 62 59 63 60 64 68 65
REMARK SMILES IDX 61 66 63 67 69 68 62 69 64 70 65 71 66 72 67 73 9 74 10 75
REMARK SMILES IDX 11 76 12 77 13 78 14 79 15 80 16 81 31 82 28 83 30 84 32 85
REMARK SMILES IDX 29 86 17 87 18 88 19 89 20 91 21 92 22 93 23 94 24 95 27 96
REMARK SMILES IDX 25 97 26 98
REMARK H PARENT 89 26 57 37 19 90
REMARK Flexibility Score: inf
ROOT
ATOM      1  C   UNL     1       2.657   1.812   1.250  1.00  0.00     0.188 C 
ENDROOT
BRANCH   1   2
ATOM      2  C   UNL     1       3.699   0.662   1.241  1.00  0.00     0.188 C 
BRANCH   2   3
ATOM      3  O   UNL     1       4.963   1.084   0.767  1.00  0.00    -0.376 OA
BRANCH   3   4
ATOM      4  C   UNL     1       5.474   0.574  -0.443  1.00  0.00     0.202 C 
BRANCH   4   5
ATOM      5  C   UNL     1       4.646   0.686  -1.729  1.00  0.00     0.261 C 
BRANCH   5   6
ATOM      6  O   UNL     1       3.230   0.829  -1.577  1.00  0.00    -0.460 OA
BRANCH   6   7
ATOM      7  C   UNL     1       2.217  -0.057  -1.520  1.00  0.00     0.338 C 
ATOM      8  O   UNL     1       1.069   0.379  -1.588  1.00  0.00    -0.246 OA
BRANCH   7   9
ATOM      9  C   UNL     1       2.389  -1.513  -1.256  1.00  0.00     0.060 A 
ATOM     10  C   UNL     1       3.562  -2.251  -1.420  1.00  0.00     0.016 A 
ATOM     11  C   UNL     1       1.222  -2.187  -0.851  1.00  0.00     0.016 A 
ATOM     12  C   UNL     1       3.527  -3.641  -1.387  1.00  0.00     0.010 A 
ATOM     13  C   UNL     1       1.196  -3.568  -0.760  1.00  0.00     0.010 A 
ATOM     14  C   UNL     1       2.327  -4.298  -1.122  1.00  0.00    -0.014 A 
BRANCH  14  15
ATOM     15  C   UNL     1       2.242  -5.748  -1.298  1.00  0.00     0.031 A 
ATOM     16  C   UNL     1       3.007  -6.653  -0.364  1.00  0.00     0.074 A 
ATOM     17  C   UNL     1       1.375  -6.224  -2.221  1.00  0.00     0.049 A 
ATOM     18  N   UNL     1       3.115  -7.946  -0.415  1.00  0.00    -0.248 NA
ATOM     19  C   UNL     1       3.711  -6.065   0.792  1.00  0.00     0.031 C 
ATOM     20  C   UNL     1       0.405  -5.483  -3.043  1.00  0.00     0.029 A 
ATOM     21  N   UNL     1       1.084  -7.520  -2.512  1.00  0.00    -0.354 N 
ATOM     22  C   UNL     1       3.820  -8.344   0.722  1.00  0.00     0.074 A 
ATOM     23  C   UNL     1       4.150  -7.140   1.449  1.00  0.00     0.031 C 
ATOM     24  C   UNL     1      -0.523  -6.341  -3.520  1.00  0.00     0.029 A 
ATOM     25  C   UNL     1      -0.128  -7.691  -3.170  1.00  0.00     0.049 A 
ATOM     26  H   UNL     1       1.679  -8.269  -2.277  1.00  0.00     0.167 HD
ATOM     27  C   UNL     1       4.631  -9.435   0.801  1.00  0.00     0.034 A 
ATOM     28  C   UNL     1      -0.789  -8.858  -3.350  1.00  0.00     0.034 A 
ATOM     29  C   UNL     1       5.235  -9.722  -0.467  1.00  0.00     0.049 A 
ATOM     30  C   UNL     1       0.197  -9.949  -3.173  1.00  0.00     0.074 A 
ATOM     31  C   UNL     1       6.218  -9.122  -1.225  1.00  0.00     0.029 A 
ATOM     32  N   UNL     1       4.589 -10.600  -1.303  1.00  0.00    -0.354 N 
ATOM     33  N   UNL     1       1.188 -10.162  -3.994  1.00  0.00    -0.248 NA
ATOM     34  C   UNL     1       0.333 -10.537  -1.851  1.00  0.00     0.031 C 
ATOM     35  C   UNL     1       5.803  -9.313  -2.572  1.00  0.00     0.029 A 
ATOM     36  C   UNL     1       4.614 -10.045  -2.551  1.00  0.00     0.049 A 
ATOM     37  H   UNL     1       4.186 -11.462  -1.052  1.00  0.00     0.167 HD
ATOM     38  C   UNL     1       2.250 -10.498  -3.164  1.00  0.00     0.074 A 
ATOM     39  C   UNL     1       1.637 -10.825  -1.876  1.00  0.00     0.031 C 
ATOM     40  C   UNL     1       3.538 -10.195  -3.503  1.00  0.00     0.034 A 
BRANCH  27  41
ATOM     41  C   UNL     1       4.220 -10.547   1.738  1.00  0.00     0.023 A 
ATOM     42  C   UNL     1       4.875 -11.794   1.605  1.00  0.00     0.012 A 
ATOM     43  C   UNL     1       3.092 -10.482   2.580  1.00  0.00     0.148 A 
ATOM     44  C   UNL     1       4.345 -12.958   2.162  1.00  0.00     0.002 A 
ATOM     45  C   UNL     1       2.559 -11.650   3.119  1.00  0.00     0.091 A 
ATOM     46  F   UNL     1       2.527  -9.292   2.830  1.00  0.00    -0.205 F 
ATOM     47  C   UNL     1       3.168 -12.890   2.893  1.00  0.00     0.022 A 
BRANCH  45  48
ATOM     48  S   UNL     1       0.982 -11.625   3.980  1.00  0.00     0.127 S 
ATOM     49  O   UNL     1       0.435 -12.948   3.673  1.00  0.00    -0.237 OA
ATOM     50  O   UNL     1       1.407 -11.450   5.365  1.00  0.00    -0.237 OA
ATOM     51  O   UNL     1       0.257 -10.524   3.359  1.00  0.00    -0.744 OA
ENDBRANCH  45  48
ENDBRANCH  27  41
BRANCH  28  52
ATOM     52  C   UNL     1      -2.240  -9.121  -3.458  1.00  0.00     0.023 A 
ATOM     53  C   UNL     1      -2.684 -10.311  -4.067  1.00  0.00     0.012 A 
ATOM     54  C   UNL     1      -3.178  -8.350  -2.734  1.00  0.00     0.148 A 
ATOM     55  C   UNL     1      -4.008 -10.740  -3.930  1.00  0.00     0.002 A 
ATOM     56  C   UNL     1      -4.496  -8.778  -2.606  1.00  0.00     0.091 A 
ATOM     57  F   UNL     1      -2.755  -7.248  -2.100  1.00  0.00    -0.205 F 
ATOM     58  C   UNL     1      -4.912  -9.980  -3.192  1.00  0.00     0.022 A 
BRANCH  56  59
ATOM     59  S   UNL     1      -5.716  -7.862  -1.652  1.00  0.00     0.127 S 
ATOM     60  O   UNL     1      -6.839  -7.790  -2.587  1.00  0.00    -0.237 OA
ATOM     61  O   UNL     1      -5.929  -8.743  -0.507  1.00  0.00    -0.237 OA
ATOM     62  O   UNL     1      -5.103  -6.575  -1.351  1.00  0.00    -0.744 OA
ENDBRANCH  56  59
ENDBRANCH  28  52
BRANCH  40  63
ATOM     63  C   UNL     1       3.829  -9.690  -4.891  1.00  0.00     0.023 A 
ATOM     64  C   UNL     1       3.289  -8.479  -5.372  1.00  0.00     0.012 A 
ATOM     65  C   UNL     1       4.849 -10.319  -5.624  1.00  0.00     0.148 A 
ATOM     66  C   UNL     1       3.747  -7.916  -6.564  1.00  0.00     0.002 A 
ATOM     67  C   UNL     1       5.342  -9.726  -6.778  1.00  0.00     0.091 A 
ATOM     68  F   UNL     1       5.356 -11.468  -5.151  1.00  0.00    -0.205 F 
ATOM     69  C   UNL     1       4.787  -8.530  -7.259  1.00  0.00     0.022 A 
BRANCH  67  70
ATOM     70  S   UNL     1       6.788 -10.382  -7.614  1.00  0.00     0.127 S 
ATOM     71  O   UNL     1       6.195 -11.108  -8.731  1.00  0.00    -0.237 OA
ATOM     72  O   UNL     1       7.518  -9.170  -7.984  1.00  0.00    -0.237 OA
ATOM     73  O   UNL     1       7.478 -11.203  -6.618  1.00  0.00    -0.744 OA
ENDBRANCH  67  70
ENDBRANCH  40  63
ENDBRANCH  14  15
ENDBRANCH   7   9
ENDBRANCH   6   7
ENDBRANCH   5   6
ENDBRANCH   4   5
ENDBRANCH   3   4
ENDBRANCH   2   3
ENDBRANCH   1   2
BRANCH   1  74
ATOM     74  O   UNL     1       3.032   3.170   1.482  1.00  0.00    -0.376 OA
BRANCH  74  75
ATOM     75  C   UNL     1       4.345   3.464   1.911  1.00  0.00     0.202 C 
BRANCH  75  76
ATOM     76  C   UNL     1       4.721   2.998   3.324  1.00  0.00     0.261 C 
BRANCH  76  77
ATOM     77  O   UNL     1       4.040   1.812   3.787  1.00  0.00    -0.463 OA
BRANCH  77  78
ATOM     78  C   UNL     1       2.973   2.016   4.599  1.00  0.00     0.310 C 
ATOM     79  O   UNL     1       2.656   3.132   5.002  1.00  0.00    -0.252 OA
BRANCH  78  80
ATOM     80  C   UNL     1       2.327   0.714   5.103  1.00  0.00     0.119 C 
ATOM     81  C   UNL     1       1.619  -0.345   4.127  1.00  0.00     0.100 C 
ATOM     82  C   UNL     1       1.138   1.118   6.028  1.00  0.00     0.027 C 
ATOM     83  C   UNL     1       0.178  -0.370   4.683  1.00  0.00     0.025 C 
ATOM     84  C   UNL     1       0.103   1.857   5.200  1.00  0.00    -0.027 C 
ATOM     85  C   UNL     1       0.409  -0.208   6.184  1.00  0.00     0.017 C 
ATOM     86  C   UNL     1      -0.450   0.967   4.369  1.00  0.00    -0.027 C 
BRANCH  81  87
ATOM     87  C   UNL     1       2.383  -1.676   4.108  1.00  0.00     0.224 C 
ATOM     88  O   UNL     1       3.613  -1.667   4.252  1.00  0.00    -0.275 OA
ATOM     89  N   UNL     1       1.852  -2.888   3.789  1.00  0.00    -0.356 N 
ATOM     90  H   UNL     1       2.529  -3.539   3.494  1.00  0.00     0.163 HD
BRANCH  89  91
ATOM     91  C   UNL     1       0.497  -3.434   3.789  1.00  0.00     0.117 C 
BRANCH  91  92
ATOM     92  C   UNL     1       0.272  -4.691   2.938  1.00  0.00     0.043 C 
BRANCH  92  93
ATOM     93  C   UNL     1       1.316  -5.796   3.030  1.00  0.00     0.125 C 
BRANCH  93  94
ATOM     94  N   UNL     1       1.466  -6.418   4.321  1.00  0.00    -0.337 N 
ATOM     95  C   UNL     1       2.419  -6.111   5.255  1.00  0.00     0.107 A 
ATOM     96  C   UNL     1       0.797  -7.522   4.760  1.00  0.00     0.199 A 
ATOM     97  C   UNL     1       2.235  -7.032   6.257  1.00  0.00     0.130 A 
ATOM     98  N   UNL     1       1.183  -7.850   5.974  1.00  0.00    -0.245 NA
ENDBRANCH  93  94
ENDBRANCH  92  93
ENDBRANCH  91  92
ENDBRANCH  89  91
ENDBRANCH  81  87
ENDBRANCH  78  80
ENDBRANCH  77  78
ENDBRANCH  76  77
ENDBRANCH  75  76
ENDBRANCH  74  75
ENDBRANCH   1  74
TORSDOF 25
