REMARK SMILES CC(C)[C@H](CO)NS(=O)(=O)c1ccc(Cl)c(C(=O)OCCOCCOCCOC(=O)c2ccc(-c3c4nc(c(-c5cccc(S(=O)(=O)[O-])c5F)c5ccc([nH]5)c(-c5cccc(S(=O)(=O)[O-])c5F)c5nc(c(-c6cccc(S(=O)(=O)[O-])c6F)c6ccc3[nH]6)C=C5)C=C4)cc2)c1
REMARK SMILES IDX 23 1 22 2 21 3 20 4 19 5 17 6 18 7 16 8 11 9 12 10 94 11
REMARK SMILES IDX 13 12 14 13 15 14 8 15 9 16 10 17 7 18 4 20 2 21 1 22 3 23
REMARK SMILES IDX 5 24 6 25 24 27 25 28 26 29 27 30 28 31 29 32 30 33 31 34
REMARK SMILES IDX 32 35 93 36 33 37 92 38 34 39 35 40 36 41 86 42 37 43 91 44
REMARK SMILES IDX 85 45 87 46 38 47 90 48 84 49 83 50 39 52 71 53 51 54 70 55
REMARK SMILES IDX 52 56 55 57 69 58 88 59 53 60 54 61 68 63 89 64 56 65 40 66
REMARK SMILES IDX 41 67 49 68 42 69 44 70 50 71 43 72 45 73 46 74 47 75 48 76
REMARK SMILES IDX 72 77 73 78 81 79 74 80 76 81 82 82 75 83 77 84 78 85 79 86
REMARK SMILES IDX 80 87 57 88 58 89 66 90 59 91 61 92 67 93 60 94 62 95 63 96
REMARK SMILES IDX 64 97 65 98
REMARK H PARENT 7 19 6 26 87 51 55 62
REMARK Flexibility Score: inf
ROOT
ATOM      1  C   UNL     1      -4.365   0.055  -3.262  1.00  0.00     0.188 C 
ENDROOT
BRANCH   1   2
ATOM      2  O   UNL     1      -5.194  -0.237  -4.367  1.00  0.00    -0.376 OA
BRANCH   2   3
ATOM      3  C   UNL     1      -6.258   0.636  -4.723  1.00  0.00     0.202 C 
BRANCH   3   4
ATOM      4  C   UNL     1      -6.878   1.663  -3.767  1.00  0.00     0.261 C 
BRANCH   4   5
ATOM      5  O   UNL     1      -5.958   2.327  -2.893  1.00  0.00    -0.460 OA
BRANCH   5   6
ATOM      6  C   UNL     1      -6.325   2.369  -1.587  1.00  0.00     0.339 C 
ATOM      7  O   UNL     1      -7.325   1.878  -1.093  1.00  0.00    -0.246 OA
BRANCH   6   8
ATOM      8  C   UNL     1      -5.265   2.987  -0.762  1.00  0.00     0.080 A 
ATOM      9  C   UNL     1      -3.925   2.880   1.262  1.00  0.00     0.083 A 
ATOM     10  C   UNL     1      -3.330   4.099   0.940  1.00  0.00     0.023 A 
ATOM     11  C   UNL     1      -4.890   2.315   0.418  1.00  0.00     0.039 A 
ATOM     12  C   UNL     1      -3.712   4.767  -0.225  1.00  0.00     0.023 A 
ATOM     13  C   UNL     1      -4.686   4.224  -1.073  1.00  0.00     0.055 A 
ATOM     14  Cl  UNL     1      -5.174   5.186  -2.422  1.00  0.00    -0.083 Cl
BRANCH   9  15
ATOM     15  S   UNL     1      -3.518   2.118   2.816  1.00  0.00     0.240 S 
ATOM     16  O   UNL     1      -4.150   0.835   2.890  1.00  0.00    -0.207 OA
ATOM     17  O   UNL     1      -3.754   3.128   3.836  1.00  0.00    -0.207 OA
BRANCH  15  18
ATOM     18  N   UNL     1      -1.842   1.923   2.759  1.00  0.00    -0.206 NA
ATOM     19  H   UNL     1      -1.454   2.859   2.639  1.00  0.00     0.141 HD
BRANCH  18  20
ATOM     20  C   UNL     1      -1.153   1.058   1.747  1.00  0.00     0.098 C 
BRANCH  20  21
ATOM     21  C   UNL     1      -1.566  -0.429   1.902  1.00  0.00     0.003 C 
ATOM     22  C   UNL     1      -2.569  -0.767   0.786  1.00  0.00     0.009 C 
ATOM     23  C   UNL     1      -0.424  -1.450   1.903  1.00  0.00     0.009 C 
ENDBRANCH  20  21
BRANCH  20  24
ATOM     24  C   UNL     1       0.371   1.373   1.833  1.00  0.00     0.176 C 
BRANCH  24  25
ATOM     25  O   UNL     1       0.706   2.048   3.046  1.00  0.00    -0.395 OA
ATOM     26  H   UNL     1       0.232   2.893   3.088  1.00  0.00     0.210 HD
ENDBRANCH  24  25
ENDBRANCH  20  24
ENDBRANCH  18  20
ENDBRANCH  15  18
ENDBRANCH   9  15
ENDBRANCH   6   8
ENDBRANCH   5   6
ENDBRANCH   4   5
ENDBRANCH   3   4
ENDBRANCH   2   3
ENDBRANCH   1   2
BRANCH   1  27
ATOM     27  C   UNL     1      -3.252   1.113  -3.428  1.00  0.00     0.188 C 
BRANCH  27  28
ATOM     28  O   UNL     1      -3.264   1.999  -4.534  1.00  0.00    -0.376 OA
BRANCH  28  29
ATOM     29  C   UNL     1      -3.141   1.445  -5.842  1.00  0.00     0.202 C 
BRANCH  29  30
ATOM     30  C   UNL     1      -2.086   0.368  -6.129  1.00  0.00     0.261 C 
BRANCH  30  31
ATOM     31  O   UNL     1      -2.169  -0.767  -5.251  1.00  0.00    -0.460 OA
BRANCH  31  32
ATOM     32  C   UNL     1      -0.985  -1.387  -5.021  1.00  0.00     0.338 C 
ATOM     33  O   UNL     1       0.086  -1.140  -5.550  1.00  0.00    -0.246 OA
BRANCH  32  34
ATOM     34  C   UNL     1      -1.118  -2.333  -3.898  1.00  0.00     0.060 A 
ATOM     35  C   UNL     1      -1.060  -1.818  -2.608  1.00  0.00     0.016 A 
ATOM     36  C   UNL     1      -1.128  -3.718  -4.093  1.00  0.00     0.016 A 
ATOM     37  C   UNL     1      -1.028  -2.688  -1.525  1.00  0.00     0.010 A 
ATOM     38  C   UNL     1      -1.102  -4.590  -2.983  1.00  0.00     0.010 A 
ATOM     39  C   UNL     1      -1.048  -4.075  -1.681  1.00  0.00    -0.014 A 
BRANCH  39  40
ATOM     40  C   UNL     1      -0.803  -4.877  -0.447  1.00  0.00     0.031 A 
ATOM     41  C   UNL     1       0.610  -5.271  -0.109  1.00  0.00     0.074 A 
ATOM     42  C   UNL     1      -1.754  -5.034   0.497  1.00  0.00     0.049 A 
ATOM     43  N   UNL     1       1.071  -5.872   0.957  1.00  0.00    -0.248 NA
ATOM     44  C   UNL     1       1.644  -4.895  -1.085  1.00  0.00     0.031 C 
ATOM     45  C   UNL     1      -3.130  -4.552   0.397  1.00  0.00     0.029 A 
ATOM     46  N   UNL     1      -1.688  -5.591   1.755  1.00  0.00    -0.354 N 
ATOM     47  C   UNL     1       2.439  -5.997   0.759  1.00  0.00     0.074 A 
ATOM     48  C   UNL     1       2.740  -5.370  -0.511  1.00  0.00     0.031 C 
ATOM     49  C   UNL     1      -3.766  -4.801   1.556  1.00  0.00     0.029 A 
ATOM     50  C   UNL     1      -2.869  -5.523   2.458  1.00  0.00     0.049 A 
ATOM     51  H   UNL     1      -0.869  -6.000   2.118  1.00  0.00     0.167 HD
ATOM     52  C   UNL     1       3.365  -6.590   1.548  1.00  0.00     0.034 A 
ATOM     53  C   UNL     1      -3.203  -6.007   3.675  1.00  0.00     0.034 A 
ATOM     54  C   UNL     1       3.095  -7.203   2.820  1.00  0.00     0.049 A 
ATOM     55  C   UNL     1      -2.172  -6.748   4.493  1.00  0.00     0.074 A 
ATOM     56  C   UNL     1       3.970  -7.893   3.642  1.00  0.00     0.029 A 
ATOM     57  N   UNL     1       1.867  -7.203   3.458  1.00  0.00    -0.354 N 
ATOM     58  N   UNL     1      -0.888  -6.892   4.276  1.00  0.00    -0.248 NA
ATOM     59  C   UNL     1      -2.642  -7.391   5.732  1.00  0.00     0.031 C 
ATOM     60  C   UNL     1       3.263  -8.332   4.768  1.00  0.00     0.029 A 
ATOM     61  C   UNL     1       1.957  -7.885   4.661  1.00  0.00     0.049 A 
ATOM     62  H   UNL     1       1.049  -6.781   3.108  1.00  0.00     0.167 HD
ATOM     63  C   UNL     1      -0.396  -7.619   5.358  1.00  0.00     0.074 A 
ATOM     64  C   UNL     1      -1.511  -7.852   6.249  1.00  0.00     0.031 C 
ATOM     65  C   UNL     1       0.863  -8.073   5.579  1.00  0.00     0.034 A 
BRANCH  52  66
ATOM     66  C   UNL     1       4.768  -6.658   1.014  1.00  0.00     0.023 A 
ATOM     67  C   UNL     1       5.600  -5.523   1.046  1.00  0.00     0.012 A 
ATOM     68  C   UNL     1       5.261  -7.870   0.495  1.00  0.00     0.148 A 
ATOM     69  C   UNL     1       6.898  -5.588   0.540  1.00  0.00     0.002 A 
ATOM     70  C   UNL     1       6.567  -7.939   0.033  1.00  0.00     0.091 A 
ATOM     71  F   UNL     1       4.436  -8.926   0.447  1.00  0.00    -0.205 F 
ATOM     72  C   UNL     1       7.384  -6.797   0.044  1.00  0.00     0.022 A 
BRANCH  70  73
ATOM     73  S   UNL     1       7.297  -9.470  -0.555  1.00  0.00     0.127 S 
ATOM     74  O   UNL     1       7.372  -9.225  -1.995  1.00  0.00    -0.237 OA
ATOM     75  O   UNL     1       8.589  -9.478   0.131  1.00  0.00    -0.237 OA
ATOM     76  O   UNL     1       6.387 -10.531  -0.147  1.00  0.00    -0.744 OA
ENDBRANCH  70  73
ENDBRANCH  52  66
BRANCH  53  77
ATOM     77  C   UNL     1      -4.593  -5.855   4.204  1.00  0.00     0.023 A 
ATOM     78  C   UNL     1      -4.823  -5.142   5.398  1.00  0.00     0.012 A 
ATOM     79  C   UNL     1      -5.683  -6.468   3.557  1.00  0.00     0.148 A 
ATOM     80  C   UNL     1      -6.104  -5.075   5.953  1.00  0.00     0.002 A 
ATOM     81  C   UNL     1      -6.965  -6.341   4.079  1.00  0.00     0.091 A 
ATOM     82  F   UNL     1      -5.444  -7.181   2.448  1.00  0.00    -0.205 F 
ATOM     83  C   UNL     1      -7.176  -5.664   5.288  1.00  0.00     0.022 A 
BRANCH  81  84
ATOM     84  S   UNL     1      -8.411  -6.966   3.217  1.00  0.00     0.127 S 
ATOM     85  O   UNL     1      -8.781  -8.111   4.044  1.00  0.00    -0.237 OA
ATOM     86  O   UNL     1      -9.326  -5.827   3.295  1.00  0.00    -0.237 OA
ATOM     87  O   UNL     1      -7.957  -7.278   1.868  1.00  0.00    -0.744 OA
ENDBRANCH  81  84
ENDBRANCH  53  77
BRANCH  65  88
ATOM     88  C   UNL     1       1.126  -8.846   6.849  1.00  0.00     0.023 A 
ATOM     89  C   UNL     1       0.593 -10.142   7.008  1.00  0.00     0.012 A 
ATOM     90  C   UNL     1       1.949  -8.315   7.863  1.00  0.00     0.148 A 
ATOM     91  C   UNL     1       0.838 -10.876   8.169  1.00  0.00     0.002 A 
ATOM     92  C   UNL     1       2.230  -9.072   8.996  1.00  0.00     0.091 A 
ATOM     93  F   UNL     1       2.435  -7.074   7.710  1.00  0.00    -0.205 F 
ATOM     94  C   UNL     1       1.664 -10.347   9.157  1.00  0.00     0.022 A 
BRANCH  92  95
ATOM     95  S   UNL     1       3.363  -8.505  10.271  1.00  0.00     0.127 S 
ATOM     96  O   UNL     1       2.441  -8.077  11.321  1.00  0.00    -0.237 OA
ATOM     97  O   UNL     1       4.120  -9.719  10.582  1.00  0.00    -0.237 OA
ATOM     98  O   UNL     1       4.153  -7.447   9.655  1.00  0.00    -0.744 OA
ENDBRANCH  92  95
ENDBRANCH  65  88
ENDBRANCH  39  40
ENDBRANCH  32  34
ENDBRANCH  31  32
ENDBRANCH  30  31
ENDBRANCH  29  30
ENDBRANCH  28  29
ENDBRANCH  27  28
ENDBRANCH   1  27
TORSDOF 26
