REMARK SMILES CCCCCNC(=O)N1Cc2nc[nH]c2C[C@@H]1C(=O)OCCOCCOCCOC(=O)c1ccc(-c2c3nc(c(-c4cccc(S(=O)(=O)[O-])c4F)c4ccc([nH]4)c(-c4cccc(S(=O)(=O)[O-])c4F)c4nc(c(-c5cccc(S(=O)(=O)[O-])c5F)c5ccc2[nH]5)C=C4)C=C3)cc1
REMARK SMILES IDX 24 1 23 2 22 3 21 4 20 5 18 6 19 7 17 8 9 9 10 10 11 11
REMARK SMILES IDX 16 12 12 13 15 14 13 15 14 16 7 18 6 19 8 21 5 22 4 23 3 24
REMARK SMILES IDX 2 25 1 26 25 27 26 28 27 29 28 30 29 31 30 32 31 33 32 34
REMARK SMILES IDX 33 35 94 36 34 37 93 38 35 39 36 40 37 41 87 42 38 43 92 44
REMARK SMILES IDX 86 45 88 46 39 47 91 48 85 49 84 50 40 52 72 53 52 54 71 55
REMARK SMILES IDX 53 56 56 57 70 58 89 59 54 60 55 61 69 63 90 64 57 65 41 66
REMARK SMILES IDX 42 67 50 68 43 69 45 70 51 71 44 72 46 73 47 74 48 75 49 76
REMARK SMILES IDX 73 77 74 78 82 79 75 80 77 81 83 82 76 83 78 84 79 85 80 86
REMARK SMILES IDX 81 87 58 88 59 89 67 90 60 91 62 92 68 93 61 94 63 95 64 96
REMARK SMILES IDX 65 97 66 98
REMARK H PARENT 14 17 6 20 88 51 56 62
REMARK Flexibility Score: inf
ROOT
ATOM      1  C   UNL     1      -4.421   0.051  -1.498  1.00  0.00     0.188 C 
ENDROOT
BRANCH   1   2
ATOM      2  O   UNL     1      -3.897  -0.398  -0.258  1.00  0.00    -0.376 OA
BRANCH   2   3
ATOM      3  C   UNL     1      -2.628  -1.036  -0.221  1.00  0.00     0.202 C 
BRANCH   3   4
ATOM      4  C   UNL     1      -2.278  -2.035  -1.322  1.00  0.00     0.261 C 
BRANCH   4   5
ATOM      5  O   UNL     1      -2.209  -1.430  -2.632  1.00  0.00    -0.462 OA
BRANCH   5   6
ATOM      6  C   UNL     1      -2.764  -2.146  -3.634  1.00  0.00     0.329 C 
ATOM      7  O   UNL     1      -3.269  -3.256  -3.458  1.00  0.00    -0.250 OA
BRANCH   6   8
ATOM      8  C   UNL     1      -2.912  -1.430  -4.988  1.00  0.00     0.203 C 
ATOM      9  N   UNL     1      -2.070  -0.363  -5.634  1.00  0.00    -0.305 N 
ATOM     10  C   UNL     1      -2.281  -0.265  -7.116  1.00  0.00     0.180 C 
ATOM     11  C   UNL     1      -3.724  -0.495  -7.481  1.00  0.00     0.081 A 
ATOM     12  C   UNL     1      -4.444  -1.129  -5.149  1.00  0.00     0.093 C 
ATOM     13  N   UNL     1      -4.247  -0.467  -8.751  1.00  0.00    -0.240 NA
ATOM     14  C   UNL     1      -4.691  -0.889  -6.586  1.00  0.00     0.042 A 
ATOM     15  C   UNL     1      -5.519  -0.783  -8.608  1.00  0.00     0.197 A 
ATOM     16  N   UNL     1      -5.838  -1.053  -7.302  1.00  0.00    -0.348 N 
ATOM     17  H   UNL     1      -6.720  -1.313  -6.952  1.00  0.00     0.167 HD
BRANCH   9  18
ATOM     18  C   UNL     1      -1.843   0.876  -5.073  1.00  0.00     0.318 C 
ATOM     19  N   UNL     1      -0.727   1.036  -4.300  1.00  0.00    -0.338 N 
ATOM     20  H   UNL     1      -0.372   1.954  -4.263  1.00  0.00     0.165 HD
ATOM     21  O   UNL     1      -2.464   1.875  -5.433  1.00  0.00    -0.249 OA
BRANCH  19  22
ATOM     22  C   UNL     1       0.013   0.058  -3.527  1.00  0.00     0.117 C 
BRANCH  22  23
ATOM     23  C   UNL     1       1.484   0.369  -3.236  1.00  0.00     0.021 C 
BRANCH  23  24
ATOM     24  C   UNL     1       1.808   1.412  -2.148  1.00  0.00     0.002 C 
BRANCH  24  25
ATOM     25  C   UNL     1       1.417   1.130  -0.686  1.00  0.00    -0.003 C 
ATOM     26  C   UNL     1       1.771  -0.230  -0.121  1.00  0.00     0.004 C 
ENDBRANCH  24  25
ENDBRANCH  23  24
ENDBRANCH  22  23
ENDBRANCH  19  22
ENDBRANCH   9  18
ENDBRANCH   6   8
ENDBRANCH   5   6
ENDBRANCH   4   5
ENDBRANCH   3   4
ENDBRANCH   2   3
ENDBRANCH   1   2
BRANCH   1  27
ATOM     27  C   UNL     1      -4.022   1.461  -1.904  1.00  0.00     0.188 C 
BRANCH  27  28
ATOM     28  O   UNL     1      -2.690   1.693  -2.313  1.00  0.00    -0.376 OA
BRANCH  28  29
ATOM     29  C   UNL     1      -1.740   2.116  -1.348  1.00  0.00     0.202 C 
BRANCH  29  30
ATOM     30  C   UNL     1      -1.673   3.511  -0.730  1.00  0.00     0.261 C 
BRANCH  30  31
ATOM     31  O   UNL     1      -2.820   4.250  -0.996  1.00  0.00    -0.460 OA
BRANCH  31  32
ATOM     32  C   UNL     1      -3.022   4.435  -2.317  1.00  0.00     0.338 C 
ATOM     33  O   UNL     1      -2.163   4.534  -3.184  1.00  0.00    -0.246 OA
BRANCH  32  34
ATOM     34  C   UNL     1      -4.476   4.554  -2.461  1.00  0.00     0.060 A 
ATOM     35  C   UNL     1      -4.896   5.307  -3.546  1.00  0.00     0.016 A 
ATOM     36  C   UNL     1      -5.257   4.380  -1.299  1.00  0.00     0.016 A 
ATOM     37  C   UNL     1      -5.813   6.278  -3.260  1.00  0.00     0.010 A 
ATOM     38  C   UNL     1      -6.167   5.333  -1.018  1.00  0.00     0.010 A 
ATOM     39  C   UNL     1      -6.267   6.355  -1.943  1.00  0.00    -0.014 A 
BRANCH  39  40
ATOM     40  C   UNL     1      -6.742   7.605  -1.440  1.00  0.00     0.031 A 
ATOM     41  C   UNL     1      -8.204   7.628  -1.423  1.00  0.00     0.074 A 
ATOM     42  C   UNL     1      -5.907   8.498  -0.883  1.00  0.00     0.049 A 
ATOM     43  N   UNL     1      -8.959   7.982  -2.409  1.00  0.00    -0.248 NA
ATOM     44  C   UNL     1      -8.882   6.822  -0.392  1.00  0.00     0.031 C 
ATOM     45  C   UNL     1      -4.504   8.369  -0.479  1.00  0.00     0.029 A 
ATOM     46  N   UNL     1      -6.235   9.727  -0.443  1.00  0.00    -0.354 N 
ATOM     47  C   UNL     1     -10.231   7.668  -1.964  1.00  0.00     0.074 A 
ATOM     48  C   UNL     1     -10.055   6.626  -0.996  1.00  0.00     0.031 C 
ATOM     49  C   UNL     1      -4.201   9.386   0.367  1.00  0.00     0.029 A 
ATOM     50  C   UNL     1      -5.349  10.275   0.464  1.00  0.00     0.049 A 
ATOM     51  H   UNL     1      -7.044  10.200  -0.745  1.00  0.00     0.167 HD
ATOM     52  C   UNL     1     -11.253   8.555  -2.090  1.00  0.00     0.034 A 
ATOM     53  C   UNL     1      -5.655  11.294   1.305  1.00  0.00     0.034 A 
ATOM     54  C   UNL     1     -10.878   9.646  -2.966  1.00  0.00     0.049 A 
ATOM     55  C   UNL     1      -6.893  11.941   0.769  1.00  0.00     0.074 A 
ATOM     56  C   UNL     1     -10.438   9.727  -4.273  1.00  0.00     0.029 A 
ATOM     57  N   UNL     1     -10.489  10.822  -2.360  1.00  0.00    -0.354 N 
ATOM     58  N   UNL     1      -6.945  12.553  -0.387  1.00  0.00    -0.248 NA
ATOM     59  C   UNL     1      -8.176  11.455   1.265  1.00  0.00     0.031 C 
ATOM     60  C   UNL     1      -9.424  10.732  -4.262  1.00  0.00     0.029 A 
ATOM     61  C   UNL     1      -9.341  11.261  -2.972  1.00  0.00     0.049 A 
ATOM     62  H   UNL     1     -10.955  11.270  -1.618  1.00  0.00     0.167 HD
ATOM     63  C   UNL     1      -8.154  12.153  -0.954  1.00  0.00     0.074 A 
ATOM     64  C   UNL     1      -8.906  11.550   0.148  1.00  0.00     0.031 C 
ATOM     65  C   UNL     1      -8.309  12.042  -2.310  1.00  0.00     0.034 A 
BRANCH  52  66
ATOM     66  C   UNL     1     -12.419   8.658  -1.133  1.00  0.00     0.023 A 
ATOM     67  C   UNL     1     -13.466   9.516  -1.522  1.00  0.00     0.012 A 
ATOM     68  C   UNL     1     -12.470   8.156   0.192  1.00  0.00     0.148 A 
ATOM     69  C   UNL     1     -14.470   9.899  -0.627  1.00  0.00     0.002 A 
ATOM     70  C   UNL     1     -13.509   8.476   1.053  1.00  0.00     0.091 A 
ATOM     71  F   UNL     1     -11.454   7.466   0.708  1.00  0.00    -0.205 F 
ATOM     72  C   UNL     1     -14.496   9.375   0.659  1.00  0.00     0.022 A 
BRANCH  70  73
ATOM     73  S   UNL     1     -13.593   7.785   2.713  1.00  0.00     0.127 S 
ATOM     74  O   UNL     1     -13.194   8.931   3.525  1.00  0.00    -0.237 OA
ATOM     75  O   UNL     1     -15.004   7.413   2.812  1.00  0.00    -0.237 OA
ATOM     76  O   UNL     1     -12.678   6.649   2.718  1.00  0.00    -0.744 OA
ENDBRANCH  70  73
ENDBRANCH  52  66
BRANCH  53  77
ATOM     77  C   UNL     1      -5.195  11.477   2.705  1.00  0.00     0.023 A 
ATOM     78  C   UNL     1      -5.302  12.738   3.323  1.00  0.00     0.012 A 
ATOM     79  C   UNL     1      -4.872  10.367   3.522  1.00  0.00     0.148 A 
ATOM     80  C   UNL     1      -5.104  12.886   4.704  1.00  0.00     0.002 A 
ATOM     81  C   UNL     1      -4.655  10.521   4.888  1.00  0.00     0.091 A 
ATOM     82  F   UNL     1      -4.872   9.143   2.981  1.00  0.00    -0.205 F 
ATOM     83  C   UNL     1      -4.780  11.780   5.486  1.00  0.00     0.022 A 
BRANCH  81  84
ATOM     84  S   UNL     1      -4.238   9.130   5.949  1.00  0.00     0.127 S 
ATOM     85  O   UNL     1      -3.119   9.664   6.726  1.00  0.00    -0.237 OA
ATOM     86  O   UNL     1      -5.474   8.943   6.704  1.00  0.00    -0.237 OA
ATOM     87  O   UNL     1      -3.873   8.041   5.051  1.00  0.00    -0.744 OA
ENDBRANCH  81  84
ENDBRANCH  53  77
BRANCH  65  88
ATOM     88  C   UNL     1      -7.189  12.543  -3.200  1.00  0.00     0.023 A 
ATOM     89  C   UNL     1      -5.906  11.950  -3.204  1.00  0.00     0.012 A 
ATOM     90  C   UNL     1      -7.490  13.488  -4.195  1.00  0.00     0.148 A 
ATOM     91  C   UNL     1      -4.947  12.301  -4.160  1.00  0.00     0.002 A 
ATOM     92  C   UNL     1      -6.550  13.803  -5.172  1.00  0.00     0.091 A 
ATOM     93  F   UNL     1      -8.714  14.038  -4.192  1.00  0.00    -0.205 F 
ATOM     94  C   UNL     1      -5.274  13.218  -5.153  1.00  0.00     0.022 A 
BRANCH  92  95
ATOM     95  S   UNL     1      -6.952  14.875  -6.553  1.00  0.00     0.127 S 
ATOM     96  O   UNL     1      -6.234  16.100  -6.207  1.00  0.00    -0.237 OA
ATOM     97  O   UNL     1      -6.397  14.143  -7.693  1.00  0.00    -0.237 OA
ATOM     98  O   UNL     1      -8.405  14.983  -6.567  1.00  0.00    -0.744 OA
ENDBRANCH  92  95
ENDBRANCH  65  88
ENDBRANCH  39  40
ENDBRANCH  32  34
ENDBRANCH  31  32
ENDBRANCH  30  31
ENDBRANCH  29  30
ENDBRANCH  28  29
ENDBRANCH  27  28
ENDBRANCH   1  27
TORSDOF 25
