REMARK SMILES O=C1C[C@H](c2cn[nH]c2C(=O)OCCOCCOCCOC(=O)c2ccc(-c3c4nc(c(-c5cccc(S(=O)(=O)[O-])c5F)c5ccc([nH]5)c(-c5cccc(S(=O)(=O)[O-])c5F)c5nc(c(-c6cccc(S(=O)(=O)[O-])c6F)c6ccc3[nH]6)C=C5)C=C4)cc2)c2c(-c3cccs3)n[nH]c2N1
REMARK SMILES IDX 17 1 16 2 15 3 14 4 13 5 12 6 10 7 11 8 9 9 5 10 6 11 7 12
REMARK SMILES IDX 8 13 4 15 1 16 2 17 3 18 97 19 96 20 87 22 95 23 88 24 94 25
REMARK SMILES IDX 89 27 90 28 93 29 91 30 92 31 18 32 19 33 20 34 21 35 22 36
REMARK SMILES IDX 23 37 24 38 25 39 86 40 26 41 85 42 27 43 28 44 29 45 79 46
REMARK SMILES IDX 30 47 84 48 78 49 80 50 31 51 83 52 77 53 76 54 32 56 64 57
REMARK SMILES IDX 44 58 63 59 45 60 48 61 62 62 81 63 46 64 47 65 61 67 82 68
REMARK SMILES IDX 49 69 33 70 34 71 42 72 35 73 37 74 43 75 36 76 38 77 39 78
REMARK SMILES IDX 40 79 41 80 65 81 66 82 74 83 67 84 69 85 75 86 68 87 70 88
REMARK SMILES IDX 71 89 72 90 73 91 50 92 51 93 59 94 52 95 54 96 60 97 53 98
REMARK SMILES IDX 55 99 56 100 57 101 58 102
REMARK H PARENT 8 14 97 21 95 26 80 55 48 66
REMARK Flexibility Score: inf
ROOT
ATOM      1  C   UNL     1       3.777  -1.325  -3.234  1.00  0.00     0.188 C 
ENDROOT
BRANCH   1   2
ATOM      2  C   UNL     1       4.890  -1.633  -4.263  1.00  0.00     0.188 C 
BRANCH   2   3
ATOM      3  O   UNL     1       5.661  -2.815  -4.166  1.00  0.00    -0.376 OA
BRANCH   3   4
ATOM      4  C   UNL     1       6.402  -3.090  -2.990  1.00  0.00     0.202 C 
BRANCH   4   5
ATOM      5  C   UNL     1       7.106  -1.978  -2.199  1.00  0.00     0.261 C 
BRANCH   5   6
ATOM      6  O   UNL     1       6.298  -0.825  -1.907  1.00  0.00    -0.459 OA
BRANCH   6   7
ATOM      7  C   UNL     1       6.722   0.351  -2.428  1.00  0.00     0.356 C 
ATOM      8  O   UNL     1       7.737   0.480  -3.108  1.00  0.00    -0.244 OA
BRANCH   7   9
ATOM      9  C   UNL     1       5.762   1.416  -2.267  1.00  0.00     0.147 A 
ATOM     10  C   UNL     1       4.813   1.852  -1.334  1.00  0.00     0.013 A 
ATOM     11  C   UNL     1       4.298   3.043  -1.936  1.00  0.00     0.140 A 
ATOM     12  N   UNL     1       4.824   3.314  -3.124  1.00  0.00    -0.183 NA
ATOM     13  N   UNL     1       5.698   2.323  -3.300  1.00  0.00    -0.271 N 
ATOM     14  H   UNL     1       6.256   2.246  -4.107  1.00  0.00     0.190 HD
BRANCH  10  15
ATOM     15  C   UNL     1       4.367   1.421   0.059  1.00  0.00     0.069 C 
ATOM     16  O   UNL     1       1.034  -0.317   0.189  1.00  0.00    -0.275 OA
ATOM     17  C   UNL     1       2.238  -0.111   0.351  1.00  0.00     0.226 C 
ATOM     18  C   UNL     1       2.825   1.285   0.181  1.00  0.00     0.114 C 
ATOM     19  N   UNL     1       3.040  -1.116   0.822  1.00  0.00    -0.311 N 
ATOM     20  C   UNL     1       4.384  -0.913   0.936  1.00  0.00     0.132 A 
ATOM     21  H   UNL     1       2.648  -1.982   1.076  1.00  0.00     0.171 HD
ATOM     22  C   UNL     1       5.049   0.243   0.642  1.00  0.00     0.031 A 
ATOM     23  N   UNL     1       5.324  -1.838   1.263  1.00  0.00    -0.262 N 
ATOM     24  C   UNL     1       6.399  -0.036   0.965  1.00  0.00     0.108 A 
ATOM     25  N   UNL     1       6.576  -1.330   1.281  1.00  0.00    -0.173 NA
ATOM     26  H   UNL     1       5.116  -2.779   1.465  1.00  0.00     0.192 HD
BRANCH  24  27
ATOM     27  C   UNL     1       7.529   0.931   0.826  1.00  0.00     0.055 A 
ATOM     28  C   UNL     1       8.698   0.655   0.152  1.00  0.00     0.022 A 
ATOM     29  S   UNL     1       7.477   2.542   1.388  1.00  0.00    -0.142 S 
ATOM     30  C   UNL     1       9.494   1.826  -0.022  1.00  0.00     0.012 A 
ATOM     31  C   UNL     1       8.973   2.909   0.650  1.00  0.00     0.065 A 
ENDBRANCH  24  27
ENDBRANCH  10  15
ENDBRANCH   7   9
ENDBRANCH   6   7
ENDBRANCH   5   6
ENDBRANCH   4   5
ENDBRANCH   3   4
ENDBRANCH   2   3
ENDBRANCH   1   2
BRANCH   1  32
ATOM     32  O   UNL     1       3.815  -1.941  -1.966  1.00  0.00    -0.376 OA
BRANCH  32  33
ATOM     33  C   UNL     1       3.317  -3.233  -1.670  1.00  0.00     0.202 C 
BRANCH  33  34
ATOM     34  C   UNL     1       2.643  -4.186  -2.637  1.00  0.00     0.261 C 
BRANCH  34  35
ATOM     35  O   UNL     1       2.855  -3.874  -3.983  1.00  0.00    -0.460 OA
BRANCH  35  36
ATOM     36  C   UNL     1       1.838  -3.180  -4.529  1.00  0.00     0.338 C 
ATOM     37  O   UNL     1       0.904  -2.649  -3.954  1.00  0.00    -0.246 OA
BRANCH  36  38
ATOM     38  C   UNL     1       2.003  -3.232  -5.974  1.00  0.00     0.060 A 
ATOM     39  C   UNL     1       1.140  -2.430  -6.716  1.00  0.00     0.016 A 
ATOM     40  C   UNL     1       2.689  -4.334  -6.506  1.00  0.00     0.016 A 
ATOM     41  C   UNL     1       0.725  -2.924  -7.922  1.00  0.00     0.010 A 
ATOM     42  C   UNL     1       2.250  -4.840  -7.692  1.00  0.00     0.010 A 
ATOM     43  C   UNL     1       1.200  -4.181  -8.317  1.00  0.00    -0.014 A 
BRANCH  43  44
ATOM     44  C   UNL     1       0.616  -4.779  -9.483  1.00  0.00     0.031 A 
ATOM     45  C   UNL     1       1.136  -4.160 -10.710  1.00  0.00     0.074 A 
ATOM     46  C   UNL     1      -0.241  -5.811  -9.405  1.00  0.00     0.049 A 
ATOM     47  N   UNL     1       0.535  -3.280 -11.436  1.00  0.00    -0.248 NA
ATOM     48  C   UNL     1       2.565  -4.329 -11.013  1.00  0.00     0.031 C 
ATOM     49  C   UNL     1      -0.569  -6.645  -8.245  1.00  0.00     0.029 A 
ATOM     50  N   UNL     1      -0.910  -6.415 -10.416  1.00  0.00    -0.354 N 
ATOM     51  C   UNL     1       1.429  -3.008 -12.460  1.00  0.00     0.074 A 
ATOM     52  C   UNL     1       2.719  -3.452 -12.005  1.00  0.00     0.031 C 
ATOM     53  C   UNL     1      -1.159  -7.785  -8.678  1.00  0.00     0.029 A 
ATOM     54  C   UNL     1      -1.367  -7.691 -10.114  1.00  0.00     0.049 A 
ATOM     55  H   UNL     1      -1.058  -5.987 -11.290  1.00  0.00     0.167 HD
ATOM     56  C   UNL     1       0.975  -2.756 -13.715  1.00  0.00     0.034 A 
ATOM     57  C   UNL     1      -1.788  -8.611 -11.017  1.00  0.00     0.034 A 
ATOM     58  C   UNL     1      -0.436  -2.454 -13.711  1.00  0.00     0.049 A 
ATOM     59  C   UNL     1      -2.134  -7.874 -12.259  1.00  0.00     0.074 A 
ATOM     60  C   UNL     1      -1.228  -1.501 -13.104  1.00  0.00     0.029 A 
ATOM     61  N   UNL     1      -1.279  -3.474 -14.086  1.00  0.00    -0.354 N 
ATOM     62  N   UNL     1      -3.131  -7.039 -12.343  1.00  0.00    -0.248 NA
ATOM     63  C   UNL     1      -1.098  -7.714 -13.268  1.00  0.00     0.031 C 
ATOM     64  C   UNL     1      -2.426  -2.186 -12.748  1.00  0.00     0.029 A 
ATOM     65  C   UNL     1      -2.335  -3.500 -13.214  1.00  0.00     0.049 A 
ATOM     66  H   UNL     1      -1.147  -4.080 -14.850  1.00  0.00     0.167 HD
ATOM     67  C   UNL     1      -2.628  -5.977 -13.086  1.00  0.00     0.074 A 
ATOM     68  C   UNL     1      -1.418  -6.497 -13.720  1.00  0.00     0.031 C 
ATOM     69  C   UNL     1      -3.067  -4.701 -12.872  1.00  0.00     0.034 A 
BRANCH  56  70
ATOM     70  C   UNL     1       1.689  -3.190 -14.968  1.00  0.00     0.023 A 
ATOM     71  C   UNL     1       1.189  -2.694 -16.190  1.00  0.00     0.012 A 
ATOM     72  C   UNL     1       2.626  -4.248 -15.037  1.00  0.00     0.148 A 
ATOM     73  C   UNL     1       1.570  -3.253 -17.413  1.00  0.00     0.002 A 
ATOM     74  C   UNL     1       3.068  -4.740 -16.257  1.00  0.00     0.091 A 
ATOM     75  F   UNL     1       2.999  -4.894 -13.930  1.00  0.00    -0.205 F 
ATOM     76  C   UNL     1       2.518  -4.269 -17.449  1.00  0.00     0.022 A 
BRANCH  74  77
ATOM     77  S   UNL     1       4.328  -6.018 -16.356  1.00  0.00     0.127 S 
ATOM     78  O   UNL     1       3.546  -7.165 -16.807  1.00  0.00    -0.237 OA
ATOM     79  O   UNL     1       5.240  -5.456 -17.353  1.00  0.00    -0.237 OA
ATOM     80  O   UNL     1       4.896  -6.118 -15.018  1.00  0.00    -0.744 OA
ENDBRANCH  74  77
ENDBRANCH  56  70
BRANCH  57  81
ATOM     81  C   UNL     1      -1.626 -10.084 -11.012  1.00  0.00     0.023 A 
ATOM     82  C   UNL     1      -2.422 -10.871 -11.870  1.00  0.00     0.012 A 
ATOM     83  C   UNL     1      -0.504 -10.690 -10.404  1.00  0.00     0.148 A 
ATOM     84  C   UNL     1      -2.089 -12.203 -12.146  1.00  0.00     0.002 A 
ATOM     85  C   UNL     1      -0.179 -12.016 -10.677  1.00  0.00     0.091 A 
ATOM     86  F   UNL     1       0.297  -9.941  -9.635  1.00  0.00    -0.205 F 
ATOM     87  C   UNL     1      -0.963 -12.772 -11.559  1.00  0.00     0.022 A 
BRANCH  85  88
ATOM     88  S   UNL     1       1.279 -12.810  -9.986  1.00  0.00     0.127 S 
ATOM     89  O   UNL     1       0.721 -14.051  -9.448  1.00  0.00    -0.237 OA
ATOM     90  O   UNL     1       2.121 -12.978 -11.167  1.00  0.00    -0.237 OA
ATOM     91  O   UNL     1       1.790 -11.895  -8.972  1.00  0.00    -0.744 OA
ENDBRANCH  85  88
ENDBRANCH  57  81
BRANCH  69  92
ATOM     92  C   UNL     1      -4.297  -4.512 -12.018  1.00  0.00     0.023 A 
ATOM     93  C   UNL     1      -4.342  -4.863 -10.651  1.00  0.00     0.012 A 
ATOM     94  C   UNL     1      -5.380  -3.811 -12.573  1.00  0.00     0.148 A 
ATOM     95  C   UNL     1      -5.454  -4.540  -9.866  1.00  0.00     0.002 A 
ATOM     96  C   UNL     1      -6.461  -3.451 -11.780  1.00  0.00     0.091 A 
ATOM     97  F   UNL     1      -5.319  -3.483 -13.873  1.00  0.00    -0.205 F 
ATOM     98  C   UNL     1      -6.508  -3.823 -10.427  1.00  0.00     0.022 A 
BRANCH  96  99
ATOM     99  S   UNL     1      -7.785  -2.423 -12.418  1.00  0.00     0.127 S 
ATOM    100  O   UNL     1      -8.870  -3.389 -12.579  1.00  0.00    -0.237 OA
ATOM    101  O   UNL     1      -7.982  -1.456 -11.336  1.00  0.00    -0.237 OA
ATOM    102  O   UNL     1      -7.278  -1.837 -13.652  1.00  0.00    -0.744 OA
ENDBRANCH  96  99
ENDBRANCH  69  92
ENDBRANCH  43  44
ENDBRANCH  36  38
ENDBRANCH  35  36
ENDBRANCH  34  35
ENDBRANCH  33  34
ENDBRANCH  32  33
ENDBRANCH   1  32
TORSDOF 22
