REMARK SMILES O=C(OCCOCCOCCOC(=O)[C@H]1C[N@H+](Cc2ccc(Cl)c(Cl)c2)CC12CCCCC2)c1ccc(-c2c3nc(c(-c4cccc(S(=O)(=O)[O-])c4F)c4ccc([nH]4)c(-c4cccc(S(=O)(=O)[O-])c4F)c4nc(c(-c5cccc(S(=O)(=O)[O-])c5F)c5ccc2[nH]5)C=C4)C=C3)cc1
REMARK SMILES IDX 7 1 6 2 5 3 4 4 3 5 2 6 1 7 34 8 35 9 96 10 36 11 95 12
REMARK SMILES IDX 37 13 38 14 39 15 89 16 40 17 94 18 88 19 90 20 41 21 93 22
REMARK SMILES IDX 87 23 86 24 42 26 74 27 54 28 73 29 55 30 58 31 72 32 91 33
REMARK SMILES IDX 56 34 57 35 71 37 92 38 59 39 43 40 44 41 52 42 45 43 47 44
REMARK SMILES IDX 53 45 46 46 48 47 49 48 50 49 51 50 75 51 76 52 84 53 77 54
REMARK SMILES IDX 79 55 85 56 78 57 80 58 81 59 82 60 83 61 60 62 61 63 69 64
REMARK SMILES IDX 62 65 64 66 70 67 63 68 65 69 66 70 67 71 68 72 8 73 9 74
REMARK SMILES IDX 10 75 11 76 12 77 13 78 14 79 15 80 16 81 28 82 17 83 27 84
REMARK SMILES IDX 29 85 33 86 30 88 32 89 31 90 18 91 19 92 20 93 26 94 21 95
REMARK SMILES IDX 24 96 22 97 25 98 23 99
REMARK H PARENT 90 25 58 36 17 87
REMARK Flexibility Score: inf
ROOT
ATOM      1  C   UNL     1       2.602  -0.175   1.821  1.00  0.00     0.188 C 
ENDROOT
BRANCH   1   2
ATOM      2  O   UNL     1       3.886  -0.648   1.399  1.00  0.00    -0.376 OA
BRANCH   2   3
ATOM      3  C   UNL     1       4.887   0.365   1.265  1.00  0.00     0.202 C 
BRANCH   3   4
ATOM      4  C   UNL     1       4.649   1.448   0.199  1.00  0.00     0.261 C 
BRANCH   4   5
ATOM      5  O   UNL     1       3.294   1.548  -0.264  1.00  0.00    -0.460 OA
BRANCH   5   6
ATOM      6  C   UNL     1       2.688   0.922  -1.302  1.00  0.00     0.338 C 
ATOM      7  O   UNL     1       1.522   1.224  -1.556  1.00  0.00    -0.246 OA
BRANCH   6   8
ATOM      8  C   UNL     1       3.349  -0.103  -2.162  1.00  0.00     0.060 A 
ATOM      9  C   UNL     1       4.360  -0.968  -1.744  1.00  0.00     0.016 A 
ATOM     10  C   UNL     1       2.837  -0.270  -3.462  1.00  0.00     0.016 A 
ATOM     11  C   UNL     1       4.908  -1.912  -2.611  1.00  0.00     0.010 A 
ATOM     12  C   UNL     1       3.361  -1.234  -4.330  1.00  0.00     0.010 A 
ATOM     13  C   UNL     1       4.421  -2.040  -3.913  1.00  0.00    -0.014 A 
BRANCH  13  14
ATOM     14  C   UNL     1       5.107  -2.983  -4.819  1.00  0.00     0.031 A 
ATOM     15  C   UNL     1       6.135  -2.461  -5.748  1.00  0.00     0.074 A 
ATOM     16  C   UNL     1       4.818  -4.295  -4.788  1.00  0.00     0.049 A 
ATOM     17  N   UNL     1       6.843  -3.130  -6.610  1.00  0.00    -0.248 NA
ATOM     18  C   UNL     1       6.335  -1.004  -5.780  1.00  0.00     0.031 C 
ATOM     19  C   UNL     1       3.679  -4.830  -4.075  1.00  0.00     0.029 A 
ATOM     20  N   UNL     1       5.410  -5.404  -5.332  1.00  0.00    -0.354 N 
ATOM     21  C   UNL     1       7.440  -2.171  -7.404  1.00  0.00     0.074 A 
ATOM     22  C   UNL     1       7.121  -0.877  -6.840  1.00  0.00     0.031 C 
ATOM     23  C   UNL     1       3.715  -6.170  -4.114  1.00  0.00     0.029 A 
ATOM     24  C   UNL     1       4.851  -6.591  -4.899  1.00  0.00     0.049 A 
ATOM     25  H   UNL     1       6.160  -5.361  -5.969  1.00  0.00     0.167 HD
ATOM     26  C   UNL     1       8.101  -2.381  -8.561  1.00  0.00     0.034 A 
ATOM     27  C   UNL     1       5.190  -7.874  -5.128  1.00  0.00     0.034 A 
ATOM     28  C   UNL     1       8.360  -3.691  -9.094  1.00  0.00     0.049 A 
ATOM     29  C   UNL     1       6.178  -8.083  -6.226  1.00  0.00     0.074 A 
ATOM     30  C   UNL     1       9.052  -4.026 -10.240  1.00  0.00     0.029 A 
ATOM     31  N   UNL     1       7.909  -4.880  -8.532  1.00  0.00    -0.354 N 
ATOM     32  N   UNL     1       6.817  -7.168  -6.912  1.00  0.00    -0.248 NA
ATOM     33  C   UNL     1       6.416  -9.462  -6.661  1.00  0.00     0.031 C 
ATOM     34  C   UNL     1       8.993  -5.415 -10.389  1.00  0.00     0.029 A 
ATOM     35  C   UNL     1       8.309  -5.952  -9.309  1.00  0.00     0.049 A 
ATOM     36  H   UNL     1       7.382  -4.949  -7.703  1.00  0.00     0.167 HD
ATOM     37  C   UNL     1       7.437  -7.848  -7.939  1.00  0.00     0.074 A 
ATOM     38  C   UNL     1       7.212  -9.263  -7.703  1.00  0.00     0.031 C 
ATOM     39  C   UNL     1       8.058  -7.342  -9.028  1.00  0.00     0.034 A 
BRANCH  26  40
ATOM     40  C   UNL     1       8.473  -1.171  -9.362  1.00  0.00     0.023 A 
ATOM     41  C   UNL     1       9.507  -0.315  -8.937  1.00  0.00     0.012 A 
ATOM     42  C   UNL     1       7.775  -0.886 -10.553  1.00  0.00     0.148 A 
ATOM     43  C   UNL     1       9.825   0.823  -9.676  1.00  0.00     0.002 A 
ATOM     44  C   UNL     1       8.132   0.220 -11.309  1.00  0.00     0.091 A 
ATOM     45  F   UNL     1       6.768  -1.694 -10.912  1.00  0.00    -0.205 F 
ATOM     46  C   UNL     1       9.147   1.084 -10.865  1.00  0.00     0.022 A 
BRANCH  44  47
ATOM     47  S   UNL     1       7.368   0.604 -12.886  1.00  0.00     0.127 S 
ATOM     48  O   UNL     1       6.798   1.926 -12.626  1.00  0.00    -0.237 OA
ATOM     49  O   UNL     1       8.521   0.602 -13.785  1.00  0.00    -0.237 OA
ATOM     50  O   UNL     1       6.391  -0.448 -13.132  1.00  0.00    -0.744 OA
ENDBRANCH  44  47
ENDBRANCH  26  40
BRANCH  27  51
ATOM     51  C   UNL     1       4.534  -9.031  -4.448  1.00  0.00     0.023 A 
ATOM     52  C   UNL     1       5.294  -9.880  -3.615  1.00  0.00     0.012 A 
ATOM     53  C   UNL     1       3.175  -9.329  -4.640  1.00  0.00     0.148 A 
ATOM     54  C   UNL     1       4.713 -11.002  -3.010  1.00  0.00     0.002 A 
ATOM     55  C   UNL     1       2.590 -10.416  -3.995  1.00  0.00     0.091 A 
ATOM     56  F   UNL     1       2.456  -8.545  -5.457  1.00  0.00    -0.205 F 
ATOM     57  C   UNL     1       3.357 -11.266  -3.192  1.00  0.00     0.022 A 
BRANCH  55  58
ATOM     58  S   UNL     1       0.819 -10.681  -4.141  1.00  0.00     0.127 S 
ATOM     59  O   UNL     1       0.713 -11.331  -5.442  1.00  0.00    -0.237 OA
ATOM     60  O   UNL     1       0.510 -11.545  -3.003  1.00  0.00    -0.237 OA
ATOM     61  O   UNL     1       0.268  -9.334  -4.032  1.00  0.00    -0.744 OA
ENDBRANCH  55  58
ENDBRANCH  27  51
BRANCH  39  62
ATOM     62  C   UNL     1       8.516  -8.344 -10.037  1.00  0.00     0.023 A 
ATOM     63  C   UNL     1       7.582  -8.959 -10.892  1.00  0.00     0.012 A 
ATOM     64  C   UNL     1       9.883  -8.632 -10.156  1.00  0.00     0.148 A 
ATOM     65  C   UNL     1       8.010  -9.873 -11.850  1.00  0.00     0.002 A 
ATOM     66  C   UNL     1      10.307  -9.501 -11.146  1.00  0.00     0.091 A 
ATOM     67  F   UNL     1      10.735  -8.046  -9.302  1.00  0.00    -0.205 F 
ATOM     68  C   UNL     1       9.373 -10.133 -11.985  1.00  0.00     0.022 A 
BRANCH  66  69
ATOM     69  S   UNL     1      12.044  -9.822 -11.446  1.00  0.00     0.127 S 
ATOM     70  O   UNL     1      12.147 -11.240 -11.107  1.00  0.00    -0.237 OA
ATOM     71  O   UNL     1      12.167  -9.519 -12.871  1.00  0.00    -0.237 OA
ATOM     72  O   UNL     1      12.781  -8.923 -10.567  1.00  0.00    -0.744 OA
ENDBRANCH  66  69
ENDBRANCH  39  62
ENDBRANCH  13  14
ENDBRANCH   6   8
ENDBRANCH   5   6
ENDBRANCH   4   5
ENDBRANCH   3   4
ENDBRANCH   2   3
ENDBRANCH   1   2
BRANCH   1  73
ATOM     73  C   UNL     1       1.885  -1.156   2.751  1.00  0.00     0.188 C 
BRANCH  73  74
ATOM     74  O   UNL     1       2.396  -1.262   4.080  1.00  0.00    -0.376 OA
BRANCH  74  75
ATOM     75  C   UNL     1       3.793  -1.482   4.220  1.00  0.00     0.202 C 
BRANCH  75  76
ATOM     76  C   UNL     1       4.340  -2.855   3.820  1.00  0.00     0.261 C 
BRANCH  76  77
ATOM     77  O   UNL     1       3.888  -3.331   2.550  1.00  0.00    -0.463 OA
BRANCH  77  78
ATOM     78  C   UNL     1       3.015  -4.374   2.594  1.00  0.00     0.315 C 
ATOM     79  O   UNL     1       2.509  -4.817   3.613  1.00  0.00    -0.252 OA
BRANCH  78  80
ATOM     80  C   UNL     1       2.752  -4.963   1.231  1.00  0.00     0.166 C 
ATOM     81  C   UNL     1       2.191  -3.961   0.232  1.00  0.00     0.278 C 
ATOM     82  C   UNL     1       3.939  -5.662   0.519  1.00  0.00     0.038 C 
ATOM     83  N   UNL     1       2.395  -4.582  -1.067  1.00  0.00    -0.330 N 
ATOM     84  C   UNL     1       3.658  -5.326  -0.965  1.00  0.00     0.270 C 
ATOM     85  C   UNL     1       5.352  -5.187   0.949  1.00  0.00     0.014 C 
ATOM     86  C   UNL     1       3.874  -7.183   0.776  1.00  0.00     0.014 C 
ATOM     87  H   UNL     1       2.480  -3.866  -1.788  1.00  0.00     0.348 HD
ATOM     88  C   UNL     1       6.501  -6.001   0.341  1.00  0.00     0.001 C 
ATOM     89  C   UNL     1       4.984  -7.976   0.095  1.00  0.00     0.001 C 
ATOM     90  C   UNL     1       6.338  -7.497   0.585  1.00  0.00     0.000 C 
BRANCH  83  91
ATOM     91  C   UNL     1       1.237  -5.257  -1.690  1.00  0.00     0.299 C 
BRANCH  91  92
ATOM     92  C   UNL     1       0.617  -6.407  -0.938  1.00  0.00     0.008 A 
ATOM     93  C   UNL     1      -0.372  -6.155   0.018  1.00  0.00     0.011 A 
ATOM     94  C   UNL     1       1.076  -7.723  -1.112  1.00  0.00     0.031 A 
ATOM     95  C   UNL     1      -0.777  -7.162   0.891  1.00  0.00     0.022 A 
ATOM     96  C   UNL     1       0.709  -8.724  -0.205  1.00  0.00     0.060 A 
ATOM     97  C   UNL     1      -0.204  -8.433   0.812  1.00  0.00     0.059 A 
ATOM     98  Cl  UNL     1       1.581 -10.216  -0.238  1.00  0.00    -0.083 Cl
ATOM     99  Cl  UNL     1      -0.600  -9.561   2.061  1.00  0.00    -0.083 Cl
ENDBRANCH  91  92
ENDBRANCH  83  91
ENDBRANCH  78  80
ENDBRANCH  77  78
ENDBRANCH  76  77
ENDBRANCH  75  76
ENDBRANCH  74  75
ENDBRANCH  73  74
ENDBRANCH   1  73
TORSDOF 22
