REMARK SMILES O=C(OCCOCCOCCOC(=O)c1cc(/C=C/c2cc(O)cc(O)c2)ccc1O)c1ccc(-c2c3nc(c(-c4cccc(S(=O)(=O)[O-])c4F)c4ccc([nH]4)c(-c4cccc(S(=O)(=O)[O-])c4F)c4nc(c(-c5cccc(S(=O)(=O)[O-])c5F)c5ccc2[nH]5)C=C4)C=C3)cc1
REMARK SMILES IDX 7 1 6 2 5 3 4 4 3 5 2 6 1 7 32 8 33 9 94 10 34 11 93 12
REMARK SMILES IDX 35 13 36 14 37 15 87 16 38 17 92 18 86 19 88 20 39 21 91 22
REMARK SMILES IDX 85 23 84 24 40 26 72 27 52 28 71 29 53 30 56 31 70 32 89 33
REMARK SMILES IDX 54 34 55 35 69 37 90 38 57 39 41 40 42 41 50 42 43 43 45 44
REMARK SMILES IDX 51 45 44 46 46 47 47 48 48 49 49 50 73 51 74 52 82 53 75 54
REMARK SMILES IDX 77 55 83 56 76 57 78 58 79 59 80 60 81 61 58 62 59 63 67 64
REMARK SMILES IDX 60 65 62 66 68 67 61 68 63 69 64 70 65 71 66 72 8 73 9 74
REMARK SMILES IDX 10 75 11 76 12 77 13 78 14 79 15 80 16 81 30 82 17 83 29 84
REMARK SMILES IDX 28 85 31 86 18 88 19 89 20 90 21 91 27 92 22 93 25 94 24 95
REMARK SMILES IDX 23 96 26 98
REMARK H PARENT 88 25 56 36 31 87 23 97 26 99
REMARK Flexibility Score: inf
ROOT
ATOM      1  C   UNL     1       2.447   1.032  -1.976  1.00  0.00     0.188 C 
ENDROOT
BRANCH   1   2
ATOM      2  O   UNL     1       3.715   0.955  -1.316  1.00  0.00    -0.376 OA
BRANCH   2   3
ATOM      3  C   UNL     1       4.511  -0.163  -1.712  1.00  0.00     0.202 C 
BRANCH   3   4
ATOM      4  C   UNL     1       4.278  -1.424  -0.872  1.00  0.00     0.261 C 
BRANCH   4   5
ATOM      5  O   UNL     1       2.892  -1.584  -0.522  1.00  0.00    -0.460 OA
BRANCH   5   6
ATOM      6  C   UNL     1       2.282  -1.222   0.637  1.00  0.00     0.338 C 
ATOM      7  O   UNL     1       1.078  -1.443   0.767  1.00  0.00    -0.246 OA
BRANCH   6   8
ATOM      8  C   UNL     1       3.012  -0.633   1.799  1.00  0.00     0.060 A 
ATOM      9  C   UNL     1       4.136   0.188   1.706  1.00  0.00     0.016 A 
ATOM     10  C   UNL     1       2.490  -0.893   3.078  1.00  0.00     0.016 A 
ATOM     11  C   UNL     1       4.818   0.605   2.844  1.00  0.00     0.010 A 
ATOM     12  C   UNL     1       3.123  -0.406   4.226  1.00  0.00     0.010 A 
ATOM     13  C   UNL     1       4.326   0.298   4.113  1.00  0.00    -0.014 A 
BRANCH  13  14
ATOM     14  C   UNL     1       5.139   0.645   5.298  1.00  0.00     0.031 A 
ATOM     15  C   UNL     1       5.811  -0.453   6.069  1.00  0.00     0.074 A 
ATOM     16  C   UNL     1       5.352   1.935   5.613  1.00  0.00     0.049 A 
ATOM     17  N   UNL     1       6.582  -0.368   7.119  1.00  0.00    -0.248 NA
ATOM     18  C   UNL     1       5.603  -1.828   5.583  1.00  0.00     0.031 C 
ATOM     19  C   UNL     1       4.806   3.077   4.880  1.00  0.00     0.029 A 
ATOM     20  N   UNL     1       6.096   2.505   6.614  1.00  0.00    -0.354 N 
ATOM     21  C   UNL     1       6.925  -1.675   7.439  1.00  0.00     0.074 A 
ATOM     22  C   UNL     1       6.275  -2.537   6.478  1.00  0.00     0.031 C 
ATOM     23  C   UNL     1       5.247   4.210   5.447  1.00  0.00     0.029 A 
ATOM     24  C   UNL     1       6.049   3.879   6.617  1.00  0.00     0.049 A 
ATOM     25  H   UNL     1       6.613   1.981   7.268  1.00  0.00     0.167 HD
ATOM     26  C   UNL     1       7.726  -2.116   8.436  1.00  0.00     0.034 A 
ATOM     27  C   UNL     1       6.574   4.771   7.479  1.00  0.00     0.034 A 
ATOM     28  C   UNL     1       8.385  -1.249   9.372  1.00  0.00     0.049 A 
ATOM     29  C   UNL     1       7.411   4.253   8.614  1.00  0.00     0.074 A 
ATOM     30  C   UNL     1       9.200  -1.588  10.436  1.00  0.00     0.029 A 
ATOM     31  N   UNL     1       8.300   0.136   9.352  1.00  0.00    -0.354 N 
ATOM     32  N   UNL     1       7.762   3.016   8.876  1.00  0.00    -0.248 NA
ATOM     33  C   UNL     1       7.946   5.244   9.555  1.00  0.00     0.031 C 
ATOM     34  C   UNL     1       9.599  -0.404  11.068  1.00  0.00     0.029 A 
ATOM     35  C   UNL     1       9.043   0.670  10.389  1.00  0.00     0.049 A 
ATOM     36  H   UNL     1       7.787   0.661   8.697  1.00  0.00     0.167 HD
ATOM     37  C   UNL     1       8.581   3.082   9.994  1.00  0.00     0.074 A 
ATOM     38  C   UNL     1       8.691   4.484  10.347  1.00  0.00     0.031 C 
ATOM     39  C   UNL     1       9.174   2.075  10.680  1.00  0.00     0.034 A 
BRANCH  26  40
ATOM     40  C   UNL     1       7.923  -3.602   8.546  1.00  0.00     0.023 A 
ATOM     41  C   UNL     1       8.777  -4.261   7.639  1.00  0.00     0.012 A 
ATOM     42  C   UNL     1       7.248  -4.346   9.531  1.00  0.00     0.148 A 
ATOM     43  C   UNL     1       8.933  -5.646   7.692  1.00  0.00     0.002 A 
ATOM     44  C   UNL     1       7.433  -5.722   9.598  1.00  0.00     0.091 A 
ATOM     45  F   UNL     1       6.415  -3.703  10.361  1.00  0.00    -0.205 F 
ATOM     46  C   UNL     1       8.266  -6.375   8.675  1.00  0.00     0.022 A 
BRANCH  44  47
ATOM     47  S   UNL     1       6.650  -6.739  10.854  1.00  0.00     0.127 S 
ATOM     48  O   UNL     1       5.619  -7.425  10.076  1.00  0.00    -0.237 OA
ATOM     49  O   UNL     1       7.754  -7.595  11.291  1.00  0.00    -0.237 OA
ATOM     50  O   UNL     1       6.162  -5.816  11.868  1.00  0.00    -0.744 OA
ENDBRANCH  44  47
ENDBRANCH  26  40
BRANCH  27  51
ATOM     51  C   UNL     1       6.335   6.229   7.282  1.00  0.00     0.023 A 
ATOM     52  C   UNL     1       7.406   7.080   6.951  1.00  0.00     0.012 A 
ATOM     53  C   UNL     1       5.036   6.768   7.366  1.00  0.00     0.148 A 
ATOM     54  C   UNL     1       7.192   8.443   6.731  1.00  0.00     0.002 A 
ATOM     55  C   UNL     1       4.820   8.109   7.074  1.00  0.00     0.091 A 
ATOM     56  F   UNL     1       4.027   5.952   7.702  1.00  0.00    -0.205 F 
ATOM     57  C   UNL     1       5.898   8.954   6.777  1.00  0.00     0.022 A 
BRANCH  55  58
ATOM     58  S   UNL     1       3.164   8.783   6.902  1.00  0.00     0.127 S 
ATOM     59  O   UNL     1       3.021   9.559   8.128  1.00  0.00    -0.237 OA
ATOM     60  O   UNL     1       3.291   9.567   5.672  1.00  0.00    -0.237 OA
ATOM     61  O   UNL     1       2.291   7.624   6.766  1.00  0.00    -0.744 OA
ENDBRANCH  55  58
ENDBRANCH  27  51
BRANCH  39  62
ATOM     62  C   UNL     1      10.012   2.454  11.867  1.00  0.00     0.023 A 
ATOM     63  C   UNL     1       9.384   2.829  13.069  1.00  0.00     0.012 A 
ATOM     64  C   UNL     1      11.415   2.360  11.812  1.00  0.00     0.148 A 
ATOM     65  C   UNL     1      10.143   3.125  14.199  1.00  0.00     0.002 A 
ATOM     66  C   UNL     1      12.164   2.615  12.954  1.00  0.00     0.091 A 
ATOM     67  F   UNL     1      11.992   2.029  10.648  1.00  0.00    -0.205 F 
ATOM     68  C   UNL     1      11.531   3.005  14.146  1.00  0.00     0.022 A 
BRANCH  66  69
ATOM     69  S   UNL     1      13.944   2.389  12.990  1.00  0.00     0.127 S 
ATOM     70  O   UNL     1      14.422   3.764  12.863  1.00  0.00    -0.237 OA
ATOM     71  O   UNL     1      14.159   1.787  14.307  1.00  0.00    -0.237 OA
ATOM     72  O   UNL     1      14.252   1.507  11.872  1.00  0.00    -0.744 OA
ENDBRANCH  66  69
ENDBRANCH  39  62
ENDBRANCH  13  14
ENDBRANCH   6   8
ENDBRANCH   5   6
ENDBRANCH   4   5
ENDBRANCH   3   4
ENDBRANCH   2   3
ENDBRANCH   1   2
BRANCH   1  73
ATOM     73  C   UNL     1       1.988   2.487  -2.095  1.00  0.00     0.188 C 
BRANCH  73  74
ATOM     74  O   UNL     1       2.729   3.264  -3.039  1.00  0.00    -0.376 OA
BRANCH  74  75
ATOM     75  C   UNL     1       4.085   3.554  -2.700  1.00  0.00     0.202 C 
BRANCH  75  76
ATOM     76  C   UNL     1       4.314   4.648  -1.650  1.00  0.00     0.261 C 
BRANCH  76  77
ATOM     77  O   UNL     1       3.806   4.354  -0.338  1.00  0.00    -0.460 OA
BRANCH  77  78
ATOM     78  C   UNL     1       2.735   5.107   0.029  1.00  0.00     0.342 C 
ATOM     79  O   UNL     1       2.058   5.818  -0.697  1.00  0.00    -0.246 OA
BRANCH  78  80
ATOM     80  C   UNL     1       2.431   4.923   1.455  1.00  0.00     0.102 A 
ATOM     81  C   UNL     1       1.441   3.998   1.833  1.00  0.00     0.027 A 
ATOM     82  C   UNL     1       2.972   5.805   2.392  1.00  0.00     0.130 A 
ATOM     83  C   UNL     1       0.993   3.946   3.161  1.00  0.00    -0.025 A 
ATOM     84  C   UNL     1       2.522   5.771   3.706  1.00  0.00     0.048 A 
ATOM     85  C   UNL     1       1.545   4.847   4.085  1.00  0.00     0.012 A 
BRANCH  82  86
ATOM     86  O   UNL     1       3.918   6.721   2.028  1.00  0.00    -0.507 OA
ATOM     87  H   UNL     1       4.226   6.750   1.144  1.00  0.00     0.293 HD
ENDBRANCH  82  86
BRANCH  83  88
ATOM     88  C   UNL     1      -0.103   3.080   3.632  1.00  0.00     0.009 C 
ATOM     89  C   UNL     1      -0.606   1.995   3.021  1.00  0.00     0.009 C 
BRANCH  89  90
ATOM     90  C   UNL     1      -1.729   1.225   3.587  1.00  0.00    -0.018 A 
ATOM     91  C   UNL     1      -2.838   1.858   4.174  1.00  0.00     0.054 A 
ATOM     92  C   UNL     1      -1.715  -0.173   3.501  1.00  0.00     0.054 A 
ATOM     93  C   UNL     1      -3.887   1.098   4.690  1.00  0.00     0.119 A 
ATOM     94  C   UNL     1      -2.774  -0.915   4.028  1.00  0.00     0.119 A 
ATOM     95  C   UNL     1      -3.862  -0.288   4.623  1.00  0.00     0.092 A 
BRANCH  93  96
ATOM     96  O   UNL     1      -4.969   1.692   5.275  1.00  0.00    -0.508 OA
ATOM     97  H   UNL     1      -5.015   2.626   5.336  1.00  0.00     0.293 HD
ENDBRANCH  93  96
BRANCH  94  98
ATOM     98  O   UNL     1      -2.776  -2.279   3.978  1.00  0.00    -0.508 OA
ATOM     99  H   UNL     1      -3.495  -2.760   4.336  1.00  0.00     0.293 HD
ENDBRANCH  94  98
ENDBRANCH  89  90
ENDBRANCH  83  88
ENDBRANCH  78  80
ENDBRANCH  77  78
ENDBRANCH  76  77
ENDBRANCH  75  76
ENDBRANCH  74  75
ENDBRANCH  73  74
ENDBRANCH   1  73
TORSDOF 25
