REMARK SMILES O=C(OCCOCCOCCOC(=O)[C@@H]1CCCC[C@@H]1C(=O)Nc1nc(-c2ccc(Cl)c(Cl)c2)cs1)c1ccc(-c2c3nc(c(-c4cccc(S(=O)(=O)[O-])c4F)c4ccc([nH]4)c(-c4cccc(S(=O)(=O)[O-])c4F)c4nc(c(-c5cccc(S(=O)(=O)[O-])c5F)c5ccc2[nH]5)C=C4)C=C3)cc1
REMARK SMILES IDX 7 1 6 2 5 3 4 4 3 5 2 6 1 7 37 8 38 9 99 10 39 11 98 12
REMARK SMILES IDX 40 13 41 14 42 15 92 16 43 17 97 18 91 19 93 20 44 21 96 22
REMARK SMILES IDX 90 23 89 24 45 26 77 27 57 28 76 29 58 30 61 31 75 32 94 33
REMARK SMILES IDX 59 34 60 35 74 37 95 38 62 39 46 40 47 41 55 42 48 43 50 44
REMARK SMILES IDX 56 45 49 46 51 47 52 48 53 49 54 50 78 51 79 52 87 53 80 54
REMARK SMILES IDX 82 55 88 56 81 57 83 58 84 59 85 60 86 61 63 62 64 63 72 64
REMARK SMILES IDX 65 65 67 66 73 67 66 68 68 69 69 70 70 71 71 72 8 73 9 74
REMARK SMILES IDX 10 75 11 76 12 77 13 78 14 79 15 80 16 81 20 82 17 83 19 84
REMARK SMILES IDX 18 85 21 86 22 87 23 88 24 90 25 91 36 92 26 93 35 94 27 95
REMARK SMILES IDX 28 96 34 97 29 98 32 99 30 100 33 101 31 102
REMARK H PARENT 93 25 61 36 23 89
REMARK Flexibility Score: inf
ROOT
ATOM      1  C   UNL     1       2.382  -1.552  -1.006  1.00  0.00     0.188 C 
ENDROOT
BRANCH   1   2
ATOM      2  O   UNL     1       3.689  -1.039  -0.734  1.00  0.00    -0.376 OA
BRANCH   2   3
ATOM      3  C   UNL     1       4.387  -1.840   0.218  1.00  0.00     0.202 C 
BRANCH   3   4
ATOM      4  C   UNL     1       4.438  -1.176   1.594  1.00  0.00     0.261 C 
BRANCH   4   5
ATOM      5  O   UNL     1       3.203  -0.543   1.977  1.00  0.00    -0.460 OA
BRANCH   5   6
ATOM      6  C   UNL     1       2.706   0.704   1.786  1.00  0.00     0.338 C 
ATOM      7  O   UNL     1       1.582   0.925   2.241  1.00  0.00    -0.246 OA
BRANCH   6   8
ATOM      8  C   UNL     1       3.387   1.832   1.052  1.00  0.00     0.060 A 
ATOM      9  C   UNL     1       4.739   1.926   0.727  1.00  0.00     0.016 A 
ATOM     10  C   UNL     1       2.573   2.922   0.671  1.00  0.00     0.016 A 
ATOM     11  C   UNL     1       5.239   3.018  -0.012  1.00  0.00     0.010 A 
ATOM     12  C   UNL     1       3.065   4.013  -0.072  1.00  0.00     0.010 A 
ATOM     13  C   UNL     1       4.409   4.064  -0.435  1.00  0.00    -0.014 A 
BRANCH  13  14
ATOM     14  C   UNL     1       5.029   5.305  -0.981  1.00  0.00     0.031 A 
ATOM     15  C   UNL     1       5.731   6.179   0.009  1.00  0.00     0.074 A 
ATOM     16  C   UNL     1       5.008   5.659  -2.281  1.00  0.00     0.049 A 
ATOM     17  N   UNL     1       6.524   7.194  -0.197  1.00  0.00    -0.248 NA
ATOM     18  C   UNL     1       5.528   5.838   1.428  1.00  0.00     0.031 C 
ATOM     19  C   UNL     1       4.353   4.904  -3.334  1.00  0.00     0.029 A 
ATOM     20  N   UNL     1       5.561   6.733  -2.949  1.00  0.00    -0.354 N 
ATOM     21  C   UNL     1       6.896   7.626   1.066  1.00  0.00     0.074 A 
ATOM     22  C   UNL     1       6.282   6.740   2.029  1.00  0.00     0.031 C 
ATOM     23  C   UNL     1       4.563   5.507  -4.517  1.00  0.00     0.029 A 
ATOM     24  C   UNL     1       5.336   6.725  -4.314  1.00  0.00     0.049 A 
ATOM     25  H   UNL     1       6.070   7.442  -2.495  1.00  0.00     0.167 HD
ATOM     26  C   UNL     1       7.647   8.696   1.404  1.00  0.00     0.034 A 
ATOM     27  C   UNL     1       5.717   7.588  -5.285  1.00  0.00     0.034 A 
ATOM     28  C   UNL     1       8.149   9.650   0.462  1.00  0.00     0.049 A 
ATOM     29  C   UNL     1       6.558   8.777  -4.871  1.00  0.00     0.074 A 
ATOM     30  C   UNL     1       8.856  10.810   0.710  1.00  0.00     0.029 A 
ATOM     31  N   UNL     1       7.939   9.587  -0.908  1.00  0.00    -0.354 N 
ATOM     32  N   UNL     1       7.056   9.063  -3.691  1.00  0.00    -0.248 NA
ATOM     33  C   UNL     1       6.923   9.745  -5.919  1.00  0.00     0.031 C 
ATOM     34  C   UNL     1       9.031  11.476  -0.508  1.00  0.00     0.029 A 
ATOM     35  C   UNL     1       8.485  10.699  -1.519  1.00  0.00     0.049 A 
ATOM     36  H   UNL     1       7.471   8.857  -1.375  1.00  0.00     0.167 HD
ATOM     37  C   UNL     1       7.811  10.219  -3.861  1.00  0.00     0.074 A 
ATOM     38  C   UNL     1       7.754  10.549  -5.269  1.00  0.00     0.031 C 
ATOM     39  C   UNL     1       8.467  10.963  -2.935  1.00  0.00     0.034 A 
BRANCH  26  40
ATOM     40  C   UNL     1       7.851   8.915   2.874  1.00  0.00     0.023 A 
ATOM     41  C   UNL     1       8.698   8.058   3.606  1.00  0.00     0.012 A 
ATOM     42  C   UNL     1       7.124   9.917   3.542  1.00  0.00     0.148 A 
ATOM     43  C   UNL     1       8.777   8.163   4.993  1.00  0.00     0.002 A 
ATOM     44  C   UNL     1       7.245  10.046   4.917  1.00  0.00     0.091 A 
ATOM     45  F   UNL     1       6.293  10.688   2.826  1.00  0.00    -0.205 F 
ATOM     46  C   UNL     1       8.055   9.160   5.647  1.00  0.00     0.022 A 
BRANCH  44  47
ATOM     47  S   UNL     1       6.402  11.331   5.840  1.00  0.00     0.127 S 
ATOM     48  O   UNL     1       5.458  10.549   6.638  1.00  0.00    -0.237 OA
ATOM     49  O   UNL     1       7.500  11.925   6.601  1.00  0.00    -0.237 OA
ATOM     50  O   UNL     1       5.800  12.211   4.849  1.00  0.00    -0.744 OA
ENDBRANCH  44  47
ENDBRANCH  26  40
BRANCH  27  51
ATOM     51  C   UNL     1       5.401   7.345  -6.739  1.00  0.00     0.023 A 
ATOM     52  C   UNL     1       6.456   7.262  -7.673  1.00  0.00     0.012 A 
ATOM     53  C   UNL     1       4.083   7.207  -7.222  1.00  0.00     0.148 A 
ATOM     54  C   UNL     1       6.215   7.073  -9.037  1.00  0.00     0.002 A 
ATOM     55  C   UNL     1       3.851   6.946  -8.574  1.00  0.00     0.091 A 
ATOM     56  F   UNL     1       3.071   7.329  -6.352  1.00  0.00    -0.205 F 
ATOM     57  C   UNL     1       4.914   6.896  -9.485  1.00  0.00     0.022 A 
BRANCH  55  58
ATOM     58  S   UNL     1       2.215   6.597  -9.233  1.00  0.00     0.127 S 
ATOM     59  O   UNL     1       2.029   7.705 -10.172  1.00  0.00    -0.237 OA
ATOM     60  O   UNL     1       2.422   5.290  -9.862  1.00  0.00    -0.237 OA
ATOM     61  O   UNL     1       1.319   6.587  -8.093  1.00  0.00    -0.744 OA
ENDBRANCH  55  58
ENDBRANCH  27  51
BRANCH  39  62
ATOM     62  C   UNL     1       9.211  12.183  -3.412  1.00  0.00     0.023 A 
ATOM     63  C   UNL     1       8.501  13.315  -3.859  1.00  0.00     0.012 A 
ATOM     64  C   UNL     1      10.615  12.240  -3.313  1.00  0.00     0.148 A 
ATOM     65  C   UNL     1       9.180  14.473  -4.235  1.00  0.00     0.002 A 
ATOM     66  C   UNL     1      11.280  13.416  -3.632  1.00  0.00     0.091 A 
ATOM     67  F   UNL     1      11.271  11.147  -2.897  1.00  0.00    -0.205 F 
ATOM     68  C   UNL     1      10.566  14.528  -4.108  1.00  0.00     0.022 A 
BRANCH  66  69
ATOM     69  S   UNL     1      13.048  13.617  -3.390  1.00  0.00     0.127 S 
ATOM     70  O   UNL     1      13.530  13.682  -4.769  1.00  0.00    -0.237 OA
ATOM     71  O   UNL     1      13.116  14.882  -2.658  1.00  0.00    -0.237 OA
ATOM     72  O   UNL     1      13.486  12.453  -2.632  1.00  0.00    -0.744 OA
ENDBRANCH  66  69
ENDBRANCH  39  62
ENDBRANCH  13  14
ENDBRANCH   6   8
ENDBRANCH   5   6
ENDBRANCH   4   5
ENDBRANCH   3   4
ENDBRANCH   2   3
ENDBRANCH   1   2
BRANCH   1  73
ATOM     73  C   UNL     1       2.273  -2.458  -2.246  1.00  0.00     0.188 C 
BRANCH  73  74
ATOM     74  O   UNL     1       3.410  -3.244  -2.591  1.00  0.00    -0.376 OA
BRANCH  74  75
ATOM     75  C   UNL     1       4.455  -2.571  -3.304  1.00  0.00     0.202 C 
BRANCH  75  76
ATOM     76  C   UNL     1       4.077  -1.938  -4.656  1.00  0.00     0.261 C 
BRANCH  76  77
ATOM     77  O   UNL     1       3.330  -0.719  -4.478  1.00  0.00    -0.463 OA
BRANCH  77  78
ATOM     78  C   UNL     1       2.860  -0.139  -5.615  1.00  0.00     0.309 C 
ATOM     79  O   UNL     1       2.982  -0.652  -6.723  1.00  0.00    -0.252 OA
BRANCH  78  80
ATOM     80  C   UNL     1       2.070   1.147  -5.376  1.00  0.00     0.111 C 
ATOM     81  C   UNL     1       2.645   2.465  -5.894  1.00  0.00     0.016 C 
ATOM     82  C   UNL     1       1.448   1.303  -3.997  1.00  0.00     0.093 C 
ATOM     83  C   UNL     1       1.591   3.576  -5.923  1.00  0.00     0.001 C 
ATOM     84  C   UNL     1       0.325   2.376  -4.093  1.00  0.00     0.014 C 
ATOM     85  C   UNL     1       0.859   3.718  -4.588  1.00  0.00     0.001 C 
BRANCH  82  86
ATOM     86  C   UNL     1       2.239   1.508  -2.699  1.00  0.00     0.230 C 
ATOM     87  O   UNL     1       1.546   1.752  -1.694  1.00  0.00    -0.274 OA
ATOM     88  N   UNL     1       3.520   1.184  -2.422  1.00  0.00    -0.302 N 
ATOM     89  H   UNL     1       3.628   0.795  -1.524  1.00  0.00     0.172 HD
BRANCH  88  90
ATOM     90  C   UNL     1       4.696   1.272  -3.102  1.00  0.00     0.189 A 
ATOM     91  N   UNL     1       4.970   1.790  -4.263  1.00  0.00    -0.220 NA
ATOM     92  S   UNL     1       6.053   0.655  -2.247  1.00  0.00    -0.105 S 
ATOM     93  C   UNL     1       6.336   1.881  -4.419  1.00  0.00     0.084 A 
ATOM     94  C   UNL     1       7.093   1.241  -3.462  1.00  0.00     0.097 A 
BRANCH  93  95
ATOM     95  C   UNL     1       6.926   2.600  -5.521  1.00  0.00     0.003 A 
ATOM     96  C   UNL     1       7.566   3.824  -5.297  1.00  0.00     0.012 A 
ATOM     97  C   UNL     1       6.862   2.066  -6.808  1.00  0.00     0.032 A 
ATOM     98  C   UNL     1       8.174   4.495  -6.357  1.00  0.00     0.023 A 
ATOM     99  C   UNL     1       7.477   2.734  -7.868  1.00  0.00     0.060 A 
ATOM    100  C   UNL     1       8.146   3.943  -7.641  1.00  0.00     0.059 A 
ATOM    101  Cl  UNL     1       7.412   1.989  -9.426  1.00  0.00    -0.083 Cl
ATOM    102  Cl  UNL     1       8.992   4.778  -8.896  1.00  0.00    -0.083 Cl
ENDBRANCH  93  95
ENDBRANCH  88  90
ENDBRANCH  82  86
ENDBRANCH  78  80
ENDBRANCH  77  78
ENDBRANCH  76  77
ENDBRANCH  75  76
ENDBRANCH  74  75
ENDBRANCH  73  74
ENDBRANCH   1  73
TORSDOF 23
