REMARK SMILES Cc1ccc(-c2csc(NC(=O)[C@H]3[C@@H](C(=O)OCCOCCOCCOC(=O)c4ccc(-c5c6nc(c(-c7cccc(S(=O)(=O)[O-])c7F)c7ccc([nH]7)c(-c7cccc(S(=O)(=O)[O-])c7F)c7nc(c(-c8cccc(S(=O)(=O)[O-])c8F)c8ccc5[nH]8)C=C7)C=C6)cc4)[C@H]4C=C[C@@H]3C4)c2C(=O)NC2CC2)cc1
REMARK SMILES IDX 21 1 20 2 19 3 18 4 17 5 15 6 16 7 14 8 13 9 95 10 92 11
REMARK SMILES IDX 94 12 96 13 93 14 11 15 10 16 12 18 9 19 6 20 7 21 97 22
REMARK SMILES IDX 8 23 5 24 1 25 2 26 3 27 105 28 4 29 104 30 98 31 99 32
REMARK SMILES IDX 100 33 101 35 102 36 103 37 22 38 23 39 24 40 25 41 26 42
REMARK SMILES IDX 27 43 28 44 29 45 30 46 91 47 31 48 90 49 32 50 33 51 34 52
REMARK SMILES IDX 84 53 35 54 89 55 83 56 85 57 36 58 88 59 82 60 81 61 37 63
REMARK SMILES IDX 69 64 49 65 68 66 50 67 53 68 67 69 86 70 51 71 52 72 66 74
REMARK SMILES IDX 87 75 54 76 38 77 39 78 47 79 40 80 42 81 48 82 41 83 43 84
REMARK SMILES IDX 44 85 45 86 46 87 70 88 71 89 79 90 72 91 74 92 80 93 73 94
REMARK SMILES IDX 75 95 76 96 77 97 78 98 55 99 56 100 64 101 57 102 59 103
REMARK SMILES IDX 65 104 58 105 60 106 61 107 62 108 63 109
REMARK H PARENT 10 17 100 34 85 62 53 73
REMARK Flexibility Score: inf
ROOT
ATOM      1  C   UNL     1      -5.015  -0.434  -3.937  1.00  0.00     0.188 C 
ENDROOT
BRANCH   1   2
ATOM      2  O   UNL     1      -4.032   0.629  -3.904  1.00  0.00    -0.376 OA
BRANCH   2   3
ATOM      3  C   UNL     1      -3.072   0.850  -2.817  1.00  0.00     0.202 C 
BRANCH   3   4
ATOM      4  C   UNL     1      -3.091   2.014  -1.522  1.00  0.00     0.261 C 
BRANCH   4   5
ATOM      5  O   UNL     1      -3.755   1.749   0.054  1.00  0.00    -0.463 OA
BRANCH   5   6
ATOM      6  C   UNL     1      -5.000   1.144  -0.030  1.00  0.00     0.310 C 
ATOM      7  O   UNL     1      -4.862   0.893  -1.217  1.00  0.00    -0.252 OA
BRANCH   6   8
ATOM      8  C   UNL     1      -6.791   1.241   0.935  1.00  0.00     0.119 C 
ATOM      9  C   UNL     1      -8.485   0.418   0.861  1.00  0.00     0.100 C 
ATOM     10  C   UNL     1      -9.573   1.487   1.114  1.00  0.00     0.025 C 
ATOM     11  C   UNL     1      -7.765   2.749   1.176  1.00  0.00     0.027 C 
ATOM     12  C   UNL     1      -9.725   2.421  -0.030  1.00  0.00    -0.027 C 
ATOM     13  C   UNL     1      -8.891   2.354   2.115  1.00  0.00     0.017 C 
ATOM     14  C   UNL     1      -8.645   3.194  -0.007  1.00  0.00    -0.027 C 
BRANCH   9  15
ATOM     15  C   UNL     1      -9.299  -0.570  -0.126  1.00  0.00     0.229 C 
ATOM     16  N   UNL     1     -10.049  -1.612   0.419  1.00  0.00    -0.317 N 
ATOM     17  H   UNL     1      -9.604  -2.408   0.790  1.00  0.00     0.170 HD
ATOM     18  O   UNL     1      -9.037  -0.740  -1.306  1.00  0.00    -0.274 OA
BRANCH  16  19
ATOM     19  C   UNL     1     -11.439  -1.508   0.428  1.00  0.00     0.108 A 
ATOM     20  C   UNL     1     -13.717  -1.647   0.057  1.00  0.00     0.007 A 
ATOM     21  C   UNL     1     -13.628  -0.850   1.187  1.00  0.00     0.076 A 
ATOM     22  C   UNL     1     -12.397  -2.085  -0.420  1.00  0.00     0.082 A 
ATOM     23  S   UNL     1     -12.073  -0.817   1.833  1.00  0.00    -0.125 S 
BRANCH  20  24
ATOM     24  C   UNL     1     -15.082  -2.029  -0.267  1.00  0.00    -0.017 A 
ATOM     25  C   UNL     1     -18.924  -3.509  -1.454  1.00  0.00     0.044 C 
ATOM     26  C   UNL     1     -17.677  -2.895  -0.892  1.00  0.00    -0.051 A 
ATOM     27  C   UNL     1     -16.876  -3.646  -0.028  1.00  0.00     0.004 A 
ATOM     28  C   UNL     1     -17.222  -1.642  -1.333  1.00  0.00     0.004 A 
ATOM     29  C   UNL     1     -15.599  -3.198   0.306  1.00  0.00     0.009 A 
ATOM     30  C   UNL     1     -15.929  -1.203  -1.014  1.00  0.00     0.009 A 
ENDBRANCH  20  24
BRANCH  22  31
ATOM     31  C   UNL     1     -11.926  -2.967  -1.529  1.00  0.00     0.255 C 
ATOM     32  O   UNL     1     -10.859  -3.587  -1.419  1.00  0.00    -0.269 OA
ATOM     33  N   UNL     1     -12.583  -3.063  -2.745  1.00  0.00    -0.349 N 
ATOM     34  H   UNL     1     -12.404  -2.358  -3.409  1.00  0.00     0.164 HD
BRANCH  33  35
ATOM     35  C   UNL     1     -13.506  -4.104  -3.123  1.00  0.00     0.082 C 
ATOM     36  C   UNL     1     -14.332  -4.828  -2.114  1.00  0.00     0.027 C 
ATOM     37  C   UNL     1     -14.970  -3.815  -3.030  1.00  0.00     0.027 C 
ENDBRANCH  33  35
ENDBRANCH  22  31
ENDBRANCH  16  19
ENDBRANCH   9  15
ENDBRANCH   6   8
ENDBRANCH   5   6
ENDBRANCH   4   5
ENDBRANCH   3   4
ENDBRANCH   2   3
ENDBRANCH   1   2
BRANCH   1  38
ATOM     38  C   UNL     1      -4.654  -1.916  -3.765  1.00  0.00     0.188 C 
BRANCH  38  39
ATOM     39  O   UNL     1      -3.688  -2.055  -2.749  1.00  0.00    -0.376 OA
BRANCH  39  40
ATOM     40  C   UNL     1      -2.863  -3.192  -2.741  1.00  0.00     0.202 C 
BRANCH  40  41
ATOM     41  C   UNL     1      -3.575  -4.538  -2.535  1.00  0.00     0.261 C 
BRANCH  41  42
ATOM     42  O   UNL     1      -3.865  -4.854  -1.147  1.00  0.00    -0.460 OA
BRANCH  42  43
ATOM     43  C   UNL     1      -5.180  -4.830  -0.775  1.00  0.00     0.338 C 
ATOM     44  O   UNL     1      -5.909  -5.808  -0.754  1.00  0.00    -0.246 OA
BRANCH  43  45
ATOM     45  C   UNL     1      -5.591  -3.466  -0.414  1.00  0.00     0.060 A 
ATOM     46  C   UNL     1      -6.869  -3.024  -0.263  1.00  0.00     0.016 A 
ATOM     47  C   UNL     1      -4.667  -2.502  -0.238  1.00  0.00     0.016 A 
ATOM     48  C   UNL     1      -7.094  -1.597  -0.301  1.00  0.00     0.010 A 
ATOM     49  C   UNL     1      -5.053  -1.197  -0.632  1.00  0.00     0.010 A 
ATOM     50  C   UNL     1      -6.391  -0.556  -0.944  1.00  0.00    -0.014 A 
BRANCH  50  51
ATOM     51  C   UNL     1      -6.830   1.282  -1.445  1.00  0.00     0.031 A 
ATOM     52  C   UNL     1      -6.047   2.940  -0.750  1.00  0.00     0.074 A 
ATOM     53  C   UNL     1      -7.015   1.640  -2.771  1.00  0.00     0.049 A 
ATOM     54  N   UNL     1      -5.785   4.117  -1.317  1.00  0.00    -0.248 NA
ATOM     55  C   UNL     1      -5.436   3.284   0.785  1.00  0.00     0.031 C 
ATOM     56  C   UNL     1      -6.143   2.627  -3.439  1.00  0.00     0.029 A 
ATOM     57  N   UNL     1      -7.818   1.228  -3.848  1.00  0.00    -0.354 N 
ATOM     58  C   UNL     1      -4.826   4.853  -0.536  1.00  0.00     0.074 A 
ATOM     59  C   UNL     1      -4.891   4.464   0.803  1.00  0.00     0.031 C 
ATOM     60  C   UNL     1      -6.544   2.884  -4.675  1.00  0.00     0.029 A 
ATOM     61  C   UNL     1      -7.803   2.226  -4.853  1.00  0.00     0.049 A 
ATOM     62  H   UNL     1      -8.313   0.378  -3.897  1.00  0.00     0.167 HD
ATOM     63  C   UNL     1      -3.854   5.672  -1.023  1.00  0.00     0.034 A 
ATOM     64  C   UNL     1      -8.770   2.798  -5.630  1.00  0.00     0.034 A 
ATOM     65  C   UNL     1      -4.257   6.133  -2.319  1.00  0.00     0.049 A 
ATOM     66  C   UNL     1      -8.877   4.287  -5.222  1.00  0.00     0.074 A 
ATOM     67  C   UNL     1      -3.911   5.933  -3.631  1.00  0.00     0.029 A 
ATOM     68  N   UNL     1      -5.471   6.775  -2.328  1.00  0.00    -0.354 N 
ATOM     69  N   UNL     1      -7.862   5.104  -5.029  1.00  0.00    -0.248 NA
ATOM     70  C   UNL     1     -10.138   4.929  -4.845  1.00  0.00     0.031 C 
ATOM     71  C   UNL     1      -5.066   6.288  -4.410  1.00  0.00     0.029 A 
ATOM     72  C   UNL     1      -6.063   6.756  -3.562  1.00  0.00     0.049 A 
ATOM     73  H   UNL     1      -5.870   7.201  -1.535  1.00  0.00     0.167 HD
ATOM     74  C   UNL     1      -8.293   6.181  -4.269  1.00  0.00     0.074 A 
ATOM     75  C   UNL     1      -9.732   6.054  -4.245  1.00  0.00     0.031 C 
ATOM     76  C   UNL     1      -7.487   7.071  -3.602  1.00  0.00     0.034 A 
BRANCH  63  77
ATOM     77  C   UNL     1      -2.579   6.130  -0.277  1.00  0.00     0.023 A 
ATOM     78  C   UNL     1      -1.976   7.315  -0.745  1.00  0.00     0.012 A 
ATOM     79  C   UNL     1      -1.869   5.450   0.771  1.00  0.00     0.148 A 
ATOM     80  C   UNL     1      -0.756   7.796  -0.245  1.00  0.00     0.002 A 
ATOM     81  C   UNL     1      -0.672   5.965   1.309  1.00  0.00     0.091 A 
ATOM     82  F   UNL     1      -2.308   4.265   1.216  1.00  0.00    -0.205 F 
ATOM     83  C   UNL     1      -0.107   7.129   0.784  1.00  0.00     0.022 A 
BRANCH  81  84
ATOM     84  S   UNL     1       0.240   5.213   2.686  1.00  0.00     0.127 S 
ATOM     85  O   UNL     1       1.456   4.734   2.029  1.00  0.00    -0.237 OA
ATOM     86  O   UNL     1       0.454   6.348   3.587  1.00  0.00    -0.237 OA
ATOM     87  O   UNL     1      -0.623   4.172   3.229  1.00  0.00    -0.744 OA
ENDBRANCH  81  84
ENDBRANCH  63  77
BRANCH  64  88
ATOM     88  C   UNL     1      -9.802   1.864  -6.168  1.00  0.00     0.023 A 
ATOM     89  C   UNL     1      -9.285   0.728  -6.844  1.00  0.00     0.012 A 
ATOM     90  C   UNL     1     -11.054   1.735  -5.609  1.00  0.00     0.148 A 
ATOM     91  C   UNL     1      -9.786  -0.549  -6.577  1.00  0.00     0.002 A 
ATOM     92  C   UNL     1     -11.367   0.507  -5.079  1.00  0.00     0.091 A 
ATOM     93  F   UNL     1     -11.830   2.779  -5.319  1.00  0.00    -0.205 F 
ATOM     94  C   UNL     1     -10.756  -0.665  -5.590  1.00  0.00     0.022 A 
BRANCH  92  95
ATOM     95  S   UNL     1     -11.318   0.630  -3.261  1.00  0.00     0.127 S 
ATOM     96  O   UNL     1     -12.479  -0.135  -2.836  1.00  0.00    -0.237 OA
ATOM     97  O   UNL     1     -10.026  -0.007  -3.147  1.00  0.00    -0.237 OA
ATOM     98  O   UNL     1     -11.341   2.051  -2.945  1.00  0.00    -0.744 OA
ENDBRANCH  92  95
ENDBRANCH  64  88
BRANCH  76  99
ATOM     99  C   UNL     1      -8.042   8.327  -2.895  1.00  0.00     0.023 A 
ATOM    100  C   UNL     1      -9.061   9.062  -3.535  1.00  0.00     0.012 A 
ATOM    101  C   UNL     1      -7.486   8.935  -1.731  1.00  0.00     0.148 A 
ATOM    102  C   UNL     1      -9.513  10.297  -3.052  1.00  0.00     0.002 A 
ATOM    103  C   UNL     1      -7.839  10.226  -1.336  1.00  0.00     0.091 A 
ATOM    104  F   UNL     1      -6.657   8.248  -0.938  1.00  0.00    -0.205 F 
ATOM    105  C   UNL     1      -8.876  10.898  -1.977  1.00  0.00     0.022 A 
BRANCH 103 106
ATOM    106  S   UNL     1      -6.888  11.160  -0.119  1.00  0.00     0.127 S 
ATOM    107  O   UNL     1      -6.587  12.389  -0.856  1.00  0.00    -0.237 OA
ATOM    108  O   UNL     1      -7.854  11.324   0.965  1.00  0.00    -0.237 OA
ATOM    109  O   UNL     1      -5.722  10.345   0.190  1.00  0.00    -0.744 OA
ENDBRANCH 103 106
ENDBRANCH  76  99
ENDBRANCH  50  51
ENDBRANCH  43  45
ENDBRANCH  42  43
ENDBRANCH  41  42
ENDBRANCH  40  41
ENDBRANCH  39  40
ENDBRANCH  38  39
ENDBRANCH   1  38
TORSDOF 25
