REMARK SMILES COc1ccccc1-n1nnc(C(=O)OCCOCCOCCOC(=O)c2ccc(-c3c4nc(c(-c5cccc(S(=O)(=O)[O-])c5F)c5ccc([nH]5)c(-c5cccc(S(=O)(=O)[O-])c5F)c5nc(c(-c6cccc(S(=O)(=O)[O-])c6F)c6ccc3[nH]6)C=C5)C=C4)cc2)c1-c1ccc(Cl)cc1
REMARK SMILES IDX 20 1 19 2 18 3 17 4 16 5 15 6 13 7 14 8 12 9 9 10 10 11
REMARK SMILES IDX 90 12 11 13 8 14 3 15 4 16 5 17 7 18 6 19 2 20 1 21 91 22
REMARK SMILES IDX 92 23 97 24 93 25 96 26 94 27 95 28 21 29 22 30 23 31 24 32
REMARK SMILES IDX 25 33 26 34 27 35 28 36 89 37 29 38 88 39 30 40 31 41 32 42
REMARK SMILES IDX 82 43 33 44 87 45 81 46 83 47 34 48 86 49 80 50 79 51 35 53
REMARK SMILES IDX 67 54 47 55 66 56 48 57 51 58 65 59 84 60 49 61 50 62 64 64
REMARK SMILES IDX 85 65 52 66 36 67 37 68 45 69 38 70 40 71 46 72 39 73 41 74
REMARK SMILES IDX 42 75 43 76 44 77 68 78 69 79 77 80 70 81 72 82 78 83 71 84
REMARK SMILES IDX 73 85 74 86 75 87 76 88 53 89 54 90 62 91 55 92 57 93 63 94
REMARK SMILES IDX 56 95 58 96 59 97 60 98 61 99
REMARK H PARENT 83 52 51 63
REMARK Flexibility Score: inf
ROOT
ATOM      1  C   UNL     1       6.098  -2.341  -1.557  1.00  0.00     0.188 C 
ENDROOT
BRANCH   1   2
ATOM      2  C   UNL     1       6.520  -2.842  -0.157  1.00  0.00     0.188 C 
BRANCH   2   3
ATOM      3  O   UNL     1       6.658  -4.237   0.082  1.00  0.00    -0.376 OA
BRANCH   3   4
ATOM      4  C   UNL     1       5.621  -5.126  -0.322  1.00  0.00     0.202 C 
BRANCH   4   5
ATOM      5  C   UNL     1       4.178  -4.833   0.126  1.00  0.00     0.261 C 
BRANCH   5   6
ATOM      6  O   UNL     1       3.670  -3.577  -0.355  1.00  0.00    -0.458 OA
BRANCH   6   7
ATOM      7  C   UNL     1       3.376  -2.621   0.578  1.00  0.00     0.361 C 
ATOM      8  O   UNL     1       3.306  -2.826   1.773  1.00  0.00    -0.244 OA
BRANCH   7   9
ATOM      9  C   UNL     1       3.257  -1.288  -0.010  1.00  0.00     0.198 A 
ATOM     10  N   UNL     1       2.866   0.486  -1.198  1.00  0.00    -0.208 N 
ATOM     11  N   UNL     1       3.600   0.879  -0.136  1.00  0.00    -0.061 NA
ATOM     12  C   UNL     1       2.822  -0.900  -1.271  1.00  0.00     0.109 A 
ATOM     13  N   UNL     1       3.735  -0.176   0.656  1.00  0.00    -0.122 NA
BRANCH  10  14
ATOM     14  C   UNL     1       2.052   1.407  -1.880  1.00  0.00     0.109 A 
ATOM     15  C   UNL     1       0.670   1.185  -1.960  1.00  0.00     0.144 A 
ATOM     16  C   UNL     1      -0.111   2.000  -2.773  1.00  0.00     0.049 A 
ATOM     17  C   UNL     1       0.475   3.069  -3.454  1.00  0.00     0.004 A 
ATOM     18  C   UNL     1       2.635   2.516  -2.503  1.00  0.00     0.032 A 
ATOM     19  C   UNL     1       1.839   3.337  -3.305  1.00  0.00     0.003 A 
BRANCH  15  20
ATOM     20  O   UNL     1       0.025   0.183  -1.282  1.00  0.00    -0.494 OA
ATOM     21  C   UNL     1      -0.048   0.451   0.124  1.00  0.00     0.278 C 
ENDBRANCH  15  20
ENDBRANCH  10  14
BRANCH  12  22
ATOM     22  C   UNL     1       2.394  -1.638  -2.459  1.00  0.00     0.003 A 
ATOM     23  C   UNL     1       1.460  -2.674  -2.361  1.00  0.00     0.012 A 
ATOM     24  C   UNL     1       2.931  -1.325  -3.721  1.00  0.00     0.012 A 
ATOM     25  C   UNL     1       1.075  -3.391  -3.496  1.00  0.00     0.021 A 
ATOM     26  C   UNL     1       2.542  -2.038  -4.859  1.00  0.00     0.021 A 
ATOM     27  C   UNL     1       1.618  -3.071  -4.739  1.00  0.00     0.041 A 
ATOM     28  Cl  UNL     1       1.141  -3.959  -6.133  1.00  0.00    -0.084 Cl
ENDBRANCH  12  22
ENDBRANCH   7   9
ENDBRANCH   6   7
ENDBRANCH   5   6
ENDBRANCH   4   5
ENDBRANCH   3   4
ENDBRANCH   2   3
ENDBRANCH   1   2
BRANCH   1  29
ATOM     29  O   UNL     1       5.479  -3.321  -2.377  1.00  0.00    -0.376 OA
BRANCH  29  30
ATOM     30  C   UNL     1       6.080  -3.615  -3.634  1.00  0.00     0.202 C 
BRANCH  30  31
ATOM     31  C   UNL     1       7.454  -4.288  -3.623  1.00  0.00     0.261 C 
BRANCH  31  32
ATOM     32  O   UNL     1       8.317  -3.803  -2.613  1.00  0.00    -0.460 OA
BRANCH  32  33
ATOM     33  C   UNL     1       8.830  -2.578  -2.829  1.00  0.00     0.338 C 
ATOM     34  O   UNL     1       8.569  -1.826  -3.753  1.00  0.00    -0.246 OA
BRANCH  33  35
ATOM     35  C   UNL     1       9.776  -2.289  -1.745  1.00  0.00     0.060 A 
ATOM     36  C   UNL     1      10.362  -1.024  -1.766  1.00  0.00     0.016 A 
ATOM     37  C   UNL     1      10.313  -3.363  -1.019  1.00  0.00     0.016 A 
ATOM     38  C   UNL     1      11.670  -0.936  -1.368  1.00  0.00     0.010 A 
ATOM     39  C   UNL     1      11.626  -3.283  -0.647  1.00  0.00     0.010 A 
ATOM     40  C   UNL     1      12.307  -2.111  -0.958  1.00  0.00    -0.014 A 
BRANCH  40  41
ATOM     41  C   UNL     1      13.747  -2.117  -0.996  1.00  0.00     0.031 A 
ATOM     42  C   UNL     1      14.379  -1.519   0.185  1.00  0.00     0.074 A 
ATOM     43  C   UNL     1      14.407  -2.690  -2.019  1.00  0.00     0.049 A 
ATOM     44  N   UNL     1      15.082  -0.439   0.238  1.00  0.00    -0.248 NA
ATOM     45  C   UNL     1      14.056  -2.115   1.488  1.00  0.00     0.031 C 
ATOM     46  C   UNL     1      13.859  -3.564  -3.064  1.00  0.00     0.029 A 
ATOM     47  N   UNL     1      15.746  -2.735  -2.242  1.00  0.00    -0.354 N 
ATOM     48  C   UNL     1      15.485  -0.350   1.563  1.00  0.00     0.074 A 
ATOM     49  C   UNL     1      14.669  -1.269   2.313  1.00  0.00     0.031 C 
ATOM     50  C   UNL     1      14.874  -4.254  -3.630  1.00  0.00     0.029 A 
ATOM     51  C   UNL     1      16.129  -3.778  -3.072  1.00  0.00     0.049 A 
ATOM     52  H   UNL     1      16.382  -2.092  -1.852  1.00  0.00     0.167 HD
ATOM     53  C   UNL     1      16.643   0.267   1.909  1.00  0.00     0.034 A 
ATOM     54  C   UNL     1      17.379  -4.284  -3.189  1.00  0.00     0.034 A 
ATOM     55  C   UNL     1      17.145   1.115   0.861  1.00  0.00     0.049 A 
ATOM     56  C   UNL     1      18.326  -3.274  -2.658  1.00  0.00     0.074 A 
ATOM     57  C   UNL     1      16.661   2.211   0.177  1.00  0.00     0.029 A 
ATOM     58  N   UNL     1      18.204   0.641   0.127  1.00  0.00    -0.354 N 
ATOM     59  N   UNL     1      18.559  -2.124  -3.227  1.00  0.00    -0.248 NA
ATOM     60  C   UNL     1      18.722  -3.366  -1.261  1.00  0.00     0.031 C 
ATOM     61  C   UNL     1      17.180   2.087  -1.144  1.00  0.00     0.029 A 
ATOM     62  C   UNL     1      17.963   0.931  -1.190  1.00  0.00     0.049 A 
ATOM     63  H   UNL     1      18.995   0.175   0.483  1.00  0.00     0.167 HD
ATOM     64  C   UNL     1      18.717  -1.233  -2.172  1.00  0.00     0.074 A 
ATOM     65  C   UNL     1      18.939  -2.075  -1.000  1.00  0.00     0.031 C 
ATOM     66  C   UNL     1      18.359   0.081  -2.295  1.00  0.00     0.034 A 
BRANCH  53  67
ATOM     67  C   UNL     1      17.501  -0.176   3.061  1.00  0.00     0.023 A 
ATOM     68  C   UNL     1      18.523   0.695   3.484  1.00  0.00     0.012 A 
ATOM     69  C   UNL     1      17.516  -1.492   3.580  1.00  0.00     0.148 A 
ATOM     70  C   UNL     1      19.524   0.270   4.363  1.00  0.00     0.002 A 
ATOM     71  C   UNL     1      18.453  -1.878   4.528  1.00  0.00     0.091 A 
ATOM     72  F   UNL     1      16.717  -2.432   3.063  1.00  0.00    -0.205 F 
ATOM     73  C   UNL     1      19.479  -1.011   4.901  1.00  0.00     0.022 A 
BRANCH  71  74
ATOM     74  S   UNL     1      18.363  -3.498   5.296  1.00  0.00     0.127 S 
ATOM     75  O   UNL     1      19.302  -4.264   4.483  1.00  0.00    -0.237 OA
ATOM     76  O   UNL     1      18.809  -3.217   6.661  1.00  0.00    -0.237 OA
ATOM     77  O   UNL     1      16.958  -3.879   5.201  1.00  0.00    -0.744 OA
ENDBRANCH  71  74
ENDBRANCH  53  67
BRANCH  54  78
ATOM     78  C   UNL     1      17.773  -5.680  -3.475  1.00  0.00     0.023 A 
ATOM     79  C   UNL     1      19.040  -5.953  -4.021  1.00  0.00     0.012 A 
ATOM     80  C   UNL     1      16.998  -6.768  -3.007  1.00  0.00     0.148 A 
ATOM     81  C   UNL     1      19.525  -7.264  -4.089  1.00  0.00     0.002 A 
ATOM     82  C   UNL     1      17.474  -8.071  -3.097  1.00  0.00     0.091 A 
ATOM     83  F   UNL     1      15.834  -6.517  -2.393  1.00  0.00    -0.205 F 
ATOM     84  C   UNL     1      18.744  -8.322  -3.629  1.00  0.00     0.022 A 
BRANCH  82  85
ATOM     85  S   UNL     1      16.515  -9.482  -2.529  1.00  0.00     0.127 S 
ATOM     86  O   UNL     1      16.640 -10.407  -3.655  1.00  0.00    -0.237 OA
ATOM     87  O   UNL     1      17.243  -9.879  -1.327  1.00  0.00    -0.237 OA
ATOM     88  O   UNL     1      15.162  -8.983  -2.316  1.00  0.00    -0.744 OA
ENDBRANCH  82  85
ENDBRANCH  54  78
BRANCH  66  89
ATOM     89  C   UNL     1      18.046   0.604  -3.678  1.00  0.00     0.023 A 
ATOM     90  C   UNL     1      16.969   0.093  -4.434  1.00  0.00     0.012 A 
ATOM     91  C   UNL     1      18.719   1.746  -4.147  1.00  0.00     0.148 A 
ATOM     92  C   UNL     1      16.591   0.686  -5.641  1.00  0.00     0.002 A 
ATOM     93  C   UNL     1      18.310   2.362  -5.326  1.00  0.00     0.091 A 
ATOM     94  F   UNL     1      19.733   2.232  -3.415  1.00  0.00    -0.205 F 
ATOM     95  C   UNL     1      17.253   1.829  -6.080  1.00  0.00     0.022 A 
BRANCH  93  96
ATOM     96  S   UNL     1      19.029   3.913  -5.875  1.00  0.00     0.127 S 
ATOM     97  O   UNL     1      19.940   3.474  -6.929  1.00  0.00    -0.237 OA
ATOM     98  O   UNL     1      17.859   4.656  -6.349  1.00  0.00    -0.237 OA
ATOM     99  O   UNL     1      19.660   4.496  -4.697  1.00  0.00    -0.744 OA
ENDBRANCH  93  96
ENDBRANCH  66  89
ENDBRANCH  40  41
ENDBRANCH  33  35
ENDBRANCH  32  33
ENDBRANCH  31  32
ENDBRANCH  30  31
ENDBRANCH  29  30
ENDBRANCH   1  29
TORSDOF 23
