REMARK SMILES COc1ccc(F)cc1[C@@H](C(=O)OCCOCCOCCOC(=O)c1ccc(-c2c3nc(c(-c4cccc(S(=O)(=O)[O-])c4F)c4ccc([nH]4)c(-c4cccc(S(=O)(=O)[O-])c4F)c4nc(c(-c5cccc(S(=O)(=O)[O-])c5F)c5ccc2[nH]5)C=C4)C=C3)cc1)[N@@H+](C)CCn1ccnc1C
REMARK SMILES IDX 17 1 16 2 15 3 14 4 13 5 11 6 12 7 10 8 9 9 3 10 4 11 5 12
REMARK SMILES IDX 8 13 6 14 7 15 2 16 1 17 88 18 89 19 90 21 91 22 92 23 93 24
REMARK SMILES IDX 96 25 94 26 95 27 97 28 18 29 19 30 20 31 21 32 22 33 23 34
REMARK SMILES IDX 24 35 25 36 26 37 87 38 27 39 86 40 28 41 29 42 30 43 80 44
REMARK SMILES IDX 31 45 85 46 79 47 81 48 32 49 84 50 78 51 77 52 33 54 65 55
REMARK SMILES IDX 45 56 64 57 46 58 49 59 63 60 82 61 47 62 48 63 62 65 83 66
REMARK SMILES IDX 50 67 34 68 35 69 43 70 36 71 38 72 44 73 37 74 39 75 40 76
REMARK SMILES IDX 41 77 42 78 66 79 67 80 75 81 68 82 70 83 76 84 69 85 71 86
REMARK SMILES IDX 72 87 73 88 74 89 51 90 52 91 60 92 53 93 55 94 61 95 54 96
REMARK SMILES IDX 56 97 57 98 58 99 59 100
REMARK H PARENT 88 20 81 53 49 64
REMARK Flexibility Score: inf
ROOT
ATOM      1  C   UNL     1      -4.349  -5.416   3.728  1.00  0.00     0.188 C 
ENDROOT
BRANCH   1   2
ATOM      2  O   UNL     1      -5.159  -4.820   2.683  1.00  0.00    -0.376 OA
BRANCH   2   3
ATOM      3  C   UNL     1      -4.947  -4.015   1.505  1.00  0.00     0.202 C 
BRANCH   3   4
ATOM      4  C   UNL     1      -4.607  -2.469   1.361  1.00  0.00     0.261 C 
BRANCH   4   5
ATOM      5  O   UNL     1      -3.194  -2.168   1.516  1.00  0.00    -0.459 OA
BRANCH   5   6
ATOM      6  C   UNL     1      -2.570  -0.955   1.326  1.00  0.00     0.370 C 
ATOM      7  O   UNL     1      -2.970  -0.123   0.519  1.00  0.00    -0.245 OA
BRANCH   6   8
ATOM      8  C   UNL     1      -1.447  -0.683   2.443  1.00  0.00     0.330 C 
BRANCH   8   9
ATOM      9  C   UNL     1       0.064  -1.018   2.303  1.00  0.00     0.066 A 
ATOM     10  C   UNL     1       0.891  -0.486   1.299  1.00  0.00     0.128 A 
ATOM     11  C   UNL     1       2.227  -0.939   1.167  1.00  0.00     0.050 A 
ATOM     12  C   UNL     1       2.752  -1.927   2.003  1.00  0.00     0.043 A 
ATOM     13  C   UNL     1       0.698  -1.902   3.229  1.00  0.00     0.053 A 
ATOM     14  C   UNL     1       1.982  -2.392   3.043  1.00  0.00     0.124 A 
ATOM     15  F   UNL     1       2.454  -3.341   3.862  1.00  0.00    -0.207 F 
BRANCH  10  16
ATOM     16  O   UNL     1       0.330   0.453   0.480  1.00  0.00    -0.496 OA
ATOM     17  C   UNL     1       0.918   0.564  -0.811  1.00  0.00     0.278 C 
ENDBRANCH  10  16
ENDBRANCH   8   9
BRANCH   8  18
ATOM     18  N   UNL     1      -1.916  -1.272   3.713  1.00  0.00    -0.320 N 
ATOM     19  C   UNL     1      -2.969  -0.449   4.324  1.00  0.00     0.333 C 
ATOM     20  H   UNL     1      -1.120  -1.252   4.350  1.00  0.00     0.348 HD
BRANCH  18  21
ATOM     21  C   UNL     1      -2.237  -2.726   3.641  1.00  0.00     0.285 C 
BRANCH  21  22
ATOM     22  C   UNL     1      -1.654  -3.903   2.595  1.00  0.00     0.184 C 
BRANCH  22  23
ATOM     23  N   UNL     1      -1.491  -4.105   1.139  1.00  0.00    -0.330 N 
ATOM     24  C   UNL     1      -0.571  -3.447   0.368  1.00  0.00     0.107 A 
ATOM     25  C   UNL     1      -1.938  -5.143   0.273  1.00  0.00     0.105 A 
ATOM     26  C   UNL     1      -0.548  -4.001  -0.875  1.00  0.00     0.131 A 
ATOM     27  N   UNL     1      -1.385  -5.049  -0.923  1.00  0.00    -0.242 NA
ATOM     28  C   UNL     1      -2.904  -6.262   0.461  1.00  0.00     0.087 C 
ENDBRANCH  22  23
ENDBRANCH  21  22
ENDBRANCH  18  21
ENDBRANCH   8  18
ENDBRANCH   6   8
ENDBRANCH   5   6
ENDBRANCH   4   5
ENDBRANCH   3   4
ENDBRANCH   2   3
ENDBRANCH   1   2
BRANCH   1  29
ATOM     29  C   UNL     1      -3.369  -6.711   3.618  1.00  0.00     0.188 C 
BRANCH  29  30
ATOM     30  O   UNL     1      -1.970  -6.372   3.626  1.00  0.00    -0.376 OA
BRANCH  30  31
ATOM     31  C   UNL     1      -0.964  -7.106   2.911  1.00  0.00     0.202 C 
BRANCH  31  32
ATOM     32  C   UNL     1      -0.614  -8.502   3.417  1.00  0.00     0.261 C 
BRANCH  32  33
ATOM     33  O   UNL     1      -0.495  -8.525   4.834  1.00  0.00    -0.460 OA
BRANCH  33  34
ATOM     34  C   UNL     1       0.330  -7.553   5.309  1.00  0.00     0.338 C 
ATOM     35  O   UNL     1       1.400  -7.232   4.847  1.00  0.00    -0.246 OA
BRANCH  34  36
ATOM     36  C   UNL     1      -0.449  -6.778   6.303  1.00  0.00     0.060 A 
ATOM     37  C   UNL     1      -0.101  -5.442   6.529  1.00  0.00     0.016 A 
ATOM     38  C   UNL     1      -1.547  -7.355   6.956  1.00  0.00     0.016 A 
ATOM     39  C   UNL     1      -0.777  -4.718   7.506  1.00  0.00     0.010 A 
ATOM     40  C   UNL     1      -2.242  -6.626   7.907  1.00  0.00     0.010 A 
ATOM     41  C   UNL     1      -1.793  -5.342   8.242  1.00  0.00    -0.014 A 
BRANCH  41  42
ATOM     42  C   UNL     1      -2.133  -4.830   9.582  1.00  0.00     0.031 A 
ATOM     43  C   UNL     1      -1.393  -5.436  10.744  1.00  0.00     0.074 A 
ATOM     44  C   UNL     1      -3.080  -3.899   9.763  1.00  0.00     0.049 A 
ATOM     45  N   UNL     1      -1.515  -5.187  12.018  1.00  0.00    -0.248 NA
ATOM     46  C   UNL     1      -0.389  -6.472  10.429  1.00  0.00     0.031 C 
ATOM     47  C   UNL     1      -3.868  -3.271   8.706  1.00  0.00     0.029 A 
ATOM     48  N   UNL     1      -3.553  -3.342  10.921  1.00  0.00    -0.354 N 
ATOM     49  C   UNL     1      -0.621  -6.042  12.650  1.00  0.00     0.074 A 
ATOM     50  C   UNL     1       0.015  -6.842  11.632  1.00  0.00     0.031 C 
ATOM     51  C   UNL     1      -4.747  -2.423   9.270  1.00  0.00     0.029 A 
ATOM     52  C   UNL     1      -4.589  -2.464  10.725  1.00  0.00     0.049 A 
ATOM     53  H   UNL     1      -3.184  -3.551  11.810  1.00  0.00     0.167 HD
ATOM     54  C   UNL     1      -0.330  -6.133  13.964  1.00  0.00     0.034 A 
ATOM     55  C   UNL     1      -5.326  -1.784  11.626  1.00  0.00     0.034 A 
ATOM     56  C   UNL     1      -0.944  -5.318  14.969  1.00  0.00     0.049 A 
ATOM     57  C   UNL     1      -4.994  -1.914  13.092  1.00  0.00     0.074 A 
ATOM     58  C   UNL     1      -0.678  -5.287  16.323  1.00  0.00     0.029 A 
ATOM     59  N   UNL     1      -1.953  -4.402  14.727  1.00  0.00    -0.354 N 
ATOM     60  N   UNL     1      -4.044  -2.614  13.664  1.00  0.00    -0.248 NA
ATOM     61  C   UNL     1      -5.812  -1.137  14.035  1.00  0.00     0.031 C 
ATOM     62  C   UNL     1      -1.552  -4.370  16.909  1.00  0.00     0.029 A 
ATOM     63  C   UNL     1      -2.339  -3.810  15.913  1.00  0.00     0.049 A 
ATOM     64  H   UNL     1      -2.338  -4.203  13.843  1.00  0.00     0.167 HD
ATOM     65  C   UNL     1      -4.127  -2.336  15.025  1.00  0.00     0.074 A 
ATOM     66  C   UNL     1      -5.213  -1.394  15.192  1.00  0.00     0.031 C 
ATOM     67  C   UNL     1      -3.381  -2.825  16.046  1.00  0.00     0.034 A 
BRANCH  54  68
ATOM     68  C   UNL     1       0.723  -7.116  14.385  1.00  0.00     0.023 A 
ATOM     69  C   UNL     1       2.079  -6.831  14.130  1.00  0.00     0.012 A 
ATOM     70  C   UNL     1       0.375  -8.281  15.092  1.00  0.00     0.148 A 
ATOM     71  C   UNL     1       3.077  -7.701  14.563  1.00  0.00     0.002 A 
ATOM     72  C   UNL     1       1.377  -9.121  15.559  1.00  0.00     0.091 A 
ATOM     73  F   UNL     1      -0.924  -8.544  15.290  1.00  0.00    -0.205 F 
ATOM     74  C   UNL     1       2.727  -8.837  15.289  1.00  0.00     0.022 A 
BRANCH  72  75
ATOM     75  S   UNL     1       1.036 -10.565  16.568  1.00  0.00     0.127 S 
ATOM     76  O   UNL     1       1.433 -11.651  15.672  1.00  0.00    -0.237 OA
ATOM     77  O   UNL     1       1.927 -10.358  17.709  1.00  0.00    -0.237 OA
ATOM     78  O   UNL     1      -0.385 -10.511  16.884  1.00  0.00    -0.744 OA
ENDBRANCH  72  75
ENDBRANCH  54  68
BRANCH  55  79
ATOM     79  C   UNL     1      -6.411  -0.880  11.157  1.00  0.00     0.023 A 
ATOM     80  C   UNL     1      -6.255   0.514  11.282  1.00  0.00     0.012 A 
ATOM     81  C   UNL     1      -7.577  -1.390  10.554  1.00  0.00     0.148 A 
ATOM     82  C   UNL     1      -7.251   1.383  10.837  1.00  0.00     0.002 A 
ATOM     83  C   UNL     1      -8.542  -0.517  10.064  1.00  0.00     0.091 A 
ATOM     84  F   UNL     1      -7.712  -2.720  10.457  1.00  0.00    -0.205 F 
ATOM     85  C   UNL     1      -8.389   0.869  10.219  1.00  0.00     0.022 A 
BRANCH  83  86
ATOM     86  S   UNL     1      -9.973  -1.083   9.137  1.00  0.00     0.127 S 
ATOM     87  O   UNL     1     -11.065  -0.780  10.059  1.00  0.00    -0.237 OA
ATOM     88  O   UNL     1      -9.915  -0.232   7.948  1.00  0.00    -0.237 OA
ATOM     89  O   UNL     1      -9.740  -2.496   8.876  1.00  0.00    -0.744 OA
ENDBRANCH  83  86
ENDBRANCH  55  79
BRANCH  67  90
ATOM     90  C   UNL     1      -3.670  -2.351  17.445  1.00  0.00     0.023 A 
ATOM     91  C   UNL     1      -4.791  -2.857  18.129  1.00  0.00     0.012 A 
ATOM     92  C   UNL     1      -2.731  -1.558  18.136  1.00  0.00     0.148 A 
ATOM     93  C   UNL     1      -4.977  -2.577  19.482  1.00  0.00     0.002 A 
ATOM     94  C   UNL     1      -2.896  -1.326  19.495  1.00  0.00     0.091 A 
ATOM     95  F   UNL     1      -1.675  -1.084  17.459  1.00  0.00    -0.205 F 
ATOM     96  C   UNL     1      -4.022  -1.828  20.168  1.00  0.00     0.022 A 
BRANCH  94  97
ATOM     97  S   UNL     1      -1.663  -0.476  20.487  1.00  0.00     0.127 S 
ATOM     98  O   UNL     1      -2.366   0.756  20.844  1.00  0.00    -0.237 OA
ATOM     99  O   UNL     1      -1.463  -1.408  21.597  1.00  0.00    -0.237 OA
ATOM    100  O   UNL     1      -0.502  -0.299  19.626  1.00  0.00    -0.744 OA
ENDBRANCH  94  97
ENDBRANCH  67  90
ENDBRANCH  41  42
ENDBRANCH  34  36
ENDBRANCH  33  34
ENDBRANCH  32  33
ENDBRANCH  31  32
ENDBRANCH  30  31
ENDBRANCH  29  30
ENDBRANCH   1  29
TORSDOF 26
