REMARK SMILES COc1ccccc1CCNC(=O)[C@@H]1[C@@H](C(=O)OCCOCCOCCOC(=O)c2ccc(-c3c4nc(c(-c5cccc(S(=O)(=O)[O-])c5F)c5ccc([nH]5)c(-c5cccc(S(=O)(=O)[O-])c5F)c5nc(c(-c6cccc(S(=O)(=O)[O-])c6F)c6ccc3[nH]6)C=C5)C=C4)cc2)[C@H]2C=C[C@@H]1CC2
REMARK SMILES IDX 22 1 21 2 20 3 19 4 18 5 16 6 17 7 15 8 14 9 96 10 93 11
REMARK SMILES IDX 95 12 97 13 94 14 98 15 12 16 11 17 13 19 10 20 9 21 8 22
REMARK SMILES IDX 3 23 4 24 5 25 7 26 6 27 2 28 1 29 23 30 24 31 25 32 26 33
REMARK SMILES IDX 27 34 28 35 29 36 30 37 31 38 92 39 32 40 91 41 33 42 34 43
REMARK SMILES IDX 35 44 85 45 36 46 90 47 84 48 86 49 37 50 89 51 83 52 82 53
REMARK SMILES IDX 38 55 70 56 50 57 69 58 51 59 54 60 68 61 87 62 52 63 53 64
REMARK SMILES IDX 67 66 88 67 55 68 39 69 40 70 48 71 41 72 43 73 49 74 42 75
REMARK SMILES IDX 44 76 45 77 46 78 47 79 71 80 72 81 80 82 73 83 75 84 81 85
REMARK SMILES IDX 74 86 76 87 77 88 78 89 79 90 56 91 57 92 65 93 58 94 60 95
REMARK SMILES IDX 66 96 59 97 61 98 62 99 63 100 64 101
REMARK H PARENT 11 18 86 54 54 65
REMARK Flexibility Score: inf
ROOT
ATOM      1  C   UNL     1       8.627   1.488  -0.931  1.00  0.00     0.188 C 
ENDROOT
BRANCH   1   2
ATOM      2  O   UNL     1       9.801   2.150  -1.360  1.00  0.00    -0.376 OA
BRANCH   2   3
ATOM      3  C   UNL     1      10.624   1.449  -2.283  1.00  0.00     0.202 C 
BRANCH   3   4
ATOM      4  C   UNL     1       9.888   0.874  -3.504  1.00  0.00     0.261 C 
BRANCH   4   5
ATOM      5  O   UNL     1       9.131  -0.317  -3.177  1.00  0.00    -0.463 OA
BRANCH   5   6
ATOM      6  C   UNL     1       9.911  -1.394  -2.892  1.00  0.00     0.310 C 
ATOM      7  O   UNL     1      11.133  -1.375  -3.014  1.00  0.00    -0.252 OA
BRANCH   6   8
ATOM      8  C   UNL     1       9.124  -2.647  -2.532  1.00  0.00     0.119 C 
ATOM      9  C   UNL     1       7.793  -2.486  -1.684  1.00  0.00     0.100 C 
ATOM     10  C   UNL     1       7.957  -3.275  -0.341  1.00  0.00     0.025 C 
ATOM     11  C   UNL     1      10.095  -3.598  -1.767  1.00  0.00     0.026 C 
ATOM     12  C   UNL     1       9.225  -2.799   0.330  1.00  0.00    -0.027 C 
ATOM     13  C   UNL     1       8.173  -4.781  -0.646  1.00  0.00     0.009 C 
ATOM     14  C   UNL     1      10.336  -3.000  -0.393  1.00  0.00    -0.027 C 
ATOM     15  C   UNL     1       9.380  -4.951  -1.589  1.00  0.00     0.009 C 
BRANCH   9  16
ATOM     16  C   UNL     1       6.590  -3.056  -2.444  1.00  0.00     0.224 C 
ATOM     17  N   UNL     1       5.350  -3.090  -1.889  1.00  0.00    -0.355 N 
ATOM     18  H   UNL     1       4.732  -3.706  -2.346  1.00  0.00     0.163 HD
ATOM     19  O   UNL     1       6.694  -3.549  -3.570  1.00  0.00    -0.275 OA
BRANCH  17  20
ATOM     20  C   UNL     1       4.749  -2.401  -0.755  1.00  0.00     0.120 C 
BRANCH  20  21
ATOM     21  C   UNL     1       3.598  -1.465  -1.174  1.00  0.00     0.060 C 
BRANCH  21  22
ATOM     22  C   UNL     1       2.351  -2.145  -1.710  1.00  0.00    -0.004 A 
ATOM     23  C   UNL     1       1.130  -2.125  -1.018  1.00  0.00     0.122 A 
ATOM     24  C   UNL     1       0.009  -2.815  -1.497  1.00  0.00     0.047 A 
ATOM     25  C   UNL     1       0.077  -3.502  -2.706  1.00  0.00     0.004 A 
ATOM     26  C   UNL     1       2.376  -2.799  -2.954  1.00  0.00     0.007 A 
ATOM     27  C   UNL     1       1.259  -3.486  -3.439  1.00  0.00     0.001 A 
BRANCH  23  28
ATOM     28  O   UNL     1       0.994  -1.456   0.169  1.00  0.00    -0.496 OA
ATOM     29  C   UNL     1       0.609  -0.098  -0.066  1.00  0.00     0.278 C 
ENDBRANCH  23  28
ENDBRANCH  21  22
ENDBRANCH  20  21
ENDBRANCH  17  20
ENDBRANCH   9  16
ENDBRANCH   6   8
ENDBRANCH   5   6
ENDBRANCH   4   5
ENDBRANCH   3   4
ENDBRANCH   2   3
ENDBRANCH   1   2
BRANCH   1  30
ATOM     30  C   UNL     1       7.339   1.946  -1.648  1.00  0.00     0.188 C 
BRANCH  30  31
ATOM     31  O   UNL     1       7.330   3.111  -2.470  1.00  0.00    -0.376 OA
BRANCH  31  32
ATOM     32  C   UNL     1       8.126   4.237  -2.124  1.00  0.00     0.202 C 
BRANCH  32  33
ATOM     33  C   UNL     1       7.896   4.925  -0.772  1.00  0.00     0.261 C 
BRANCH  33  34
ATOM     34  O   UNL     1       7.988   4.063   0.374  1.00  0.00    -0.460 OA
BRANCH  34  35
ATOM     35  C   UNL     1       6.828   3.857   1.045  1.00  0.00     0.338 C 
ATOM     36  O   UNL     1       5.735   4.328   0.784  1.00  0.00    -0.246 OA
BRANCH  35  37
ATOM     37  C   UNL     1       7.013   2.821   2.082  1.00  0.00     0.060 A 
ATOM     38  C   UNL     1       6.237   1.657   1.990  1.00  0.00     0.016 A 
ATOM     39  C   UNL     1       7.868   3.015   3.168  1.00  0.00     0.016 A 
ATOM     40  C   UNL     1       6.284   0.700   3.003  1.00  0.00     0.010 A 
ATOM     41  C   UNL     1       7.896   2.062   4.195  1.00  0.00     0.010 A 
ATOM     42  C   UNL     1       7.079   0.919   4.134  1.00  0.00    -0.014 A 
BRANCH  42  43
ATOM     43  C   UNL     1       6.929   0.035   5.318  1.00  0.00     0.031 A 
ATOM     44  C   UNL     1       6.029   0.473   6.442  1.00  0.00     0.074 A 
ATOM     45  C   UNL     1       7.576  -1.142   5.396  1.00  0.00     0.049 A 
ATOM     46  N   UNL     1       5.768  -0.126   7.574  1.00  0.00    -0.248 NA
ATOM     47  C   UNL     1       5.333   1.758   6.265  1.00  0.00     0.031 C 
ATOM     48  C   UNL     1       8.472  -1.680   4.376  1.00  0.00     0.029 A 
ATOM     49  N   UNL     1       7.595  -2.085   6.394  1.00  0.00    -0.354 N 
ATOM     50  C   UNL     1       4.902   0.719   8.258  1.00  0.00     0.074 A 
ATOM     51  C   UNL     1       4.686   1.875   7.415  1.00  0.00     0.031 C 
ATOM     52  C   UNL     1       8.976  -2.848   4.810  1.00  0.00     0.029 A 
ATOM     53  C   UNL     1       8.460  -3.126   6.151  1.00  0.00     0.049 A 
ATOM     54  H   UNL     1       7.042  -2.022   7.206  1.00  0.00     0.167 HD
ATOM     55  C   UNL     1       4.328   0.545   9.472  1.00  0.00     0.034 A 
ATOM     56  C   UNL     1       8.814  -4.167   6.931  1.00  0.00     0.034 A 
ATOM     57  C   UNL     1       4.529  -0.608  10.307  1.00  0.00     0.049 A 
ATOM     58  C   UNL     1       8.187  -4.319   8.295  1.00  0.00     0.074 A 
ATOM     59  C   UNL     1       3.951  -0.894  11.531  1.00  0.00     0.029 A 
ATOM     60  N   UNL     1       5.386  -1.657  10.014  1.00  0.00    -0.354 N 
ATOM     61  N   UNL     1       7.273  -3.578   8.872  1.00  0.00    -0.248 NA
ATOM     62  C   UNL     1       8.624  -5.468   9.104  1.00  0.00     0.031 C 
ATOM     63  C   UNL     1       4.480  -2.105  11.991  1.00  0.00     0.029 A 
ATOM     64  C   UNL     1       5.367  -2.585  11.042  1.00  0.00     0.049 A 
ATOM     65  H   UNL     1       5.929  -1.731   9.196  1.00  0.00     0.167 HD
ATOM     66  C   UNL     1       7.004  -4.184  10.096  1.00  0.00     0.074 A 
ATOM     67  C   UNL     1       7.835  -5.368  10.166  1.00  0.00     0.031 C 
ATOM     68  C   UNL     1       6.159  -3.788  11.080  1.00  0.00     0.034 A 
BRANCH  55  69
ATOM     69  C   UNL     1       3.402   1.626   9.964  1.00  0.00     0.023 A 
ATOM     70  C   UNL     1       2.121   1.757   9.392  1.00  0.00     0.012 A 
ATOM     71  C   UNL     1       3.780   2.476  11.021  1.00  0.00     0.148 A 
ATOM     72  C   UNL     1       1.240   2.738   9.845  1.00  0.00     0.002 A 
ATOM     73  C   UNL     1       2.881   3.424  11.494  1.00  0.00     0.091 A 
ATOM     74  F   UNL     1       5.013   2.350  11.534  1.00  0.00    -0.205 F 
ATOM     75  C   UNL     1       1.616   3.564  10.901  1.00  0.00     0.022 A 
BRANCH  73  76
ATOM     76  S   UNL     1       3.245   4.486  12.897  1.00  0.00     0.127 S 
ATOM     77  O   UNL     1       3.435   5.781  12.244  1.00  0.00    -0.237 OA
ATOM     78  O   UNL     1       2.022   4.378  13.692  1.00  0.00    -0.237 OA
ATOM     79  O   UNL     1       4.431   3.923  13.528  1.00  0.00    -0.744 OA
ENDBRANCH  73  76
ENDBRANCH  55  69
BRANCH  56  80
ATOM     80  C   UNL     1       9.803  -5.167   6.438  1.00  0.00     0.023 A 
ATOM     81  C   UNL     1       9.379  -6.479   6.149  1.00  0.00     0.012 A 
ATOM     82  C   UNL     1      11.156  -4.826   6.249  1.00  0.00     0.148 A 
ATOM     83  C   UNL     1      10.290  -7.440   5.709  1.00  0.00     0.002 A 
ATOM     84  C   UNL     1      12.048  -5.772   5.759  1.00  0.00     0.091 A 
ATOM     85  F   UNL     1      11.544  -3.579   6.551  1.00  0.00    -0.205 F 
ATOM     86  C   UNL     1      11.621  -7.085   5.503  1.00  0.00     0.022 A 
BRANCH  84  87
ATOM     87  S   UNL     1      13.750  -5.370   5.351  1.00  0.00     0.127 S 
ATOM     88  O   UNL     1      14.483  -6.066   6.405  1.00  0.00    -0.237 OA
ATOM     89  O   UNL     1      13.886  -5.955   4.016  1.00  0.00    -0.237 OA
ATOM     90  O   UNL     1      13.826  -3.916   5.379  1.00  0.00    -0.744 OA
ENDBRANCH  84  87
ENDBRANCH  56  80
BRANCH  68  91
ATOM     91  C   UNL     1       6.061  -4.648  12.314  1.00  0.00     0.023 A 
ATOM     92  C   UNL     1       7.118  -4.656  13.246  1.00  0.00     0.012 A 
ATOM     93  C   UNL     1       4.889  -5.381  12.593  1.00  0.00     0.148 A 
ATOM     94  C   UNL     1       7.023  -5.402  14.421  1.00  0.00     0.002 A 
ATOM     95  C   UNL     1       4.783  -6.084  13.787  1.00  0.00     0.091 A 
ATOM     96  F   UNL     1       3.901  -5.375  11.687  1.00  0.00    -0.205 F 
ATOM     97  C   UNL     1       5.852  -6.105  14.697  1.00  0.00     0.022 A 
BRANCH  95  98
ATOM     98  S   UNL     1       3.279  -6.940  14.271  1.00  0.00     0.127 S 
ATOM     99  O   UNL     1       3.665  -8.340  14.104  1.00  0.00    -0.237 OA
ATOM    100  O   UNL     1       3.112  -6.516  15.662  1.00  0.00    -0.237 OA
ATOM    101  O   UNL     1       2.239  -6.466  13.367  1.00  0.00    -0.744 OA
ENDBRANCH  95  98
ENDBRANCH  68  91
ENDBRANCH  42  43
ENDBRANCH  35  37
ENDBRANCH  34  35
ENDBRANCH  33  34
ENDBRANCH  32  33
ENDBRANCH  31  32
ENDBRANCH  30  31
ENDBRANCH   1  30
TORSDOF 25
