REMARK SMILES C[C@@H]1CC[C@@]1(SC1CCCCC1)C(=O)OCCOCCOCCOC(=O)c1ccc(-c2c3nc(c(-c4cccc(S(=O)(=O)[O-])c4F)c4ccc([nH]4)c(-c4cccc(S(=O)(=O)[O-])c4F)c4nc(c(-c5cccc(S(=O)(=O)[O-])c5F)c5ccc2[nH]5)C=C4)C=C3)cc1
REMARK SMILES IDX 20 1 19 2 18 3 17 4 16 5 15 6 13 7 14 8 5 9 1 10 2 11 3 12
REMARK SMILES IDX 4 13 6 14 7 15 8 16 12 17 9 18 11 19 10 20 21 21 22 22 23 23
REMARK SMILES IDX 24 24 25 25 26 26 27 27 28 28 89 29 29 30 88 31 30 32 31 33
REMARK SMILES IDX 32 34 82 35 33 36 87 37 81 38 83 39 34 40 86 41 80 42 79 43
REMARK SMILES IDX 35 45 67 46 47 47 66 48 48 49 51 50 65 51 84 52 49 53 50 54
REMARK SMILES IDX 64 56 85 57 52 58 36 59 37 60 45 61 38 62 40 63 46 64 39 65
REMARK SMILES IDX 41 66 42 67 43 68 44 69 68 70 69 71 77 72 70 73 72 74 78 75
REMARK SMILES IDX 71 76 73 77 74 78 75 79 76 80 53 81 54 82 62 83 55 84 57 85
REMARK SMILES IDX 63 86 56 87 58 88 59 89 60 90 61 91
REMARK H PARENT 83 44 51 55
REMARK Flexibility Score: inf
ROOT
ATOM      1  C   UNL     1      -1.732   1.236  -2.164  1.00  0.00     0.188 C 
ENDROOT
BRANCH   1   2
ATOM      2  C   UNL     1      -2.217   2.494  -1.414  1.00  0.00     0.188 C 
BRANCH   2   3
ATOM      3  O   UNL     1      -2.169   3.689  -2.149  1.00  0.00    -0.376 OA
BRANCH   3   4
ATOM      4  C   UNL     1      -0.984   4.437  -2.287  1.00  0.00     0.202 C 
BRANCH   4   5
ATOM      5  C   UNL     1       0.430   3.976  -1.904  1.00  0.00     0.261 C 
BRANCH   5   6
ATOM      6  O   UNL     1       0.622   2.704  -1.286  1.00  0.00    -0.462 OA
BRANCH   6   7
ATOM      7  C   UNL     1       0.556   2.661   0.084  1.00  0.00     0.322 C 
ATOM      8  O   UNL     1       0.153   3.622   0.736  1.00  0.00    -0.251 OA
BRANCH   7   9
ATOM      9  C   UNL     1       1.069   1.271   0.657  1.00  0.00     0.116 C 
ATOM     10  C   UNL     1      -0.623   0.019   2.442  1.00  0.00     0.010 C 
ATOM     11  C   UNL     1      -0.104   0.267   1.037  1.00  0.00     0.013 C 
ATOM     12  C   UNL     1       0.717  -0.885   0.434  1.00  0.00     0.007 C 
ATOM     13  C   UNL     1       1.579   0.147  -0.306  1.00  0.00     0.030 C 
BRANCH   9  14
ATOM     14  S   UNL     1       2.254   1.522   2.076  1.00  0.00    -0.140 SA
BRANCH  14  15
ATOM     15  C   UNL     1       3.638   2.496   1.364  1.00  0.00     0.048 C 
ATOM     16  C   UNL     1       4.642   1.584   0.652  1.00  0.00     0.014 C 
ATOM     17  C   UNL     1       3.291   3.707   0.493  1.00  0.00     0.014 C 
ATOM     18  C   UNL     1       5.883   2.360   0.216  1.00  0.00     0.001 C 
ATOM     19  C   UNL     1       4.530   4.472   0.032  1.00  0.00     0.001 C 
ATOM     20  C   UNL     1       5.509   3.540  -0.675  1.00  0.00     0.000 C 
ENDBRANCH  14  15
ENDBRANCH   9  14
ENDBRANCH   7   9
ENDBRANCH   6   7
ENDBRANCH   5   6
ENDBRANCH   4   5
ENDBRANCH   3   4
ENDBRANCH   2   3
ENDBRANCH   1   2
BRANCH   1  21
ATOM     21  O   UNL     1      -1.575   1.270  -3.574  1.00  0.00    -0.376 OA
BRANCH  21  22
ATOM     22  C   UNL     1      -2.602   1.870  -4.348  1.00  0.00     0.202 C 
BRANCH  22  23
ATOM     23  C   UNL     1      -4.047   1.370  -4.183  1.00  0.00     0.261 C 
BRANCH  23  24
ATOM     24  O   UNL     1      -4.574   1.423  -2.842  1.00  0.00    -0.460 OA
BRANCH  24  25
ATOM     25  C   UNL     1      -4.830   0.233  -2.244  1.00  0.00     0.338 C 
ATOM     26  O   UNL     1      -4.686  -0.879  -2.741  1.00  0.00    -0.246 OA
BRANCH  25  27
ATOM     27  C   UNL     1      -5.128   0.422  -0.805  1.00  0.00     0.060 A 
ATOM     28  C   UNL     1      -4.247  -0.121   0.143  1.00  0.00     0.016 A 
ATOM     29  C   UNL     1      -6.287   1.073  -0.382  1.00  0.00     0.016 A 
ATOM     30  C   UNL     1      -4.523  -0.021   1.510  1.00  0.00     0.010 A 
ATOM     31  C   UNL     1      -6.576   1.147   0.989  1.00  0.00     0.010 A 
ATOM     32  C   UNL     1      -5.707   0.585   1.944  1.00  0.00    -0.014 A 
BRANCH  32  33
ATOM     33  C   UNL     1      -6.102   0.509   3.377  1.00  0.00     0.031 A 
ATOM     34  C   UNL     1      -7.129  -0.506   3.801  1.00  0.00     0.074 A 
ATOM     35  C   UNL     1      -5.566   1.331   4.298  1.00  0.00     0.049 A 
ATOM     36  N   UNL     1      -7.692  -0.681   4.968  1.00  0.00    -0.248 NA
ATOM     37  C   UNL     1      -7.579  -1.452   2.768  1.00  0.00     0.031 C 
ATOM     38  C   UNL     1      -4.535   2.332   4.040  1.00  0.00     0.029 A 
ATOM     39  N   UNL     1      -5.848   1.474   5.638  1.00  0.00    -0.354 N 
ATOM     40  C   UNL     1      -8.598  -1.721   4.801  1.00  0.00     0.074 A 
ATOM     41  C   UNL     1      -8.498  -2.147   3.421  1.00  0.00     0.031 C 
ATOM     42  C   UNL     1      -4.301   3.018   5.172  1.00  0.00     0.029 A 
ATOM     43  C   UNL     1      -5.196   2.534   6.223  1.00  0.00     0.049 A 
ATOM     44  H   UNL     1      -6.457   0.875   6.128  1.00  0.00     0.167 HD
ATOM     45  C   UNL     1      -9.438  -2.273   5.710  1.00  0.00     0.034 A 
ATOM     46  C   UNL     1      -5.336   3.084   7.448  1.00  0.00     0.034 A 
ATOM     47  C   UNL     1      -9.529  -1.864   7.087  1.00  0.00     0.049 A 
ATOM     48  C   UNL     1      -6.313   2.485   8.429  1.00  0.00     0.074 A 
ATOM     49  C   UNL     1     -10.315  -2.402   8.091  1.00  0.00     0.029 A 
ATOM     50  N   UNL     1      -8.837  -0.803   7.648  1.00  0.00    -0.354 N 
ATOM     51  N   UNL     1      -7.089   1.438   8.290  1.00  0.00    -0.248 NA
ATOM     52  C   UNL     1      -6.416   3.132   9.748  1.00  0.00     0.031 C 
ATOM     53  C   UNL     1     -10.134  -1.636   9.247  1.00  0.00     0.029 A 
ATOM     54  C   UNL     1      -9.200  -0.650   8.977  1.00  0.00     0.049 A 
ATOM     55  H   UNL     1      -8.183  -0.241   7.173  1.00  0.00     0.167 HD
ATOM     56  C   UNL     1      -7.753   1.287   9.504  1.00  0.00     0.074 A 
ATOM     57  C   UNL     1      -7.268   2.334  10.378  1.00  0.00     0.031 C 
ATOM     58  C   UNL     1      -8.689   0.371   9.857  1.00  0.00     0.034 A 
BRANCH  45  59
ATOM     59  C   UNL     1     -10.349  -3.375   5.237  1.00  0.00     0.023 A 
ATOM     60  C   UNL     1      -9.827  -4.650   4.941  1.00  0.00     0.012 A 
ATOM     61  C   UNL     1     -11.736  -3.153   5.127  1.00  0.00     0.148 A 
ATOM     62  C   UNL     1     -10.666  -5.676   4.506  1.00  0.00     0.002 A 
ATOM     63  C   UNL     1     -12.572  -4.193   4.740  1.00  0.00     0.091 A 
ATOM     64  F   UNL     1     -12.211  -1.928   5.393  1.00  0.00    -0.205 F 
ATOM     65  C   UNL     1     -12.037  -5.451   4.415  1.00  0.00     0.022 A 
BRANCH  63  66
ATOM     66  S   UNL     1     -14.358  -4.024   4.670  1.00  0.00     0.127 S 
ATOM     67  O   UNL     1     -14.601  -4.054   3.229  1.00  0.00    -0.237 OA
ATOM     68  O   UNL     1     -14.808  -5.216   5.390  1.00  0.00    -0.237 OA
ATOM     69  O   UNL     1     -14.669  -2.763   5.330  1.00  0.00    -0.744 OA
ENDBRANCH  63  66
ENDBRANCH  45  59
BRANCH  46  70
ATOM     70  C   UNL     1      -4.542   4.293   7.812  1.00  0.00     0.023 A 
ATOM     71  C   UNL     1      -3.538   4.206   8.796  1.00  0.00     0.012 A 
ATOM     72  C   UNL     1      -4.773   5.528   7.175  1.00  0.00     0.148 A 
ATOM     73  C   UNL     1      -2.796   5.332   9.155  1.00  0.00     0.002 A 
ATOM     74  C   UNL     1      -3.991   6.631   7.494  1.00  0.00     0.091 A 
ATOM     75  F   UNL     1      -5.750   5.596   6.259  1.00  0.00    -0.205 F 
ATOM     76  C   UNL     1      -3.014   6.540   8.496  1.00  0.00     0.022 A 
BRANCH  74  77
ATOM     77  S   UNL     1      -4.119   8.193   6.616  1.00  0.00     0.127 S 
ATOM     78  O   UNL     1      -4.628   9.082   7.658  1.00  0.00    -0.237 OA
ATOM     79  O   UNL     1      -2.728   8.432   6.228  1.00  0.00    -0.237 OA
ATOM     80  O   UNL     1      -5.024   7.949   5.501  1.00  0.00    -0.744 OA
ENDBRANCH  74  77
ENDBRANCH  46  70
BRANCH  58  81
ATOM     81  C   UNL     1      -9.245   0.429  11.260  1.00  0.00     0.023 A 
ATOM     82  C   UNL     1     -10.114   1.475  11.630  1.00  0.00     0.012 A 
ATOM     83  C   UNL     1      -8.969  -0.596  12.187  1.00  0.00     0.148 A 
ATOM     84  C   UNL     1     -10.673   1.518  12.908  1.00  0.00     0.002 A 
ATOM     85  C   UNL     1      -9.569  -0.575  13.441  1.00  0.00     0.091 A 
ATOM     86  F   UNL     1      -8.130  -1.577  11.824  1.00  0.00    -0.205 F 
ATOM     87  C   UNL     1     -10.410   0.488  13.808  1.00  0.00     0.022 A 
BRANCH  85  88
ATOM     88  S   UNL     1      -9.369  -1.905  14.633  1.00  0.00     0.127 S 
ATOM     89  O   UNL     1      -8.573  -1.255  15.674  1.00  0.00    -0.237 OA
ATOM     90  O   UNL     1     -10.753  -2.191  15.014  1.00  0.00    -0.237 OA
ATOM     91  O   UNL     1      -8.700  -2.987  13.924  1.00  0.00    -0.744 OA
ENDBRANCH  85  88
ENDBRANCH  58  81
ENDBRANCH  32  33
ENDBRANCH  25  27
ENDBRANCH  24  25
ENDBRANCH  23  24
ENDBRANCH  22  23
ENDBRANCH  21  22
ENDBRANCH   1  21
TORSDOF 22
