REMARK SMILES Cc1c(Br)c(C)c2c(c1Br)O[C@H](C(F)(F)F)C(C(=O)OCCOCCOCCOC(=O)c1ccc(-c3c4nc(c(-c5cccc(S(=O)(=O)[O-])c5F)c5ccc([nH]5)c(-c5cccc(S(=O)(=O)[O-])c5F)c5nc(c(-c6cccc(S(=O)(=O)[O-])c6F)c6ccc3[nH]6)C=C5)C=C4)cc1)=C2
REMARK SMILES IDX 25 1 24 2 23 3 22 4 21 5 20 6 18 7 19 8 17 9 1 10 2 11 3 12
REMARK SMILES IDX 9 13 4 14 5 15 8 16 10 17 6 18 7 19 11 20 95 21 12 22 13 23
REMARK SMILES IDX 14 24 15 25 16 26 26 27 27 28 28 29 29 30 30 31 31 32 32 33
REMARK SMILES IDX 33 34 94 35 34 36 93 37 35 38 36 39 37 40 87 41 38 42 92 43
REMARK SMILES IDX 86 44 88 45 39 46 91 47 85 48 84 49 40 51 72 52 52 53 71 54
REMARK SMILES IDX 53 55 56 56 70 57 89 58 54 59 55 60 69 62 90 63 57 64 41 65
REMARK SMILES IDX 42 66 50 67 43 68 45 69 51 70 44 71 46 72 47 73 48 74 49 75
REMARK SMILES IDX 73 76 74 77 82 78 75 79 77 80 83 81 76 82 78 83 79 84 80 85
REMARK SMILES IDX 81 86 58 87 59 88 67 89 60 90 62 91 68 92 61 93 63 94 64 95
REMARK SMILES IDX 65 96 66 97
REMARK H PARENT 88 50 56 61
REMARK Flexibility Score: inf
ROOT
ATOM      1  C   UNL     1       0.586   4.597   7.128  1.00  0.00     0.188 C 
ENDROOT
BRANCH   1   2
ATOM      2  C   UNL     1       0.227   6.034   6.693  1.00  0.00     0.188 C 
BRANCH   2   3
ATOM      3  O   UNL     1      -0.459   6.900   7.573  1.00  0.00    -0.376 OA
BRANCH   3   4
ATOM      4  C   UNL     1      -1.742   6.575   8.077  1.00  0.00     0.202 C 
BRANCH   4   5
ATOM      5  C   UNL     1      -2.805   5.863   7.235  1.00  0.00     0.261 C 
BRANCH   5   6
ATOM      6  O   UNL     1      -2.317   4.758   6.467  1.00  0.00    -0.460 OA
BRANCH   6   7
ATOM      7  C   UNL     1      -2.517   4.861   5.132  1.00  0.00     0.338 C 
ATOM      8  O   UNL     1      -3.116   5.747   4.544  1.00  0.00    -0.246 OA
BRANCH   7   9
ATOM      9  C   UNL     1      -1.807   3.770   4.443  1.00  0.00     0.087 C 
ATOM     10  C   UNL     1       1.055  -0.155   0.081  1.00  0.00     0.047 C 
ATOM     11  C   UNL     1       0.601   0.949   1.009  1.00  0.00    -0.019 A 
ATOM     12  C   UNL     1       0.891   2.302   0.693  1.00  0.00     0.025 A 
ATOM     13  C   UNL     1      -0.111   0.683   2.195  1.00  0.00     0.064 A 
ATOM     14  Br  UNL     1       1.910   2.675  -0.892  1.00  0.00    -0.050 Br
ATOM     15  C   UNL     1       0.435   3.369   1.506  1.00  0.00    -0.026 A 
ATOM     16  C   UNL     1      -0.603   1.732   2.994  1.00  0.00     0.142 A 
ATOM     17  Br  UNL     1      -0.465  -1.114   2.764  1.00  0.00    -0.046 Br
ATOM     18  C   UNL     1       0.766   4.816   1.202  1.00  0.00     0.046 C 
ATOM     19  C   UNL     1      -0.372   3.067   2.631  1.00  0.00     0.022 A 
ATOM     20  O   UNL     1      -1.296   1.373   4.122  1.00  0.00    -0.474 OA
ATOM     21  C   UNL     1      -1.032   4.117   3.409  1.00  0.00     0.027 C 
ATOM     22  C   UNL     1      -1.996   2.363   4.910  1.00  0.00     0.316 C 
BRANCH  22  23
ATOM     23  C   UNL     1      -3.475   1.960   4.993  1.00  0.00     0.430 C 
ATOM     24  F   UNL     1      -3.612   0.672   5.394  1.00  0.00    -0.167 F 
ATOM     25  F   UNL     1      -4.154   2.713   5.891  1.00  0.00    -0.167 F 
ATOM     26  F   UNL     1      -4.106   2.081   3.803  1.00  0.00    -0.167 F 
ENDBRANCH  22  23
ENDBRANCH   7   9
ENDBRANCH   6   7
ENDBRANCH   5   6
ENDBRANCH   4   5
ENDBRANCH   3   4
ENDBRANCH   2   3
ENDBRANCH   1   2
BRANCH   1  27
ATOM     27  O   UNL     1       0.309   4.131   8.433  1.00  0.00    -0.376 OA
BRANCH  27  28
ATOM     28  C   UNL     1       0.813   4.834   9.558  1.00  0.00     0.202 C 
BRANCH  28  29
ATOM     29  C   UNL     1       2.248   5.372   9.624  1.00  0.00     0.261 C 
BRANCH  29  30
ATOM     30  O   UNL     1       2.722   6.013   8.437  1.00  0.00    -0.460 OA
BRANCH  30  31
ATOM     31  C   UNL     1       3.729   5.363   7.803  1.00  0.00     0.338 C 
ATOM     32  O   UNL     1       4.263   4.320   8.140  1.00  0.00    -0.246 OA
BRANCH  31  33
ATOM     33  C   UNL     1       3.974   6.001   6.497  1.00  0.00     0.060 A 
ATOM     34  C   UNL     1       3.788   5.228   5.343  1.00  0.00     0.016 A 
ATOM     35  C   UNL     1       4.425   7.318   6.410  1.00  0.00     0.016 A 
ATOM     36  C   UNL     1       4.084   5.763   4.092  1.00  0.00     0.010 A 
ATOM     37  C   UNL     1       4.749   7.844   5.157  1.00  0.00     0.010 A 
ATOM     38  C   UNL     1       4.612   7.056   3.999  1.00  0.00    -0.014 A 
BRANCH  38  39
ATOM     39  C   UNL     1       5.216   7.502   2.724  1.00  0.00     0.031 A 
ATOM     40  C   UNL     1       6.685   7.260   2.510  1.00  0.00     0.074 A 
ATOM     41  C   UNL     1       4.479   8.098   1.771  1.00  0.00     0.049 A 
ATOM     42  N   UNL     1       7.437   7.582   1.492  1.00  0.00    -0.248 NA
ATOM     43  C   UNL     1       7.399   6.553   3.588  1.00  0.00     0.031 C 
ATOM     44  C   UNL     1       3.044   8.362   1.852  1.00  0.00     0.029 A 
ATOM     45  N   UNL     1       4.849   8.606   0.551  1.00  0.00    -0.354 N 
ATOM     46  C   UNL     1       8.712   7.131   1.808  1.00  0.00     0.074 A 
ATOM     47  C   UNL     1       8.638   6.523   3.118  1.00  0.00     0.031 C 
ATOM     48  C   UNL     1       2.659   9.009   0.738  1.00  0.00     0.029 A 
ATOM     49  C   UNL     1       3.823   9.227  -0.121  1.00  0.00     0.049 A 
ATOM     50  H   UNL     1       5.763   8.534   0.192  1.00  0.00     0.167 HD
ATOM     51  C   UNL     1       9.842   7.200   1.068  1.00  0.00     0.034 A 
ATOM     52  C   UNL     1       3.832   9.909  -1.284  1.00  0.00     0.034 A 
ATOM     53  C   UNL     1       9.917   7.804  -0.233  1.00  0.00     0.049 A 
ATOM     54  C   UNL     1       5.120  10.030  -2.060  1.00  0.00     0.074 A 
ATOM     55  C   UNL     1      11.016   7.910  -1.067  1.00  0.00     0.029 A 
ATOM     56  N   UNL     1       8.858   8.414  -0.885  1.00  0.00    -0.354 N 
ATOM     57  N   UNL     1       6.296   9.512  -1.797  1.00  0.00    -0.248 NA
ATOM     58  C   UNL     1       5.077  10.810  -3.307  1.00  0.00     0.031 C 
ATOM     59  C   UNL     1      10.626   8.607  -2.214  1.00  0.00     0.029 A 
ATOM     60  C   UNL     1       9.278   8.912  -2.106  1.00  0.00     0.049 A 
ATOM     61  H   UNL     1       7.941   8.483  -0.532  1.00  0.00     0.167 HD
ATOM     62  C   UNL     1       7.123   9.879  -2.855  1.00  0.00     0.074 A 
ATOM     63  C   UNL     1       6.306  10.641  -3.777  1.00  0.00     0.031 C 
ATOM     64  C   UNL     1       8.444   9.626  -3.039  1.00  0.00     0.034 A 
BRANCH  51  65
ATOM     65  C   UNL     1      11.088   6.577   1.635  1.00  0.00     0.023 A 
ATOM     66  C   UNL     1      11.213   5.173   1.648  1.00  0.00     0.012 A 
ATOM     67  C   UNL     1      12.158   7.373   2.084  1.00  0.00     0.148 A 
ATOM     68  C   UNL     1      12.378   4.570   2.117  1.00  0.00     0.002 A 
ATOM     69  C   UNL     1      13.332   6.766   2.512  1.00  0.00     0.091 A 
ATOM     70  F   UNL     1      12.005   8.705   2.087  1.00  0.00    -0.205 F 
ATOM     71  C   UNL     1      13.441   5.366   2.537  1.00  0.00     0.022 A 
BRANCH  69  72
ATOM     72  S   UNL     1      14.786   7.701   3.002  1.00  0.00     0.127 S 
ATOM     73  O   UNL     1      14.852   7.413   4.434  1.00  0.00    -0.237 OA
ATOM     74  O   UNL     1      15.838   7.072   2.203  1.00  0.00    -0.237 OA
ATOM     75  O   UNL     1      14.507   9.088   2.659  1.00  0.00    -0.744 OA
ENDBRANCH  69  72
ENDBRANCH  51  65
BRANCH  52  76
ATOM     76  C   UNL     1       2.568  10.502  -1.809  1.00  0.00     0.023 A 
ATOM     77  C   UNL     1       1.988   9.971  -2.977  1.00  0.00     0.012 A 
ATOM     78  C   UNL     1       1.929  11.571  -1.150  1.00  0.00     0.148 A 
ATOM     79  C   UNL     1       0.807  10.507  -3.492  1.00  0.00     0.002 A 
ATOM     80  C   UNL     1       0.723  12.062  -1.637  1.00  0.00     0.091 A 
ATOM     81  F   UNL     1       2.508  12.077  -0.052  1.00  0.00    -0.205 F 
ATOM     82  C   UNL     1       0.169  11.543  -2.816  1.00  0.00     0.022 A 
BRANCH  80  83
ATOM     83  S   UNL     1      -0.236  13.306  -0.763  1.00  0.00     0.127 S 
ATOM     84  O   UNL     1      -0.129  14.452  -1.662  1.00  0.00    -0.237 OA
ATOM     85  O   UNL     1      -1.558  12.682  -0.713  1.00  0.00    -0.237 OA
ATOM     86  O   UNL     1       0.407  13.459   0.534  1.00  0.00    -0.744 OA
ENDBRANCH  80  83
ENDBRANCH  52  76
BRANCH  64  87
ATOM     87  C   UNL     1       9.104  10.163  -4.284  1.00  0.00     0.023 A 
ATOM     88  C   UNL     1       9.358  11.544  -4.395  1.00  0.00     0.012 A 
ATOM     89  C   UNL     1       9.570   9.292  -5.290  1.00  0.00     0.148 A 
ATOM     90  C   UNL     1      10.043  12.053  -5.498  1.00  0.00     0.002 A 
ATOM     91  C   UNL     1      10.296   9.801  -6.362  1.00  0.00     0.091 A 
ATOM     92  F   UNL     1       9.306   7.982  -5.177  1.00  0.00    -0.205 F 
ATOM     93  C   UNL     1      10.523  11.182  -6.473  1.00  0.00     0.022 A 
BRANCH  91  94
ATOM     94  S   UNL     1      11.044   8.743  -7.607  1.00  0.00     0.127 S 
ATOM     95  O   UNL     1      10.169   8.970  -8.756  1.00  0.00    -0.237 OA
ATOM     96  O   UNL     1      12.384   9.317  -7.739  1.00  0.00    -0.237 OA
ATOM     97  O   UNL     1      11.018   7.396  -7.055  1.00  0.00    -0.744 OA
ENDBRANCH  91  94
ENDBRANCH  64  87
ENDBRANCH  38  39
ENDBRANCH  31  33
ENDBRANCH  30  31
ENDBRANCH  29  30
ENDBRANCH  28  29
ENDBRANCH  27  28
ENDBRANCH   1  27
TORSDOF 21
