REMARK SMILES C[C@@H]1C[C@@]([NH2+]Cc2cccs2)(C(=O)OCCOCCOCCOC(=O)c2ccc(-c3c4nc(c(-c5cccc(S(=O)(=O)[O-])c5F)c5ccc([nH]5)c(-c5cccc(S(=O)(=O)[O-])c5F)c5nc(c(-c6cccc(S(=O)(=O)[O-])c6F)c6ccc3[nH]6)C=C5)C=C4)cc2)CS1
REMARK SMILES IDX 18 1 17 2 16 3 15 4 14 5 12 6 13 7 4 8 1 9 2 10 3 11 90 12
REMARK SMILES IDX 89 13 5 14 6 17 7 18 8 19 11 20 9 21 10 22 19 23 20 24 21 25
REMARK SMILES IDX 22 26 23 27 24 28 25 29 26 30 27 31 88 32 28 33 87 34 29 35
REMARK SMILES IDX 30 36 31 37 81 38 32 39 86 40 80 41 82 42 33 43 85 44 79 45
REMARK SMILES IDX 78 46 34 48 66 49 46 50 65 51 47 52 50 53 64 54 83 55 48 56
REMARK SMILES IDX 49 57 63 59 84 60 51 61 35 62 36 63 44 64 37 65 39 66 45 67
REMARK SMILES IDX 38 68 40 69 41 70 42 71 43 72 67 73 68 74 76 75 69 76 71 77
REMARK SMILES IDX 77 78 70 79 72 80 73 81 74 82 75 83 52 84 53 85 61 86 54 87
REMARK SMILES IDX 56 88 62 89 55 90 57 91 58 92 59 93 60 94
REMARK H PARENT 5 15 5 16 82 47 50 58
REMARK Flexibility Score: inf
ROOT
ATOM      1  C   UNL     1      -2.665   4.317   1.873  1.00  0.00     0.188 C 
ENDROOT
BRANCH   1   2
ATOM      2  O   UNL     1      -3.189   5.612   1.616  1.00  0.00    -0.376 OA
BRANCH   2   3
ATOM      3  C   UNL     1      -2.826   6.301   0.428  1.00  0.00     0.202 C 
BRANCH   3   4
ATOM      4  C   UNL     1      -1.340   6.508   0.084  1.00  0.00     0.261 C 
BRANCH   4   5
ATOM      5  O   UNL     1      -0.530   5.316  -0.040  1.00  0.00    -0.459 OA
BRANCH   5   6
ATOM      6  C   UNL     1       0.487   5.202   0.859  1.00  0.00     0.369 C 
ATOM      7  O   UNL     1       0.686   6.046   1.730  1.00  0.00    -0.245 OA
BRANCH   6   8
ATOM      8  C   UNL     1       1.332   3.889   0.769  1.00  0.00     0.204 C 
ATOM      9  C   UNL     1       1.243   0.256  -0.529  1.00  0.00     0.019 C 
ATOM     10  C   UNL     1       0.727   1.424   0.295  1.00  0.00     0.050 C 
ATOM     11  C   UNL     1       0.943   2.824  -0.326  1.00  0.00     0.096 C 
ATOM     12  S   UNL     1       1.569   1.474   1.884  1.00  0.00    -0.151 SA
ATOM     13  C   UNL     1       1.100   3.189   2.133  1.00  0.00     0.150 C 
BRANCH   8  14
ATOM     14  N   UNL     1       2.771   4.187   0.444  1.00  0.00    -0.327 N 
ATOM     15  H   UNL     1       2.820   4.362  -0.559  1.00  0.00     0.347 HD
ATOM     16  H   UNL     1       3.272   3.370   0.792  1.00  0.00     0.347 HD
BRANCH  14  17
ATOM     17  C   UNL     1       3.438   5.314   1.109  1.00  0.00     0.309 C 
BRANCH  17  18
ATOM     18  C   UNL     1       3.682   5.096   2.568  1.00  0.00     0.059 A 
ATOM     19  C   UNL     1       3.211   5.842   3.632  1.00  0.00     0.021 A 
ATOM     20  S   UNL     1       4.630   3.769   3.110  1.00  0.00    -0.143 S 
ATOM     21  C   UNL     1       3.489   5.228   4.886  1.00  0.00     0.012 A 
ATOM     22  C   UNL     1       4.208   4.063   4.740  1.00  0.00     0.065 A 
ENDBRANCH  17  18
ENDBRANCH  14  17
ENDBRANCH   8  14
ENDBRANCH   6   8
ENDBRANCH   5   6
ENDBRANCH   4   5
ENDBRANCH   3   4
ENDBRANCH   2   3
ENDBRANCH   1   2
BRANCH   1  23
ATOM     23  C   UNL     1      -2.513   3.338   0.701  1.00  0.00     0.188 C 
BRANCH  23  24
ATOM     24  O   UNL     1      -3.162   3.728  -0.484  1.00  0.00    -0.376 OA
BRANCH  24  25
ATOM     25  C   UNL     1      -4.395   3.130  -0.830  1.00  0.00     0.202 C 
BRANCH  25  26
ATOM     26  C   UNL     1      -5.465   2.803   0.227  1.00  0.00     0.261 C 
BRANCH  26  27
ATOM     27  O   UNL     1      -5.019   2.301   1.495  1.00  0.00    -0.460 OA
BRANCH  27  28
ATOM     28  C   UNL     1      -4.598   1.014   1.538  1.00  0.00     0.338 C 
ATOM     29  O   UNL     1      -4.551   0.236   0.605  1.00  0.00    -0.246 OA
BRANCH  28  30
ATOM     30  C   UNL     1      -3.980   0.783   2.868  1.00  0.00     0.060 A 
ATOM     31  C   UNL     1      -2.649   0.348   2.921  1.00  0.00     0.016 A 
ATOM     32  C   UNL     1      -4.699   0.990   4.049  1.00  0.00     0.016 A 
ATOM     33  C   UNL     1      -2.049   0.072   4.151  1.00  0.00     0.010 A 
ATOM     34  C   UNL     1      -4.102   0.693   5.280  1.00  0.00     0.010 A 
ATOM     35  C   UNL     1      -2.788   0.192   5.335  1.00  0.00    -0.014 A 
BRANCH  35  36
ATOM     36  C   UNL     1      -2.250  -0.391   6.592  1.00  0.00     0.031 A 
ATOM     37  C   UNL     1      -2.732  -1.754   7.018  1.00  0.00     0.074 A 
ATOM     38  C   UNL     1      -1.331   0.255   7.332  1.00  0.00     0.049 A 
ATOM     39  N   UNL     1      -2.392  -2.467   8.060  1.00  0.00    -0.248 NA
ATOM     40  C   UNL     1      -3.734  -2.397   6.151  1.00  0.00     0.031 C 
ATOM     41  C   UNL     1      -0.776   1.573   7.035  1.00  0.00     0.029 A 
ATOM     42  N   UNL     1      -0.714  -0.115   8.503  1.00  0.00    -0.354 N 
ATOM     43  C   UNL     1      -3.153  -3.628   7.989  1.00  0.00     0.074 A 
ATOM     44  C   UNL     1      -3.985  -3.518   6.811  1.00  0.00     0.031 C 
ATOM     45  C   UNL     1       0.083   1.915   8.012  1.00  0.00     0.029 A 
ATOM     46  C   UNL     1       0.126   0.848   9.012  1.00  0.00     0.049 A 
ATOM     47  H   UNL     1      -0.860  -0.986   8.937  1.00  0.00     0.167 HD
ATOM     48  C   UNL     1      -3.151  -4.700   8.817  1.00  0.00     0.034 A 
ATOM     49  C   UNL     1       0.836   0.870  10.158  1.00  0.00     0.034 A 
ATOM     50  C   UNL     1      -2.312  -4.825   9.979  1.00  0.00     0.049 A 
ATOM     51  C   UNL     1       0.813  -0.332  11.069  1.00  0.00     0.074 A 
ATOM     52  C   UNL     1      -2.207  -5.894  10.852  1.00  0.00     0.029 A 
ATOM     53  N   UNL     1      -1.444  -3.848  10.438  1.00  0.00    -0.354 N 
ATOM     54  N   UNL     1       0.181  -1.471  10.924  1.00  0.00    -0.248 NA
ATOM     55  C   UNL     1       1.637  -0.258  12.286  1.00  0.00     0.031 C 
ATOM     56  C   UNL     1      -1.297  -5.549  11.858  1.00  0.00     0.029 A 
ATOM     57  C   UNL     1      -0.808  -4.282  11.590  1.00  0.00     0.049 A 
ATOM     58  H   UNL     1      -1.300  -2.974  10.009  1.00  0.00     0.167 HD
ATOM     59  C   UNL     1       0.560  -2.262  12.005  1.00  0.00     0.074 A 
ATOM     60  C   UNL     1       1.497  -1.479  12.784  1.00  0.00     0.031 C 
ATOM     61  C   UNL     1       0.160  -3.516  12.332  1.00  0.00     0.034 A 
BRANCH  48  62
ATOM     62  C   UNL     1      -4.079  -5.838   8.485  1.00  0.00     0.023 A 
ATOM     63  C   UNL     1      -3.796  -6.676   7.386  1.00  0.00     0.012 A 
ATOM     64  C   UNL     1      -5.203  -6.109   9.289  1.00  0.00     0.148 A 
ATOM     65  C   UNL     1      -4.635  -7.745   7.075  1.00  0.00     0.002 A 
ATOM     66  C   UNL     1      -6.008  -7.204   9.000  1.00  0.00     0.091 A 
ATOM     67  F   UNL     1      -5.469  -5.286  10.314  1.00  0.00    -0.205 F 
ATOM     68  C   UNL     1      -5.733  -8.015   7.887  1.00  0.00     0.022 A 
BRANCH  66  69
ATOM     69  S   UNL     1      -7.399  -7.681  10.031  1.00  0.00     0.127 S 
ATOM     70  O   UNL     1      -8.533  -7.357   9.166  1.00  0.00    -0.237 OA
ATOM     71  O   UNL     1      -7.165  -9.114  10.218  1.00  0.00    -0.237 OA
ATOM     72  O   UNL     1      -7.292  -6.885  11.245  1.00  0.00    -0.744 OA
ENDBRANCH  66  69
ENDBRANCH  48  62
BRANCH  49  73
ATOM     73  C   UNL     1       1.663   2.062  10.502  1.00  0.00     0.023 A 
ATOM     74  C   UNL     1       3.068   1.962  10.510  1.00  0.00     0.012 A 
ATOM     75  C   UNL     1       1.062   3.294  10.825  1.00  0.00     0.148 A 
ATOM     76  C   UNL     1       3.858   3.054  10.870  1.00  0.00     0.002 A 
ATOM     77  C   UNL     1       1.855   4.394  11.126  1.00  0.00     0.091 A 
ATOM     78  F   UNL     1      -0.277   3.365  10.831  1.00  0.00    -0.205 F 
ATOM     79  C   UNL     1       3.253   4.272  11.168  1.00  0.00     0.022 A 
BRANCH  77  80
ATOM     80  S   UNL     1       1.170   6.032  11.394  1.00  0.00     0.127 S 
ATOM     81  O   UNL     1       1.425   6.234  12.818  1.00  0.00    -0.237 OA
ATOM     82  O   UNL     1       1.990   6.849  10.499  1.00  0.00    -0.237 OA
ATOM     83  O   UNL     1      -0.232   5.941  11.010  1.00  0.00    -0.744 OA
ENDBRANCH  77  80
ENDBRANCH  49  73
BRANCH  61  84
ATOM     84  C   UNL     1       0.763  -4.145  13.565  1.00  0.00     0.023 A 
ATOM     85  C   UNL     1       0.421  -3.661  14.844  1.00  0.00     0.012 A 
ATOM     86  C   UNL     1       1.635  -5.247  13.458  1.00  0.00     0.148 A 
ATOM     87  C   UNL     1       0.974  -4.230  15.991  1.00  0.00     0.002 A 
ATOM     88  C   UNL     1       2.141  -5.843  14.608  1.00  0.00     0.091 A 
ATOM     89  F   UNL     1       1.966  -5.688  12.235  1.00  0.00    -0.205 F 
ATOM     90  C   UNL     1       1.825  -5.326  15.874  1.00  0.00     0.022 A 
BRANCH  88  91
ATOM     91  S   UNL     1       3.164  -7.319  14.551  1.00  0.00     0.127 S 
ATOM     92  O   UNL     1       4.496  -6.769  14.795  1.00  0.00    -0.237 OA
ATOM     93  O   UNL     1       2.624  -8.118  15.653  1.00  0.00    -0.237 OA
ATOM     94  O   UNL     1       2.953  -7.898  13.231  1.00  0.00    -0.744 OA
ENDBRANCH  88  91
ENDBRANCH  61  84
ENDBRANCH  35  36
ENDBRANCH  28  30
ENDBRANCH  27  28
ENDBRANCH  26  27
ENDBRANCH  25  26
ENDBRANCH  24  25
ENDBRANCH  23  24
ENDBRANCH   1  23
TORSDOF 23
