REMARK SMILES O=C(OCCOCCOCCOC(=O)c1ccc(N2C(=O)[C@@H]3CC=CC[C@H]3C2=O)cc1Cl)c1ccc(-c2c3nc(c(-c4cccc(S(=O)(=O)[O-])c4F)c4ccc([nH]4)c(-c4cccc(S(=O)(=O)[O-])c4F)c4nc(c(-c5cccc(S(=O)(=O)[O-])c5F)c5ccc2[nH]5)C=C4)C=C3)cc1
REMARK SMILES IDX 7 1 6 2 5 3 4 4 3 5 2 6 1 7 33 8 34 9 95 10 35 11 94 12
REMARK SMILES IDX 36 13 37 14 38 15 88 16 39 17 93 18 87 19 89 20 40 21 92 22
REMARK SMILES IDX 86 23 85 24 41 26 73 27 53 28 72 29 54 30 57 31 71 32 90 33
REMARK SMILES IDX 55 34 56 35 70 37 91 38 58 39 42 40 43 41 51 42 44 43 46 44
REMARK SMILES IDX 52 45 45 46 47 47 48 48 49 49 50 50 74 51 75 52 83 53 76 54
REMARK SMILES IDX 78 55 84 56 77 57 79 58 80 59 81 60 82 61 59 62 60 63 68 64
REMARK SMILES IDX 61 65 63 66 69 67 62 68 64 69 65 70 66 71 67 72 8 73 9 74
REMARK SMILES IDX 10 75 11 76 12 77 13 78 14 79 15 80 16 81 31 82 17 83 30 84
REMARK SMILES IDX 32 85 18 86 19 87 20 88 28 89 21 90 22 91 27 92 29 93 23 94
REMARK SMILES IDX 26 95 24 96 25 97
REMARK H PARENT 89 25 57 36
REMARK Flexibility Score: inf
ROOT
ATOM      1  C   UNL     1       2.532   0.527  -1.998  1.00  0.00     0.188 C 
ENDROOT
BRANCH   1   2
ATOM      2  O   UNL     1       3.871   0.738  -1.540  1.00  0.00    -0.376 OA
BRANCH   2   3
ATOM      3  C   UNL     1       4.683  -0.443  -1.579  1.00  0.00     0.202 C 
BRANCH   3   4
ATOM      4  C   UNL     1       4.446  -1.437  -0.430  1.00  0.00     0.261 C 
BRANCH   4   5
ATOM      5  O   UNL     1       3.070  -1.500  -0.019  1.00  0.00    -0.460 OA
BRANCH   5   6
ATOM      6  C   UNL     1       2.450  -0.803   0.969  1.00  0.00     0.338 C 
ATOM      7  O   UNL     1       1.266  -1.050   1.193  1.00  0.00    -0.246 OA
BRANCH   6   8
ATOM      8  C   UNL     1       3.121   0.243   1.807  1.00  0.00     0.060 A 
ATOM      9  C   UNL     1       4.308   0.896   1.480  1.00  0.00     0.016 A 
ATOM     10  C   UNL     1       2.488   0.610   3.010  1.00  0.00     0.016 A 
ATOM     11  C   UNL     1       4.936   1.751   2.370  1.00  0.00     0.010 A 
ATOM     12  C   UNL     1       3.082   1.522   3.890  1.00  0.00     0.010 A 
ATOM     13  C   UNL     1       4.346   2.040   3.596  1.00  0.00    -0.014 A 
BRANCH  13  14
ATOM     14  C   UNL     1       5.185   2.729   4.593  1.00  0.00     0.031 A 
ATOM     15  C   UNL     1       5.792   1.909   5.694  1.00  0.00     0.074 A 
ATOM     16  C   UNL     1       5.544   4.009   4.391  1.00  0.00     0.049 A 
ATOM     17  N   UNL     1       6.647   2.264   6.614  1.00  0.00    -0.248 NA
ATOM     18  C   UNL     1       5.404   0.487   5.752  1.00  0.00     0.031 C 
ATOM     19  C   UNL     1       5.080   4.846   3.282  1.00  0.00     0.029 A 
ATOM     20  N   UNL     1       6.409   4.813   5.081  1.00  0.00    -0.354 N 
ATOM     21  C   UNL     1       6.860   1.129   7.385  1.00  0.00     0.074 A 
ATOM     22  C   UNL     1       6.059   0.068   6.823  1.00  0.00     0.031 C 
ATOM     23  C   UNL     1       5.685   6.042   3.356  1.00  0.00     0.029 A 
ATOM     24  C   UNL     1       6.531   6.072   4.546  1.00  0.00     0.049 A 
ATOM     25  H   UNL     1       6.897   4.518   5.884  1.00  0.00     0.167 HD
ATOM     26  C   UNL     1       7.655   0.987   8.469  1.00  0.00     0.034 A 
ATOM     27  C   UNL     1       7.233   7.133   4.989  1.00  0.00     0.034 A 
ATOM     28  C   UNL     1       8.457   2.050   9.003  1.00  0.00     0.049 A 
ATOM     29  C   UNL     1       8.072   6.962   6.225  1.00  0.00     0.074 A 
ATOM     30  C   UNL     1       9.278   2.039  10.114  1.00  0.00     0.029 A 
ATOM     31  N   UNL     1       8.528   3.325   8.458  1.00  0.00    -0.354 N 
ATOM     32  N   UNL     1       8.284   5.878   6.933  1.00  0.00    -0.248 NA
ATOM     33  C   UNL     1       8.782   8.150   6.716  1.00  0.00     0.031 C 
ATOM     34  C   UNL     1       9.824   3.320  10.258  1.00  0.00     0.029 A 
ATOM     35  C   UNL     1       9.371   4.116   9.216  1.00  0.00     0.049 A 
ATOM     36  H   UNL     1       8.049   3.622   7.651  1.00  0.00     0.167 HD
ATOM     37  C   UNL     1       9.175   6.242   7.934  1.00  0.00     0.074 A 
ATOM     38  C   UNL     1       9.478   7.645   7.725  1.00  0.00     0.031 C 
ATOM     39  C   UNL     1       9.686   5.496   8.944  1.00  0.00     0.034 A 
BRANCH  26  40
ATOM     40  C   UNL     1       7.646  -0.351   9.157  1.00  0.00     0.023 A 
ATOM     41  C   UNL     1       8.290  -1.459   8.570  1.00  0.00     0.012 A 
ATOM     42  C   UNL     1       6.973  -0.511  10.383  1.00  0.00     0.148 A 
ATOM     43  C   UNL     1       8.228  -2.716   9.174  1.00  0.00     0.002 A 
ATOM     44  C   UNL     1       6.950  -1.756  10.999  1.00  0.00     0.091 A 
ATOM     45  F   UNL     1       6.341   0.548  10.908  1.00  0.00    -0.205 F 
ATOM     46  C   UNL     1       7.565  -2.862  10.390  1.00  0.00     0.022 A 
BRANCH  44  47
ATOM     47  S   UNL     1       6.171  -2.031  12.593  1.00  0.00     0.127 S 
ATOM     48  O   UNL     1       5.012  -2.839  12.220  1.00  0.00    -0.237 OA
ATOM     49  O   UNL     1       7.213  -2.757  13.321  1.00  0.00    -0.237 OA
ATOM     50  O   UNL     1       5.867  -0.710  13.125  1.00  0.00    -0.744 OA
ENDBRANCH  44  47
ENDBRANCH  26  40
BRANCH  27  51
ATOM     51  C   UNL     1       7.160   8.431   4.264  1.00  0.00     0.023 A 
ATOM     52  C   UNL     1       8.302   8.966   3.639  1.00  0.00     0.012 A 
ATOM     53  C   UNL     1       5.941   9.128   4.166  1.00  0.00     0.148 A 
ATOM     54  C   UNL     1       8.233  10.180   2.951  1.00  0.00     0.002 A 
ATOM     55  C   UNL     1       5.862  10.297   3.422  1.00  0.00     0.091 A 
ATOM     56  F   UNL     1       4.864   8.629   4.792  1.00  0.00    -0.205 F 
ATOM     57  C   UNL     1       7.011  10.839   2.828  1.00  0.00     0.022 A 
BRANCH  55  58
ATOM     58  S   UNL     1       4.274  11.067   3.096  1.00  0.00     0.127 S 
ATOM     59  O   UNL     1       4.202  12.075   4.148  1.00  0.00    -0.237 OA
ATOM     60  O   UNL     1       4.452  11.593   1.744  1.00  0.00    -0.237 OA
ATOM     61  O   UNL     1       3.306   9.975   3.184  1.00  0.00    -0.744 OA
ENDBRANCH  55  58
ENDBRANCH  27  51
BRANCH  39  62
ATOM     62  C   UNL     1      10.657   6.169   9.873  1.00  0.00     0.023 A 
ATOM     63  C   UNL     1      10.193   7.100  10.821  1.00  0.00     0.012 A 
ATOM     64  C   UNL     1      12.018   5.809   9.857  1.00  0.00     0.148 A 
ATOM     65  C   UNL     1      11.079   7.689  11.722  1.00  0.00     0.002 A 
ATOM     66  C   UNL     1      12.884   6.359  10.792  1.00  0.00     0.091 A 
ATOM     67  F   UNL     1      12.440   4.937   8.929  1.00  0.00    -0.205 F 
ATOM     68  C   UNL     1      12.419   7.308  11.717  1.00  0.00     0.022 A 
BRANCH  66  69
ATOM     69  S   UNL     1      14.597   5.839  10.922  1.00  0.00     0.127 S 
ATOM     70  O   UNL     1      15.297   6.960  10.298  1.00  0.00    -0.237 OA
ATOM     71  O   UNL     1      14.782   5.733  12.370  1.00  0.00    -0.237 OA
ATOM     72  O   UNL     1      14.682   4.570  10.211  1.00  0.00    -0.744 OA
ENDBRANCH  66  69
ENDBRANCH  39  62
ENDBRANCH  13  14
ENDBRANCH   6   8
ENDBRANCH   5   6
ENDBRANCH   4   5
ENDBRANCH   3   4
ENDBRANCH   2   3
ENDBRANCH   1   2
BRANCH   1  73
ATOM     73  C   UNL     1       2.034   1.633  -2.929  1.00  0.00     0.188 C 
BRANCH  73  74
ATOM     74  O   UNL     1       2.734   1.785  -4.160  1.00  0.00    -0.376 OA
BRANCH  74  75
ATOM     75  C   UNL     1       4.113   2.134  -4.085  1.00  0.00     0.202 C 
BRANCH  75  76
ATOM     76  C   UNL     1       4.484   3.527  -3.556  1.00  0.00     0.261 C 
BRANCH  76  77
ATOM     77  O   UNL     1       4.027   3.842  -2.229  1.00  0.00    -0.460 OA
BRANCH  77  78
ATOM     78  C   UNL     1       3.040   4.771  -2.197  1.00  0.00     0.339 C 
ATOM     79  O   UNL     1       2.403   5.199  -3.147  1.00  0.00    -0.246 OA
BRANCH  78  80
ATOM     80  C   UNL     1       2.787   5.249  -0.832  1.00  0.00     0.078 A 
ATOM     81  C   UNL     1       1.818   4.612  -0.041  1.00  0.00     0.019 A 
ATOM     82  C   UNL     1       3.314   6.481  -0.446  1.00  0.00     0.057 A 
ATOM     83  C   UNL     1       1.337   5.243   1.115  1.00  0.00     0.028 A 
ATOM     84  C   UNL     1       2.788   7.130   0.668  1.00  0.00     0.048 A 
ATOM     85  Cl  UNL     1       4.585   7.250  -1.325  1.00  0.00    -0.083 Cl
ATOM     86  C   UNL     1       1.769   6.537   1.429  1.00  0.00     0.053 A 
BRANCH  86  87
ATOM     87  N   UNL     1       1.158   7.307   2.437  1.00  0.00    -0.250 N 
ATOM     88  C   UNL     1       0.754   6.857   3.686  1.00  0.00     0.238 C 
ATOM     89  C   UNL     1       0.673   8.587   2.179  1.00  0.00     0.238 C 
ATOM     90  O   UNL     1       0.631   5.724   4.095  1.00  0.00    -0.274 OA
ATOM     91  C   UNL     1       0.489   8.120   4.469  1.00  0.00     0.096 C 
ATOM     92  C   UNL     1      -0.136   8.975   3.381  1.00  0.00     0.096 C 
ATOM     93  O   UNL     1       0.610   9.166   1.100  1.00  0.00    -0.274 OA
ATOM     94  C   UNL     1      -0.415   8.088   5.686  1.00  0.00     0.041 C 
ATOM     95  C   UNL     1      -0.191  10.431   3.786  1.00  0.00     0.041 C 
ATOM     96  C   UNL     1      -0.869   9.495   6.029  1.00  0.00    -0.030 C 
ATOM     97  C   UNL     1      -0.743  10.543   5.191  1.00  0.00    -0.030 C 
ENDBRANCH  86  87
ENDBRANCH  78  80
ENDBRANCH  77  78
ENDBRANCH  76  77
ENDBRANCH  75  76
ENDBRANCH  74  75
ENDBRANCH  73  74
ENDBRANCH   1  73
TORSDOF 21
