REMARK SMILES O=C(OCCOCCOCCOC(=O)c1ccc(-c2c3nc(c(-c4cccc(S(=O)(=O)[O-])c4F)c4ccc([nH]4)c(-c4cccc(S(=O)(=O)[O-])c4F)c4nc(c(-c5cccc(S(=O)(=O)[O-])c5F)c5ccc2[nH]5)C=C4)C=C3)cc1)C1=Cc2cc(Cl)cc(C#Cc3ccccc3)c2O[C@@H]1C(F)(F)F
REMARK SMILES IDX 8 1 7 2 6 3 5 4 4 5 3 6 2 7 1 8 78 9 79 10 96 11 80 12 95 13
REMARK SMILES IDX 81 14 94 15 82 16 85 17 83 18 84 19 97 20 98 21 99 22 100 23
REMARK SMILES IDX 86 24 87 25 88 26 89 27 93 28 90 29 92 30 91 31 9 32 10 33
REMARK SMILES IDX 11 34 12 35 13 36 14 37 15 38 16 39 77 40 17 41 76 42 18 43
REMARK SMILES IDX 19 44 20 45 70 46 21 47 75 48 69 49 71 50 22 51 74 52 68 53
REMARK SMILES IDX 67 54 23 56 55 57 35 58 54 59 36 60 39 61 53 62 72 63 37 64
REMARK SMILES IDX 38 65 52 67 73 68 40 69 24 70 25 71 33 72 26 73 28 74 34 75
REMARK SMILES IDX 27 76 29 77 30 78 31 79 32 80 56 81 57 82 65 83 58 84 60 85
REMARK SMILES IDX 66 86 59 87 61 88 62 89 63 90 64 91 41 92 42 93 50 94 43 95
REMARK SMILES IDX 45 96 51 97 44 98 46 99 47 100 48 101 49 102
REMARK H PARENT 71 55 39 66
REMARK Flexibility Score: inf
ROOT
ATOM      1  C   UNL     1       0.858   1.658  -3.398  1.00  0.00     0.188 C 
ENDROOT
BRANCH   1   2
ATOM      2  C   UNL     1       1.210   1.462  -1.925  1.00  0.00     0.188 C 
BRANCH   2   3
ATOM      3  O   UNL     1       2.604   1.389  -1.714  1.00  0.00    -0.376 OA
BRANCH   3   4
ATOM      4  C   UNL     1       3.189   0.126  -2.001  1.00  0.00     0.202 C 
BRANCH   4   5
ATOM      5  C   UNL     1       2.807  -1.023  -1.055  1.00  0.00     0.261 C 
BRANCH   5   6
ATOM      6  O   UNL     1       2.206  -0.573   0.179  1.00  0.00    -0.460 OA
BRANCH   6   7
ATOM      7  C   UNL     1       2.794  -0.902   1.356  1.00  0.00     0.338 C 
ATOM      8  O   UNL     1       2.312  -1.731   2.115  1.00  0.00    -0.246 OA
BRANCH   7   9
ATOM      9  C   UNL     1       3.944  -0.036   1.742  1.00  0.00     0.087 C 
ATOM     10  C   UNL     1       5.007  -0.650   2.298  1.00  0.00     0.027 C 
ATOM     11  C   UNL     1       4.219   1.140   0.856  1.00  0.00     0.316 C 
ATOM     12  C   UNL     1       6.060  -0.923   1.285  1.00  0.00     0.020 A 
ATOM     13  O   UNL     1       5.251   0.824  -0.144  1.00  0.00    -0.474 OA
ATOM     14  C   UNL     1       7.072  -1.836   1.572  1.00  0.00     0.032 A 
ATOM     15  C   UNL     1       5.960  -0.359  -0.003  1.00  0.00     0.143 A 
ATOM     16  C   UNL     1       7.903  -2.273   0.548  1.00  0.00     0.043 A 
ATOM     17  C   UNL     1       6.638  -0.988  -1.082  1.00  0.00     0.069 A 
ATOM     18  Cl  UNL     1       9.198  -3.350   0.893  1.00  0.00    -0.084 Cl
ATOM     19  C   UNL     1       7.645  -1.913  -0.774  1.00  0.00     0.041 A 
BRANCH  11  20
ATOM     20  C   UNL     1       4.365   2.457   1.630  1.00  0.00     0.430 C 
ATOM     21  F   UNL     1       4.330   3.525   0.800  1.00  0.00    -0.167 F 
ATOM     22  F   UNL     1       3.327   2.604   2.495  1.00  0.00    -0.167 F 
ATOM     23  F   UNL     1       5.506   2.517   2.345  1.00  0.00    -0.167 F 
ENDBRANCH  11  20
BRANCH  17  24
ATOM     24  C   UNL     1       6.228  -1.010  -2.490  1.00  0.00    -0.058 C 
ATOM     25  C   UNL     1       5.888  -1.285  -3.616  1.00  0.00    -0.062 C 
BRANCH  25  26
ATOM     26  C   UNL     1       5.440  -1.685  -4.948  1.00  0.00     0.025 A 
ATOM     27  C   UNL     1       5.183  -0.718  -5.925  1.00  0.00     0.017 A 
ATOM     28  C   UNL     1       5.229  -3.030  -5.291  1.00  0.00     0.017 A 
ATOM     29  C   UNL     1       4.678  -1.069  -7.189  1.00  0.00     0.001 A 
ATOM     30  C   UNL     1       4.750  -3.388  -6.568  1.00  0.00     0.001 A 
ATOM     31  C   UNL     1       4.459  -2.405  -7.511  1.00  0.00     0.000 A 
ENDBRANCH  25  26
ENDBRANCH  17  24
ENDBRANCH   7   9
ENDBRANCH   6   7
ENDBRANCH   5   6
ENDBRANCH   4   5
ENDBRANCH   3   4
ENDBRANCH   2   3
ENDBRANCH   1   2
BRANCH   1  32
ATOM     32  O   UNL     1       1.755   0.977  -4.266  1.00  0.00    -0.376 OA
BRANCH  32  33
ATOM     33  C   UNL     1       2.629   1.809  -5.034  1.00  0.00     0.202 C 
BRANCH  33  34
ATOM     34  C   UNL     1       3.759   2.608  -4.338  1.00  0.00     0.261 C 
BRANCH  34  35
ATOM     35  O   UNL     1       3.375   3.516  -3.297  1.00  0.00    -0.460 OA
BRANCH  35  36
ATOM     36  C   UNL     1       2.582   4.546  -3.649  1.00  0.00     0.338 C 
ATOM     37  O   UNL     1       2.148   4.793  -4.760  1.00  0.00    -0.246 OA
BRANCH  36  38
ATOM     38  C   UNL     1       2.168   5.242  -2.420  1.00  0.00     0.060 A 
ATOM     39  C   UNL     1       0.855   5.067  -1.975  1.00  0.00     0.016 A 
ATOM     40  C   UNL     1       3.037   6.113  -1.757  1.00  0.00     0.016 A 
ATOM     41  C   UNL     1       0.392   5.780  -0.878  1.00  0.00     0.010 A 
ATOM     42  C   UNL     1       2.559   6.859  -0.675  1.00  0.00     0.010 A 
ATOM     43  C   UNL     1       1.223   6.722  -0.262  1.00  0.00    -0.014 A 
BRANCH  43  44
ATOM     44  C   UNL     1       0.583   7.697   0.648  1.00  0.00     0.031 A 
ATOM     45  C   UNL     1       0.097   8.996   0.068  1.00  0.00     0.074 A 
ATOM     46  C   UNL     1       0.335   7.382   1.930  1.00  0.00     0.049 A 
ATOM     47  N   UNL     1      -0.596   9.948   0.633  1.00  0.00    -0.248 NA
ATOM     48  C   UNL     1       0.423   9.249  -1.347  1.00  0.00     0.031 C 
ATOM     49  C   UNL     1       0.741   6.143   2.591  1.00  0.00     0.029 A 
ATOM     50  N   UNL     1      -0.318   8.091   2.905  1.00  0.00    -0.354 N 
ATOM     51  C   UNL     1      -0.788  10.911  -0.350  1.00  0.00     0.074 A 
ATOM     52  C   UNL     1      -0.117  10.443  -1.542  1.00  0.00     0.031 C 
ATOM     53  C   UNL     1       0.353   6.192   3.878  1.00  0.00     0.029 A 
ATOM     54  C   UNL     1      -0.317   7.467   4.129  1.00  0.00     0.049 A 
ATOM     55  H   UNL     1      -0.747   8.962   2.744  1.00  0.00     0.167 HD
ATOM     56  C   UNL     1      -1.478  12.073  -0.274  1.00  0.00     0.034 A 
ATOM     57  C   UNL     1      -0.788   7.892   5.317  1.00  0.00     0.034 A 
ATOM     58  C   UNL     1      -2.132  12.540   0.918  1.00  0.00     0.049 A 
ATOM     59  C   UNL     1      -1.512   9.213   5.386  1.00  0.00     0.074 A 
ATOM     60  C   UNL     1      -2.864  13.700   1.100  1.00  0.00     0.029 A 
ATOM     61  N   UNL     1      -2.119  11.880   2.137  1.00  0.00    -0.354 N 
ATOM     62  N   UNL     1      -1.778  10.064   4.424  1.00  0.00    -0.248 NA
ATOM     63  C   UNL     1      -2.041   9.610   6.699  1.00  0.00     0.031 C 
ATOM     64  C   UNL     1      -3.264  13.758   2.439  1.00  0.00     0.029 A 
ATOM     65  C   UNL     1      -2.821  12.612   3.080  1.00  0.00     0.049 A 
ATOM     66  H   UNL     1      -1.676  11.018   2.308  1.00  0.00     0.167 HD
ATOM     67  C   UNL     1      -2.530  11.079   5.007  1.00  0.00     0.074 A 
ATOM     68  C   UNL     1      -2.708  10.715   6.398  1.00  0.00     0.031 C 
ATOM     69  C   UNL     1      -3.017  12.217   4.452  1.00  0.00     0.034 A 
BRANCH  56  70
ATOM     70  C   UNL     1      -1.574  12.910  -1.522  1.00  0.00     0.023 A 
ATOM     71  C   UNL     1      -2.381  12.476  -2.594  1.00  0.00     0.012 A 
ATOM     72  C   UNL     1      -0.909  14.148  -1.614  1.00  0.00     0.148 A 
ATOM     73  C   UNL     1      -2.504  13.248  -3.749  1.00  0.00     0.002 A 
ATOM     74  C   UNL     1      -1.073  14.933  -2.749  1.00  0.00     0.091 A 
ATOM     75  F   UNL     1      -0.129  14.531  -0.594  1.00  0.00    -0.205 F 
ATOM     76  C   UNL     1      -1.860  14.480  -3.821  1.00  0.00     0.022 A 
BRANCH  74  77
ATOM     77  S   UNL     1      -0.348  16.568  -2.912  1.00  0.00     0.127 S 
ATOM     78  O   UNL     1       0.599  16.363  -4.007  1.00  0.00    -0.237 OA
ATOM     79  O   UNL     1      -1.512  17.384  -3.259  1.00  0.00    -0.237 OA
ATOM     80  O   UNL     1       0.253  16.876  -1.622  1.00  0.00    -0.744 OA
ENDBRANCH  74  77
ENDBRANCH  56  70
BRANCH  57  81
ATOM     81  C   UNL     1      -0.595   7.062   6.540  1.00  0.00     0.023 A 
ATOM     82  C   UNL     1      -1.705   6.496   7.196  1.00  0.00     0.012 A 
ATOM     83  C   UNL     1       0.695   6.848   7.064  1.00  0.00     0.148 A 
ATOM     84  C   UNL     1      -1.537   5.770   8.377  1.00  0.00     0.002 A 
ATOM     85  C   UNL     1       0.861   6.074   8.206  1.00  0.00     0.091 A 
ATOM     86  F   UNL     1       1.737   7.410   6.436  1.00  0.00    -0.205 F 
ATOM     87  C   UNL     1      -0.256   5.551   8.876  1.00  0.00     0.022 A 
BRANCH  85  88
ATOM     88  S   UNL     1       2.481   5.641   8.847  1.00  0.00     0.127 S 
ATOM     89  O   UNL     1       2.531   6.418  10.083  1.00  0.00    -0.237 OA
ATOM     90  O   UNL     1       2.356   4.195   9.032  1.00  0.00    -0.237 OA
ATOM     91  O   UNL     1       3.431   6.034   7.815  1.00  0.00    -0.744 OA
ENDBRANCH  85  88
ENDBRANCH  57  81
BRANCH  69  92
ATOM     92  C   UNL     1      -3.818  13.135   5.342  1.00  0.00     0.023 A 
ATOM     93  C   UNL     1      -3.182  13.840   6.384  1.00  0.00     0.012 A 
ATOM     94  C   UNL     1      -5.198  13.325   5.125  1.00  0.00     0.148 A 
ATOM     95  C   UNL     1      -3.915  14.671   7.231  1.00  0.00     0.002 A 
ATOM     96  C   UNL     1      -5.910  14.200   5.936  1.00  0.00     0.091 A 
ATOM     97  F   UNL     1      -5.791  12.639   4.137  1.00  0.00    -0.205 F 
ATOM     98  C   UNL     1      -5.275  14.858   7.001  1.00  0.00     0.022 A 
BRANCH  96  99
ATOM     99  S   UNL     1      -7.643  14.579   5.654  1.00  0.00     0.127 S 
ATOM    100  O   UNL     1      -8.287  13.869   6.757  1.00  0.00    -0.237 OA
ATOM    101  O   UNL     1      -7.664  16.038   5.772  1.00  0.00    -0.237 OA
ATOM    102  O   UNL     1      -7.952  14.078   4.321  1.00  0.00    -0.744 OA
ENDBRANCH  96  99
ENDBRANCH  69  92
ENDBRANCH  43  44
ENDBRANCH  36  38
ENDBRANCH  35  36
ENDBRANCH  34  35
ENDBRANCH  33  34
ENDBRANCH  32  33
ENDBRANCH   1  32
TORSDOF 23
