REMARK SMILES CCC1C[NH+]([C@H](CCOC)C(=O)OCCOCCOCCOC(=O)c2ccc(-c3c4nc(c(-c5cccc(S(=O)(=O)[O-])c5F)c5ccc([nH]5)c(-c5cccc(S(=O)(=O)[O-])c5F)c5nc(c(-c6cccc(S(=O)(=O)[O-])c6F)c6ccc3[nH]6)C=C5)C=C4)cc2)C1
REMARK SMILES IDX 17 1 16 2 15 3 14 4 13 5 11 6 12 7 6 8 5 9 3 10 4 11 88 12
REMARK SMILES IDX 2 14 1 15 7 16 8 17 9 18 10 19 18 20 19 21 20 22 21 23 22 24
REMARK SMILES IDX 23 25 24 26 25 27 26 28 87 29 27 30 86 31 28 32 29 33 30 34
REMARK SMILES IDX 80 35 31 36 85 37 79 38 81 39 32 40 84 41 78 42 77 43 33 45
REMARK SMILES IDX 65 46 45 47 64 48 46 49 49 50 63 51 82 52 47 53 48 54 62 56
REMARK SMILES IDX 83 57 50 58 34 59 35 60 43 61 36 62 38 63 44 64 37 65 39 66
REMARK SMILES IDX 40 67 41 68 42 69 66 70 67 71 75 72 68 73 70 74 76 75 69 76
REMARK SMILES IDX 71 77 72 78 73 79 74 80 51 81 52 82 60 83 53 84 55 85 61 86
REMARK SMILES IDX 54 87 56 88 57 89 58 90 59 91
REMARK H PARENT 5 13 81 44 49 55
REMARK Flexibility Score: inf
ROOT
ATOM      1  C   UNL     1       1.152   8.246  -1.258  1.00  0.00     0.188 C 
ENDROOT
BRANCH   1   2
ATOM      2  O   UNL     1       0.054   8.823  -1.948  1.00  0.00    -0.376 OA
BRANCH   2   3
ATOM      3  C   UNL     1      -1.040   7.997  -2.323  1.00  0.00     0.202 C 
BRANCH   3   4
ATOM      4  C   UNL     1      -0.809   6.643  -3.025  1.00  0.00     0.261 C 
BRANCH   4   5
ATOM      5  O   UNL     1       0.015   5.662  -2.351  1.00  0.00    -0.459 OA
BRANCH   5   6
ATOM      6  C   UNL     1       1.184   5.346  -2.980  1.00  0.00     0.365 C 
ATOM      7  O   UNL     1       1.578   5.912  -3.998  1.00  0.00    -0.245 OA
BRANCH   6   8
ATOM      8  C   UNL     1       1.952   4.139  -2.379  1.00  0.00     0.297 C 
BRANCH   8   9
ATOM      9  N   UNL     1       1.592   2.953  -3.186  1.00  0.00    -0.322 N 
ATOM     10  C   UNL     1       1.214   0.907  -2.939  1.00  0.00     0.099 C 
ATOM     11  C   UNL     1       0.414   2.217  -2.708  1.00  0.00     0.272 C 
ATOM     12  C   UNL     1       2.471   1.807  -2.907  1.00  0.00     0.272 C 
ATOM     13  H   UNL     1       1.558   3.371  -4.115  1.00  0.00     0.348 HD
BRANCH  10  14
ATOM     14  C   UNL     1       1.119  -0.151  -1.854  1.00  0.00     0.012 C 
ATOM     15  C   UNL     1       2.073  -1.294  -2.158  1.00  0.00     0.004 C 
ENDBRANCH  10  14
ENDBRANCH   8   9
BRANCH   8  16
ATOM     16  C   UNL     1       1.965   3.969  -0.841  1.00  0.00     0.106 C 
BRANCH  16  17
ATOM     17  C   UNL     1       3.303   4.347  -0.183  1.00  0.00     0.166 C 
BRANCH  17  18
ATOM     18  O   UNL     1       3.647   5.723  -0.280  1.00  0.00    -0.384 OA
ATOM     19  C   UNL     1       4.454   6.063  -1.403  1.00  0.00     0.194 C 
ENDBRANCH  17  18
ENDBRANCH  16  17
ENDBRANCH   8  16
ENDBRANCH   6   8
ENDBRANCH   5   6
ENDBRANCH   4   5
ENDBRANCH   3   4
ENDBRANCH   2   3
ENDBRANCH   1   2
BRANCH   1  20
ATOM     20  C   UNL     1       0.861   7.309  -0.081  1.00  0.00     0.188 C 
BRANCH  20  21
ATOM     21  O   UNL     1      -0.500   7.066   0.183  1.00  0.00    -0.376 OA
BRANCH  21  22
ATOM     22  C   UNL     1      -1.112   7.715   1.282  1.00  0.00     0.202 C 
BRANCH  22  23
ATOM     23  C   UNL     1      -0.723   9.132   1.751  1.00  0.00     0.261 C 
BRANCH  23  24
ATOM     24  O   UNL     1       0.625   9.569   1.529  1.00  0.00    -0.460 OA
BRANCH  24  25
ATOM     25  C   UNL     1       1.549   9.229   2.458  1.00  0.00     0.338 C 
ATOM     26  O   UNL     1       1.351   8.592   3.484  1.00  0.00    -0.246 OA
BRANCH  25  27
ATOM     27  C   UNL     1       2.889   9.556   1.917  1.00  0.00     0.060 A 
ATOM     28  C   UNL     1       3.785   8.508   1.669  1.00  0.00     0.016 A 
ATOM     29  C   UNL     1       3.261  10.873   1.640  1.00  0.00     0.016 A 
ATOM     30  C   UNL     1       5.057   8.772   1.155  1.00  0.00     0.010 A 
ATOM     31  C   UNL     1       4.547  11.139   1.149  1.00  0.00     0.010 A 
ATOM     32  C   UNL     1       5.458  10.091   0.919  1.00  0.00    -0.014 A 
BRANCH  32  33
ATOM     33  C   UNL     1       6.884  10.386   0.627  1.00  0.00     0.031 A 
ATOM     34  C   UNL     1       7.783  10.745   1.778  1.00  0.00     0.074 A 
ATOM     35  C   UNL     1       7.384  10.340  -0.621  1.00  0.00     0.049 A 
ATOM     36  N   UNL     1       9.034  11.123   1.769  1.00  0.00    -0.248 NA
ATOM     37  C   UNL     1       7.185  10.662   3.120  1.00  0.00     0.031 C 
ATOM     38  C   UNL     1       6.641   9.962  -1.820  1.00  0.00     0.029 A 
ATOM     39  N   UNL     1       8.642  10.645  -1.086  1.00  0.00    -0.354 N 
ATOM     40  C   UNL     1       9.364  11.361   3.098  1.00  0.00     0.074 A 
ATOM     41  C   UNL     1       8.182  11.080   3.885  1.00  0.00     0.031 C 
ATOM     42  C   UNL     1       7.446  10.094  -2.890  1.00  0.00     0.029 A 
ATOM     43  C   UNL     1       8.748  10.602  -2.457  1.00  0.00     0.049 A 
ATOM     44  H   UNL     1       9.396  10.872  -0.494  1.00  0.00     0.167 HD
ATOM     45  C   UNL     1      10.541  11.777   3.620  1.00  0.00     0.034 A 
ATOM     46  C   UNL     1       9.762  10.969  -3.268  1.00  0.00     0.034 A 
ATOM     47  C   UNL     1      11.717  12.060   2.843  1.00  0.00     0.049 A 
ATOM     48  C   UNL     1      11.045  11.493  -2.668  1.00  0.00     0.074 A 
ATOM     49  C   UNL     1      12.963  12.465   3.288  1.00  0.00     0.029 A 
ATOM     50  N   UNL     1      11.789  11.992   1.461  1.00  0.00    -0.354 N 
ATOM     51  N   UNL     1      11.373  11.634  -1.406  1.00  0.00    -0.248 NA
ATOM     52  C   UNL     1      12.109  11.886  -3.606  1.00  0.00     0.031 C 
ATOM     53  C   UNL     1      13.776  12.683   2.172  1.00  0.00     0.029 A 
ATOM     54  C   UNL     1      13.053  12.364   1.034  1.00  0.00     0.049 A 
ATOM     55  H   UNL     1      11.051  11.719   0.870  1.00  0.00     0.167 HD
ATOM     56  C   UNL     1      12.688  12.092  -1.399  1.00  0.00     0.074 A 
ATOM     57  C   UNL     1      13.103  12.190  -2.782  1.00  0.00     0.031 C 
ATOM     58  C   UNL     1      13.478  12.410  -0.342  1.00  0.00     0.034 A 
BRANCH  45  59
ATOM     59  C   UNL     1      10.606  11.965   5.112  1.00  0.00     0.023 A 
ATOM     60  C   UNL     1      10.596  10.844   5.966  1.00  0.00     0.012 A 
ATOM     61  C   UNL     1      10.703  13.256   5.665  1.00  0.00     0.148 A 
ATOM     62  C   UNL     1      10.639  11.007   7.350  1.00  0.00     0.002 A 
ATOM     63  C   UNL     1      10.797  13.409   7.042  1.00  0.00     0.091 A 
ATOM     64  F   UNL     1      10.687  14.310   4.837  1.00  0.00    -0.205 F 
ATOM     65  C   UNL     1      10.750  12.287   7.887  1.00  0.00     0.022 A 
BRANCH  63  66
ATOM     66  S   UNL     1      11.023  15.009   7.824  1.00  0.00     0.127 S 
ATOM     67  O   UNL     1       9.731  15.200   8.483  1.00  0.00    -0.237 OA
ATOM     68  O   UNL     1      12.139  14.750   8.735  1.00  0.00    -0.237 OA
ATOM     69  O   UNL     1      11.320  15.945   6.749  1.00  0.00    -0.744 OA
ENDBRANCH  63  66
ENDBRANCH  45  59
BRANCH  46  70
ATOM     70  C   UNL     1       9.616  10.861  -4.749  1.00  0.00     0.023 A 
ATOM     71  C   UNL     1      10.400   9.932  -5.462  1.00  0.00     0.012 A 
ATOM     72  C   UNL     1       8.716  11.683  -5.455  1.00  0.00     0.148 A 
ATOM     73  C   UNL     1      10.312   9.847  -6.853  1.00  0.00     0.002 A 
ATOM     74  C   UNL     1       8.593  11.554  -6.833  1.00  0.00     0.091 A 
ATOM     75  F   UNL     1       7.994  12.574  -4.761  1.00  0.00    -0.205 F 
ATOM     76  C   UNL     1       9.403  10.649  -7.537  1.00  0.00     0.022 A 
BRANCH  74  77
ATOM     77  S   UNL     1       7.374  12.466  -7.787  1.00  0.00     0.127 S 
ATOM     78  O   UNL     1       8.222  13.310  -8.626  1.00  0.00    -0.237 OA
ATOM     79  O   UNL     1       6.685  11.387  -8.495  1.00  0.00    -0.237 OA
ATOM     80  O   UNL     1       6.555  13.171  -6.811  1.00  0.00    -0.744 OA
ENDBRANCH  74  77
ENDBRANCH  46  70
BRANCH  58  81
ATOM     81  C   UNL     1      14.897  12.844  -0.619  1.00  0.00     0.023 A 
ATOM     82  C   UNL     1      15.155  14.103  -1.195  1.00  0.00     0.012 A 
ATOM     83  C   UNL     1      15.980  12.031  -0.226  1.00  0.00     0.148 A 
ATOM     84  C   UNL     1      16.467  14.532  -1.406  1.00  0.00     0.002 A 
ATOM     85  C   UNL     1      17.283  12.487  -0.390  1.00  0.00     0.091 A 
ATOM     86  F   UNL     1      15.717  10.829   0.308  1.00  0.00    -0.205 F 
ATOM     87  C   UNL     1      17.529  13.731  -0.992  1.00  0.00     0.022 A 
BRANCH  85  88
ATOM     88  S   UNL     1      18.710  11.569   0.204  1.00  0.00     0.127 S 
ATOM     89  O   UNL     1      19.330  11.141  -1.049  1.00  0.00    -0.237 OA
ATOM     90  O   UNL     1      19.456  12.595   0.934  1.00  0.00    -0.237 OA
ATOM     91  O   UNL     1      18.182  10.497   1.036  1.00  0.00    -0.744 OA
ENDBRANCH  85  88
ENDBRANCH  58  81
ENDBRANCH  32  33
ENDBRANCH  25  27
ENDBRANCH  24  25
ENDBRANCH  23  24
ENDBRANCH  22  23
ENDBRANCH  21  22
ENDBRANCH  20  21
ENDBRANCH   1  20
TORSDOF 25
