REMARK SMILES CC(=O)Oc1ccccc1C(=O)OCCOCCOCCOC(=O)c1ccc(-c2c3nc(c(-c4cccc(S(=O)(=O)[O-])c4F)c4ccc([nH]4)c(-c4cccc(S(=O)(=O)[O-])c4F)c4nc(c(-c5cccc(S(=O)(=O)[O-])c5F)c5ccc2[nH]5)C=C4)C=C3)cc1
REMARK SMILES IDX 18 1 17 2 16 3 15 4 14 5 13 6 11 7 12 8 10 9 5 10 6 11 7 12
REMARK SMILES IDX 9 13 8 14 4 15 2 16 1 17 3 18 19 19 20 20 21 21 22 22 23 23
REMARK SMILES IDX 24 24 25 25 26 26 87 27 27 28 86 29 28 30 29 31 30 32 80 33
REMARK SMILES IDX 31 34 85 35 79 36 81 37 32 38 84 39 78 40 77 41 33 43 65 44
REMARK SMILES IDX 45 45 64 46 46 47 49 48 63 49 82 50 47 51 48 52 62 54 83 55
REMARK SMILES IDX 50 56 34 57 35 58 43 59 36 60 38 61 44 62 37 63 39 64 40 65
REMARK SMILES IDX 41 66 42 67 66 68 67 69 75 70 68 71 70 72 76 73 69 74 71 75
REMARK SMILES IDX 72 76 73 77 74 78 51 79 52 80 60 81 53 82 55 83 61 84 54 85
REMARK SMILES IDX 56 86 57 87 58 88 59 89
REMARK H PARENT 81 42 49 53
REMARK Flexibility Score: inf
ROOT
ATOM      1  C   UNL     1      -2.571  -0.381   2.475  1.00  0.00     0.188 C 
ENDROOT
BRANCH   1   2
ATOM      2  C   UNL     1      -3.681   0.671   2.284  1.00  0.00     0.188 C 
BRANCH   2   3
ATOM      3  O   UNL     1      -4.257   0.817   0.989  1.00  0.00    -0.376 OA
BRANCH   3   4
ATOM      4  C   UNL     1      -3.392   1.028  -0.124  1.00  0.00     0.202 C 
BRANCH   4   5
ATOM      5  C   UNL     1      -2.378   2.170  -0.021  1.00  0.00     0.261 C 
BRANCH   5   6
ATOM      6  O   UNL     1      -1.440   1.963   1.050  1.00  0.00    -0.460 OA
BRANCH   6   7
ATOM      7  C   UNL     1      -1.147   3.065   1.783  1.00  0.00     0.342 C 
ATOM      8  O   UNL     1      -1.507   4.207   1.540  1.00  0.00    -0.246 OA
BRANCH   7   9
ATOM      9  C   UNL     1      -0.474   2.698   3.053  1.00  0.00     0.102 A 
ATOM     10  C   UNL     1       0.515   1.717   3.199  1.00  0.00     0.145 A 
ATOM     11  C   UNL     1       1.060   1.435   4.460  1.00  0.00     0.048 A 
ATOM     12  C   UNL     1       0.604   2.117   5.587  1.00  0.00     0.004 A 
ATOM     13  C   UNL     1      -0.930   3.368   4.202  1.00  0.00     0.019 A 
ATOM     14  C   UNL     1      -0.404   3.070   5.462  1.00  0.00     0.001 A 
BRANCH  10  15
ATOM     15  O   UNL     1       0.883   0.810   2.188  1.00  0.00    -0.426 OA
BRANCH  15  16
ATOM     16  C   UNL     1       1.378   1.291   0.985  1.00  0.00     0.308 C 
ATOM     17  C   UNL     1       1.473   0.153   0.011  1.00  0.00     0.139 C 
ATOM     18  O   UNL     1       1.718   2.441   0.749  1.00  0.00    -0.252 OA
ENDBRANCH  15  16
ENDBRANCH  10  15
ENDBRANCH   7   9
ENDBRANCH   6   7
ENDBRANCH   5   6
ENDBRANCH   4   5
ENDBRANCH   3   4
ENDBRANCH   2   3
ENDBRANCH   1   2
BRANCH   1  19
ATOM     19  O   UNL     1      -2.288  -1.154   1.318  1.00  0.00    -0.376 OA
BRANCH  19  20
ATOM     20  C   UNL     1      -2.694  -2.516   1.369  1.00  0.00     0.202 C 
BRANCH  20  21
ATOM     21  C   UNL     1      -4.207  -2.775   1.437  1.00  0.00     0.261 C 
BRANCH  21  22
ATOM     22  O   UNL     1      -4.895  -2.169   2.543  1.00  0.00    -0.460 OA
BRANCH  22  23
ATOM     23  C   UNL     1      -4.614  -2.634   3.781  1.00  0.00     0.338 C 
ATOM     24  O   UNL     1      -3.836  -3.527   4.065  1.00  0.00    -0.246 OA
BRANCH  23  25
ATOM     25  C   UNL     1      -5.264  -1.734   4.761  1.00  0.00     0.060 A 
ATOM     26  C   UNL     1      -4.479  -1.146   5.761  1.00  0.00     0.016 A 
ATOM     27  C   UNL     1      -6.632  -1.454   4.683  1.00  0.00     0.016 A 
ATOM     28  C   UNL     1      -5.070  -0.304   6.706  1.00  0.00     0.010 A 
ATOM     29  C   UNL     1      -7.223  -0.620   5.637  1.00  0.00     0.010 A 
ATOM     30  C   UNL     1      -6.452  -0.066   6.672  1.00  0.00    -0.014 A 
BRANCH  30  31
ATOM     31  C   UNL     1      -7.106   0.632   7.807  1.00  0.00     0.031 A 
ATOM     32  C   UNL     1      -7.728  -0.191   8.902  1.00  0.00     0.074 A 
ATOM     33  C   UNL     1      -7.156   1.975   7.869  1.00  0.00     0.049 A 
ATOM     34  N   UNL     1      -8.303   0.201  10.009  1.00  0.00    -0.248 NA
ATOM     35  C   UNL     1      -7.698  -1.651   8.722  1.00  0.00     0.031 C 
ATOM     36  C   UNL     1      -6.633   2.889   6.856  1.00  0.00     0.029 A 
ATOM     37  N   UNL     1      -7.701   2.801   8.821  1.00  0.00    -0.354 N 
ATOM     38  C   UNL     1      -8.712  -0.959  10.654  1.00  0.00     0.074 A 
ATOM     39  C   UNL     1      -8.342  -2.069   9.802  1.00  0.00     0.031 C 
ATOM     40  C   UNL     1      -6.914   4.152   7.224  1.00  0.00     0.029 A 
ATOM     41  C   UNL     1      -7.636   4.135   8.496  1.00  0.00     0.049 A 
ATOM     42  H   UNL     1      -8.101   2.469   9.657  1.00  0.00     0.167 HD
ATOM     43  C   UNL     1      -9.316  -1.097  11.858  1.00  0.00     0.034 A 
ATOM     44  C   UNL     1      -8.112   5.216   9.146  1.00  0.00     0.034 A 
ATOM     45  C   UNL     1      -9.686   0.001  12.709  1.00  0.00     0.049 A 
ATOM     46  C   UNL     1      -8.780   5.044  10.486  1.00  0.00     0.074 A 
ATOM     47  C   UNL     1     -10.255  -0.040  13.970  1.00  0.00     0.029 A 
ATOM     48  N   UNL     1      -9.543   1.340  12.379  1.00  0.00    -0.354 N 
ATOM     49  N   UNL     1      -9.005   3.943  11.162  1.00  0.00    -0.248 NA
ATOM     50  C   UNL     1      -9.217   6.268  11.175  1.00  0.00     0.031 C 
ATOM     51  C   UNL     1     -10.471   1.277  14.395  1.00  0.00     0.029 A 
ATOM     52  C   UNL     1     -10.021   2.136  13.406  1.00  0.00     0.049 A 
ATOM     53  H   UNL     1      -9.157   1.675  11.538  1.00  0.00     0.167 HD
ATOM     54  C   UNL     1      -9.586   4.341  12.362  1.00  0.00     0.074 A 
ATOM     55  C   UNL     1      -9.651   5.787  12.333  1.00  0.00     0.031 C 
ATOM     56  C   UNL     1     -10.041   3.577  13.388  1.00  0.00     0.034 A 
BRANCH  43  57
ATOM     57  C   UNL     1      -9.572  -2.500  12.339  1.00  0.00     0.023 A 
ATOM     58  C   UNL     1      -8.487  -3.287  12.778  1.00  0.00     0.012 A 
ATOM     59  C   UNL     1     -10.874  -3.034  12.377  1.00  0.00     0.148 A 
ATOM     60  C   UNL     1      -8.688  -4.596  13.212  1.00  0.00     0.002 A 
ATOM     61  C   UNL     1     -11.071  -4.327  12.848  1.00  0.00     0.091 A 
ATOM     62  F   UNL     1     -11.889  -2.283  11.927  1.00  0.00    -0.205 F 
ATOM     63  C   UNL     1      -9.980  -5.113  13.256  1.00  0.00     0.022 A 
BRANCH  61  64
ATOM     64  S   UNL     1     -12.708  -5.051  13.003  1.00  0.00     0.127 S 
ATOM     65  O   UNL     1     -12.758  -5.921  11.829  1.00  0.00    -0.237 OA
ATOM     66  O   UNL     1     -12.618  -5.758  14.281  1.00  0.00    -0.237 OA
ATOM     67  O   UNL     1     -13.637  -3.929  13.000  1.00  0.00    -0.744 OA
ENDBRANCH  61  64
ENDBRANCH  43  57
BRANCH  44  68
ATOM     68  C   UNL     1      -7.930   6.571   8.552  1.00  0.00     0.023 A 
ATOM     69  C   UNL     1      -7.017   7.471   9.132  1.00  0.00     0.012 A 
ATOM     70  C   UNL     1      -8.637   6.956   7.396  1.00  0.00     0.148 A 
ATOM     71  C   UNL     1      -6.825   8.740   8.583  1.00  0.00     0.002 A 
ATOM     72  C   UNL     1      -8.403   8.201   6.824  1.00  0.00     0.091 A 
ATOM     73  F   UNL     1      -9.517   6.090   6.873  1.00  0.00    -0.205 F 
ATOM     74  C   UNL     1      -7.508   9.100   7.424  1.00  0.00     0.022 A 
BRANCH  72  75
ATOM     75  S   UNL     1      -9.147   8.701   5.267  1.00  0.00     0.127 S 
ATOM     76  O   UNL     1     -10.094   9.724   5.703  1.00  0.00    -0.237 OA
ATOM     77  O   UNL     1      -7.989   9.206   4.529  1.00  0.00    -0.237 OA
ATOM     78  O   UNL     1      -9.735   7.491   4.707  1.00  0.00    -0.744 OA
ENDBRANCH  72  75
ENDBRANCH  44  68
BRANCH  56  79
ATOM     79  C   UNL     1     -10.640   4.286  14.576  1.00  0.00     0.023 A 
ATOM     80  C   UNL     1     -11.910   4.888  14.461  1.00  0.00     0.012 A 
ATOM     81  C   UNL     1      -9.981   4.304  15.821  1.00  0.00     0.148 A 
ATOM     82  C   UNL     1     -12.497   5.524  15.554  1.00  0.00     0.002 A 
ATOM     83  C   UNL     1     -10.592   4.902  16.918  1.00  0.00     0.091 A 
ATOM     84  F   UNL     1      -8.764   3.748  15.911  1.00  0.00    -0.205 F 
ATOM     85  C   UNL     1     -11.844   5.522  16.784  1.00  0.00     0.022 A 
BRANCH  83  86
ATOM     86  S   UNL     1      -9.855   4.861  18.557  1.00  0.00     0.127 S 
ATOM     87  O   UNL     1      -9.251   6.188  18.648  1.00  0.00    -0.237 OA
ATOM     88  O   UNL     1     -11.019   4.661  19.423  1.00  0.00    -0.237 OA
ATOM     89  O   UNL     1      -8.924   3.740  18.541  1.00  0.00    -0.744 OA
ENDBRANCH  83  86
ENDBRANCH  56  79
ENDBRANCH  30  31
ENDBRANCH  23  25
ENDBRANCH  22  23
ENDBRANCH  21  22
ENDBRANCH  20  21
ENDBRANCH  19  20
ENDBRANCH   1  19
TORSDOF 22
