REMARK SMILES CC[C@@](C)(NC(=O)NCCc1ncn[nH]1)C(=O)OCCOCCOCCOC(=O)c1ccc(-c2c3nc(c(-c4cccc(S(=O)(=O)[O-])c4F)c4ccc([nH]4)c(-c4cccc(S(=O)(=O)[O-])c4F)c4nc(c(-c5cccc(S(=O)(=O)[O-])c5F)c5ccc2[nH]5)C=C4)C=C3)cc1
REMARK SMILES IDX 22 1 21 2 20 3 19 4 18 5 16 6 17 7 3 8 4 9 2 10 1 11 5 12
REMARK SMILES IDX 6 13 7 15 8 16 9 18 10 19 11 20 12 21 15 22 13 23 14 24
REMARK SMILES IDX 23 26 24 27 25 28 26 29 27 30 28 31 29 32 30 33 31 34 92 35
REMARK SMILES IDX 32 36 91 37 33 38 34 39 35 40 85 41 36 42 90 43 84 44 86 45
REMARK SMILES IDX 37 46 89 47 83 48 82 49 38 51 70 52 50 53 69 54 51 55 54 56
REMARK SMILES IDX 68 57 87 58 52 59 53 60 67 62 88 63 55 64 39 65 40 66 48 67
REMARK SMILES IDX 41 68 43 69 49 70 42 71 44 72 45 73 46 74 47 75 71 76 72 77
REMARK SMILES IDX 80 78 73 79 75 80 81 81 74 82 76 83 77 84 78 85 79 86 56 87
REMARK SMILES IDX 57 88 65 89 58 90 60 91 66 92 59 93 61 94 62 95 63 96 64 97
REMARK H PARENT 5 14 8 17 15 25 86 50 54 61
REMARK Flexibility Score: inf
ROOT
ATOM      1  C   UNL     1       3.911  -2.136   1.322  1.00  0.00     0.188 C 
ENDROOT
BRANCH   1   2
ATOM      2  O   UNL     1       5.188  -1.562   1.062  1.00  0.00    -0.376 OA
BRANCH   2   3
ATOM      3  C   UNL     1       5.557  -0.464   1.898  1.00  0.00     0.202 C 
BRANCH   3   4
ATOM      4  C   UNL     1       4.739   0.792   1.588  1.00  0.00     0.261 C 
BRANCH   4   5
ATOM      5  O   UNL     1       3.434   0.594   2.159  1.00  0.00    -0.462 OA
BRANCH   5   6
ATOM      6  C   UNL     1       2.374   1.192   1.584  1.00  0.00     0.331 C 
ATOM      7  O   UNL     1       2.475   2.078   0.743  1.00  0.00    -0.249 OA
BRANCH   6   8
ATOM      8  C   UNL     1       1.022   0.607   2.097  1.00  0.00     0.136 C 
ATOM      9  C   UNL     1       0.146   1.802   2.501  1.00  0.00     0.047 C 
BRANCH   8  10
ATOM     10  C   UNL     1       0.353  -0.172   0.906  1.00  0.00     0.037 C 
ATOM     11  C   UNL     1       0.311   0.471  -0.471  1.00  0.00     0.007 C 
ENDBRANCH   8  10
BRANCH   8  12
ATOM     12  N   UNL     1       1.006  -0.412   3.212  1.00  0.00    -0.322 N 
ATOM     13  C   UNL     1       1.112  -0.436   4.541  1.00  0.00     0.315 C 
ATOM     14  H   UNL     1       0.880  -1.321   2.854  1.00  0.00     0.166 HD
ATOM     15  O   UNL     1       0.414  -1.254   5.145  1.00  0.00    -0.249 OA
ATOM     16  N   UNL     1       1.925   0.334   5.269  1.00  0.00    -0.338 N 
ATOM     17  H   UNL     1       1.630   0.522   6.189  1.00  0.00     0.165 HD
BRANCH  16  18
ATOM     18  C   UNL     1       3.180   0.925   4.874  1.00  0.00     0.125 C 
BRANCH  18  19
ATOM     19  C   UNL     1       4.030   1.455   6.035  1.00  0.00     0.098 C 
BRANCH  19  20
ATOM     20  C   UNL     1       5.370   0.802   6.059  1.00  0.00     0.125 A 
ATOM     21  N   UNL     1       5.670  -0.410   6.475  1.00  0.00    -0.220 NA
ATOM     22  N   UNL     1       6.507   1.395   5.584  1.00  0.00    -0.263 N 
ATOM     23  C   UNL     1       6.999  -0.525   6.184  1.00  0.00     0.246 A 
ATOM     24  N   UNL     1       7.558   0.564   5.654  1.00  0.00    -0.162 NA
ATOM     25  H   UNL     1       6.549   2.315   5.236  1.00  0.00     0.192 HD
ENDBRANCH  19  20
ENDBRANCH  18  19
ENDBRANCH  16  18
ENDBRANCH   8  12
ENDBRANCH   6   8
ENDBRANCH   5   6
ENDBRANCH   4   5
ENDBRANCH   3   4
ENDBRANCH   2   3
ENDBRANCH   1   2
BRANCH   1  26
ATOM     26  C   UNL     1       3.921  -3.149   2.451  1.00  0.00     0.188 C 
BRANCH  26  27
ATOM     27  O   UNL     1       4.219  -2.641   3.748  1.00  0.00    -0.376 OA
BRANCH  27  28
ATOM     28  C   UNL     1       5.103  -3.497   4.489  1.00  0.00     0.202 C 
BRANCH  28  29
ATOM     29  C   UNL     1       4.550  -4.883   4.878  1.00  0.00     0.261 C 
BRANCH  29  30
ATOM     30  O   UNL     1       4.238  -5.665   3.710  1.00  0.00    -0.460 OA
BRANCH  30  31
ATOM     31  C   UNL     1       2.923  -5.966   3.532  1.00  0.00     0.338 C 
ATOM     32  O   UNL     1       2.049  -5.934   4.373  1.00  0.00    -0.246 OA
BRANCH  31  33
ATOM     33  C   UNL     1       2.657  -6.082   2.071  1.00  0.00     0.060 A 
ATOM     34  C   UNL     1       1.447  -5.554   1.587  1.00  0.00     0.016 A 
ATOM     35  C   UNL     1       3.609  -6.580   1.177  1.00  0.00     0.016 A 
ATOM     36  C   UNL     1       1.170  -5.558   0.218  1.00  0.00     0.010 A 
ATOM     37  C   UNL     1       3.326  -6.600  -0.190  1.00  0.00     0.010 A 
ATOM     38  C   UNL     1       2.091  -6.128  -0.668  1.00  0.00    -0.014 A 
BRANCH  38  39
ATOM     39  C   UNL     1       1.667  -6.520  -2.033  1.00  0.00     0.031 A 
ATOM     40  C   UNL     1       1.122  -7.912  -2.197  1.00  0.00     0.074 A 
ATOM     41  C   UNL     1       1.840  -5.721  -3.099  1.00  0.00     0.049 A 
ATOM     42  N   UNL     1       0.822  -8.565  -3.286  1.00  0.00    -0.248 NA
ATOM     43  C   UNL     1       0.907  -8.677  -0.955  1.00  0.00     0.031 C 
ATOM     44  C   UNL     1       2.366  -4.359  -3.064  1.00  0.00     0.029 A 
ATOM     45  N   UNL     1       1.636  -5.972  -4.434  1.00  0.00    -0.354 N 
ATOM     46  C   UNL     1       0.431  -9.830  -2.865  1.00  0.00     0.074 A 
ATOM     47  C   UNL     1       0.526  -9.853  -1.424  1.00  0.00     0.031 C 
ATOM     48  C   UNL     1       2.498  -3.913  -4.327  1.00  0.00     0.029 A 
ATOM     49  C   UNL     1       2.092  -4.968  -5.256  1.00  0.00     0.049 A 
ATOM     50  H   UNL     1       1.204  -6.791  -4.770  1.00  0.00     0.167 HD
ATOM     51  C   UNL     1       0.026 -10.883  -3.609  1.00  0.00     0.034 A 
ATOM     52  C   UNL     1       2.207  -4.928  -6.599  1.00  0.00     0.034 A 
ATOM     53  C   UNL     1      -0.076 -10.856  -5.039  1.00  0.00     0.049 A 
ATOM     54  C   UNL     1       1.750  -6.112  -7.415  1.00  0.00     0.074 A 
ATOM     55  C   UNL     1      -0.534 -11.846  -5.887  1.00  0.00     0.029 A 
ATOM     56  N   UNL     1       0.307  -9.786  -5.832  1.00  0.00    -0.354 N 
ATOM     57  N   UNL     1       1.246  -7.252  -7.005  1.00  0.00    -0.248 NA
ATOM     58  C   UNL     1       1.850  -5.998  -8.879  1.00  0.00     0.031 C 
ATOM     59  C   UNL     1      -0.406 -11.382  -7.200  1.00  0.00     0.029 A 
ATOM     60  C   UNL     1       0.110 -10.095  -7.165  1.00  0.00     0.049 A 
ATOM     61  H   UNL     1       0.667  -8.933  -5.497  1.00  0.00     0.167 HD
ATOM     62  C   UNL     1       0.941  -7.976  -8.155  1.00  0.00     0.074 A 
ATOM     63  C   UNL     1       1.304  -7.140  -9.280  1.00  0.00     0.031 C 
ATOM     64  C   UNL     1       0.419  -9.223  -8.269  1.00  0.00     0.034 A 
BRANCH  51  65
ATOM     65  C   UNL     1      -0.341 -12.141  -2.874  1.00  0.00     0.023 A 
ATOM     66  C   UNL     1      -1.539 -12.191  -2.131  1.00  0.00     0.012 A 
ATOM     67  C   UNL     1       0.498 -13.270  -2.914  1.00  0.00     0.148 A 
ATOM     68  C   UNL     1      -1.875 -13.333  -1.407  1.00  0.00     0.002 A 
ATOM     69  C   UNL     1       0.134 -14.419  -2.224  1.00  0.00     0.091 A 
ATOM     70  F   UNL     1       1.650 -13.189  -3.595  1.00  0.00    -0.205 F 
ATOM     71  C   UNL     1      -1.045 -14.449  -1.461  1.00  0.00     0.022 A 
BRANCH  69  72
ATOM     72  S   UNL     1       1.109 -15.925  -2.295  1.00  0.00     0.127 S 
ATOM     73  O   UNL     1       1.798 -15.893  -1.006  1.00  0.00    -0.237 OA
ATOM     74  O   UNL     1       0.079 -16.958  -2.409  1.00  0.00    -0.237 OA
ATOM     75  O   UNL     1       1.959 -15.791  -3.469  1.00  0.00    -0.744 OA
ENDBRANCH  69  72
ENDBRANCH  51  65
BRANCH  52  76
ATOM     76  C   UNL     1       2.767  -3.712  -7.258  1.00  0.00     0.023 A 
ATOM     77  C   UNL     1       1.917  -2.868  -7.998  1.00  0.00     0.012 A 
ATOM     78  C   UNL     1       4.128  -3.370  -7.124  1.00  0.00     0.148 A 
ATOM     79  C   UNL     1       2.415  -1.715  -8.607  1.00  0.00     0.002 A 
ATOM     80  C   UNL     1       4.606  -2.194  -7.690  1.00  0.00     0.091 A 
ATOM     81  F   UNL     1       4.924  -4.197  -6.432  1.00  0.00    -0.205 F 
ATOM     82  C   UNL     1       3.755  -1.372  -8.444  1.00  0.00     0.022 A 
BRANCH  80  83
ATOM     83  S   UNL     1       6.285  -1.608  -7.434  1.00  0.00     0.127 S 
ATOM     84  O   UNL     1       6.855  -1.736  -8.772  1.00  0.00    -0.237 OA
ATOM     85  O   UNL     1       6.058  -0.232  -6.990  1.00  0.00    -0.237 OA
ATOM     86  O   UNL     1       6.857  -2.481  -6.418  1.00  0.00    -0.744 OA
ENDBRANCH  80  83
ENDBRANCH  52  76
BRANCH  64  87
ATOM     87  C   UNL     1       0.164  -9.765  -9.650  1.00  0.00     0.023 A 
ATOM     88  C   UNL     1       1.241 -10.233 -10.427  1.00  0.00     0.012 A 
ATOM     89  C   UNL     1      -1.155  -9.939 -10.116  1.00  0.00     0.148 A 
ATOM     90  C   UNL     1       1.010 -10.856 -11.653  1.00  0.00     0.002 A 
ATOM     91  C   UNL     1      -1.380 -10.600 -11.317  1.00  0.00     0.091 A 
ATOM     92  F   UNL     1      -2.163  -9.472  -9.365  1.00  0.00    -0.205 F 
ATOM     93  C   UNL     1      -0.299 -11.052 -12.091  1.00  0.00     0.022 A 
BRANCH  91  94
ATOM     94  S   UNL     1      -3.032 -10.989 -11.908  1.00  0.00     0.127 S 
ATOM     95  O   UNL     1      -3.167 -10.073 -13.039  1.00  0.00    -0.237 OA
ATOM     96  O   UNL     1      -2.906 -12.399 -12.276  1.00  0.00    -0.237 OA
ATOM     97  O   UNL     1      -3.930 -10.735 -10.789  1.00  0.00    -0.744 OA
ENDBRANCH  91  94
ENDBRANCH  64  87
ENDBRANCH  38  39
ENDBRANCH  31  33
ENDBRANCH  30  31
ENDBRANCH  29  30
ENDBRANCH  28  29
ENDBRANCH  27  28
ENDBRANCH  26  27
ENDBRANCH   1  26
TORSDOF 25
