REMARK SMILES NC(=O)c1cc(NC(=O)/C=C\C(=O)OCCOCCOCCOC(=O)c2ccc(-c3c4nc(c(-c5cccc(S(=O)(=O)[O-])c5F)c5ccc([nH]5)c(-c5cccc(S(=O)(=O)[O-])c5F)c5nc(c(-c6cccc(S(=O)(=O)[O-])c6F)c6ccc3[nH]6)C=C5)C=C4)cc2)ccc1N1CCOCC1
REMARK SMILES IDX 18 1 17 2 16 3 15 4 14 5 12 6 13 7 11 8 10 9 8 10 7 11 9 13
REMARK SMILES IDX 6 14 4 15 5 16 91 17 90 18 89 19 2 20 1 21 3 24 92 25 93 26
REMARK SMILES IDX 97 27 94 28 96 29 95 30 19 31 20 32 21 33 22 34 23 35 24 36
REMARK SMILES IDX 25 37 26 38 27 39 88 40 28 41 87 42 29 43 30 44 31 45 81 46
REMARK SMILES IDX 32 47 86 48 80 49 82 50 33 51 85 52 79 53 78 54 34 56 66 57
REMARK SMILES IDX 46 58 65 59 47 60 50 61 64 62 83 63 48 64 49 65 63 67 84 68
REMARK SMILES IDX 51 69 35 70 36 71 44 72 37 73 39 74 45 75 38 76 40 77 41 78
REMARK SMILES IDX 42 79 43 80 67 81 68 82 76 83 69 84 71 85 77 86 70 87 72 88
REMARK SMILES IDX 73 89 74 90 75 91 52 92 53 93 61 94 54 95 56 96 62 97 55 98
REMARK SMILES IDX 57 99 58 100 59 101 60 102
REMARK H PARENT 7 12 1 22 1 23 82 55 50 66
REMARK Flexibility Score: inf
ROOT
ATOM      1  C   UNL     1       3.696   3.232   0.041  1.00  0.00     0.188 C 
ENDROOT
BRANCH   1   2
ATOM      2  O   UNL     1       4.283   3.381  -1.250  1.00  0.00    -0.376 OA
BRANCH   2   3
ATOM      3  C   UNL     1       3.369   3.487  -2.334  1.00  0.00     0.202 C 
BRANCH   3   4
ATOM      4  C   UNL     1       2.807   4.896  -2.533  1.00  0.00     0.261 C 
BRANCH   4   5
ATOM      5  O   UNL     1       1.451   5.208  -2.124  1.00  0.00    -0.460 OA
BRANCH   5   6
ATOM      6  C   UNL     1       0.671   4.389  -1.396  1.00  0.00     0.331 C 
ATOM      7  O   UNL     1       0.965   3.324  -0.882  1.00  0.00    -0.247 OA
BRANCH   6   8
ATOM      8  C   UNL     1      -0.661   4.964  -1.192  1.00  0.00     0.099 C 
ATOM      9  C   UNL     1      -1.429   5.493  -2.153  1.00  0.00     0.079 C 
BRANCH   9  10
ATOM     10  C   UNL     1      -1.072   5.708  -3.574  1.00  0.00     0.248 C 
ATOM     11  N   UNL     1      -0.514   4.745  -4.367  1.00  0.00    -0.322 N 
ATOM     12  H   UNL     1      -0.237   5.075  -5.253  1.00  0.00     0.170 HD
ATOM     13  O   UNL     1      -1.266   6.832  -4.043  1.00  0.00    -0.270 OA
BRANCH  11  14
ATOM     14  C   UNL     1      -0.255   3.377  -4.170  1.00  0.00     0.042 A 
ATOM     15  C   UNL     1      -0.413   1.335  -2.856  1.00  0.00     0.064 A 
ATOM     16  C   UNL     1      -0.946   2.575  -3.270  1.00  0.00     0.042 A 
ATOM     17  C   UNL     1       0.781   0.830  -3.425  1.00  0.00     0.050 A 
ATOM     18  C   UNL     1       1.341   1.577  -4.478  1.00  0.00     0.029 A 
ATOM     19  C   UNL     1       0.834   2.831  -4.847  1.00  0.00     0.028 A 
BRANCH  15  20
ATOM     20  C   UNL     1      -1.099   0.746  -1.667  1.00  0.00     0.250 C 
ATOM     21  N   UNL     1      -0.318   0.098  -0.758  1.00  0.00    -0.366 N 
ATOM     22  H   UNL     1      -0.726  -0.307   0.042  1.00  0.00     0.159 HD
ATOM     23  H   UNL     1       0.654   0.033  -0.901  1.00  0.00     0.159 HD
ATOM     24  O   UNL     1      -2.300   0.910  -1.481  1.00  0.00    -0.269 OA
ENDBRANCH  15  20
BRANCH  17  25
ATOM     25  N   UNL     1       1.424  -0.314  -2.950  1.00  0.00    -0.366 N 
ATOM     26  C   UNL     1       0.785  -1.623  -3.239  1.00  0.00     0.145 C 
ATOM     27  C   UNL     1       2.899  -0.374  -2.892  1.00  0.00     0.145 C 
ATOM     28  C   UNL     1       1.356  -2.715  -2.312  1.00  0.00     0.181 C 
ATOM     29  C   UNL     1       3.342  -1.502  -1.952  1.00  0.00     0.181 C 
ATOM     30  O   UNL     1       2.795  -2.751  -2.385  1.00  0.00    -0.378 OA
ENDBRANCH  17  25
ENDBRANCH  11  14
ENDBRANCH   9  10
ENDBRANCH   6   8
ENDBRANCH   5   6
ENDBRANCH   4   5
ENDBRANCH   3   4
ENDBRANCH   2   3
ENDBRANCH   1   2
BRANCH   1  31
ATOM     31  C   UNL     1       3.246   4.556   0.685  1.00  0.00     0.188 C 
BRANCH  31  32
ATOM     32  O   UNL     1       4.083   5.700   0.533  1.00  0.00    -0.376 OA
BRANCH  32  33
ATOM     33  C   UNL     1       5.488   5.496   0.575  1.00  0.00     0.202 C 
BRANCH  33  34
ATOM     34  C   UNL     1       6.073   5.112   1.939  1.00  0.00     0.261 C 
BRANCH  34  35
ATOM     35  O   UNL     1       5.537   3.879   2.453  1.00  0.00    -0.460 OA
BRANCH  35  36
ATOM     36  C   UNL     1       4.704   4.007   3.522  1.00  0.00     0.338 C 
ATOM     37  O   UNL     1       4.472   5.017   4.145  1.00  0.00    -0.246 OA
BRANCH  36  38
ATOM     38  C   UNL     1       3.922   2.754   3.700  1.00  0.00     0.060 A 
ATOM     39  C   UNL     1       2.534   2.878   3.875  1.00  0.00     0.016 A 
ATOM     40  C   UNL     1       4.524   1.496   3.744  1.00  0.00     0.016 A 
ATOM     41  C   UNL     1       1.752   1.757   4.154  1.00  0.00     0.010 A 
ATOM     42  C   UNL     1       3.745   0.375   4.060  1.00  0.00     0.010 A 
ATOM     43  C   UNL     1       2.367   0.511   4.315  1.00  0.00    -0.014 A 
BRANCH  43  44
ATOM     44  C   UNL     1       1.642  -0.564   5.037  1.00  0.00     0.031 A 
ATOM     45  C   UNL     1       1.789  -0.613   6.537  1.00  0.00     0.074 A 
ATOM     46  C   UNL     1       0.883  -1.476   4.404  1.00  0.00     0.049 A 
ATOM     47  N   UNL     1       1.330  -1.490   7.389  1.00  0.00    -0.248 NA
ATOM     48  C   UNL     1       2.565   0.478   7.154  1.00  0.00     0.031 C 
ATOM     49  C   UNL     1       0.631  -1.522   2.966  1.00  0.00     0.029 A 
ATOM     50  N   UNL     1       0.206  -2.562   4.903  1.00  0.00    -0.354 N 
ATOM     51  C   UNL     1       1.786  -1.076   8.635  1.00  0.00     0.074 A 
ATOM     52  C   UNL     1       2.556   0.130   8.431  1.00  0.00     0.031 C 
ATOM     53  C   UNL     1      -0.115  -2.608   2.692  1.00  0.00     0.029 A 
ATOM     54  C   UNL     1      -0.369  -3.346   3.930  1.00  0.00     0.049 A 
ATOM     55  H   UNL     1       0.139  -2.760   5.865  1.00  0.00     0.167 HD
ATOM     56  C   UNL     1       1.577  -1.640   9.847  1.00  0.00     0.034 A 
ATOM     57  C   UNL     1      -0.997  -4.536   4.031  1.00  0.00     0.034 A 
ATOM     58  C   UNL     1       0.803  -2.828  10.062  1.00  0.00     0.049 A 
ATOM     59  C   UNL     1      -1.176  -5.171   5.390  1.00  0.00     0.074 A 
ATOM     60  C   UNL     1       0.509  -3.458  11.257  1.00  0.00     0.029 A 
ATOM     61  N   UNL     1       0.208  -3.573   9.057  1.00  0.00    -0.354 N 
ATOM     62  N   UNL     1      -0.834  -4.713   6.571  1.00  0.00    -0.248 NA
ATOM     63  C   UNL     1      -1.847  -6.481   5.432  1.00  0.00     0.031 C 
ATOM     64  C   UNL     1      -0.248  -4.599  10.973  1.00  0.00     0.029 A 
ATOM     65  C   UNL     1      -0.441  -4.666   9.602  1.00  0.00     0.049 A 
ATOM     66  H   UNL     1       0.243  -3.357   8.097  1.00  0.00     0.167 HD
ATOM     67  C   UNL     1      -1.279  -5.657   7.493  1.00  0.00     0.074 A 
ATOM     68  C   UNL     1      -1.932  -6.704   6.737  1.00  0.00     0.031 C 
ATOM     69  C   UNL     1      -1.143  -5.667   8.842  1.00  0.00     0.034 A 
BRANCH  56  70
ATOM     70  C   UNL     1       2.188  -0.960  11.040  1.00  0.00     0.023 A 
ATOM     71  C   UNL     1       1.609   0.224  11.538  1.00  0.00     0.012 A 
ATOM     72  C   UNL     1       3.309  -1.512  11.690  1.00  0.00     0.148 A 
ATOM     73  C   UNL     1       2.151   0.863  12.651  1.00  0.00     0.002 A 
ATOM     74  C   UNL     1       3.820  -0.891  12.822  1.00  0.00     0.091 A 
ATOM     75  F   UNL     1       3.862  -2.622  11.179  1.00  0.00    -0.205 F 
ATOM     76  C   UNL     1       3.248   0.301  13.299  1.00  0.00     0.022 A 
BRANCH  74  77
ATOM     77  S   UNL     1       5.188  -1.574  13.763  1.00  0.00     0.127 S 
ATOM     78  O   UNL     1       6.266  -0.642  13.435  1.00  0.00    -0.237 OA
ATOM     79  O   UNL     1       4.695  -1.478  15.138  1.00  0.00    -0.237 OA
ATOM     80  O   UNL     1       5.368  -2.935  13.278  1.00  0.00    -0.744 OA
ENDBRANCH  74  77
ENDBRANCH  56  70
BRANCH  57  81
ATOM     81  C   UNL     1      -1.520  -5.215   2.810  1.00  0.00     0.023 A 
ATOM     82  C   UNL     1      -2.909  -5.359   2.633  1.00  0.00     0.012 A 
ATOM     83  C   UNL     1      -0.648  -5.725   1.828  1.00  0.00     0.148 A 
ATOM     84  C   UNL     1      -3.420  -6.028   1.520  1.00  0.00     0.002 A 
ATOM     85  C   UNL     1      -1.165  -6.337   0.692  1.00  0.00     0.091 A 
ATOM     86  F   UNL     1       0.672  -5.597   2.023  1.00  0.00    -0.205 F 
ATOM     87  C   UNL     1      -2.550  -6.508   0.545  1.00  0.00     0.022 A 
BRANCH  85  88
ATOM     88  S   UNL     1      -0.129  -6.862  -0.678  1.00  0.00     0.127 S 
ATOM     89  O   UNL     1      -0.277  -8.314  -0.628  1.00  0.00    -0.237 OA
ATOM     90  O   UNL     1      -0.783  -6.210  -1.813  1.00  0.00    -0.237 OA
ATOM     91  O   UNL     1       1.202  -6.351  -0.380  1.00  0.00    -0.744 OA
ENDBRANCH  85  88
ENDBRANCH  57  81
BRANCH  69  92
ATOM     92  C   UNL     1      -1.733  -6.824   9.606  1.00  0.00     0.023 A 
ATOM     93  C   UNL     1      -1.097  -8.080   9.570  1.00  0.00     0.012 A 
ATOM     94  C   UNL     1      -2.858  -6.642  10.436  1.00  0.00     0.148 A 
ATOM     95  C   UNL     1      -1.585  -9.144  10.329  1.00  0.00     0.002 A 
ATOM     96  C   UNL     1      -3.312  -7.693  11.224  1.00  0.00     0.091 A 
ATOM     97  F   UNL     1      -3.459  -5.443  10.444  1.00  0.00    -0.205 F 
ATOM     98  C   UNL     1      -2.683  -8.947  11.164  1.00  0.00     0.022 A 
BRANCH  96  99
ATOM     99  S   UNL     1      -4.658  -7.502  12.399  1.00  0.00     0.127 S 
ATOM    100  O   UNL     1      -5.751  -8.191  11.716  1.00  0.00    -0.237 OA
ATOM    101  O   UNL     1      -4.143  -8.197  13.580  1.00  0.00    -0.237 OA
ATOM    102  O   UNL     1      -4.833  -6.067  12.575  1.00  0.00    -0.744 OA
ENDBRANCH  96  99
ENDBRANCH  69  92
ENDBRANCH  43  44
ENDBRANCH  36  38
ENDBRANCH  35  36
ENDBRANCH  34  35
ENDBRANCH  33  34
ENDBRANCH  32  33
ENDBRANCH  31  32
ENDBRANCH   1  31
TORSDOF 24
