REMARK SMILES Cc1nn(-c2cc(Cl)ccc2Cl)nc1C(=O)OCCOCCOCCOC(=O)c1ccc(-c2c3nc(c(-c4cccc(S(=O)(=O)[O-])c4F)c4ccc([nH]4)c(-c4cccc(S(=O)(=O)[O-])c4F)c4nc(c(-c5cccc(S(=O)(=O)[O-])c5F)c5ccc2[nH]5)C=C4)C=C3)cc1
REMARK SMILES IDX 22 1 21 2 20 3 19 4 18 5 17 6 15 7 16 8 14 9 1 10 2 11 3 12
REMARK SMILES IDX 4 13 13 14 5 15 6 16 11 17 7 18 10 19 12 20 8 21 9 22 23 23
REMARK SMILES IDX 24 24 25 25 26 26 27 27 28 28 29 29 30 30 91 31 31 32 90 33
REMARK SMILES IDX 32 34 33 35 34 36 84 37 35 38 89 39 83 40 85 41 36 42 88 43
REMARK SMILES IDX 82 44 81 45 37 47 69 48 49 49 68 50 50 51 53 52 67 53 86 54
REMARK SMILES IDX 51 55 52 56 66 58 87 59 54 60 38 61 39 62 47 63 40 64 42 65
REMARK SMILES IDX 48 66 41 67 43 68 44 69 45 70 46 71 70 72 71 73 79 74 72 75
REMARK SMILES IDX 74 76 80 77 73 78 75 79 76 80 77 81 78 82 55 83 56 84 64 85
REMARK SMILES IDX 57 86 59 87 65 88 58 89 60 90 61 91 62 92 63 93
REMARK H PARENT 85 46 53 57
REMARK Flexibility Score: inf
ROOT
ATOM      1  C   UNL     1      -0.034   2.867  -1.705  1.00  0.00     0.188 C 
ENDROOT
BRANCH   1   2
ATOM      2  C   UNL     1       0.672   4.214  -1.417  1.00  0.00     0.188 C 
BRANCH   2   3
ATOM      3  O   UNL     1       1.776   4.668  -2.188  1.00  0.00    -0.376 OA
BRANCH   3   4
ATOM      4  C   UNL     1       2.673   3.738  -2.770  1.00  0.00     0.202 C 
BRANCH   4   5
ATOM      5  C   UNL     1       3.428   2.761  -1.849  1.00  0.00     0.261 C 
BRANCH   5   6
ATOM      6  O   UNL     1       2.628   2.151  -0.821  1.00  0.00    -0.458 OA
BRANCH   6   7
ATOM      7  C   UNL     1       2.854   2.596   0.455  1.00  0.00     0.360 C 
ATOM      8  O   UNL     1       3.813   3.267   0.786  1.00  0.00    -0.244 OA
BRANCH   7   9
ATOM      9  C   UNL     1       1.742   2.271   1.360  1.00  0.00     0.193 A 
ATOM     10  C   UNL     1       0.879  -0.092   0.589  1.00  0.00     0.071 C 
ATOM     11  C   UNL     1       0.885   1.139   1.416  1.00  0.00     0.095 A 
ATOM     12  N   UNL     1      -0.040   1.318   2.374  1.00  0.00    -0.153 NA
ATOM     13  N   UNL     1       0.283   2.538   2.853  1.00  0.00    -0.149 N 
ATOM     14  N   UNL     1       1.317   3.168   2.272  1.00  0.00    -0.141 NA
BRANCH  13  15
ATOM     15  C   UNL     1      -0.429   3.156   3.886  1.00  0.00     0.106 A 
ATOM     16  C   UNL     1      -1.347   4.168   3.565  1.00  0.00     0.052 A 
ATOM     17  C   UNL     1      -0.118   2.857   5.215  1.00  0.00     0.068 A 
ATOM     18  C   UNL     1      -1.962   4.872   4.598  1.00  0.00     0.043 A 
ATOM     19  C   UNL     1      -0.730   3.587   6.237  1.00  0.00     0.024 A 
ATOM     20  Cl  UNL     1       1.043   1.659   5.660  1.00  0.00    -0.082 Cl
ATOM     21  Cl  UNL     1      -3.101   6.109   4.237  1.00  0.00    -0.084 Cl
ATOM     22  C   UNL     1      -1.651   4.593   5.930  1.00  0.00     0.022 A 
ENDBRANCH  13  15
ENDBRANCH   7   9
ENDBRANCH   6   7
ENDBRANCH   5   6
ENDBRANCH   4   5
ENDBRANCH   3   4
ENDBRANCH   2   3
ENDBRANCH   1   2
BRANCH   1  23
ATOM     23  O   UNL     1       0.538   2.058  -2.726  1.00  0.00    -0.376 OA
BRANCH  23  24
ATOM     24  C   UNL     1      -0.292   1.765  -3.848  1.00  0.00     0.202 C 
BRANCH  24  25
ATOM     25  C   UNL     1      -0.530   2.928  -4.812  1.00  0.00     0.261 C 
BRANCH  25  26
ATOM     26  O   UNL     1      -0.861   4.138  -4.153  1.00  0.00    -0.460 OA
BRANCH  26  27
ATOM     27  C   UNL     1      -2.068   4.158  -3.556  1.00  0.00     0.338 C 
ATOM     28  O   UNL     1      -2.847   3.227  -3.445  1.00  0.00    -0.246 OA
BRANCH  27  29
ATOM     29  C   UNL     1      -2.318   5.522  -3.077  1.00  0.00     0.060 A 
ATOM     30  C   UNL     1      -3.518   5.712  -2.392  1.00  0.00     0.016 A 
ATOM     31  C   UNL     1      -1.598   6.577  -3.657  1.00  0.00     0.016 A 
ATOM     32  C   UNL     1      -4.178   6.892  -2.611  1.00  0.00     0.010 A 
ATOM     33  C   UNL     1      -2.268   7.746  -3.897  1.00  0.00     0.010 A 
ATOM     34  C   UNL     1      -3.594   7.815  -3.484  1.00  0.00    -0.014 A 
BRANCH  34  35
ATOM     35  C   UNL     1      -4.476   8.779  -4.087  1.00  0.00     0.031 A 
ATOM     36  C   UNL     1      -4.761   9.951  -3.254  1.00  0.00     0.074 A 
ATOM     37  C   UNL     1      -4.961   8.598  -5.328  1.00  0.00     0.049 A 
ATOM     38  N   UNL     1      -5.891  10.268  -2.720  1.00  0.00    -0.248 NA
ATOM     39  C   UNL     1      -3.626  10.785  -2.850  1.00  0.00     0.031 C 
ATOM     40  C   UNL     1      -4.524   7.632  -6.341  1.00  0.00     0.029 A 
ATOM     41  N   UNL     1      -5.862   9.367  -5.993  1.00  0.00    -0.354 N 
ATOM     42  C   UNL     1      -5.653  11.466  -2.062  1.00  0.00     0.074 A 
ATOM     43  C   UNL     1      -4.223  11.640  -2.023  1.00  0.00     0.031 C 
ATOM     44  C   UNL     1      -4.958   8.050  -7.551  1.00  0.00     0.029 A 
ATOM     45  C   UNL     1      -5.790   9.227  -7.369  1.00  0.00     0.049 A 
ATOM     46  H   UNL     1      -6.502   9.964  -5.542  1.00  0.00     0.167 HD
ATOM     47  C   UNL     1      -6.657  12.337  -1.789  1.00  0.00     0.034 A 
ATOM     48  C   UNL     1      -6.278  10.106  -8.275  1.00  0.00     0.034 A 
ATOM     49  C   UNL     1      -7.955  11.736  -1.940  1.00  0.00     0.049 A 
ATOM     50  C   UNL     1      -7.306  10.932  -7.591  1.00  0.00     0.074 A 
ATOM     51  C   UNL     1      -8.612  10.678  -1.345  1.00  0.00     0.029 A 
ATOM     52  N   UNL     1      -8.653  12.023  -3.088  1.00  0.00    -0.354 N 
ATOM     53  N   UNL     1      -8.448  10.463  -7.168  1.00  0.00    -0.248 NA
ATOM     54  C   UNL     1      -6.897  12.194  -6.994  1.00  0.00     0.031 C 
ATOM     55  C   UNL     1      -9.405  10.103  -2.380  1.00  0.00     0.029 A 
ATOM     56  C   UNL     1      -9.199  10.851  -3.542  1.00  0.00     0.049 A 
ATOM     57  H   UNL     1      -8.744  12.909  -3.509  1.00  0.00     0.167 HD
ATOM     58  C   UNL     1      -8.675  11.118  -5.963  1.00  0.00     0.074 A 
ATOM     59  C   UNL     1      -7.760  12.256  -5.975  1.00  0.00     0.031 C 
ATOM     60  C   UNL     1      -9.360  10.514  -4.943  1.00  0.00     0.034 A 
BRANCH  47  61
ATOM     61  C   UNL     1      -6.472  13.822  -1.677  1.00  0.00     0.023 A 
ATOM     62  C   UNL     1      -7.526  14.569  -1.115  1.00  0.00     0.012 A 
ATOM     63  C   UNL     1      -5.429  14.541  -2.303  1.00  0.00     0.148 A 
ATOM     64  C   UNL     1      -7.550  15.964  -1.190  1.00  0.00     0.002 A 
ATOM     65  C   UNL     1      -5.411  15.929  -2.292  1.00  0.00     0.091 A 
ATOM     66  F   UNL     1      -4.513  13.899  -3.037  1.00  0.00    -0.205 F 
ATOM     67  C   UNL     1      -6.483  16.647  -1.763  1.00  0.00     0.022 A 
BRANCH  65  68
ATOM     68  S   UNL     1      -4.005  16.831  -2.950  1.00  0.00     0.127 S 
ATOM     69  O   UNL     1      -4.452  17.130  -4.306  1.00  0.00    -0.237 OA
ATOM     70  O   UNL     1      -3.930  17.984  -2.053  1.00  0.00    -0.237 OA
ATOM     71  O   UNL     1      -2.880  15.910  -2.824  1.00  0.00    -0.744 OA
ENDBRANCH  65  68
ENDBRANCH  47  61
BRANCH  48  72
ATOM     72  C   UNL     1      -5.713  10.451  -9.599  1.00  0.00     0.023 A 
ATOM     73  C   UNL     1      -6.522  11.079 -10.562  1.00  0.00     0.012 A 
ATOM     74  C   UNL     1      -4.322  10.376  -9.847  1.00  0.00     0.148 A 
ATOM     75  C   UNL     1      -5.965  11.623 -11.727  1.00  0.00     0.002 A 
ATOM     76  C   UNL     1      -3.777  10.892 -11.018  1.00  0.00     0.091 A 
ATOM     77  F   UNL     1      -3.513   9.890  -8.896  1.00  0.00    -0.205 F 
ATOM     78  C   UNL     1      -4.594  11.527 -11.957  1.00  0.00     0.022 A 
BRANCH  76  79
ATOM     79  S   UNL     1      -2.015  10.779 -11.362  1.00  0.00     0.127 S 
ATOM     80  O   UNL     1      -1.997  10.496 -12.798  1.00  0.00    -0.237 OA
ATOM     81  O   UNL     1      -1.547  12.111 -10.993  1.00  0.00    -0.237 OA
ATOM     82  O   UNL     1      -1.529   9.678 -10.537  1.00  0.00    -0.744 OA
ENDBRANCH  76  79
ENDBRANCH  48  72
BRANCH  60  83
ATOM     83  C   UNL     1     -10.068   9.209  -5.231  1.00  0.00     0.023 A 
ATOM     84  C   UNL     1      -9.355   8.066  -5.653  1.00  0.00     0.012 A 
ATOM     85  C   UNL     1     -11.422   9.065  -4.882  1.00  0.00     0.148 A 
ATOM     86  C   UNL     1      -9.979   6.821  -5.754  1.00  0.00     0.002 A 
ATOM     87  C   UNL     1     -12.029   7.813  -4.936  1.00  0.00     0.091 A 
ATOM     88  F   UNL     1     -12.093  10.152  -4.470  1.00  0.00    -0.205 F 
ATOM     89  C   UNL     1     -11.313   6.691  -5.381  1.00  0.00     0.022 A 
BRANCH  87  90
ATOM     90  S   UNL     1     -13.699   7.552  -4.330  1.00  0.00     0.127 S 
ATOM     91  O   UNL     1     -14.477   7.539  -5.567  1.00  0.00    -0.237 OA
ATOM     92  O   UNL     1     -13.597   6.254  -3.660  1.00  0.00    -0.237 OA
ATOM     93  O   UNL     1     -13.968   8.663  -3.425  1.00  0.00    -0.744 OA
ENDBRANCH  87  90
ENDBRANCH  60  83
ENDBRANCH  34  35
ENDBRANCH  27  29
ENDBRANCH  26  27
ENDBRANCH  25  26
ENDBRANCH  24  25
ENDBRANCH  23  24
ENDBRANCH   1  23
TORSDOF 21
