REMARK SMILES Cc1ccc(-c2nc(NC(=O)[C@H]3[C@@H](C(=O)OCCOCCOCCOC(=O)c4ccc(-c5c6nc(c(-c7cccc(S(=O)(=O)[O-])c7F)c7ccc([nH]7)c(-c7cccc(S(=O)(=O)[O-])c7F)c7nc(c(-c8cccc(S(=O)(=O)[O-])c8F)c8ccc5[nH]8)C=C7)C=C6)cc4)[C@@H]4CC[C@H]3O4)sc2C)cc1
REMARK SMILES IDX 20 1 19 2 18 3 17 4 16 5 14 6 15 7 13 8 12 9 94 10 91 11
REMARK SMILES IDX 93 12 95 13 92 14 10 15 9 16 11 18 8 19 6 20 7 21 97 22
REMARK SMILES IDX 96 23 98 24 5 25 1 26 2 27 3 28 100 29 4 30 99 31 21 32
REMARK SMILES IDX 22 33 23 34 24 35 25 36 26 37 27 38 28 39 29 40 90 41 30 42
REMARK SMILES IDX 89 43 31 44 32 45 33 46 83 47 34 48 88 49 82 50 84 51 35 52
REMARK SMILES IDX 87 53 81 54 80 55 36 57 68 58 48 59 67 60 49 61 52 62 66 63
REMARK SMILES IDX 85 64 50 65 51 66 65 68 86 69 53 70 37 71 38 72 46 73 39 74
REMARK SMILES IDX 41 75 47 76 40 77 42 78 43 79 44 80 45 81 69 82 70 83 78 84
REMARK SMILES IDX 71 85 73 86 79 87 72 88 74 89 75 90 76 91 77 92 54 93 55 94
REMARK SMILES IDX 63 95 56 96 58 97 64 98 57 99 59 100 60 101 61 102 62 103
REMARK H PARENT 9 17 84 56 52 67
REMARK Flexibility Score: inf
ROOT
ATOM      1  C   UNL     1      -6.692   4.169  -3.424  1.00  0.00     0.188 C 
ENDROOT
BRANCH   1   2
ATOM      2  O   UNL     1      -5.354   3.844  -3.783  1.00  0.00    -0.376 OA
BRANCH   2   3
ATOM      3  C   UNL     1      -4.439   3.530  -2.739  1.00  0.00     0.202 C 
BRANCH   3   4
ATOM      4  C   UNL     1      -4.813   2.769  -1.454  1.00  0.00     0.261 C 
BRANCH   4   5
ATOM      5  O   UNL     1      -5.009   1.323  -1.365  1.00  0.00    -0.463 OA
BRANCH   5   6
ATOM      6  C   UNL     1      -6.273   1.004  -1.002  1.00  0.00     0.312 C 
ATOM      7  O   UNL     1      -7.187   1.693  -1.427  1.00  0.00    -0.252 OA
BRANCH   6   8
ATOM      8  C   UNL     1      -6.597  -0.057   0.071  1.00  0.00     0.143 C 
ATOM      9  C   UNL     1      -5.550  -0.477   1.088  1.00  0.00     0.124 C 
ATOM     10  C   UNL     1      -5.465  -2.018   0.742  1.00  0.00     0.132 C 
ATOM     11  C   UNL     1      -7.129  -1.408  -0.469  1.00  0.00     0.133 C 
ATOM     12  C   UNL     1      -6.621  -2.843   1.344  1.00  0.00     0.035 C 
ATOM     13  O   UNL     1      -5.883  -2.080  -0.655  1.00  0.00    -0.373 OA
ATOM     14  C   UNL     1      -7.817  -2.305   0.580  1.00  0.00     0.036 C 
BRANCH   9  15
ATOM     15  C   UNL     1      -4.198   0.277   1.079  1.00  0.00     0.232 C 
ATOM     16  N   UNL     1      -3.945   1.613   1.349  1.00  0.00    -0.302 N 
ATOM     17  H   UNL     1      -2.979   1.797   1.397  1.00  0.00     0.172 HD
ATOM     18  O   UNL     1      -3.187  -0.370   0.758  1.00  0.00    -0.274 OA
BRANCH  16  19
ATOM     19  C   UNL     1      -4.697   2.760   1.568  1.00  0.00     0.190 A 
ATOM     20  C   UNL     1      -5.413   4.917   1.539  1.00  0.00     0.086 A 
ATOM     21  N   UNL     1      -4.297   4.036   1.431  1.00  0.00    -0.220 NA
ATOM     22  C   UNL     1      -6.588   4.230   1.730  1.00  0.00     0.031 A 
ATOM     23  S   UNL     1      -6.320   2.579   1.858  1.00  0.00    -0.101 S 
ATOM     24  C   UNL     1      -7.934   4.779   1.865  1.00  0.00     0.059 C 
BRANCH  20  25
ATOM     25  C   UNL     1      -5.524   6.407   1.406  1.00  0.00     0.001 A 
ATOM     26  C   UNL     1      -7.200  10.437   0.836  1.00  0.00     0.044 C 
ATOM     27  C   UNL     1      -6.584   9.078   1.034  1.00  0.00    -0.051 A 
ATOM     28  C   UNL     1      -5.914   8.392   0.007  1.00  0.00     0.004 A 
ATOM     29  C   UNL     1      -6.726   8.422   2.249  1.00  0.00     0.004 A 
ATOM     30  C   UNL     1      -5.407   7.071   0.183  1.00  0.00     0.010 A 
ATOM     31  C   UNL     1      -6.171   7.141   2.426  1.00  0.00     0.010 A 
ENDBRANCH  20  25
ENDBRANCH  16  19
ENDBRANCH   9  15
ENDBRANCH   6   8
ENDBRANCH   5   6
ENDBRANCH   4   5
ENDBRANCH   3   4
ENDBRANCH   2   3
ENDBRANCH   1   2
BRANCH   1  32
ATOM     32  C   UNL     1      -7.627   3.157  -4.077  1.00  0.00     0.188 C 
BRANCH  32  33
ATOM     33  O   UNL     1      -7.099   1.843  -3.947  1.00  0.00    -0.376 OA
BRANCH  33  34
ATOM     34  C   UNL     1      -6.337   1.351  -5.036  1.00  0.00     0.202 C 
BRANCH  34  35
ATOM     35  C   UNL     1      -7.266   0.885  -6.157  1.00  0.00     0.261 C 
BRANCH  35  36
ATOM     36  O   UNL     1      -8.282   0.028  -5.574  1.00  0.00    -0.460 OA
BRANCH  36  37
ATOM     37  C   UNL     1      -9.521   0.588  -5.426  1.00  0.00     0.338 C 
ATOM     38  O   UNL     1     -10.081   1.216  -6.324  1.00  0.00    -0.246 OA
BRANCH  37  39
ATOM     39  C   UNL     1     -10.026   0.469  -3.999  1.00  0.00     0.060 A 
ATOM     40  C   UNL     1     -11.218   1.041  -3.550  1.00  0.00     0.016 A 
ATOM     41  C   UNL     1      -9.196   0.003  -2.998  1.00  0.00     0.016 A 
ATOM     42  C   UNL     1     -11.459   1.285  -2.141  1.00  0.00     0.010 A 
ATOM     43  C   UNL     1      -9.464   0.299  -1.626  1.00  0.00     0.010 A 
ATOM     44  C   UNL     1     -10.525   1.008  -1.120  1.00  0.00    -0.014 A 
BRANCH  44  45
ATOM     45  C   UNL     1     -10.448   1.759   0.250  1.00  0.00     0.031 A 
ATOM     46  C   UNL     1      -9.797   1.391   1.707  1.00  0.00     0.074 A 
ATOM     47  C   UNL     1     -10.254   3.066  -0.004  1.00  0.00     0.049 A 
ATOM     48  N   UNL     1      -9.324   2.182   2.670  1.00  0.00    -0.248 NA
ATOM     49  C   UNL     1      -9.723   0.009   2.192  1.00  0.00     0.031 C 
ATOM     50  C   UNL     1      -9.116   3.696  -0.673  1.00  0.00     0.029 A 
ATOM     51  N   UNL     1     -11.105   4.102   0.263  1.00  0.00    -0.354 N 
ATOM     52  C   UNL     1      -8.616   1.421   3.662  1.00  0.00     0.074 A 
ATOM     53  C   UNL     1      -8.964   0.066   3.307  1.00  0.00     0.031 C 
ATOM     54  C   UNL     1      -9.301   5.018  -0.769  1.00  0.00     0.029 A 
ATOM     55  C   UNL     1     -10.539   5.302  -0.090  1.00  0.00     0.049 A 
ATOM     56  H   UNL     1     -12.002   4.001   0.655  1.00  0.00     0.167 HD
ATOM     57  C   UNL     1      -7.721   1.929   4.620  1.00  0.00     0.034 A 
ATOM     58  C   UNL     1     -10.987   6.550   0.084  1.00  0.00     0.034 A 
ATOM     59  C   UNL     1      -7.795   3.397   4.829  1.00  0.00     0.049 A 
ATOM     60  C   UNL     1     -11.047   6.832   1.561  1.00  0.00     0.074 A 
ATOM     61  C   UNL     1      -6.849   4.400   5.037  1.00  0.00     0.029 A 
ATOM     62  N   UNL     1      -9.024   4.042   4.884  1.00  0.00    -0.354 N 
ATOM     63  N   UNL     1     -10.148   6.414   2.437  1.00  0.00    -0.248 NA
ATOM     64  C   UNL     1     -12.045   7.689   2.179  1.00  0.00     0.031 C 
ATOM     65  C   UNL     1      -7.526   5.635   5.206  1.00  0.00     0.029 A 
ATOM     66  C   UNL     1      -8.867   5.423   4.924  1.00  0.00     0.049 A 
ATOM     67  H   UNL     1      -9.894   3.581   4.894  1.00  0.00     0.167 HD
ATOM     68  C   UNL     1     -10.541   6.771   3.719  1.00  0.00     0.074 A 
ATOM     69  C   UNL     1     -11.665   7.667   3.469  1.00  0.00     0.031 C 
ATOM     70  C   UNL     1     -10.036   6.285   4.910  1.00  0.00     0.034 A 
BRANCH  57  71
ATOM     71  C   UNL     1      -6.482   1.195   5.380  1.00  0.00     0.023 A 
ATOM     72  C   UNL     1      -5.750   1.947   6.360  1.00  0.00     0.012 A 
ATOM     73  C   UNL     1      -5.872  -0.049   5.077  1.00  0.00     0.148 A 
ATOM     74  C   UNL     1      -4.462   1.621   6.839  1.00  0.00     0.002 A 
ATOM     75  C   UNL     1      -4.614  -0.429   5.636  1.00  0.00     0.091 A 
ATOM     76  F   UNL     1      -6.490  -0.883   4.236  1.00  0.00    -0.205 F 
ATOM     77  C   UNL     1      -3.883   0.430   6.465  1.00  0.00     0.022 A 
BRANCH  75  78
ATOM     78  S   UNL     1      -3.829  -2.041   5.380  1.00  0.00     0.127 S 
ATOM     79  O   UNL     1      -2.508  -1.673   4.871  1.00  0.00    -0.237 OA
ATOM     80  O   UNL     1      -3.820  -2.599   6.732  1.00  0.00    -0.237 OA
ATOM     81  O   UNL     1      -4.681  -2.739   4.425  1.00  0.00    -0.744 OA
ENDBRANCH  75  78
ENDBRANCH  57  71
BRANCH  58  82
ATOM     82  C   UNL     1     -11.714   6.897  -1.190  1.00  0.00     0.023 A 
ATOM     83  C   UNL     1     -10.875   7.349  -2.244  1.00  0.00     0.012 A 
ATOM     84  C   UNL     1     -12.814   6.079  -1.553  1.00  0.00     0.148 A 
ATOM     85  C   UNL     1     -10.985   6.819  -3.543  1.00  0.00     0.002 A 
ATOM     86  C   UNL     1     -12.891   5.522  -2.838  1.00  0.00     0.091 A 
ATOM     87  F   UNL     1     -13.646   5.677  -0.579  1.00  0.00    -0.205 F 
ATOM     88  C   UNL     1     -11.958   5.862  -3.825  1.00  0.00     0.022 A 
BRANCH  86  89
ATOM     89  S   UNL     1     -14.019   4.149  -3.145  1.00  0.00     0.127 S 
ATOM     90  O   UNL     1     -15.262   4.836  -3.477  1.00  0.00    -0.237 OA
ATOM     91  O   UNL     1     -13.397   3.440  -4.263  1.00  0.00    -0.237 OA
ATOM     92  O   UNL     1     -14.014   3.409  -1.887  1.00  0.00    -0.744 OA
ENDBRANCH  86  89
ENDBRANCH  58  82
BRANCH  70  93
ATOM     93  C   UNL     1     -10.709   6.404   6.271  1.00  0.00     0.023 A 
ATOM     94  C   UNL     1     -12.106   6.463   6.368  1.00  0.00     0.012 A 
ATOM     95  C   UNL     1      -9.994   6.085   7.460  1.00  0.00     0.148 A 
ATOM     96  C   UNL     1     -12.765   6.209   7.572  1.00  0.00     0.002 A 
ATOM     97  C   UNL     1     -10.662   5.672   8.604  1.00  0.00     0.091 A 
ATOM     98  F   UNL     1      -8.655   6.166   7.497  1.00  0.00    -0.205 F 
ATOM     99  C   UNL     1     -12.049   5.762   8.675  1.00  0.00     0.022 A 
BRANCH  97 100
ATOM    100  S   UNL     1      -9.770   4.764   9.880  1.00  0.00     0.127 S 
ATOM    101  O   UNL     1      -9.244   5.837  10.719  1.00  0.00    -0.237 OA
ATOM    102  O   UNL     1     -10.828   3.965  10.502  1.00  0.00    -0.237 OA
ATOM    103  O   UNL     1      -8.788   3.975   9.145  1.00  0.00    -0.744 OA
ENDBRANCH  97 100
ENDBRANCH  70  93
ENDBRANCH  44  45
ENDBRANCH  37  39
ENDBRANCH  36  37
ENDBRANCH  35  36
ENDBRANCH  34  35
ENDBRANCH  33  34
ENDBRANCH  32  33
ENDBRANCH   1  32
TORSDOF 23
