REMARK SMILES CC(C)[C@H](NC(N)=O)C(=O)N[C@H](C)C(=O)OCCOCCOCCOC(=O)c1ccc(-c2c3nc(c(-c4cccc(S(=O)(=O)[O-])c4F)c4ccc([nH]4)c(-c4cccc(S(=O)(=O)[O-])c4F)c4nc(c(-c5cccc(S(=O)(=O)[O-])c5F)c5ccc2[nH]5)C=C4)C=C3)cc1
REMARK SMILES IDX 20 1 19 2 18 3 17 4 16 5 14 6 15 7 12 8 13 9 11 10 9 11
REMARK SMILES IDX 10 12 4 14 2 15 1 16 3 17 5 18 6 19 7 21 8 22 21 25 22 26
REMARK SMILES IDX 23 27 24 28 25 29 26 30 27 31 28 32 29 33 90 34 30 35 89 36
REMARK SMILES IDX 31 37 32 38 33 39 83 40 34 41 88 42 82 43 84 44 35 45 87 46
REMARK SMILES IDX 81 47 80 48 36 50 68 51 48 52 67 53 49 54 52 55 66 56 85 57
REMARK SMILES IDX 50 58 51 59 65 61 86 62 53 63 37 64 38 65 46 66 39 67 41 68
REMARK SMILES IDX 47 69 40 70 42 71 43 72 44 73 45 74 69 75 70 76 78 77 71 78
REMARK SMILES IDX 73 79 79 80 72 81 74 82 75 83 76 84 77 85 54 86 55 87 63 88
REMARK SMILES IDX 56 89 58 90 64 91 57 92 59 93 60 94 61 95 62 96
REMARK H PARENT 11 13 5 20 7 23 7 24 84 49 52 60
REMARK Flexibility Score: inf
ROOT
ATOM      1  C   UNL     1      -3.364  -4.142   2.234  1.00  0.00     0.188 C 
ENDROOT
BRANCH   1   2
ATOM      2  O   UNL     1      -3.888  -5.153   3.073  1.00  0.00    -0.376 OA
BRANCH   2   3
ATOM      3  C   UNL     1      -2.969  -5.982   3.756  1.00  0.00     0.202 C 
BRANCH   3   4
ATOM      4  C   UNL     1      -2.122  -5.432   4.934  1.00  0.00     0.261 C 
BRANCH   4   5
ATOM      5  O   UNL     1      -1.634  -4.078   4.924  1.00  0.00    -0.462 OA
BRANCH   5   6
ATOM      6  C   UNL     1      -0.720  -3.847   3.959  1.00  0.00     0.328 C 
ATOM      7  O   UNL     1      -0.524  -4.665   3.073  1.00  0.00    -0.250 OA
BRANCH   6   8
ATOM      8  C   UNL     1      -0.019  -2.482   3.999  1.00  0.00     0.189 C 
ATOM      9  C   UNL     1      -0.635  -1.423   4.917  1.00  0.00     0.043 C 
BRANCH   8  10
ATOM     10  N   UNL     1       1.417  -2.571   4.222  1.00  0.00    -0.341 N 
ATOM     11  C   UNL     1       2.469  -2.841   3.409  1.00  0.00     0.243 C 
ATOM     12  O   UNL     1       3.569  -2.502   3.873  1.00  0.00    -0.273 OA
ATOM     13  H   UNL     1       1.679  -2.399   5.155  1.00  0.00     0.164 HD
BRANCH  11  14
ATOM     14  C   UNL     1       2.397  -3.394   1.950  1.00  0.00     0.175 C 
BRANCH  14  15
ATOM     15  C   UNL     1       2.065  -2.296   0.890  1.00  0.00     0.015 C 
ATOM     16  C   UNL     1       2.924  -2.530  -0.363  1.00  0.00     0.010 C 
ATOM     17  C   UNL     1       0.605  -2.174   0.417  1.00  0.00     0.010 C 
ENDBRANCH  14  15
BRANCH  14  18
ATOM     18  N   UNL     1       1.644  -4.616   1.749  1.00  0.00    -0.326 N 
ATOM     19  C   UNL     1       1.853  -5.752   2.477  1.00  0.00     0.312 C 
ATOM     20  H   UNL     1       0.947  -4.627   1.054  1.00  0.00     0.166 HD
ATOM     21  N   UNL     1       1.013  -6.752   2.103  1.00  0.00    -0.352 N 
ATOM     22  O   UNL     1       2.634  -5.877   3.407  1.00  0.00    -0.249 OA
ATOM     23  H   UNL     1       0.394  -6.619   1.348  1.00  0.00     0.161 HD
ATOM     24  H   UNL     1       1.022  -7.610   2.586  1.00  0.00     0.161 HD
ENDBRANCH  14  18
ENDBRANCH  11  14
ENDBRANCH   8  10
ENDBRANCH   6   8
ENDBRANCH   5   6
ENDBRANCH   4   5
ENDBRANCH   3   4
ENDBRANCH   2   3
ENDBRANCH   1   2
BRANCH   1  25
ATOM     25  C   UNL     1      -3.433  -2.751   2.880  1.00  0.00     0.188 C 
BRANCH  25  26
ATOM     26  O   UNL     1      -4.123  -2.564   4.105  1.00  0.00    -0.376 OA
BRANCH  26  27
ATOM     27  C   UNL     1      -5.371  -3.220   4.282  1.00  0.00     0.202 C 
BRANCH  27  28
ATOM     28  C   UNL     1      -6.474  -3.127   3.205  1.00  0.00     0.261 C 
BRANCH  28  29
ATOM     29  O   UNL     1      -6.054  -3.014   1.834  1.00  0.00    -0.460 OA
BRANCH  29  30
ATOM     30  C   UNL     1      -6.013  -1.759   1.321  1.00  0.00     0.338 C 
ATOM     31  O   UNL     1      -6.327  -0.724   1.895  1.00  0.00    -0.246 OA
BRANCH  30  32
ATOM     32  C   UNL     1      -5.303  -1.783   0.019  1.00  0.00     0.060 A 
ATOM     33  C   UNL     1      -4.095  -1.074  -0.110  1.00  0.00     0.016 A 
ATOM     34  C   UNL     1      -5.823  -2.480  -1.071  1.00  0.00     0.016 A 
ATOM     35  C   UNL     1      -3.402  -1.062  -1.319  1.00  0.00     0.010 A 
ATOM     36  C   UNL     1      -5.153  -2.424  -2.299  1.00  0.00     0.010 A 
ATOM     37  C   UNL     1      -3.955  -1.696  -2.434  1.00  0.00    -0.014 A 
BRANCH  37  38
ATOM     38  C   UNL     1      -3.407  -1.424  -3.785  1.00  0.00     0.031 A 
ATOM     39  C   UNL     1      -4.093  -0.385  -4.629  1.00  0.00     0.074 A 
ATOM     40  C   UNL     1      -2.345  -2.094  -4.267  1.00  0.00     0.049 A 
ATOM     41  N   UNL     1      -3.890  -0.064  -5.878  1.00  0.00    -0.248 NA
ATOM     42  C   UNL     1      -5.160   0.390  -3.973  1.00  0.00     0.031 C 
ATOM     43  C   UNL     1      -1.571  -3.094  -3.535  1.00  0.00     0.029 A 
ATOM     44  N   UNL     1      -1.763  -2.056  -5.510  1.00  0.00    -0.354 N 
ATOM     45  C   UNL     1      -4.831   0.915  -6.173  1.00  0.00     0.074 A 
ATOM     46  C   UNL     1      -5.604   1.138  -4.971  1.00  0.00     0.031 C 
ATOM     47  C   UNL     1      -0.644  -3.612  -4.360  1.00  0.00     0.029 A 
ATOM     48  C   UNL     1      -0.786  -3.008  -5.685  1.00  0.00     0.049 A 
ATOM     49  H   UNL     1      -2.020  -1.411  -6.208  1.00  0.00     0.167 HD
ATOM     50  C   UNL     1      -5.033   1.572  -7.339  1.00  0.00     0.034 A 
ATOM     51  C   UNL     1      -0.119  -3.378  -6.797  1.00  0.00     0.034 A 
ATOM     52  C   UNL     1      -4.257   1.355  -8.529  1.00  0.00     0.049 A 
ATOM     53  C   UNL     1      -0.397  -2.668  -8.099  1.00  0.00     0.074 A 
ATOM     54  C   UNL     1      -4.357   2.001  -9.748  1.00  0.00     0.029 A 
ATOM     55  N   UNL     1      -3.252   0.410  -8.657  1.00  0.00    -0.354 N 
ATOM     56  N   UNL     1      -1.225  -1.681  -8.342  1.00  0.00    -0.248 NA
ATOM     57  C   UNL     1       0.372  -3.106  -9.275  1.00  0.00     0.031 C 
ATOM     58  C   UNL     1      -3.441   1.416 -10.627  1.00  0.00     0.029 A 
ATOM     59  C   UNL     1      -2.735   0.441  -9.940  1.00  0.00     0.049 A 
ATOM     60  H   UNL     1      -2.950  -0.194  -7.941  1.00  0.00     0.167 HD
ATOM     61  C   UNL     1      -1.046  -1.352  -9.683  1.00  0.00     0.074 A 
ATOM     62  C   UNL     1      -0.021  -2.237 -10.197  1.00  0.00     0.031 C 
ATOM     63  C   UNL     1      -1.677  -0.408 -10.425  1.00  0.00     0.034 A 
BRANCH  50  64
ATOM     64  C   UNL     1      -6.145   2.586  -7.386  1.00  0.00     0.023 A 
ATOM     65  C   UNL     1      -6.014   3.809  -6.698  1.00  0.00     0.012 A 
ATOM     66  C   UNL     1      -7.300   2.345  -8.155  1.00  0.00     0.148 A 
ATOM     67  C   UNL     1      -7.030   4.762  -6.747  1.00  0.00     0.002 A 
ATOM     68  C   UNL     1      -8.286   3.320  -8.240  1.00  0.00     0.091 A 
ATOM     69  F   UNL     1      -7.415   1.166  -8.783  1.00  0.00    -0.205 F 
ATOM     70  C   UNL     1      -8.159   4.523  -7.526  1.00  0.00     0.022 A 
BRANCH  68  71
ATOM     71  S   UNL     1      -9.738   3.141  -9.280  1.00  0.00     0.127 S 
ATOM     72  O   UNL     1     -10.802   3.022  -8.284  1.00  0.00    -0.237 OA
ATOM     73  O   UNL     1      -9.738   4.400 -10.025  1.00  0.00    -0.237 OA
ATOM     74  O   UNL     1      -9.510   1.953 -10.091  1.00  0.00    -0.744 OA
ENDBRANCH  68  71
ENDBRANCH  50  64
BRANCH  51  75
ATOM     75  C   UNL     1       0.884  -4.480  -6.737  1.00  0.00     0.023 A 
ATOM     76  C   UNL     1       2.249  -4.193  -6.929  1.00  0.00     0.012 A 
ATOM     77  C   UNL     1       0.490  -5.810  -6.492  1.00  0.00     0.148 A 
ATOM     78  C   UNL     1       3.200  -5.214  -6.913  1.00  0.00     0.002 A 
ATOM     79  C   UNL     1       1.448  -6.814  -6.418  1.00  0.00     0.091 A 
ATOM     80  F   UNL     1      -0.815  -6.065  -6.327  1.00  0.00    -0.205 F 
ATOM     81  C   UNL     1       2.801  -6.522  -6.648  1.00  0.00     0.022 A 
BRANCH  79  82
ATOM     82  S   UNL     1       1.044  -8.502  -5.956  1.00  0.00     0.127 S 
ATOM     83  O   UNL     1       1.324  -9.226  -7.193  1.00  0.00    -0.237 OA
ATOM     84  O   UNL     1       1.990  -8.746  -4.867  1.00  0.00    -0.237 OA
ATOM     85  O   UNL     1      -0.353  -8.474  -5.544  1.00  0.00    -0.744 OA
ENDBRANCH  79  82
ENDBRANCH  51  75
BRANCH  63  86
ATOM     86  C   UNL     1      -1.247  -0.227 -11.859  1.00  0.00     0.023 A 
ATOM     87  C   UNL     1      -1.577  -1.194 -12.827  1.00  0.00     0.012 A 
ATOM     88  C   UNL     1      -0.591   0.956 -12.259  1.00  0.00     0.148 A 
ATOM     89  C   UNL     1      -1.234  -1.003 -14.166  1.00  0.00     0.002 A 
ATOM     90  C   UNL     1      -0.301   1.164 -13.602  1.00  0.00     0.091 A 
ATOM     91  F   UNL     1      -0.273   1.859 -11.320  1.00  0.00    -0.205 F 
ATOM     92  C   UNL     1      -0.609   0.180 -14.555  1.00  0.00     0.022 A 
BRANCH  90  93
ATOM     93  S   UNL     1       0.410   2.698 -14.209  1.00  0.00     0.127 S 
ATOM     94  O   UNL     1       1.744   2.264 -14.623  1.00  0.00    -0.237 OA
ATOM     95  O   UNL     1      -0.490   3.040 -15.311  1.00  0.00    -0.237 OA
ATOM     96  O   UNL     1       0.379   3.630 -13.090  1.00  0.00    -0.744 OA
ENDBRANCH  90  93
ENDBRANCH  63  86
ENDBRANCH  37  38
ENDBRANCH  30  32
ENDBRANCH  29  30
ENDBRANCH  28  29
ENDBRANCH  27  28
ENDBRANCH  26  27
ENDBRANCH  25  26
ENDBRANCH   1  25
TORSDOF 24
