REMARK SMILES Cc1cc(C)cc(Oc2nc3ccccn3c(=O)c2/C=C2\SC(=S)N(CCC(=O)OCCOCCOCCOC(=O)c3ccc(-c4c5nc(c(-c6cccc(S(=O)(=O)[O-])c6F)c6ccc([nH]6)c(-c6cccc(S(=O)(=O)[O-])c6F)c6nc(c(-c7cccc(S(=O)(=O)[O-])c7F)c7ccc4[nH]7)C=C6)C=C5)cc3)C2=O)c1
REMARK SMILES IDX 34 1 33 2 32 3 31 4 30 5 28 6 29 7 27 8 26 9 25 10 20 11
REMARK SMILES IDX 21 12 22 13 105 14 23 15 106 16 24 17 19 18 9 19 10 20 11 21
REMARK SMILES IDX 17 22 12 23 16 24 18 25 13 26 15 27 14 28 8 29 7 30 1 31
REMARK SMILES IDX 2 32 3 33 107 34 4 35 5 36 6 37 35 38 36 39 37 40 38 41
REMARK SMILES IDX 39 42 40 43 41 44 42 45 43 46 104 47 44 48 103 49 45 50
REMARK SMILES IDX 46 51 47 52 97 53 48 54 102 55 96 56 98 57 49 58 101 59
REMARK SMILES IDX 95 60 94 61 50 63 82 64 62 65 81 66 63 67 66 68 80 69 99 70
REMARK SMILES IDX 64 71 65 72 79 74 100 75 67 76 51 77 52 78 60 79 53 80 55 81
REMARK SMILES IDX 61 82 54 83 56 84 57 85 58 86 59 87 83 88 84 89 92 90 85 91
REMARK SMILES IDX 87 92 93 93 86 94 88 95 89 96 90 97 91 98 68 99 69 100
REMARK SMILES IDX 77 101 70 102 72 103 78 104 71 105 73 106 74 107 75 108
REMARK SMILES IDX 76 109
REMARK H PARENT 98 62 66 73
REMARK Flexibility Score: inf
ROOT
ATOM      1  C   UNL     1       0.597   0.597   6.258  1.00  0.00     0.188 C 
ENDROOT
BRANCH   1   2
ATOM      2  O   UNL     1      -0.750   0.167   6.184  1.00  0.00    -0.376 OA
BRANCH   2   3
ATOM      3  C   UNL     1      -1.120  -0.410   4.934  1.00  0.00     0.202 C 
BRANCH   3   4
ATOM      4  C   UNL     1      -1.271   0.578   3.752  1.00  0.00     0.261 C 
BRANCH   4   5
ATOM      5  O   UNL     1      -0.029   1.091   3.206  1.00  0.00    -0.463 OA
BRANCH   5   6
ATOM      6  C   UNL     1       0.426   2.283   3.657  1.00  0.00     0.307 C 
ATOM      7  O   UNL     1      -0.239   3.070   4.319  1.00  0.00    -0.252 OA
BRANCH   6   8
ATOM      8  C   UNL     1       1.866   2.569   3.253  1.00  0.00     0.144 C 
BRANCH   8   9
ATOM      9  C   UNL     1       3.011   1.663   3.756  1.00  0.00     0.139 C 
BRANCH   9  10
ATOM     10  N   UNL     1       3.327   0.457   2.966  1.00  0.00    -0.292 N 
ATOM     11  C   UNL     1       2.099  -2.751   1.964  1.00  0.00     0.041 C 
ATOM     12  C   UNL     1       2.955  -1.746   2.197  1.00  0.00     0.081 C 
ATOM     13  S   UNL     1       4.458  -1.356   1.488  1.00  0.00    -0.054 SA
ATOM     14  C   UNL     1       2.510  -0.646   3.064  1.00  0.00     0.266 C 
ATOM     15  C   UNL     1       4.474   0.257   2.223  1.00  0.00     0.148 C 
ATOM     16  O   UNL     1       1.505  -0.762   3.728  1.00  0.00    -0.268 OA
ATOM     17  S   UNL     1       5.741   1.311   1.962  1.00  0.00    -0.052 S 
BRANCH  11  18
ATOM     18  C   UNL     1       2.239  -3.744   0.924  1.00  0.00     0.104 A 
ATOM     19  C   UNL     1       1.395  -3.852  -0.127  1.00  0.00     0.234 A 
ATOM     20  N   UNL     1       1.580  -4.755  -1.143  1.00  0.00    -0.194 NA
ATOM     21  C   UNL     1       2.656  -5.474  -1.137  1.00  0.00     0.143 A 
ATOM     22  C   UNL     1       3.383  -4.693   1.000  1.00  0.00     0.269 A 
ATOM     23  C   UNL     1       2.916  -6.381  -2.289  1.00  0.00     0.048 A 
ATOM     24  N   UNL     1       3.602  -5.462  -0.127  1.00  0.00    -0.267 N 
ATOM     25  O   UNL     1       4.053  -4.775   2.030  1.00  0.00    -0.268 OA
ATOM     26  C   UNL     1       4.043  -7.101  -2.330  1.00  0.00     0.005 A 
ATOM     27  C   UNL     1       4.746  -6.245  -0.198  1.00  0.00     0.096 A 
ATOM     28  C   UNL     1       4.994  -7.031  -1.252  1.00  0.00     0.019 A 
BRANCH  19  29
ATOM     29  O   UNL     1       0.207  -3.118  -0.230  1.00  0.00    -0.438 OA
BRANCH  29  30
ATOM     30  C   UNL     1       0.189  -1.741  -0.293  1.00  0.00     0.130 A 
ATOM     31  C   UNL     1       2.420   1.324  -0.566  1.00  0.00     0.044 C 
ATOM     32  C   UNL     1       1.202   0.459  -0.450  1.00  0.00    -0.047 A 
ATOM     33  C   UNL     1      -0.050   1.044  -0.222  1.00  0.00     0.007 A 
ATOM     34  C   UNL     1       1.300  -0.936  -0.541  1.00  0.00     0.050 A 
ATOM     35  C   UNL     1      -1.195   0.252  -0.081  1.00  0.00    -0.047 A 
ATOM     36  C   UNL     1      -2.533   0.911   0.091  1.00  0.00     0.044 C 
ATOM     37  C   UNL     1      -1.061  -1.143  -0.093  1.00  0.00     0.050 A 
ENDBRANCH  29  30
ENDBRANCH  19  29
ENDBRANCH  11  18
ENDBRANCH   9  10
ENDBRANCH   8   9
ENDBRANCH   6   8
ENDBRANCH   5   6
ENDBRANCH   4   5
ENDBRANCH   3   4
ENDBRANCH   2   3
ENDBRANCH   1   2
BRANCH   1  38
ATOM     38  C   UNL     1       1.538  -0.359   6.957  1.00  0.00     0.188 C 
BRANCH  38  39
ATOM     39  O   UNL     1       2.118  -1.413   6.188  1.00  0.00    -0.376 OA
BRANCH  39  40
ATOM     40  C   UNL     1       1.611  -2.710   6.477  1.00  0.00     0.202 C 
BRANCH  40  41
ATOM     41  C   UNL     1       2.056  -3.328   7.821  1.00  0.00     0.261 C 
BRANCH  41  42
ATOM     42  O   UNL     1       2.121  -2.397   8.915  1.00  0.00    -0.460 OA
BRANCH  42  43
ATOM     43  C   UNL     1       3.283  -1.693   9.017  1.00  0.00     0.338 C 
ATOM     44  O   UNL     1       4.321  -1.915   8.415  1.00  0.00    -0.246 OA
BRANCH  43  45
ATOM     45  C   UNL     1       3.033  -0.447   9.794  1.00  0.00     0.060 A 
ATOM     46  C   UNL     1       3.595   0.755   9.327  1.00  0.00     0.016 A 
ATOM     47  C   UNL     1       2.198  -0.429  10.913  1.00  0.00     0.016 A 
ATOM     48  C   UNL     1       3.328   1.966   9.969  1.00  0.00     0.010 A 
ATOM     49  C   UNL     1       1.971   0.777  11.587  1.00  0.00     0.010 A 
ATOM     50  C   UNL     1       2.557   1.975  11.135  1.00  0.00    -0.014 A 
BRANCH  50  51
ATOM     51  C   UNL     1       2.591   3.158  12.032  1.00  0.00     0.031 A 
ATOM     52  C   UNL     1       3.581   3.131  13.167  1.00  0.00     0.074 A 
ATOM     53  C   UNL     1       1.782   4.220  11.866  1.00  0.00     0.049 A 
ATOM     54  N   UNL     1       3.743   3.973  14.152  1.00  0.00    -0.248 NA
ATOM     55  C   UNL     1       4.514   1.990  13.191  1.00  0.00     0.031 C 
ATOM     56  C   UNL     1       0.814   4.395  10.786  1.00  0.00     0.029 A 
ATOM     57  N   UNL     1       1.633   5.349  12.637  1.00  0.00    -0.354 N 
ATOM     58  C   UNL     1       4.771   3.449  14.928  1.00  0.00     0.074 A 
ATOM     59  C   UNL     1       5.186   2.211  14.309  1.00  0.00     0.031 C 
ATOM     60  C   UNL     1       0.144   5.547  10.983  1.00  0.00     0.029 A 
ATOM     61  C   UNL     1       0.611   6.171  12.221  1.00  0.00     0.049 A 
ATOM     62  H   UNL     1       2.204   5.550  13.413  1.00  0.00     0.167 HD
ATOM     63  C   UNL     1       5.331   3.957  16.050  1.00  0.00     0.034 A 
ATOM     64  C   UNL     1       0.094   7.277  12.795  1.00  0.00     0.034 A 
ATOM     65  C   UNL     1       4.922   5.189  16.665  1.00  0.00     0.049 A 
ATOM     66  C   UNL     1       0.688   7.784  14.090  1.00  0.00     0.074 A 
ATOM     67  C   UNL     1       5.432   5.794  17.799  1.00  0.00     0.029 A 
ATOM     68  N   UNL     1       3.899   6.000  16.202  1.00  0.00    -0.354 N 
ATOM     69  N   UNL     1       1.706   7.320  14.774  1.00  0.00    -0.248 NA
ATOM     70  C   UNL     1       0.074   8.985  14.680  1.00  0.00     0.031 C 
ATOM     71  C   UNL     1       4.695   6.956  18.041  1.00  0.00     0.029 A 
ATOM     72  C   UNL     1       3.757   7.098  17.031  1.00  0.00     0.049 A 
ATOM     73  H   UNL     1       3.354   5.822  15.402  1.00  0.00     0.167 HD
ATOM     74  C   UNL     1       1.886   8.199  15.839  1.00  0.00     0.074 A 
ATOM     75  C   UNL     1       0.880   9.230  15.704  1.00  0.00     0.031 C 
ATOM     76  C   UNL     1       2.795   8.153  16.845  1.00  0.00     0.034 A 
BRANCH  63  77
ATOM     77  C   UNL     1       6.459   3.183  16.678  1.00  0.00     0.023 A 
ATOM     78  C   UNL     1       7.715   3.136  16.038  1.00  0.00     0.012 A 
ATOM     79  C   UNL     1       6.292   2.545  17.922  1.00  0.00     0.148 A 
ATOM     80  C   UNL     1       8.778   2.440  16.612  1.00  0.00     0.002 A 
ATOM     81  C   UNL     1       7.370   1.895  18.511  1.00  0.00     0.091 A 
ATOM     82  F   UNL     1       5.085   2.583  18.503  1.00  0.00    -0.205 F 
ATOM     83  C   UNL     1       8.608   1.830  17.852  1.00  0.00     0.022 A 
BRANCH  81  84
ATOM     84  S   UNL     1       7.279   1.146  20.141  1.00  0.00     0.127 S 
ATOM     85  O   UNL     1       7.435  -0.273  19.823  1.00  0.00    -0.237 OA
ATOM     86  O   UNL     1       8.428   1.749  20.817  1.00  0.00    -0.237 OA
ATOM     87  O   UNL     1       5.983   1.521  20.687  1.00  0.00    -0.744 OA
ENDBRANCH  81  84
ENDBRANCH  63  77
BRANCH  64  88
ATOM     88  C   UNL     1      -1.047   8.006  12.163  1.00  0.00     0.023 A 
ATOM     89  C   UNL     1      -0.855   9.318  11.686  1.00  0.00     0.012 A 
ATOM     90  C   UNL     1      -2.329   7.427  12.074  1.00  0.00     0.148 A 
ATOM     91  C   UNL     1      -1.925  10.056  11.176  1.00  0.00     0.002 A 
ATOM     92  C   UNL     1      -3.377   8.148  11.513  1.00  0.00     0.091 A 
ATOM     93  F   UNL     1      -2.500   6.187  12.552  1.00  0.00    -0.205 F 
ATOM     94  C   UNL     1      -3.183   9.469  11.082  1.00  0.00     0.022 A 
BRANCH  92  95
ATOM     95  S   UNL     1      -5.007   7.438  11.252  1.00  0.00     0.127 S 
ATOM     96  O   UNL     1      -5.814   8.179  12.217  1.00  0.00    -0.237 OA
ATOM     97  O   UNL     1      -5.261   7.774   9.851  1.00  0.00    -0.237 OA
ATOM     98  O   UNL     1      -4.862   6.012  11.513  1.00  0.00    -0.744 OA
ENDBRANCH  92  95
ENDBRANCH  64  88
BRANCH  76  99
ATOM     99  C   UNL     1       2.805   9.283  17.844  1.00  0.00     0.023 A 
ATOM    100  C   UNL     1       1.768   9.406  18.789  1.00  0.00     0.012 A 
ATOM    101  C   UNL     1       3.896  10.175  17.896  1.00  0.00     0.148 A 
ATOM    102  C   UNL     1       1.798  10.421  19.746  1.00  0.00     0.002 A 
ATOM    103  C   UNL     1       3.947  11.148  18.886  1.00  0.00     0.091 A 
ATOM    104  F   UNL     1       4.868  10.049  16.981  1.00  0.00    -0.205 F 
ATOM    105  C   UNL     1       2.892  11.282  19.803  1.00  0.00     0.022 A 
BRANCH 103 106
ATOM    106  S   UNL     1       5.361  12.236  19.101  1.00  0.00     0.127 S 
ATOM    107  O   UNL     1       4.800  13.531  18.719  1.00  0.00    -0.237 OA
ATOM    108  O   UNL     1       5.646  12.091  20.529  1.00  0.00    -0.237 OA
ATOM    109  O   UNL     1       6.402  11.725  18.220  1.00  0.00    -0.744 OA
ENDBRANCH 103 106
ENDBRANCH  76  99
ENDBRANCH  50  51
ENDBRANCH  43  45
ENDBRANCH  42  43
ENDBRANCH  41  42
ENDBRANCH  40  41
ENDBRANCH  39  40
ENDBRANCH  38  39
ENDBRANCH   1  38
TORSDOF 25
