REMARK SMILES Nc1cc(C(=O)OCCOCCOCCOC(=O)c2ccc(-c3c4nc(c(-c5cccc(S(=O)(=O)[O-])c5F)c5ccc([nH]5)c(-c5cccc(S(=O)(=O)[O-])c5F)c5nc(c(-c6cccc(S(=O)(=O)[O-])c6F)c6ccc3[nH]6)C=C5)C=C4)cc2)c(Cl)cc1Cl
REMARK SMILES IDX 12 1 11 2 10 3 9 4 8 5 7 6 5 7 6 8 4 9 2 10 3 11 85 12 84 13
REMARK SMILES IDX 86 14 82 15 83 16 1 17 13 20 14 21 15 22 16 23 17 24 18 25
REMARK SMILES IDX 19 26 20 27 81 28 21 29 80 30 22 31 23 32 24 33 74 34 25 35
REMARK SMILES IDX 79 36 73 37 75 38 26 39 78 40 72 41 71 42 27 44 59 45 39 46
REMARK SMILES IDX 58 47 40 48 43 49 57 50 76 51 41 52 42 53 56 55 77 56 44 57
REMARK SMILES IDX 28 58 29 59 37 60 30 61 32 62 38 63 31 64 33 65 34 66 35 67
REMARK SMILES IDX 36 68 60 69 61 70 69 71 62 72 64 73 70 74 63 75 65 76 66 77
REMARK SMILES IDX 67 78 68 79 45 80 46 81 54 82 47 83 49 84 55 85 48 86 50 87
REMARK SMILES IDX 51 88 52 89 53 90
REMARK H PARENT 1 18 1 19 75 43 43 54
REMARK Flexibility Score: inf
ROOT
ATOM      1  C   UNL     1      -0.704   0.359  -5.594  1.00  0.00     0.188 C 
ENDROOT
BRANCH   1   2
ATOM      2  C   UNL     1      -0.344   1.615  -6.418  1.00  0.00     0.188 C 
BRANCH   2   3
ATOM      3  O   UNL     1       0.660   1.380  -7.391  1.00  0.00    -0.376 OA
BRANCH   3   4
ATOM      4  C   UNL     1       1.913   2.004  -7.166  1.00  0.00     0.202 C 
BRANCH   4   5
ATOM      5  C   UNL     1       2.702   1.548  -5.930  1.00  0.00     0.261 C 
BRANCH   5   6
ATOM      6  O   UNL     1       1.941   1.459  -4.714  1.00  0.00    -0.460 OA
BRANCH   6   7
ATOM      7  C   UNL     1       1.843   2.568  -3.945  1.00  0.00     0.339 C 
ATOM      8  O   UNL     1       2.346   3.651  -4.168  1.00  0.00    -0.246 OA
BRANCH   7   9
ATOM      9  C   UNL     1       0.975   2.240  -2.790  1.00  0.00     0.080 A 
ATOM     10  C   UNL     1       0.546   0.795  -0.868  1.00  0.00     0.051 A 
ATOM     11  C   UNL     1       1.323   1.144  -1.979  1.00  0.00     0.044 A 
ATOM     12  C   UNL     1      -0.627   1.529  -0.617  1.00  0.00     0.065 A 
ATOM     13  C   UNL     1      -0.991   2.608  -1.427  1.00  0.00     0.044 A 
ATOM     14  Cl  UNL     1      -1.652   1.117   0.715  1.00  0.00    -0.082 Cl
ATOM     15  C   UNL     1      -0.187   2.969  -2.512  1.00  0.00     0.057 A 
ATOM     16  Cl  UNL     1      -0.737   4.265  -3.510  1.00  0.00    -0.083 Cl
BRANCH  10  17
ATOM     17  N   UNL     1       0.887  -0.325  -0.117  1.00  0.00    -0.398 N 
ATOM     18  H   UNL     1       1.716  -0.818  -0.316  1.00  0.00     0.156 HD
ATOM     19  H   UNL     1       0.301  -0.624   0.615  1.00  0.00     0.156 HD
ENDBRANCH  10  17
ENDBRANCH   7   9
ENDBRANCH   6   7
ENDBRANCH   5   6
ENDBRANCH   4   5
ENDBRANCH   3   4
ENDBRANCH   2   3
ENDBRANCH   1   2
BRANCH   1  20
ATOM     20  O   UNL     1      -0.185  -0.914  -5.965  1.00  0.00    -0.376 OA
BRANCH  20  21
ATOM     21  C   UNL     1      -0.143  -1.278  -7.338  1.00  0.00     0.202 C 
BRANCH  21  22
ATOM     22  C   UNL     1      -1.442  -1.274  -8.157  1.00  0.00     0.261 C 
BRANCH  22  23
ATOM     23  O   UNL     1      -2.216  -0.067  -8.073  1.00  0.00    -0.460 OA
BRANCH  23  24
ATOM     24  C   UNL     1      -3.383  -0.165  -7.387  1.00  0.00     0.338 C 
ATOM     25  O   UNL     1      -3.846  -1.163  -6.861  1.00  0.00    -0.246 OA
BRANCH  24  26
ATOM     26  C   UNL     1      -3.949   1.189  -7.203  1.00  0.00     0.060 A 
ATOM     27  C   UNL     1      -4.252   1.996  -8.301  1.00  0.00     0.016 A 
ATOM     28  C   UNL     1      -4.187   1.646  -5.900  1.00  0.00     0.016 A 
ATOM     29  C   UNL     1      -4.816   3.258  -8.088  1.00  0.00     0.010 A 
ATOM     30  C   UNL     1      -4.731   2.915  -5.690  1.00  0.00     0.010 A 
ATOM     31  C   UNL     1      -5.069   3.722  -6.784  1.00  0.00    -0.014 A 
BRANCH  31  32
ATOM     32  C   UNL     1      -5.850   4.966  -6.579  1.00  0.00     0.031 A 
ATOM     33  C   UNL     1      -5.203   6.263  -6.196  1.00  0.00     0.074 A 
ATOM     34  C   UNL     1      -7.188   4.900  -6.725  1.00  0.00     0.049 A 
ATOM     35  N   UNL     1      -5.752   7.447  -6.094  1.00  0.00    -0.248 NA
ATOM     36  C   UNL     1      -3.767   6.236  -5.884  1.00  0.00     0.031 C 
ATOM     37  C   UNL     1      -7.937   3.678  -7.025  1.00  0.00     0.029 A 
ATOM     38  N   UNL     1      -8.152   5.871  -6.640  1.00  0.00    -0.354 N 
ATOM     39  C   UNL     1      -4.735   8.310  -5.710  1.00  0.00     0.074 A 
ATOM     40  C   UNL     1      -3.535   7.508  -5.575  1.00  0.00     0.031 C 
ATOM     41  C   UNL     1      -9.242   3.975  -7.114  1.00  0.00     0.029 A 
ATOM     42  C   UNL     1      -9.423   5.404  -6.874  1.00  0.00     0.049 A 
ATOM     43  H   UNL     1      -7.952   6.813  -6.432  1.00  0.00     0.167 HD
ATOM     44  C   UNL     1      -4.796   9.649  -5.515  1.00  0.00     0.034 A 
ATOM     45  C   UNL     1     -10.603   6.051  -6.908  1.00  0.00     0.034 A 
ATOM     46  C   UNL     1      -5.990  10.442  -5.661  1.00  0.00     0.049 A 
ATOM     47  C   UNL     1     -10.639   7.537  -6.705  1.00  0.00     0.074 A 
ATOM     48  C   UNL     1      -6.123  11.816  -5.556  1.00  0.00     0.029 A 
ATOM     49  N   UNL     1      -7.253   9.939  -5.926  1.00  0.00    -0.354 N 
ATOM     50  N   UNL     1      -9.640   8.360  -6.503  1.00  0.00    -0.248 NA
ATOM     51  C   UNL     1     -11.955   8.190  -6.765  1.00  0.00     0.031 C 
ATOM     52  C   UNL     1      -7.469  12.143  -5.741  1.00  0.00     0.029 A 
ATOM     53  C   UNL     1      -8.173  10.973  -5.976  1.00  0.00     0.049 A 
ATOM     54  H   UNL     1      -7.466   8.987  -6.060  1.00  0.00     0.167 HD
ATOM     55  C   UNL     1     -10.201   9.629  -6.430  1.00  0.00     0.074 A 
ATOM     56  C   UNL     1     -11.628   9.469  -6.626  1.00  0.00     0.031 C 
ATOM     57  C   UNL     1      -9.585  10.815  -6.208  1.00  0.00     0.034 A 
BRANCH  44  58
ATOM     58  C   UNL     1      -3.522  10.382  -5.195  1.00  0.00     0.023 A 
ATOM     59  C   UNL     1      -2.630  10.680  -6.244  1.00  0.00     0.012 A 
ATOM     60  C   UNL     1      -3.278  10.899  -3.907  1.00  0.00     0.148 A 
ATOM     61  C   UNL     1      -1.511  11.479  -6.018  1.00  0.00     0.002 A 
ATOM     62  C   UNL     1      -2.173  11.716  -3.695  1.00  0.00     0.091 A 
ATOM     63  F   UNL     1      -4.140  10.598  -2.926  1.00  0.00    -0.205 F 
ATOM     64  C   UNL     1      -1.288  12.005  -4.748  1.00  0.00     0.022 A 
BRANCH  62  65
ATOM     65  S   UNL     1      -1.824  12.496  -2.114  1.00  0.00     0.127 S 
ATOM     66  O   UNL     1      -0.560  11.858  -1.744  1.00  0.00    -0.237 OA
ATOM     67  O   UNL     1      -1.709  13.906  -2.486  1.00  0.00    -0.237 OA
ATOM     68  O   UNL     1      -2.951  12.179  -1.249  1.00  0.00    -0.744 OA
ENDBRANCH  62  65
ENDBRANCH  44  58
BRANCH  45  69
ATOM     69  C   UNL     1     -11.835   5.287  -7.239  1.00  0.00     0.023 A 
ATOM     70  C   UNL     1     -12.382   5.394  -8.531  1.00  0.00     0.012 A 
ATOM     71  C   UNL     1     -12.409   4.397  -6.312  1.00  0.00     0.148 A 
ATOM     72  C   UNL     1     -13.489   4.628  -8.895  1.00  0.00     0.002 A 
ATOM     73  C   UNL     1     -13.488   3.610  -6.693  1.00  0.00     0.091 A 
ATOM     74  F   UNL     1     -11.864   4.316  -5.090  1.00  0.00    -0.205 F 
ATOM     75  C   UNL     1     -14.036   3.730  -7.981  1.00  0.00     0.022 A 
BRANCH  73  76
ATOM     76  S   UNL     1     -14.198   2.354  -5.623  1.00  0.00     0.127 S 
ATOM     77  O   UNL     1     -15.555   2.861  -5.428  1.00  0.00    -0.237 OA
ATOM     78  O   UNL     1     -14.102   1.159  -6.463  1.00  0.00    -0.237 OA
ATOM     79  O   UNL     1     -13.363   2.329  -4.431  1.00  0.00    -0.744 OA
ENDBRANCH  73  76
ENDBRANCH  45  69
BRANCH  57  80
ATOM     80  C   UNL     1     -10.435  12.055  -6.158  1.00  0.00     0.023 A 
ATOM     81  C   UNL     1     -11.172  12.338  -4.992  1.00  0.00     0.012 A 
ATOM     82  C   UNL     1     -10.406  12.994  -7.208  1.00  0.00     0.148 A 
ATOM     83  C   UNL     1     -11.876  13.536  -4.874  1.00  0.00     0.002 A 
ATOM     84  C   UNL     1     -11.083  14.200  -7.070  1.00  0.00     0.091 A 
ATOM     85  F   UNL     1      -9.703  12.696  -8.310  1.00  0.00    -0.205 F 
ATOM     86  C   UNL     1     -11.821  14.470  -5.905  1.00  0.00     0.022 A 
BRANCH  84  87
ATOM     87  S   UNL     1     -11.019  15.498  -8.310  1.00  0.00     0.127 S 
ATOM     88  O   UNL     1     -12.409  15.546  -8.763  1.00  0.00    -0.237 OA
ATOM     89  O   UNL     1     -10.593  16.656  -7.523  1.00  0.00    -0.237 OA
ATOM     90  O   UNL     1     -10.058  15.055  -9.312  1.00  0.00    -0.744 OA
ENDBRANCH  84  87
ENDBRANCH  57  80
ENDBRANCH  31  32
ENDBRANCH  24  26
ENDBRANCH  23  24
ENDBRANCH  22  23
ENDBRANCH  21  22
ENDBRANCH  20  21
ENDBRANCH   1  20
TORSDOF 21
