REMARK SMILES CCCCCCNC(=O)Oc1cccc(-c2ccc([C@@H](C)C(=O)OCCOCCOCCOC(=O)c3ccc(-c4c5nc(c(-c6cccc(S(=O)(=O)[O-])c6F)c6ccc([nH]6)c(-c6cccc(S(=O)(=O)[O-])c6F)c6nc(c(-c7cccc(S(=O)(=O)[O-])c7F)c7ccc4[nH]7)C=C6)C=C5)cc3)cc2F)c1
REMARK SMILES IDX 25 1 24 2 22 3 23 4 20 5 21 6 19 7 16 8 17 9 100 10 18 11
REMARK SMILES IDX 99 12 101 13 15 14 11 15 12 16 102 17 13 18 14 19 10 20 8 21
REMARK SMILES IDX 7 22 9 24 6 25 5 26 4 27 3 28 2 29 1 30 26 31 27 32 28 33
REMARK SMILES IDX 29 34 30 35 31 36 32 37 33 38 34 39 35 40 36 41 37 42 98 43
REMARK SMILES IDX 38 44 97 45 39 46 40 47 41 48 91 49 42 50 96 51 90 52 92 53
REMARK SMILES IDX 43 54 95 55 89 56 88 57 44 59 76 60 56 61 75 62 57 63 60 64
REMARK SMILES IDX 74 65 93 66 58 67 59 68 73 70 94 71 61 72 45 73 46 74 54 75
REMARK SMILES IDX 47 76 49 77 55 78 48 79 50 80 51 81 52 82 53 83 77 84 78 85
REMARK SMILES IDX 86 86 79 87 81 88 87 89 80 90 82 91 83 92 84 93 85 94 62 95
REMARK SMILES IDX 63 96 71 97 64 98 66 99 72 100 65 101 67 102 68 103 69 104
REMARK SMILES IDX 70 105
REMARK H PARENT 7 23 92 58 60 69
REMARK Flexibility Score: inf
ROOT
ATOM      1  C   UNL     1      -1.683 -12.912  -8.926  1.00  0.00     0.261 C 
ENDROOT
BRANCH   1   2
ATOM      2  O   UNL     1      -2.761 -12.204  -8.271  1.00  0.00    -0.463 OA
BRANCH   2   3
ATOM      3  C   UNL     1      -3.639 -12.965  -7.571  1.00  0.00     0.313 C 
ATOM      4  O   UNL     1      -3.597 -14.194  -7.556  1.00  0.00    -0.252 OA
BRANCH   3   5
ATOM      5  C   UNL     1      -4.699 -12.212  -6.760  1.00  0.00     0.126 C 
ATOM      6  C   UNL     1      -6.072 -12.779  -7.123  1.00  0.00     0.025 C 
BRANCH   5   7
ATOM      7  C   UNL     1      -4.761 -10.685  -6.739  1.00  0.00    -0.031 A 
ATOM      8  C   UNL     1      -4.886  -7.821  -6.561  1.00  0.00     0.018 A 
ATOM      9  C   UNL     1      -4.854  -8.485  -7.802  1.00  0.00     0.012 A 
ATOM     10  C   UNL     1      -4.865  -8.625  -5.417  1.00  0.00     0.131 A 
ATOM     11  C   UNL     1      -4.801  -9.891  -7.893  1.00  0.00     0.005 A 
ATOM     12  C   UNL     1      -4.813 -10.022  -5.496  1.00  0.00     0.044 A 
ATOM     13  F   UNL     1      -4.912  -8.066  -4.197  1.00  0.00    -0.206 F 
BRANCH   8  14
ATOM     14  C   UNL     1      -4.979  -6.348  -6.475  1.00  0.00    -0.012 A 
ATOM     15  C   UNL     1      -4.165  -4.190  -5.696  1.00  0.00     0.133 A 
ATOM     16  C   UNL     1      -5.248  -3.535  -6.278  1.00  0.00     0.047 A 
ATOM     17  C   UNL     1      -4.028  -5.581  -5.777  1.00  0.00     0.056 A 
ATOM     18  C   UNL     1      -6.196  -4.279  -6.974  1.00  0.00     0.004 A 
ATOM     19  C   UNL     1      -6.061  -5.669  -7.072  1.00  0.00     0.009 A 
BRANCH  15  20
ATOM     20  O   UNL     1      -3.292  -3.412  -4.917  1.00  0.00    -0.410 OA
BRANCH  20  21
ATOM     21  C   UNL     1      -1.970  -3.348  -5.325  1.00  0.00     0.412 C 
ATOM     22  N   UNL     1      -1.183  -2.576  -4.515  1.00  0.00    -0.321 N 
ATOM     23  H   UNL     1      -0.217  -2.585  -4.706  1.00  0.00     0.167 HD
ATOM     24  O   UNL     1      -1.502  -3.881  -6.333  1.00  0.00    -0.224 OA
BRANCH  22  25
ATOM     25  C   UNL     1      -1.613  -1.746  -3.405  1.00  0.00     0.119 C 
BRANCH  25  26
ATOM     26  C   UNL     1      -0.974  -2.146  -2.076  1.00  0.00     0.021 C 
BRANCH  26  27
ATOM     27  C   UNL     1       0.554  -2.022  -2.020  1.00  0.00     0.002 C 
BRANCH  27  28
ATOM     28  C   UNL     1       1.123  -0.622  -2.275  1.00  0.00    -0.000 C 
BRANCH  28  29
ATOM     29  C   UNL     1       0.655   0.471  -1.310  1.00  0.00    -0.003 C 
ATOM     30  C   UNL     1       1.065   0.222   0.133  1.00  0.00     0.004 C 
ENDBRANCH  28  29
ENDBRANCH  27  28
ENDBRANCH  26  27
ENDBRANCH  25  26
ENDBRANCH  22  25
ENDBRANCH  20  21
ENDBRANCH  15  20
ENDBRANCH   8  14
ENDBRANCH   5   7
ENDBRANCH   3   5
ENDBRANCH   2   3
ENDBRANCH   1   2
BRANCH   1  31
ATOM     31  C   UNL     1      -0.274 -12.379  -8.625  1.00  0.00     0.202 C 
BRANCH  31  32
ATOM     32  O   UNL     1       0.142 -12.313  -7.267  1.00  0.00    -0.376 OA
BRANCH  32  33
ATOM     33  C   UNL     1      -0.654 -11.598  -6.329  1.00  0.00     0.188 C 
BRANCH  33  34
ATOM     34  C   UNL     1      -1.315 -10.282  -6.762  1.00  0.00     0.188 C 
BRANCH  34  35
ATOM     35  O   UNL     1      -0.886  -9.789  -8.015  1.00  0.00    -0.376 OA
BRANCH  35  36
ATOM     36  C   UNL     1      -0.387  -8.464  -8.028  1.00  0.00     0.202 C 
BRANCH  36  37
ATOM     37  C   UNL     1       0.961  -8.290  -7.316  1.00  0.00     0.261 C 
BRANCH  37  38
ATOM     38  O   UNL     1       1.006  -8.750  -5.952  1.00  0.00    -0.460 OA
BRANCH  38  39
ATOM     39  C   UNL     1       0.294  -8.048  -5.045  1.00  0.00     0.338 C 
ATOM     40  O   UNL     1      -0.366  -7.036  -5.253  1.00  0.00    -0.246 OA
BRANCH  39  41
ATOM     41  C   UNL     1       0.243  -8.822  -3.788  1.00  0.00     0.060 A 
ATOM     42  C   UNL     1      -1.007  -9.155  -3.247  1.00  0.00     0.016 A 
ATOM     43  C   UNL     1       1.418  -9.213  -3.143  1.00  0.00     0.016 A 
ATOM     44  C   UNL     1      -1.085  -9.842  -2.035  1.00  0.00     0.010 A 
ATOM     45  C   UNL     1       1.339  -9.885  -1.920  1.00  0.00     0.010 A 
ATOM     46  C   UNL     1       0.088 -10.167  -1.341  1.00  0.00    -0.014 A 
BRANCH  46  47
ATOM     47  C   UNL     1       0.010 -10.617   0.072  1.00  0.00     0.031 A 
ATOM     48  C   UNL     1       0.261  -9.608   1.160  1.00  0.00     0.074 A 
ATOM     49  C   UNL     1      -0.263 -11.895   0.391  1.00  0.00     0.049 A 
ATOM     50  N   UNL     1       0.290  -9.772   2.456  1.00  0.00    -0.248 NA
ATOM     51  C   UNL     1       0.523  -8.226   0.722  1.00  0.00     0.031 C 
ATOM     52  C   UNL     1      -0.517 -12.970  -0.565  1.00  0.00     0.029 A 
ATOM     53  N   UNL     1      -0.338 -12.507   1.618  1.00  0.00    -0.354 N 
ATOM     54  C   UNL     1       0.606  -8.528   2.988  1.00  0.00     0.074 A 
ATOM     55  C   UNL     1       0.774  -7.621   1.873  1.00  0.00     0.031 C 
ATOM     56  C   UNL     1      -0.682 -14.121   0.111  1.00  0.00     0.029 A 
ATOM     57  C   UNL     1      -0.522 -13.867   1.542  1.00  0.00     0.049 A 
ATOM     58  H   UNL     1      -0.267 -12.019   2.470  1.00  0.00     0.167 HD
ATOM     59  C   UNL     1       0.732  -8.165   4.286  1.00  0.00     0.034 A 
ATOM     60  C   UNL     1      -0.531 -14.803   2.513  1.00  0.00     0.034 A 
ATOM     61  C   UNL     1       0.553  -9.062   5.395  1.00  0.00     0.049 A 
ATOM     62  C   UNL     1      -0.375 -14.381   3.953  1.00  0.00     0.074 A 
ATOM     63  C   UNL     1       0.603  -8.777   6.748  1.00  0.00     0.029 A 
ATOM     64  N   UNL     1       0.311 -10.422   5.282  1.00  0.00    -0.354 N 
ATOM     65  N   UNL     1      -0.205 -13.179   4.448  1.00  0.00    -0.248 NA
ATOM     66  C   UNL     1      -0.448 -15.441   4.970  1.00  0.00     0.031 C 
ATOM     67  C   UNL     1       0.428  -9.973   7.453  1.00  0.00     0.029 A 
ATOM     68  C   UNL     1       0.225 -10.995   6.539  1.00  0.00     0.049 A 
ATOM     69  H   UNL     1       0.214 -10.909   4.431  1.00  0.00     0.167 HD
ATOM     70  C   UNL     1      -0.188 -13.333   5.832  1.00  0.00     0.074 A 
ATOM     71  C   UNL     1      -0.382 -14.743   6.096  1.00  0.00     0.031 C 
ATOM     72  C   UNL     1      -0.017 -12.393   6.795  1.00  0.00     0.034 A 
BRANCH  59  73
ATOM     73  C   UNL     1       1.069  -6.725   4.575  1.00  0.00     0.023 A 
ATOM     74  C   UNL     1       0.110  -5.718   4.340  1.00  0.00     0.012 A 
ATOM     75  C   UNL     1       2.324  -6.372   5.107  1.00  0.00     0.148 A 
ATOM     76  C   UNL     1       0.410  -4.379   4.589  1.00  0.00     0.002 A 
ATOM     77  C   UNL     1       2.598  -5.042   5.400  1.00  0.00     0.091 A 
ATOM     78  F   UNL     1       3.232  -7.339   5.303  1.00  0.00    -0.205 F 
ATOM     79  C   UNL     1       1.649  -4.043   5.128  1.00  0.00     0.022 A 
BRANCH  77  80
ATOM     80  S   UNL     1       4.133  -4.517   6.171  1.00  0.00     0.127 S 
ATOM     81  O   UNL     1       4.802  -3.837   5.063  1.00  0.00    -0.237 OA
ATOM     82  O   UNL     1       3.656  -3.630   7.232  1.00  0.00    -0.237 OA
ATOM     83  O   UNL     1       4.781  -5.733   6.643  1.00  0.00    -0.744 OA
ENDBRANCH  77  80
ENDBRANCH  59  73
BRANCH  60  84
ATOM     84  C   UNL     1      -0.712 -16.239   2.155  1.00  0.00     0.023 A 
ATOM     85  C   UNL     1      -1.903 -16.904   2.504  1.00  0.00     0.012 A 
ATOM     86  C   UNL     1       0.287 -16.941   1.453  1.00  0.00     0.148 A 
ATOM     87  C   UNL     1      -2.086 -18.250   2.182  1.00  0.00     0.002 A 
ATOM     88  C   UNL     1       0.076 -18.264   1.086  1.00  0.00     0.091 A 
ATOM     89  F   UNL     1       1.420 -16.294   1.146  1.00  0.00    -0.205 F 
ATOM     90  C   UNL     1      -1.103 -18.926   1.465  1.00  0.00     0.022 A 
BRANCH  88  91
ATOM     91  S   UNL     1       1.230 -19.177   0.056  1.00  0.00     0.127 S 
ATOM     92  O   UNL     1       1.723 -20.190   0.986  1.00  0.00    -0.237 OA
ATOM     93  O   UNL     1       0.352 -19.683  -0.999  1.00  0.00    -0.237 OA
ATOM     94  O   UNL     1       2.214 -18.203  -0.394  1.00  0.00    -0.744 OA
ENDBRANCH  88  91
ENDBRANCH  60  84
BRANCH  72  95
ATOM     95  C   UNL     1      -0.078 -12.837   8.235  1.00  0.00     0.023 A 
ATOM     96  C   UNL     1       0.973 -13.597   8.786  1.00  0.00     0.012 A 
ATOM     97  C   UNL     1      -1.143 -12.430   9.064  1.00  0.00     0.148 A 
ATOM     98  C   UNL     1       0.946 -13.974  10.130  1.00  0.00     0.002 A 
ATOM     99  C   UNL     1      -1.137 -12.765  10.413  1.00  0.00     0.091 A 
ATOM    100  F   UNL     1      -2.142 -11.721   8.519  1.00  0.00    -0.205 F 
ATOM    101  C   UNL     1      -0.100 -13.549  10.944  1.00  0.00     0.022 A 
BRANCH  99 102
ATOM    102  S   UNL     1      -2.390 -12.178  11.559  1.00  0.00     0.127 S 
ATOM    103  O   UNL     1      -3.134 -13.404  11.841  1.00  0.00    -0.237 OA
ATOM    104  O   UNL     1      -1.583 -11.683  12.674  1.00  0.00    -0.237 OA
ATOM    105  O   UNL     1      -3.135 -11.147  10.848  1.00  0.00    -0.744 OA
ENDBRANCH  99 102
ENDBRANCH  72  95
ENDBRANCH  46  47
ENDBRANCH  39  41
ENDBRANCH  38  39
ENDBRANCH  37  38
ENDBRANCH  36  37
ENDBRANCH  35  36
ENDBRANCH  34  35
ENDBRANCH  33  34
ENDBRANCH  32  33
ENDBRANCH  31  32
ENDBRANCH   1  31
TORSDOF 29
