REMARK SMILES O=C(OCCOCCOCCOC(=O)c1ccc(S(=O)(=O)[O-])cc1N1C(=O)/C(=C\C=C\c2ccccc2)[NH+]=C1c1ccccc1)c1ccc(-c2c3nc(c(-c4cccc(S(=O)(=O)[O-])c4F)c4ccc([nH]4)c(-c4cccc(S(=O)(=O)[O-])c4F)c4nc(c(-c5cccc(S(=O)(=O)[O-])c5F)c5ccc2[nH]5)C=C4)C=C3)cc1
REMARK SMILES IDX 7 1 6 2 5 3 4 4 3 5 2 6 1 7 46 8 47 9 108 10 48 11 107 12
REMARK SMILES IDX 49 13 50 14 51 15 101 16 52 17 106 18 100 19 102 20 53 21
REMARK SMILES IDX 105 22 99 23 98 24 54 26 86 27 66 28 85 29 67 30 70 31 84 32
REMARK SMILES IDX 103 33 68 34 69 35 83 37 104 38 71 39 55 40 56 41 64 42
REMARK SMILES IDX 57 43 59 44 65 45 58 46 60 47 61 48 62 49 63 50 87 51 88 52
REMARK SMILES IDX 96 53 89 54 91 55 97 56 90 57 92 58 93 59 94 60 95 61 72 62
REMARK SMILES IDX 73 63 81 64 74 65 76 66 82 67 75 68 77 69 78 70 79 71 80 72
REMARK SMILES IDX 8 73 9 74 10 75 11 76 12 77 13 78 14 79 15 80 16 81 24 82
REMARK SMILES IDX 17 83 23 84 18 85 25 86 26 87 39 88 27 89 28 90 38 91 29 92
REMARK SMILES IDX 40 94 41 95 45 96 42 97 44 98 43 99 30 100 31 101 32 102
REMARK SMILES IDX 33 103 37 104 34 105 36 106 35 107 19 108 20 109 21 110
REMARK SMILES IDX 22 111
REMARK H PARENT 102 25 70 36 38 93
REMARK Flexibility Score: inf
ROOT
ATOM      1  C   UNL     1       2.494  -0.506   1.471  1.00  0.00     0.188 C 
ENDROOT
BRANCH   1   2
ATOM      2  O   UNL     1       3.824  -0.782   1.018  1.00  0.00    -0.376 OA
BRANCH   2   3
ATOM      3  C   UNL     1       4.715   0.314   1.231  1.00  0.00     0.202 C 
BRANCH   3   4
ATOM      4  C   UNL     1       4.624   1.396   0.138  1.00  0.00     0.261 C 
BRANCH   4   5
ATOM      5  O   UNL     1       3.303   1.568  -0.410  1.00  0.00    -0.460 OA
BRANCH   5   6
ATOM      6  C   UNL     1       2.673   0.903  -1.412  1.00  0.00     0.338 C 
ATOM      7  O   UNL     1       1.528   1.262  -1.692  1.00  0.00    -0.246 OA
BRANCH   6   8
ATOM      8  C   UNL     1       3.254  -0.240  -2.197  1.00  0.00     0.060 A 
ATOM      9  C   UNL     1       4.419  -0.938  -1.886  1.00  0.00     0.016 A 
ATOM     10  C   UNL     1       2.530  -0.675  -3.328  1.00  0.00     0.016 A 
ATOM     11  C   UNL     1       4.865  -2.003  -2.666  1.00  0.00     0.010 A 
ATOM     12  C   UNL     1       2.970  -1.752  -4.115  1.00  0.00     0.010 A 
ATOM     13  C   UNL     1       4.155  -2.414  -3.792  1.00  0.00    -0.014 A 
BRANCH  13  14
ATOM     14  C   UNL     1       4.757  -3.442  -4.671  1.00  0.00     0.031 A 
ATOM     15  C   UNL     1       5.655  -2.991  -5.773  1.00  0.00     0.074 A 
ATOM     16  C   UNL     1       4.629  -4.755  -4.407  1.00  0.00     0.049 A 
ATOM     17  N   UNL     1       6.400  -3.714  -6.561  1.00  0.00    -0.248 NA
ATOM     18  C   UNL     1       5.777  -1.538  -5.978  1.00  0.00     0.031 C 
ATOM     19  C   UNL     1       3.942  -5.273  -3.237  1.00  0.00     0.029 A 
ATOM     20  N   UNL     1       5.117  -5.880  -5.032  1.00  0.00    -0.354 N 
ATOM     21  C   UNL     1       7.030  -2.813  -7.400  1.00  0.00     0.074 A 
ATOM     22  C   UNL     1       6.638  -1.484  -6.984  1.00  0.00     0.031 C 
ATOM     23  C   UNL     1       4.097  -6.604  -3.207  1.00  0.00     0.029 A 
ATOM     24  C   UNL     1       4.829  -7.052  -4.366  1.00  0.00     0.049 A 
ATOM     25  H   UNL     1       5.624  -5.850  -5.875  1.00  0.00     0.167 HD
ATOM     26  C   UNL     1       7.837  -3.083  -8.447  1.00  0.00     0.034 A 
ATOM     27  C   UNL     1       5.133  -8.342  -4.618  1.00  0.00     0.034 A 
ATOM     28  C   UNL     1       8.196  -4.408  -8.863  1.00  0.00     0.049 A 
ATOM     29  C   UNL     1       5.936  -8.596  -5.853  1.00  0.00     0.074 A 
ATOM     30  C   UNL     1       8.977  -4.786  -9.938  1.00  0.00     0.029 A 
ATOM     31  N   UNL     1       7.764  -5.574  -8.247  1.00  0.00    -0.354 N 
ATOM     32  N   UNL     1       6.590  -7.733  -6.588  1.00  0.00    -0.248 NA
ATOM     33  C   UNL     1       6.046  -9.991  -6.299  1.00  0.00     0.031 C 
ATOM     34  C   UNL     1       8.976  -6.182 -10.003  1.00  0.00     0.029 A 
ATOM     35  C   UNL     1       8.221  -6.674  -8.950  1.00  0.00     0.049 A 
ATOM     36  H   UNL     1       7.215  -5.613  -7.430  1.00  0.00     0.167 HD
ATOM     37  C   UNL     1       7.197  -8.477  -7.582  1.00  0.00     0.074 A 
ATOM     38  C   UNL     1       6.883  -9.869  -7.319  1.00  0.00     0.031 C 
ATOM     39  C   UNL     1       7.920  -8.045  -8.640  1.00  0.00     0.034 A 
BRANCH  26  40
ATOM     40  C   UNL     1       8.292  -1.918  -9.271  1.00  0.00     0.023 A 
ATOM     41  C   UNL     1       9.360  -1.109  -8.841  1.00  0.00     0.012 A 
ATOM     42  C   UNL     1       7.649  -1.643 -10.492  1.00  0.00     0.148 A 
ATOM     43  C   UNL     1       9.775  -0.027  -9.618  1.00  0.00     0.002 A 
ATOM     44  C   UNL     1       8.090  -0.587 -11.275  1.00  0.00     0.091 A 
ATOM     45  F   UNL     1       6.613  -2.413 -10.853  1.00  0.00    -0.205 F 
ATOM     46  C   UNL     1       9.147   0.227 -10.837  1.00  0.00     0.022 A 
BRANCH  44  47
ATOM     47  S   UNL     1       7.376  -0.212 -12.878  1.00  0.00     0.127 S 
ATOM     48  O   UNL     1       6.817   1.120 -12.646  1.00  0.00    -0.237 OA
ATOM     49  O   UNL     1       8.554  -0.238 -13.745  1.00  0.00    -0.237 OA
ATOM     50  O   UNL     1       6.396  -1.255 -13.140  1.00  0.00    -0.744 OA
ENDBRANCH  44  47
ENDBRANCH  26  40
BRANCH  27  51
ATOM     51  C   UNL     1       4.751  -9.483  -3.715  1.00  0.00     0.023 A 
ATOM     52  C   UNL     1       5.751 -10.341  -3.206  1.00  0.00     0.012 A 
ATOM     53  C   UNL     1       3.422  -9.764  -3.364  1.00  0.00     0.148 A 
ATOM     54  C   UNL     1       5.438 -11.442  -2.397  1.00  0.00     0.002 A 
ATOM     55  C   UNL     1       3.120 -10.844  -2.530  1.00  0.00     0.091 A 
ATOM     56  F   UNL     1       2.439  -8.961  -3.803  1.00  0.00    -0.205 F 
ATOM     57  C   UNL     1       4.117 -11.693  -2.051  1.00  0.00     0.022 A 
BRANCH  55  58
ATOM     58  S   UNL     1       1.432 -11.041  -1.975  1.00  0.00     0.127 S 
ATOM     59  O   UNL     1       0.733 -11.363  -3.210  1.00  0.00    -0.237 OA
ATOM     60  O   UNL     1       1.508 -12.115  -0.990  1.00  0.00    -0.237 OA
ATOM     61  O   UNL     1       1.176  -9.711  -1.428  1.00  0.00    -0.744 OA
ENDBRANCH  55  58
ENDBRANCH  27  51
BRANCH  39  62
ATOM     62  C   UNL     1       8.412  -9.097  -9.584  1.00  0.00     0.023 A 
ATOM     63  C   UNL     1       7.504  -9.719 -10.462  1.00  0.00     0.012 A 
ATOM     64  C   UNL     1       9.778  -9.423  -9.637  1.00  0.00     0.148 A 
ATOM     65  C   UNL     1       7.949 -10.675 -11.370  1.00  0.00     0.002 A 
ATOM     66  C   UNL     1      10.222 -10.337 -10.579  1.00  0.00     0.091 A 
ATOM     67  F   UNL     1      10.610  -8.833  -8.766  1.00  0.00    -0.205 F 
ATOM     68  C   UNL     1       9.309 -10.973 -11.438  1.00  0.00     0.022 A 
BRANCH  66  69
ATOM     69  S   UNL     1      11.962 -10.708 -10.805  1.00  0.00     0.127 S 
ATOM     70  O   UNL     1      12.035 -12.087 -10.326  1.00  0.00    -0.237 OA
ATOM     71  O   UNL     1      12.124 -10.551 -12.250  1.00  0.00    -0.237 OA
ATOM     72  O   UNL     1      12.689  -9.732 -10.004  1.00  0.00    -0.744 OA
ENDBRANCH  66  69
ENDBRANCH  39  62
ENDBRANCH  13  14
ENDBRANCH   6   8
ENDBRANCH   5   6
ENDBRANCH   4   5
ENDBRANCH   3   4
ENDBRANCH   2   3
ENDBRANCH   1   2
BRANCH   1  73
ATOM     73  C   UNL     1       2.189  -1.170   2.807  1.00  0.00     0.188 C 
BRANCH  73  74
ATOM     74  O   UNL     1       3.304  -1.052   3.687  1.00  0.00    -0.376 OA
BRANCH  74  75
ATOM     75  C   UNL     1       3.776  -2.312   4.176  1.00  0.00     0.202 C 
BRANCH  75  76
ATOM     76  C   UNL     1       4.581  -3.154   3.163  1.00  0.00     0.261 C 
BRANCH  76  77
ATOM     77  O   UNL     1       3.900  -3.627   1.985  1.00  0.00    -0.460 OA
BRANCH  77  78
ATOM     78  C   UNL     1       2.836  -4.429   2.193  1.00  0.00     0.342 C 
ATOM     79  O   UNL     1       2.313  -4.684   3.262  1.00  0.00    -0.246 OA
BRANCH  78  80
ATOM     80  C   UNL     1       2.339  -4.920   0.898  1.00  0.00     0.107 A 
ATOM     81  C   UNL     1       1.319  -4.170   0.300  1.00  0.00     0.021 A 
ATOM     82  C   UNL     1       2.785  -6.140   0.345  1.00  0.00     0.152 A 
ATOM     83  C   UNL     1       0.706  -4.633  -0.855  1.00  0.00     0.020 A 
ATOM     84  C   UNL     1       2.057  -6.659  -0.750  1.00  0.00     0.072 A 
ATOM     85  C   UNL     1       1.050  -5.886  -1.374  1.00  0.00     0.059 A 
BRANCH  82  86
ATOM     86  N   UNL     1       3.833  -6.863   0.990  1.00  0.00    -0.153 N 
ATOM     87  C   UNL     1       3.667  -7.292   2.291  1.00  0.00     0.385 C 
ATOM     88  C   UNL     1       5.194  -6.857   0.760  1.00  0.00     0.295 C 
ATOM     89  O   UNL     1       2.643  -7.527   2.908  1.00  0.00    -0.236 OA
ATOM     90  C   UNL     1       5.066  -7.338   2.813  1.00  0.00     0.215 C 
ATOM     91  N   UNL     1       5.941  -7.186   1.777  1.00  0.00    -0.233 N 
ATOM     92  C   UNL     1       5.479  -7.304   4.086  1.00  0.00     0.060 C 
ATOM     93  H   UNL     1       6.919  -7.300   1.793  1.00  0.00     0.312 HD
BRANCH  88  94
ATOM     94  C   UNL     1       5.905  -6.540  -0.483  1.00  0.00     0.065 A 
ATOM     95  C   UNL     1       6.595  -7.600  -1.095  1.00  0.00     0.017 A 
ATOM     96  C   UNL     1       6.226  -5.223  -0.817  1.00  0.00     0.017 A 
ATOM     97  C   UNL     1       7.533  -7.349  -2.098  1.00  0.00     0.001 A 
ATOM     98  C   UNL     1       7.174  -4.981  -1.822  1.00  0.00     0.001 A 
ATOM     99  C   UNL     1       7.809  -6.040  -2.474  1.00  0.00     0.000 A 
ENDBRANCH  88  94
BRANCH  92 100
ATOM    100  C   UNL     1       4.625  -7.185   5.237  1.00  0.00     0.005 C 
ATOM    101  C   UNL     1       5.066  -7.231   6.502  1.00  0.00     0.008 C 
BRANCH 101 102
ATOM    102  C   UNL     1       4.157  -7.110   7.650  1.00  0.00    -0.026 A 
ATOM    103  C   UNL     1       4.630  -6.570   8.851  1.00  0.00     0.008 A 
ATOM    104  C   UNL     1       2.830  -7.563   7.590  1.00  0.00     0.008 A 
ATOM    105  C   UNL     1       3.784  -6.457   9.957  1.00  0.00     0.001 A 
ATOM    106  C   UNL     1       1.984  -7.445   8.691  1.00  0.00     0.001 A 
ATOM    107  C   UNL     1       2.461  -6.889   9.875  1.00  0.00     0.000 A 
ENDBRANCH 101 102
ENDBRANCH  92 100
ENDBRANCH  82  86
BRANCH  85 108
ATOM    108  S   UNL     1       0.179  -6.350  -2.880  1.00  0.00     0.124 S 
ATOM    109  O   UNL     1      -1.141  -5.751  -2.773  1.00  0.00    -0.237 OA
ATOM    110  O   UNL     1       1.041  -5.990  -3.983  1.00  0.00    -0.237 OA
ATOM    111  O   UNL     1      -0.047  -7.931  -2.905  1.00  0.00    -0.744 OA
ENDBRANCH  85 108
ENDBRANCH  78  80
ENDBRANCH  77  78
ENDBRANCH  76  77
ENDBRANCH  75  76
ENDBRANCH  74  75
ENDBRANCH  73  74
ENDBRANCH   1  73
TORSDOF 25
