REMARK SMILES COc1ccc(-n2ccnc2C[N@@H+]2Cc3[nH]cnc3C[C@H]2C(=O)OCCOCCOCCOC(=O)c2ccc(-c3c4nc(c(-c5cccc(S(=O)(=O)[O-])c5F)c5ccc([nH]5)c(-c5cccc(S(=O)(=O)[O-])c5F)c5nc(c(-c6cccc(S(=O)(=O)[O-])c6F)c6ccc3[nH]6)C=C5)C=C4)cc2)cc1
REMARK SMILES IDX 28 1 27 2 26 3 25 4 24 5 22 6 23 7 21 8 13 9 14 10 15 12
REMARK SMILES IDX 20 13 16 14 19 15 17 16 18 18 12 19 11 20 7 21 8 22 9 23
REMARK SMILES IDX 10 24 6 25 3 26 4 27 100 28 5 29 99 30 2 31 1 32 29 33 30 34
REMARK SMILES IDX 31 35 32 36 33 37 34 38 35 39 36 40 37 41 98 42 38 43 97 44
REMARK SMILES IDX 39 45 40 46 41 47 91 48 42 49 96 50 90 51 92 52 43 53 95 54
REMARK SMILES IDX 89 55 88 56 44 58 76 59 56 60 75 61 57 62 60 63 74 64 93 65
REMARK SMILES IDX 58 66 59 67 73 69 94 70 61 71 45 72 46 73 54 74 47 75 49 76
REMARK SMILES IDX 55 77 48 78 50 79 51 80 52 81 53 82 77 83 78 84 86 85 79 86
REMARK SMILES IDX 81 87 87 88 80 89 82 90 83 91 84 92 85 93 62 94 63 95 71 96
REMARK SMILES IDX 64 97 66 98 72 99 65 100 67 101 68 102 69 103 70 104
REMARK H PARENT 13 11 16 17 92 57 60 68
REMARK Flexibility Score: inf
ROOT
ATOM      1  C   UNL     1       0.095   4.973  -9.005  1.00  0.00     0.188 C 
ENDROOT
BRANCH   1   2
ATOM      2  O   UNL     1       0.093   6.387  -8.803  1.00  0.00    -0.376 OA
BRANCH   2   3
ATOM      3  C   UNL     1       0.831   6.880  -7.685  1.00  0.00     0.202 C 
BRANCH   3   4
ATOM      4  C   UNL     1       0.460   6.307  -6.306  1.00  0.00     0.261 C 
BRANCH   4   5
ATOM      5  O   UNL     1       0.575   4.872  -6.209  1.00  0.00    -0.459 OA
BRANCH   5   6
ATOM      6  C   UNL     1      -0.535   4.197  -5.805  1.00  0.00     0.365 C 
ATOM      7  O   UNL     1      -1.575   4.748  -5.446  1.00  0.00    -0.245 OA
BRANCH   6   8
ATOM      8  C   UNL     1      -0.421   2.654  -5.823  1.00  0.00     0.301 C 
ATOM      9  N   UNL     1       0.801   2.081  -6.512  1.00  0.00    -0.312 N 
ATOM     10  C   UNL     1       2.071   2.293  -5.792  1.00  0.00     0.320 C 
ATOM     11  H   UNL     1       1.004   2.628  -7.348  1.00  0.00     0.349 HD
ATOM     12  C   UNL     1       1.859   2.661  -4.369  1.00  0.00     0.093 A 
ATOM     13  C   UNL     1      -0.571   2.184  -4.349  1.00  0.00     0.136 C 
ATOM     14  N   UNL     1       2.681   3.420  -3.586  1.00  0.00    -0.344 N 
ATOM     15  C   UNL     1       0.681   2.576  -3.667  1.00  0.00     0.074 A 
ATOM     16  C   UNL     1       1.972   3.738  -2.456  1.00  0.00     0.197 A 
ATOM     17  H   UNL     1       3.606   3.688  -3.793  1.00  0.00     0.167 HD
ATOM     18  N   UNL     1       0.767   3.209  -2.461  1.00  0.00    -0.241 NA
BRANCH   9  19
ATOM     19  C   UNL     1       0.500   0.714  -7.006  1.00  0.00     0.340 C 
BRANCH  19  20
ATOM     20  C   UNL     1       1.614  -0.273  -7.235  1.00  0.00     0.168 A 
ATOM     21  N   UNL     1       2.123  -1.135  -6.268  1.00  0.00    -0.299 N 
ATOM     22  C   UNL     1       3.195  -1.784  -6.836  1.00  0.00     0.113 A 
ATOM     23  C   UNL     1       3.221  -1.381  -8.147  1.00  0.00     0.132 A 
ATOM     24  N   UNL     1       2.251  -0.446  -8.381  1.00  0.00    -0.236 NA
BRANCH  21  25
ATOM     25  C   UNL     1       1.720  -1.272  -4.923  1.00  0.00     0.047 A 
ATOM     26  C   UNL     1       0.922  -1.325  -2.259  1.00  0.00     0.119 A 
ATOM     27  C   UNL     1      -0.007  -1.582  -3.268  1.00  0.00     0.048 A 
ATOM     28  C   UNL     1       2.266  -1.123  -2.577  1.00  0.00     0.048 A 
ATOM     29  C   UNL     1       0.386  -1.541  -4.607  1.00  0.00     0.030 A 
ATOM     30  C   UNL     1       2.673  -1.114  -3.912  1.00  0.00     0.030 A 
BRANCH  26  31
ATOM     31  O   UNL     1       0.451  -1.340  -0.974  1.00  0.00    -0.497 OA
ATOM     32  C   UNL     1       0.871  -0.201  -0.222  1.00  0.00     0.278 C 
ENDBRANCH  26  31
ENDBRANCH  21  25
ENDBRANCH  19  20
ENDBRANCH   9  19
ENDBRANCH   6   8
ENDBRANCH   5   6
ENDBRANCH   4   5
ENDBRANCH   3   4
ENDBRANCH   2   3
ENDBRANCH   1   2
BRANCH   1  33
ATOM     33  C   UNL     1       1.466   4.301  -9.167  1.00  0.00     0.188 C 
BRANCH  33  34
ATOM     34  O   UNL     1       2.459   4.788  -8.264  1.00  0.00    -0.376 OA
BRANCH  34  35
ATOM     35  C   UNL     1       3.804   4.383  -8.506  1.00  0.00     0.202 C 
BRANCH  35  36
ATOM     36  C   UNL     1       4.477   5.106  -9.677  1.00  0.00     0.261 C 
BRANCH  36  37
ATOM     37  O   UNL     1       3.840   4.888 -10.928  1.00  0.00    -0.460 OA
BRANCH  37  38
ATOM     38  C   UNL     1       3.676   3.604 -11.316  1.00  0.00     0.338 C 
ATOM     39  O   UNL     1       4.105   2.609 -10.767  1.00  0.00    -0.246 OA
BRANCH  38  40
ATOM     40  C   UNL     1       2.846   3.606 -12.531  1.00  0.00     0.060 A 
ATOM     41  C   UNL     1       2.466   2.367 -13.053  1.00  0.00     0.016 A 
ATOM     42  C   UNL     1       2.615   4.806 -13.221  1.00  0.00     0.016 A 
ATOM     43  C   UNL     1       2.085   2.306 -14.376  1.00  0.00     0.010 A 
ATOM     44  C   UNL     1       2.251   4.745 -14.542  1.00  0.00     0.010 A 
ATOM     45  C   UNL     1       2.100   3.487 -15.121  1.00  0.00    -0.014 A 
BRANCH  45  46
ATOM     46  C   UNL     1       2.171   3.379 -16.560  1.00  0.00     0.031 A 
ATOM     47  C   UNL     1       0.890   3.366 -17.284  1.00  0.00     0.074 A 
ATOM     48  C   UNL     1       3.370   3.440 -17.172  1.00  0.00     0.049 A 
ATOM     49  N   UNL     1       0.422   2.416 -18.021  1.00  0.00    -0.248 NA
ATOM     50  C   UNL     1      -0.019   4.504 -17.096  1.00  0.00     0.031 C 
ATOM     51  C   UNL     1       4.660   3.783 -16.556  1.00  0.00     0.029 A 
ATOM     52  N   UNL     1       3.662   3.377 -18.499  1.00  0.00    -0.354 N 
ATOM     53  C   UNL     1      -0.752   2.924 -18.563  1.00  0.00     0.074 A 
ATOM     54  C   UNL     1      -1.064   4.126 -17.832  1.00  0.00     0.031 C 
ATOM     55  C   UNL     1       5.523   4.148 -17.527  1.00  0.00     0.029 A 
ATOM     56  C   UNL     1       4.885   3.953 -18.817  1.00  0.00     0.049 A 
ATOM     57  H   UNL     1       3.066   2.966 -19.166  1.00  0.00     0.167 HD
ATOM     58  C   UNL     1      -1.262   2.458 -19.732  1.00  0.00     0.034 A 
ATOM     59  C   UNL     1       5.297   4.338 -20.048  1.00  0.00     0.034 A 
ATOM     60  C   UNL     1      -0.651   1.229 -20.151  1.00  0.00     0.049 A 
ATOM     61  C   UNL     1       4.450   3.638 -21.043  1.00  0.00     0.074 A 
ATOM     62  C   UNL     1      -0.530  -0.035 -19.613  1.00  0.00     0.029 A 
ATOM     63  N   UNL     1       0.271   1.308 -21.166  1.00  0.00    -0.354 N 
ATOM     64  N   UNL     1       4.497   2.354 -21.267  1.00  0.00    -0.248 NA
ATOM     65  C   UNL     1       3.260   4.312 -21.540  1.00  0.00     0.031 C 
ATOM     66  C   UNL     1       0.740  -0.508 -20.051  1.00  0.00     0.029 A 
ATOM     67  C   UNL     1       1.319   0.486 -20.843  1.00  0.00     0.049 A 
ATOM     68  H   UNL     1       0.194   1.857 -21.980  1.00  0.00     0.167 HD
ATOM     69  C   UNL     1       3.179   1.995 -21.523  1.00  0.00     0.074 A 
ATOM     70  C   UNL     1       2.499   3.251 -21.821  1.00  0.00     0.031 C 
ATOM     71  C   UNL     1       2.703   0.762 -21.173  1.00  0.00     0.034 A 
BRANCH  58  72
ATOM     72  C   UNL     1      -2.098   3.285 -20.661  1.00  0.00     0.023 A 
ATOM     73  C   UNL     1      -2.887   2.615 -21.616  1.00  0.00     0.012 A 
ATOM     74  C   UNL     1      -1.972   4.686 -20.787  1.00  0.00     0.148 A 
ATOM     75  C   UNL     1      -3.523   3.311 -22.648  1.00  0.00     0.002 A 
ATOM     76  C   UNL     1      -2.683   5.383 -21.754  1.00  0.00     0.091 A 
ATOM     77  F   UNL     1      -1.060   5.343 -20.057  1.00  0.00    -0.205 F 
ATOM     78  C   UNL     1      -3.441   4.699 -22.705  1.00  0.00     0.022 A 
BRANCH  76  79
ATOM     79  S   UNL     1      -2.671   7.177 -21.781  1.00  0.00     0.127 S 
ATOM     80  O   UNL     1      -1.624   7.454 -22.759  1.00  0.00    -0.237 OA
ATOM     81  O   UNL     1      -4.030   7.489 -22.223  1.00  0.00    -0.237 OA
ATOM     82  O   UNL     1      -2.394   7.564 -20.402  1.00  0.00    -0.744 OA
ENDBRANCH  76  79
ENDBRANCH  58  72
BRANCH  59  83
ATOM     83  C   UNL     1       6.234   5.422 -20.418  1.00  0.00     0.023 A 
ATOM     84  C   UNL     1       6.867   5.394 -21.674  1.00  0.00     0.012 A 
ATOM     85  C   UNL     1       6.344   6.601 -19.644  1.00  0.00     0.148 A 
ATOM     86  C   UNL     1       7.570   6.506 -22.152  1.00  0.00     0.002 A 
ATOM     87  C   UNL     1       7.064   7.696 -20.113  1.00  0.00     0.091 A 
ATOM     88  F   UNL     1       5.666   6.691 -18.492  1.00  0.00    -0.205 F 
ATOM     89  C   UNL     1       7.670   7.656 -21.374  1.00  0.00     0.022 A 
BRANCH  87  90
ATOM     90  S   UNL     1       7.235   9.201 -19.144  1.00  0.00     0.127 S 
ATOM     91  O   UNL     1       8.631   9.569 -19.386  1.00  0.00    -0.237 OA
ATOM     92  O   UNL     1       6.253  10.080 -19.771  1.00  0.00    -0.237 OA
ATOM     93  O   UNL     1       6.957   8.811 -17.767  1.00  0.00    -0.744 OA
ENDBRANCH  87  90
ENDBRANCH  59  83
BRANCH  71  94
ATOM     94  C   UNL     1       3.701  -0.303 -20.781  1.00  0.00     0.023 A 
ATOM     95  C   UNL     1       4.554  -0.142 -19.669  1.00  0.00     0.012 A 
ATOM     96  C   UNL     1       3.650  -1.556 -21.418  1.00  0.00     0.148 A 
ATOM     97  C   UNL     1       5.359  -1.192 -19.222  1.00  0.00     0.002 A 
ATOM     98  C   UNL     1       4.415  -2.614 -20.938  1.00  0.00     0.091 A 
ATOM     99  F   UNL     1       2.829  -1.705 -22.469  1.00  0.00    -0.205 F 
ATOM    100  C   UNL     1       5.280  -2.432 -19.847  1.00  0.00     0.022 A 
BRANCH  98 101
ATOM    101  S   UNL     1       4.246  -4.271 -21.610  1.00  0.00     0.127 S 
ATOM    102  O   UNL     1       5.381  -4.351 -22.525  1.00  0.00    -0.237 OA
ATOM    103  O   UNL     1       4.362  -5.114 -20.418  1.00  0.00    -0.237 OA
ATOM    104  O   UNL     1       2.927  -4.309 -22.231  1.00  0.00    -0.744 OA
ENDBRANCH  98 101
ENDBRANCH  71  94
ENDBRANCH  45  46
ENDBRANCH  38  40
ENDBRANCH  37  38
ENDBRANCH  36  37
ENDBRANCH  35  36
ENDBRANCH  34  35
ENDBRANCH  33  34
ENDBRANCH   1  33
TORSDOF 24
