REMARK SMILES NS(=O)(=O)c1ccc(/N=C/c2ccc(O)c(C(=O)OCCOCCOCCOC(=O)c3ccc(-c4c5nc(c(-c6cccc(S(=O)(=O)[O-])c6F)c6ccc([nH]6)c(-c6cccc(S(=O)(=O)[O-])c6F)c6nc(c(-c7cccc(S(=O)(=O)[O-])c7F)c7ccc4[nH]7)C=C6)C=C5)cc3)c2)cc1
REMARK SMILES IDX 23 1 22 2 21 3 20 4 19 5 17 6 18 7 16 8 11 9 12 10 94 11
REMARK SMILES IDX 13 12 14 13 10 14 9 15 8 16 5 17 6 18 96 19 7 20 95 21 2 22
REMARK SMILES IDX 3 23 4 24 1 25 15 28 24 30 25 31 26 32 27 33 28 34 29 35
REMARK SMILES IDX 30 36 31 37 32 38 93 39 33 40 92 41 34 42 35 43 36 44 86 45
REMARK SMILES IDX 37 46 91 47 85 48 87 49 38 50 90 51 84 52 83 53 39 55 71 56
REMARK SMILES IDX 51 57 70 58 52 59 55 60 69 61 88 62 53 63 54 64 68 66 89 67
REMARK SMILES IDX 56 68 40 69 41 70 49 71 42 72 44 73 50 74 43 75 45 76 46 77
REMARK SMILES IDX 47 78 48 79 72 80 73 81 81 82 74 83 76 84 82 85 75 86 77 87
REMARK SMILES IDX 78 88 79 89 80 90 57 91 58 92 66 93 59 94 61 95 67 96 60 97
REMARK SMILES IDX 62 98 63 99 64 100 65 101
REMARK H PARENT 1 26 1 27 15 29 87 54 55 65
REMARK Flexibility Score: inf
ROOT
ATOM      1  C   UNL     1       0.519  -4.678 -12.276  1.00  0.00     0.188 C 
ENDROOT
BRANCH   1   2
ATOM      2  O   UNL     1      -0.342  -5.733 -12.652  1.00  0.00    -0.376 OA
BRANCH   2   3
ATOM      3  C   UNL     1      -0.776  -6.710 -11.724  1.00  0.00     0.202 C 
BRANCH   3   4
ATOM      4  C   UNL     1       0.149  -7.308 -10.659  1.00  0.00     0.261 C 
BRANCH   4   5
ATOM      5  O   UNL     1       0.915  -6.355  -9.913  1.00  0.00    -0.460 OA
BRANCH   5   6
ATOM      6  C   UNL     1       2.258  -6.471 -10.053  1.00  0.00     0.342 C 
ATOM      7  O   UNL     1       2.865  -7.295 -10.720  1.00  0.00    -0.246 OA
BRANCH   6   8
ATOM      8  C   UNL     1       2.941  -5.302  -9.474  1.00  0.00     0.102 A 
ATOM      9  C   UNL     1       3.232  -3.654  -7.734  1.00  0.00    -0.006 A 
ATOM     10  C   UNL     1       4.212  -3.011  -8.500  1.00  0.00     0.013 A 
ATOM     11  C   UNL     1       2.581  -4.793  -8.222  1.00  0.00     0.029 A 
ATOM     12  C   UNL     1       4.561  -3.520  -9.751  1.00  0.00     0.048 A 
ATOM     13  C   UNL     1       3.941  -4.671 -10.227  1.00  0.00     0.130 A 
BRANCH   9  14
ATOM     14  C   UNL     1       2.916  -3.115  -6.395  1.00  0.00     0.119 C 
ATOM     15  N   UNL     1       2.006  -3.654  -5.652  1.00  0.00    -0.256 NA
BRANCH  15  16
ATOM     16  C   UNL     1       1.724  -3.151  -4.372  1.00  0.00     0.063 A 
ATOM     17  C   UNL     1       0.978  -2.304  -1.798  1.00  0.00     0.082 A 
ATOM     18  C   UNL     1       0.849  -3.648  -2.151  1.00  0.00     0.024 A 
ATOM     19  C   UNL     1       1.486  -1.381  -2.712  1.00  0.00     0.024 A 
ATOM     20  C   UNL     1       1.218  -4.059  -3.434  1.00  0.00     0.030 A 
ATOM     21  C   UNL     1       1.847  -1.806  -3.997  1.00  0.00     0.030 A 
BRANCH  17  22
ATOM     22  S   UNL     1       0.478  -1.816  -0.175  1.00  0.00     0.238 S 
ATOM     23  O   UNL     1       1.110  -2.687   0.786  1.00  0.00    -0.207 OA
ATOM     24  O   UNL     1      -0.947  -1.571  -0.189  1.00  0.00    -0.207 OA
BRANCH  22  25
ATOM     25  N   UNL     1       1.194  -0.313   0.059  1.00  0.00    -0.225 NA
ATOM     26  H   UNL     1       0.949   0.040   0.985  1.00  0.00     0.137 HD
ATOM     27  H   UNL     1       0.859   0.338  -0.652  1.00  0.00     0.137 HD
ENDBRANCH  22  25
ENDBRANCH  17  22
ENDBRANCH  15  16
ENDBRANCH   9  14
BRANCH  13  28
ATOM     28  O   UNL     1       4.340  -5.107 -11.460  1.00  0.00    -0.507 OA
ATOM     29  H   UNL     1       5.013  -4.649 -11.924  1.00  0.00     0.293 HD
ENDBRANCH  13  28
ENDBRANCH   6   8
ENDBRANCH   5   6
ENDBRANCH   4   5
ENDBRANCH   3   4
ENDBRANCH   2   3
ENDBRANCH   1   2
BRANCH   1  30
ATOM     30  C   UNL     1       0.121  -3.678 -11.170  1.00  0.00     0.188 C 
BRANCH  30  31
ATOM     31  O   UNL     1      -1.186  -3.657 -10.626  1.00  0.00    -0.376 OA
BRANCH  31  32
ATOM     32  C   UNL     1      -2.303  -3.629 -11.497  1.00  0.00     0.202 C 
BRANCH  32  33
ATOM     33  C   UNL     1      -2.426  -2.535 -12.560  1.00  0.00     0.261 C 
BRANCH  33  34
ATOM     34  O   UNL     1      -1.286  -2.424 -13.421  1.00  0.00    -0.460 OA
BRANCH  34  35
ATOM     35  C   UNL     1      -0.622  -1.244 -13.347  1.00  0.00     0.338 C 
ATOM     36  O   UNL     1      -0.890  -0.286 -12.643  1.00  0.00    -0.246 OA
BRANCH  35  37
ATOM     37  C   UNL     1       0.614  -1.332 -14.143  1.00  0.00     0.060 A 
ATOM     38  C   UNL     1       1.841  -1.185 -13.484  1.00  0.00     0.016 A 
ATOM     39  C   UNL     1       0.564  -1.504 -15.527  1.00  0.00     0.016 A 
ATOM     40  C   UNL     1       3.029  -1.194 -14.213  1.00  0.00     0.010 A 
ATOM     41  C   UNL     1       1.754  -1.490 -16.258  1.00  0.00     0.010 A 
ATOM     42  C   UNL     1       2.989  -1.312 -15.608  1.00  0.00    -0.014 A 
BRANCH  42  43
ATOM     43  C   UNL     1       4.219  -1.121 -16.411  1.00  0.00     0.031 A 
ATOM     44  C   UNL     1       4.482   0.224 -17.026  1.00  0.00     0.074 A 
ATOM     45  C   UNL     1       5.066  -2.143 -16.624  1.00  0.00     0.049 A 
ATOM     46  N   UNL     1       5.439   0.590 -17.837  1.00  0.00    -0.248 NA
ATOM     47  C   UNL     1       3.540   1.302 -16.680  1.00  0.00     0.031 C 
ATOM     48  C   UNL     1       4.925  -3.489 -16.070  1.00  0.00     0.029 A 
ATOM     49  N   UNL     1       6.197  -2.213 -17.399  1.00  0.00    -0.354 N 
ATOM     50  C   UNL     1       5.202   1.929 -18.122  1.00  0.00     0.074 A 
ATOM     51  C   UNL     1       4.009   2.312 -17.399  1.00  0.00     0.031 C 
ATOM     52  C   UNL     1       5.907  -4.265 -16.560  1.00  0.00     0.029 A 
ATOM     53  C   UNL     1       6.728  -3.479 -17.479  1.00  0.00     0.049 A 
ATOM     54  H   UNL     1       6.590  -1.432 -17.852  1.00  0.00     0.167 HD
ATOM     55  C   UNL     1       5.920   2.767 -18.905  1.00  0.00     0.034 A 
ATOM     56  C   UNL     1       7.738  -3.953 -18.235  1.00  0.00     0.034 A 
ATOM     57  C   UNL     1       7.111   2.389 -19.616  1.00  0.00     0.049 A 
ATOM     58  C   UNL     1       8.488  -3.009 -19.141  1.00  0.00     0.074 A 
ATOM     59  C   UNL     1       7.933   3.180 -20.399  1.00  0.00     0.029 A 
ATOM     60  N   UNL     1       7.640   1.109 -19.647  1.00  0.00    -0.354 N 
ATOM     61  N   UNL     1       8.331  -1.717 -19.304  1.00  0.00    -0.248 NA
ATOM     62  C   UNL     1       9.573  -3.586 -19.950  1.00  0.00     0.031 C 
ATOM     63  C   UNL     1       8.946   2.371 -20.924  1.00  0.00     0.029 A 
ATOM     64  C   UNL     1       8.767   1.081 -20.450  1.00  0.00     0.049 A 
ATOM     65  H   UNL     1       7.269   0.332 -19.168  1.00  0.00     0.167 HD
ATOM     66  C   UNL     1       9.312  -1.323 -20.208  1.00  0.00     0.074 A 
ATOM     67  C   UNL     1      10.075  -2.508 -20.539  1.00  0.00     0.031 C 
ATOM     68  C   UNL     1       9.550  -0.094 -20.731  1.00  0.00     0.034 A 
BRANCH  55  69
ATOM     69  C   UNL     1       5.450   4.192 -19.014  1.00  0.00     0.023 A 
ATOM     70  C   UNL     1       5.650   5.073 -17.932  1.00  0.00     0.012 A 
ATOM     71  C   UNL     1       4.866   4.673 -20.202  1.00  0.00     0.148 A 
ATOM     72  C   UNL     1       5.254   6.407 -18.021  1.00  0.00     0.002 A 
ATOM     73  C   UNL     1       4.508   6.013 -20.297  1.00  0.00     0.091 A 
ATOM     74  F   UNL     1       4.662   3.812 -21.209  1.00  0.00    -0.205 F 
ATOM     75  C   UNL     1       4.694   6.878 -19.206  1.00  0.00     0.022 A 
BRANCH  73  76
ATOM     76  S   UNL     1       3.844   6.734 -21.802  1.00  0.00     0.127 S 
ATOM     77  O   UNL     1       2.452   6.976 -21.423  1.00  0.00    -0.237 OA
ATOM     78  O   UNL     1       4.655   7.943 -21.948  1.00  0.00    -0.237 OA
ATOM     79  O   UNL     1       4.043   5.738 -22.846  1.00  0.00    -0.744 OA
ENDBRANCH  73  76
ENDBRANCH  55  69
BRANCH  56  80
ATOM     80  C   UNL     1       8.116  -5.393 -18.162  1.00  0.00     0.023 A 
ATOM     81  C   UNL     1       9.352  -5.756 -17.592  1.00  0.00     0.012 A 
ATOM     82  C   UNL     1       7.262  -6.401 -18.650  1.00  0.00     0.148 A 
ATOM     83  C   UNL     1       9.744  -7.094 -17.539  1.00  0.00     0.002 A 
ATOM     84  C   UNL     1       7.636  -7.736 -18.546  1.00  0.00     0.091 A 
ATOM     85  F   UNL     1       6.100  -6.034 -19.210  1.00  0.00    -0.205 F 
ATOM     86  C   UNL     1       8.883  -8.083 -18.005  1.00  0.00     0.022 A 
BRANCH  84  87
ATOM     87  S   UNL     1       6.540  -9.081 -19.013  1.00  0.00     0.127 S 
ATOM     88  O   UNL     1       7.169  -9.567 -20.238  1.00  0.00    -0.237 OA
ATOM     89  O   UNL     1       6.656  -9.979 -17.863  1.00  0.00    -0.237 OA
ATOM     90  O   UNL     1       5.224  -8.477 -19.171  1.00  0.00    -0.744 OA
ENDBRANCH  84  87
ENDBRANCH  56  80
BRANCH  68  91
ATOM     91  C   UNL     1      10.694   0.046 -21.703  1.00  0.00     0.023 A 
ATOM     92  C   UNL     1      10.567  -0.469 -23.008  1.00  0.00     0.012 A 
ATOM     93  C   UNL     1      11.859   0.757 -21.351  1.00  0.00     0.148 A 
ATOM     94  C   UNL     1      11.592  -0.305 -23.939  1.00  0.00     0.002 A 
ATOM     95  C   UNL     1      12.857   0.958 -22.298  1.00  0.00     0.091 A 
ATOM     96  F   UNL     1      11.969   1.226 -20.100  1.00  0.00    -0.205 F 
ATOM     97  C   UNL     1      12.730   0.418 -23.589  1.00  0.00     0.022 A 
BRANCH  95  98
ATOM     98  S   UNL     1      14.315   1.954 -21.967  1.00  0.00     0.127 S 
ATOM     99  O   UNL     1      15.358   0.934 -21.871  1.00  0.00    -0.237 OA
ATOM    100  O   UNL     1      14.394   2.797 -23.160  1.00  0.00    -0.237 OA
ATOM    101  O   UNL     1      14.034   2.679 -20.735  1.00  0.00    -0.744 OA
ENDBRANCH  95  98
ENDBRANCH  68  91
ENDBRANCH  42  43
ENDBRANCH  35  37
ENDBRANCH  34  35
ENDBRANCH  33  34
ENDBRANCH  32  33
ENDBRANCH  31  32
ENDBRANCH  30  31
ENDBRANCH   1  30
TORSDOF 25
