REMARK SMILES O=C(OCCOCCOCCOC(=O)c1ccc(-c2c3nc(c(-c4cccc(S(=O)(=O)[O-])c4F)c4ccc([nH]4)c(-c4cccc(S(=O)(=O)[O-])c4F)c4nc(c(-c5cccc(S(=O)(=O)[O-])c5F)c5ccc2[nH]5)C=C4)C=C3)cc1)c1ccc(NC(=O)[C@@H]2CC=CC[C@H]2C(=O)Nc2cccc([N+](=O)[O-])c2)cc1
REMARK SMILES IDX 7 1 6 2 5 3 4 4 3 5 2 6 1 7 78 8 79 9 104 10 80 11 103 12
REMARK SMILES IDX 81 13 82 14 83 15 84 17 85 18 86 19 90 20 87 21 89 22 88 23
REMARK SMILES IDX 91 24 92 25 93 26 94 28 95 29 102 30 96 31 98 32 97 33 99 34
REMARK SMILES IDX 100 35 101 36 8 37 9 38 10 39 11 40 12 41 13 42 14 43 15 44
REMARK SMILES IDX 16 45 77 46 17 47 76 48 18 49 19 50 20 51 70 52 21 53 75 54
REMARK SMILES IDX 69 55 71 56 22 57 74 58 68 59 67 60 23 62 55 63 35 64 54 65
REMARK SMILES IDX 36 66 39 67 53 68 72 69 37 70 38 71 52 73 73 74 40 75 24 76
REMARK SMILES IDX 25 77 33 78 26 79 28 80 34 81 27 82 29 83 30 84 31 85 32 86
REMARK SMILES IDX 56 87 57 88 65 89 58 90 60 91 66 92 59 93 61 94 62 95 63 96
REMARK SMILES IDX 64 97 41 98 42 99 50 100 43 101 45 102 51 103 44 104 46 105
REMARK SMILES IDX 47 106 48 107 49 108
REMARK H PARENT 82 16 93 27 71 61 39 72
REMARK Flexibility Score: inf
ROOT
ATOM      1  C   UNL     1      12.298  -0.447  -1.292  1.00  0.00     0.188 C 
ENDROOT
BRANCH   1   2
ATOM      2  O   UNL     1      11.174  -0.570  -0.414  1.00  0.00    -0.376 OA
BRANCH   2   3
ATOM      3  C   UNL     1       9.934  -0.781  -1.075  1.00  0.00     0.202 C 
BRANCH   3   4
ATOM      4  C   UNL     1       9.257   0.466  -1.653  1.00  0.00     0.261 C 
BRANCH   4   5
ATOM      5  O   UNL     1      10.120   1.611  -1.767  1.00  0.00    -0.460 OA
BRANCH   5   6
ATOM      6  C   UNL     1      10.174   2.604  -0.839  1.00  0.00     0.338 C 
ATOM      7  O   UNL     1      10.785   3.645  -1.036  1.00  0.00    -0.246 OA
BRANCH   6   8
ATOM      8  C   UNL     1       9.466   2.382   0.434  1.00  0.00     0.060 A 
ATOM      9  C   UNL     1      10.063   1.606   1.426  1.00  0.00     0.018 A 
ATOM     10  C   UNL     1       8.208   2.950   0.645  1.00  0.00     0.018 A 
ATOM     11  C   UNL     1       9.341   1.285   2.574  1.00  0.00     0.027 A 
ATOM     12  C   UNL     1       7.501   2.636   1.810  1.00  0.00     0.027 A 
ATOM     13  C   UNL     1       8.031   1.727   2.731  1.00  0.00     0.041 A 
BRANCH  13  14
ATOM     14  N   UNL     1       7.233   1.327   3.806  1.00  0.00    -0.326 N 
ATOM     15  C   UNL     1       6.915   0.083   4.271  1.00  0.00     0.228 C 
ATOM     16  H   UNL     1       6.832   2.068   4.315  1.00  0.00     0.169 HD
ATOM     17  O   UNL     1       6.218   0.011   5.291  1.00  0.00    -0.274 OA
BRANCH  15  18
ATOM     18  C   UNL     1       7.241  -1.223   3.537  1.00  0.00     0.095 C 
ATOM     19  C   UNL     1       8.622  -1.809   3.837  1.00  0.00     0.041 C 
ATOM     20  C   UNL     1       6.819  -1.258   2.061  1.00  0.00     0.095 C 
ATOM     21  C   UNL     1       9.002  -2.952   2.940  1.00  0.00    -0.030 C 
ATOM     22  C   UNL     1       7.080  -2.611   1.376  1.00  0.00     0.041 C 
ATOM     23  C   UNL     1       8.316  -3.313   1.849  1.00  0.00    -0.030 C 
BRANCH  20  24
ATOM     24  C   UNL     1       5.404  -0.725   1.768  1.00  0.00     0.228 C 
ATOM     25  O   UNL     1       5.285   0.358   1.179  1.00  0.00    -0.274 OA
ATOM     26  N   UNL     1       4.241  -1.411   1.987  1.00  0.00    -0.326 N 
ATOM     27  H   UNL     1       3.424  -0.920   1.741  1.00  0.00     0.169 HD
BRANCH  26  28
ATOM     28  C   UNL     1       4.018  -2.691   2.501  1.00  0.00     0.048 A 
ATOM     29  C   UNL     1       3.356  -3.615   1.685  1.00  0.00     0.026 A 
ATOM     30  C   UNL     1       4.437  -3.071   3.771  1.00  0.00     0.111 A 
ATOM     31  C   UNL     1       3.256  -4.954   2.075  1.00  0.00     0.009 A 
ATOM     32  C   UNL     1       4.374  -4.418   4.143  1.00  0.00     0.271 A 
ATOM     33  C   UNL     1       3.796  -5.367   3.292  1.00  0.00     0.086 A 
BRANCH  32  34
ATOM     34  N   UNL     1       4.972  -4.849   5.412  1.00  0.00     0.062 N 
ATOM     35  O   UNL     1       4.786  -6.025   5.761  1.00  0.00    -0.258 OA
ATOM     36  O   UNL     1       5.651  -4.028   6.040  1.00  0.00    -0.258 OA
ENDBRANCH  32  34
ENDBRANCH  26  28
ENDBRANCH  20  24
ENDBRANCH  15  18
ENDBRANCH  13  14
ENDBRANCH   6   8
ENDBRANCH   5   6
ENDBRANCH   4   5
ENDBRANCH   3   4
ENDBRANCH   2   3
ENDBRANCH   1   2
BRANCH   1  37
ATOM     37  C   UNL     1      13.543  -0.987  -0.581  1.00  0.00     0.188 C 
BRANCH  37  38
ATOM     38  O   UNL     1      13.710  -2.405  -0.697  1.00  0.00    -0.376 OA
BRANCH  38  39
ATOM     39  C   UNL     1      12.668  -3.220  -0.164  1.00  0.00     0.202 C 
BRANCH  39  40
ATOM     40  C   UNL     1      12.706  -3.439   1.351  1.00  0.00     0.261 C 
BRANCH  40  41
ATOM     41  O   UNL     1      12.390  -2.261   2.114  1.00  0.00    -0.460 OA
BRANCH  41  42
ATOM     42  C   UNL     1      13.407  -1.799   2.877  1.00  0.00     0.338 C 
ATOM     43  O   UNL     1      14.550  -2.221   2.920  1.00  0.00    -0.246 OA
BRANCH  42  44
ATOM     44  C   UNL     1      12.978  -0.655   3.698  1.00  0.00     0.060 A 
ATOM     45  C   UNL     1      13.520   0.603   3.420  1.00  0.00     0.016 A 
ATOM     46  C   UNL     1      12.258  -0.876   4.876  1.00  0.00     0.016 A 
ATOM     47  C   UNL     1      13.412   1.626   4.364  1.00  0.00     0.010 A 
ATOM     48  C   UNL     1      12.142   0.156   5.814  1.00  0.00     0.010 A 
ATOM     49  C   UNL     1      12.777   1.390   5.592  1.00  0.00    -0.014 A 
BRANCH  49  50
ATOM     50  C   UNL     1      12.947   2.361   6.705  1.00  0.00     0.031 A 
ATOM     51  C   UNL     1      13.961   2.073   7.787  1.00  0.00     0.074 A 
ATOM     52  C   UNL     1      12.227   3.496   6.755  1.00  0.00     0.049 A 
ATOM     53  N   UNL     1      14.306   2.805   8.816  1.00  0.00    -0.248 NA
ATOM     54  C   UNL     1      14.679   0.790   7.699  1.00  0.00     0.031 C 
ATOM     55  C   UNL     1      11.203   3.892   5.792  1.00  0.00     0.029 A 
ATOM     56  N   UNL     1      12.245   4.520   7.671  1.00  0.00    -0.354 N 
ATOM     57  C   UNL     1      15.257   2.065   9.509  1.00  0.00     0.074 A 
ATOM     58  C   UNL     1      15.423   0.818   8.796  1.00  0.00     0.031 C 
ATOM     59  C   UNL     1      10.680   5.070   6.174  1.00  0.00     0.029 A 
ATOM     60  C   UNL     1      11.329   5.510   7.409  1.00  0.00     0.049 A 
ATOM     61  H   UNL     1      12.857   4.543   8.441  1.00  0.00     0.167 HD
ATOM     62  C   UNL     1      15.955   2.400  10.621  1.00  0.00     0.034 A 
ATOM     63  C   UNL     1      11.049   6.644   8.084  1.00  0.00     0.034 A 
ATOM     64  C   UNL     1      15.836   3.657  11.309  1.00  0.00     0.049 A 
ATOM     65  C   UNL     1      11.854   7.002   9.308  1.00  0.00     0.074 A 
ATOM     66  C   UNL     1      16.555   4.111  12.401  1.00  0.00     0.029 A 
ATOM     67  N   UNL     1      14.941   4.659  10.974  1.00  0.00    -0.354 N 
ATOM     68  N   UNL     1      12.861   6.363   9.852  1.00  0.00    -0.248 NA
ATOM     69  C   UNL     1      11.510   8.262   9.986  1.00  0.00     0.031 C 
ATOM     70  C   UNL     1      16.090   5.390  12.730  1.00  0.00     0.029 A 
ATOM     71  C   UNL     1      15.085   5.730  11.840  1.00  0.00     0.049 A 
ATOM     72  H   UNL     1      14.298   4.617  10.230  1.00  0.00     0.167 HD
ATOM     73  C   UNL     1      13.296   7.162  10.906  1.00  0.00     0.074 A 
ATOM     74  C   UNL     1      12.453   8.339  10.915  1.00  0.00     0.031 C 
ATOM     75  C   UNL     1      14.294   6.932  11.796  1.00  0.00     0.034 A 
BRANCH  62  76
ATOM     76  C   UNL     1      16.968   1.411  11.132  1.00  0.00     0.023 A 
ATOM     77  C   UNL     1      18.203   1.285  10.464  1.00  0.00     0.012 A 
ATOM     78  C   UNL     1      16.731   0.658  12.297  1.00  0.00     0.148 A 
ATOM     79  C   UNL     1      19.178   0.407  10.935  1.00  0.00     0.002 A 
ATOM     80  C   UNL     1      17.721  -0.191  12.780  1.00  0.00     0.091 A 
ATOM     81  F   UNL     1      15.540   0.770  12.903  1.00  0.00    -0.205 F 
ATOM     82  C   UNL     1      18.942  -0.322  12.097  1.00  0.00     0.022 A 
BRANCH  80  83
ATOM     83  S   UNL     1      17.526  -1.115  14.309  1.00  0.00     0.127 S 
ATOM     84  O   UNL     1      17.174  -2.443  13.809  1.00  0.00    -0.237 OA
ATOM     85  O   UNL     1      18.860  -1.024  14.905  1.00  0.00    -0.237 OA
ATOM     86  O   UNL     1      16.487  -0.423  15.057  1.00  0.00    -0.744 OA
ENDBRANCH  80  83
ENDBRANCH  62  76
BRANCH  63  87
ATOM     87  C   UNL     1      10.008   7.575   7.565  1.00  0.00     0.023 A 
ATOM     88  C   UNL     1      10.404   8.806   7.009  1.00  0.00     0.012 A 
ATOM     89  C   UNL     1       8.641   7.243   7.598  1.00  0.00     0.148 A 
ATOM     90  C   UNL     1       9.455   9.703   6.518  1.00  0.00     0.002 A 
ATOM     91  C   UNL     1       7.704   8.119   7.060  1.00  0.00     0.091 A 
ATOM     92  F   UNL     1       8.280   6.078   8.155  1.00  0.00    -0.205 F 
ATOM     93  C   UNL     1       8.107   9.355   6.533  1.00  0.00     0.022 A 
BRANCH  91  94
ATOM     94  S   UNL     1       5.967   7.681   6.924  1.00  0.00     0.127 S 
ATOM     95  O   UNL     1       5.387   8.389   8.062  1.00  0.00    -0.237 OA
ATOM     96  O   UNL     1       5.610   8.226   5.613  1.00  0.00    -0.237 OA
ATOM     97  O   UNL     1       5.933   6.226   6.987  1.00  0.00    -0.744 OA
ENDBRANCH  91  94
ENDBRANCH  63  87
BRANCH  75  98
ATOM     98  C   UNL     1      14.562   7.983  12.841  1.00  0.00     0.023 A 
ATOM     99  C   UNL     1      13.684   8.115  13.934  1.00  0.00     0.012 A 
ATOM    100  C   UNL     1      15.722   8.782  12.788  1.00  0.00     0.148 A 
ATOM    101  C   UNL     1      13.940   9.044  14.943  1.00  0.00     0.002 A 
ATOM    102  C   UNL     1      15.991   9.679  13.817  1.00  0.00     0.091 A 
ATOM    103  F   UNL     1      16.539   8.662  11.730  1.00  0.00    -0.205 F 
ATOM    104  C   UNL     1      15.098   9.817  14.891  1.00  0.00     0.022 A 
BRANCH 102 105
ATOM    105  S   UNL     1      17.509  10.640  13.855  1.00  0.00     0.127 S 
ATOM    106  O   UNL     1      17.088  11.895  13.236  1.00  0.00    -0.237 OA
ATOM    107  O   UNL     1      17.794  10.735  15.289  1.00  0.00    -0.237 OA
ATOM    108  O   UNL     1      18.482   9.855  13.107  1.00  0.00    -0.744 OA
ENDBRANCH 102 105
ENDBRANCH  75  98
ENDBRANCH  49  50
ENDBRANCH  42  44
ENDBRANCH  41  42
ENDBRANCH  40  41
ENDBRANCH  39  40
ENDBRANCH  38  39
ENDBRANCH  37  38
ENDBRANCH   1  37
TORSDOF 25
