REMARK SMILES CC[C@H](C)[C@H](NC(=O)[C@H](C)Oc1ccc2c(C)c(C)c(=O)oc2c1C)C(=O)OCCOCCOCCOC(=O)c1ccc(-c2c3nc(c(-c4cccc(S(=O)(=O)[O-])c4F)c4ccc([nH]4)c(-c4cccc(S(=O)(=O)[O-])c4F)c4nc(c(-c5cccc(S(=O)(=O)[O-])c5F)c5ccc2[nH]5)C=C4)C=C3)cc1
REMARK SMILES IDX 32 1 31 2 30 3 29 4 28 5 26 6 27 7 5 8 3 9 4 10 2 11 1 12
REMARK SMILES IDX 6 13 7 14 8 16 9 17 10 18 11 19 12 20 13 21 24 22 14 23
REMARK SMILES IDX 23 24 25 25 15 26 22 27 16 28 20 29 17 30 18 31 21 32 19 33
REMARK SMILES IDX 33 34 34 35 35 36 36 37 37 38 38 39 39 40 40 41 41 42 102 43
REMARK SMILES IDX 42 44 101 45 43 46 44 47 45 48 95 49 46 50 100 51 94 52
REMARK SMILES IDX 96 53 47 54 99 55 93 56 92 57 48 59 80 60 60 61 79 62 61 63
REMARK SMILES IDX 64 64 78 65 97 66 62 67 63 68 77 70 98 71 65 72 49 73 50 74
REMARK SMILES IDX 58 75 51 76 53 77 59 78 52 79 54 80 55 81 56 82 57 83 81 84
REMARK SMILES IDX 82 85 90 86 83 87 85 88 91 89 84 90 86 91 87 92 88 93 89 94
REMARK SMILES IDX 66 95 67 96 75 97 68 98 70 99 76 100 69 101 71 102 72 103
REMARK SMILES IDX 73 104 74 105
REMARK H PARENT 6 15 96 58 64 69
REMARK Flexibility Score: inf
ROOT
ATOM      1  C   UNL     1       3.382   3.194  -3.394  1.00  0.00     0.188 C 
ENDROOT
BRANCH   1   2
ATOM      2  O   UNL     1       3.602   4.190  -4.423  1.00  0.00    -0.376 OA
BRANCH   2   3
ATOM      3  C   UNL     1       2.909   4.209  -5.705  1.00  0.00     0.202 C 
BRANCH   3   4
ATOM      4  C   UNL     1       2.859   3.022  -6.684  1.00  0.00     0.261 C 
BRANCH   4   5
ATOM      5  O   UNL     1       2.501   1.817  -6.023  1.00  0.00    -0.462 OA
BRANCH   5   6
ATOM      6  C   UNL     1       3.559   1.024  -5.741  1.00  0.00     0.328 C 
ATOM      7  O   UNL     1       4.615   1.026  -6.357  1.00  0.00    -0.250 OA
BRANCH   6   8
ATOM      8  C   UNL     1       3.316   0.265  -4.429  1.00  0.00     0.195 C 
BRANCH   8   9
ATOM      9  C   UNL     1       3.854  -1.194  -4.553  1.00  0.00     0.019 C 
ATOM     10  C   UNL     1       3.182  -1.950  -5.704  1.00  0.00     0.010 C 
BRANCH   9  11
ATOM     11  C   UNL     1       5.399  -1.328  -4.708  1.00  0.00     0.002 C 
ATOM     12  C   UNL     1       6.241  -0.488  -3.756  1.00  0.00     0.004 C 
ENDBRANCH   9  11
ENDBRANCH   8   9
BRANCH   8  13
ATOM     13  N   UNL     1       1.913   0.322  -3.833  1.00  0.00    -0.339 N 
ATOM     14  C   UNL     1       1.071   1.253  -3.257  1.00  0.00     0.261 C 
ATOM     15  H   UNL     1       1.483  -0.562  -3.869  1.00  0.00     0.164 HD
ATOM     16  O   UNL     1       0.435   0.743  -2.312  1.00  0.00    -0.271 OA
BRANCH  14  17
ATOM     17  C   UNL     1       0.625   2.860  -3.732  1.00  0.00     0.258 C 
ATOM     18  C   UNL     1      -0.145   2.670  -5.062  1.00  0.00     0.064 C 
BRANCH  17  19
ATOM     19  O   UNL     1       1.140   4.322  -3.639  1.00  0.00    -0.480 OA
BRANCH  19  20
ATOM     20  C   UNL     1       1.876   5.369  -2.764  1.00  0.00     0.127 A 
ATOM     21  C   UNL     1       1.979   6.811  -3.891  1.00  0.00     0.047 A 
ATOM     22  C   UNL     1       1.992   5.687  -0.900  1.00  0.00     0.035 A 
ATOM     23  C   UNL     1       2.194   8.469  -3.214  1.00  0.00     0.016 A 
ATOM     24  C   UNL     1       2.085   7.431  -0.308  1.00  0.00     0.145 A 
ATOM     25  C   UNL     1       1.893   4.905   0.431  1.00  0.00     0.052 C 
ATOM     26  C   UNL     1       2.296   8.771  -1.442  1.00  0.00     0.021 A 
ATOM     27  O   UNL     1       2.138   7.702   1.059  1.00  0.00    -0.422 OA
ATOM     28  C   UNL     1       3.198   9.786  -0.843  1.00  0.00    -0.030 A 
ATOM     29  C   UNL     1       2.519   8.978   1.436  1.00  0.00     0.339 A 
ATOM     30  C   UNL     1       4.152  10.529  -1.746  1.00  0.00     0.045 C 
ATOM     31  C   UNL     1       3.365   9.774   0.500  1.00  0.00     0.038 A 
ATOM     32  O   UNL     1       2.249   9.395   2.560  1.00  0.00    -0.246 OA
ATOM     33  C   UNL     1       4.503  10.489   1.199  1.00  0.00     0.052 C 
ENDBRANCH  19  20
ENDBRANCH  17  19
ENDBRANCH  14  17
ENDBRANCH   8  13
ENDBRANCH   6   8
ENDBRANCH   5   6
ENDBRANCH   4   5
ENDBRANCH   3   4
ENDBRANCH   2   3
ENDBRANCH   1   2
BRANCH   1  34
ATOM     34  C   UNL     1       2.628   3.262  -1.856  1.00  0.00     0.188 C 
BRANCH  34  35
ATOM     35  O   UNL     1       1.087   3.373  -1.476  1.00  0.00    -0.376 OA
BRANCH  35  36
ATOM     36  C   UNL     1      -0.033   4.527  -1.419  1.00  0.00     0.202 C 
BRANCH  36  37
ATOM     37  C   UNL     1      -0.007   6.229  -1.802  1.00  0.00     0.261 C 
BRANCH  37  38
ATOM     38  O   UNL     1       1.529   7.073  -2.078  1.00  0.00    -0.460 OA
BRANCH  38  39
ATOM     39  C   UNL     1       3.384   6.826  -2.045  1.00  0.00     0.338 C 
ATOM     40  O   UNL     1       4.057   6.758  -0.973  1.00  0.00    -0.246 OA
BRANCH  39  41
ATOM     41  C   UNL     1       4.532   6.716  -3.084  1.00  0.00     0.060 A 
ATOM     42  C   UNL     1       5.465   5.686  -2.762  1.00  0.00     0.016 A 
ATOM     43  C   UNL     1       5.019   7.794  -3.832  1.00  0.00     0.016 A 
ATOM     44  C   UNL     1       6.815   5.760  -3.084  1.00  0.00     0.010 A 
ATOM     45  C   UNL     1       6.377   7.879  -4.146  1.00  0.00     0.010 A 
ATOM     46  C   UNL     1       7.282   6.901  -3.714  1.00  0.00    -0.014 A 
BRANCH  46  47
ATOM     47  C   UNL     1       8.726   7.173  -3.824  1.00  0.00     0.031 A 
ATOM     48  C   UNL     1       9.455   7.795  -2.667  1.00  0.00     0.074 A 
ATOM     49  C   UNL     1       9.306   6.991  -5.021  1.00  0.00     0.049 A 
ATOM     50  N   UNL     1      10.680   8.244  -2.617  1.00  0.00    -0.248 NA
ATOM     51  C   UNL     1       8.711   7.944  -1.402  1.00  0.00     0.031 C 
ATOM     52  C   UNL     1       8.639   6.415  -6.190  1.00  0.00     0.029 A 
ATOM     53  N   UNL     1      10.549   7.337  -5.470  1.00  0.00    -0.354 N 
ATOM     54  C   UNL     1      10.853   8.739  -1.329  1.00  0.00     0.074 A 
ATOM     55  C   UNL     1       9.609   8.534  -0.623  1.00  0.00     0.031 C 
ATOM     56  C   UNL     1       9.453   6.528  -7.250  1.00  0.00     0.029 A 
ATOM     57  C   UNL     1      10.692   7.173  -6.826  1.00  0.00     0.049 A 
ATOM     58  H   UNL     1      11.266   7.669  -4.883  1.00  0.00     0.167 HD
ATOM     59  C   UNL     1      11.960   9.305  -0.793  1.00  0.00     0.034 A 
ATOM     60  C   UNL     1      11.707   7.524  -7.634  1.00  0.00     0.034 A 
ATOM     61  C   UNL     1      13.179   9.502  -1.530  1.00  0.00     0.049 A 
ATOM     62  C   UNL     1      12.927   8.142  -7.017  1.00  0.00     0.074 A 
ATOM     63  C   UNL     1      14.389   9.996  -1.081  1.00  0.00     0.029 A 
ATOM     64  N   UNL     1      13.330   9.227  -2.882  1.00  0.00    -0.354 N 
ATOM     65  N   UNL     1      13.128   8.476  -5.764  1.00  0.00    -0.248 NA
ATOM     66  C   UNL     1      14.072   8.387  -7.901  1.00  0.00     0.031 C 
ATOM     67  C   UNL     1      15.271  10.029  -2.166  1.00  0.00     0.029 A 
ATOM     68  C   UNL     1      14.612   9.544  -3.287  1.00  0.00     0.049 A 
ATOM     69  H   UNL     1      12.628   8.860  -3.466  1.00  0.00     0.167 HD
ATOM     70  C   UNL     1      14.435   8.936  -5.697  1.00  0.00     0.074 A 
ATOM     71  C   UNL     1      14.977   8.840  -7.040  1.00  0.00     0.031 C 
ATOM     72  C   UNL     1      15.125   9.397  -4.626  1.00  0.00     0.034 A 
BRANCH  59  73
ATOM     73  C   UNL     1      11.934   9.701   0.660  1.00  0.00     0.023 A 
ATOM     74  C   UNL     1      12.060   8.699   1.643  1.00  0.00     0.012 A 
ATOM     75  C   UNL     1      11.889  11.053   1.053  1.00  0.00     0.148 A 
ATOM     76  C   UNL     1      12.130   9.034   2.996  1.00  0.00     0.002 A 
ATOM     77  C   UNL     1      11.987  11.382   2.402  1.00  0.00     0.091 A 
ATOM     78  F   UNL     1      11.761  11.990   0.103  1.00  0.00    -0.205 F 
ATOM     79  C   UNL     1      12.102  10.374   3.374  1.00  0.00     0.022 A 
BRANCH  77  80
ATOM     80  S   UNL     1      12.009  13.077   3.000  1.00  0.00     0.127 S 
ATOM     81  O   UNL     1      10.811  13.112   3.838  1.00  0.00    -0.237 OA
ATOM     82  O   UNL     1      13.271  13.123   3.738  1.00  0.00    -0.237 OA
ATOM     83  O   UNL     1      11.956  13.924   1.817  1.00  0.00    -0.744 OA
ENDBRANCH  77  80
ENDBRANCH  59  73
BRANCH  60  84
ATOM     84  C   UNL     1      11.618   7.187  -9.078  1.00  0.00     0.023 A 
ATOM     85  C   UNL     1      12.257   6.021  -9.537  1.00  0.00     0.012 A 
ATOM     86  C   UNL     1      10.794   7.919  -9.956  1.00  0.00     0.148 A 
ATOM     87  C   UNL     1      12.079   5.586 -10.849  1.00  0.00     0.002 A 
ATOM     88  C   UNL     1      10.597   7.463 -11.255  1.00  0.00     0.091 A 
ATOM     89  F   UNL     1      10.189   9.020  -9.490  1.00  0.00    -0.205 F 
ATOM     90  C   UNL     1      11.243   6.299 -11.704  1.00  0.00     0.022 A 
BRANCH  88  91
ATOM     91  S   UNL     1       9.456   8.246 -12.402  1.00  0.00     0.127 S 
ATOM     92  O   UNL     1      10.364   8.755 -13.426  1.00  0.00    -0.237 OA
ATOM     93  O   UNL     1       8.626   7.116 -12.821  1.00  0.00    -0.237 OA
ATOM     94  O   UNL     1       8.750   9.259 -11.629  1.00  0.00    -0.744 OA
ENDBRANCH  88  91
ENDBRANCH  60  84
BRANCH  72  95
ATOM     95  C   UNL     1      16.547   9.821  -4.846  1.00  0.00     0.023 A 
ATOM     96  C   UNL     1      16.811  11.096  -5.378  1.00  0.00     0.012 A 
ATOM     97  C   UNL     1      17.610   9.012  -4.401  1.00  0.00     0.148 A 
ATOM     98  C   UNL     1      18.121  11.562  -5.469  1.00  0.00     0.002 A 
ATOM     99  C   UNL     1      18.909   9.496  -4.462  1.00  0.00     0.091 A 
ATOM    100  F   UNL     1      17.324   7.798  -3.907  1.00  0.00    -0.205 F 
ATOM    101  C   UNL     1      19.166  10.768  -5.000  1.00  0.00     0.022 A 
BRANCH  99 102
ATOM    102  S   UNL     1      20.311   8.583  -3.811  1.00  0.00     0.127 S 
ATOM    103  O   UNL     1      21.046   8.258  -5.032  1.00  0.00    -0.237 OA
ATOM    104  O   UNL     1      20.957   9.578  -2.956  1.00  0.00    -0.237 OA
ATOM    105  O   UNL     1      19.755   7.440  -3.099  1.00  0.00    -0.744 OA
ENDBRANCH  99 102
ENDBRANCH  72  95
ENDBRANCH  46  47
ENDBRANCH  39  41
ENDBRANCH  38  39
ENDBRANCH  37  38
ENDBRANCH  36  37
ENDBRANCH  35  36
ENDBRANCH  34  35
ENDBRANCH   1  34
TORSDOF 26
