REMARK SMILES Cc1cc(-c2cncc(C(=O)OCCOCCOCCOC(=O)c3ccc(-c4c5nc(c(-c6cccc(S(=O)(=O)[O-])c6F)c6ccc([nH]6)c(-c6cccc(S(=O)(=O)[O-])c6F)c6nc(c(-c7cccc(S(=O)(=O)[O-])c7F)c7ccc4[nH]7)C=C6)C=C5)cc3)c2)ccc1F
REMARK SMILES IDX 17 1 16 2 15 3 14 4 13 5 12 6 10 7 11 8 9 9 5 10 6 11 87 12
REMARK SMILES IDX 7 13 8 14 4 15 1 16 2 17 3 18 90 19 89 20 91 21 88 22 18 23
REMARK SMILES IDX 19 24 20 25 21 26 22 27 23 28 24 29 25 30 86 31 26 32 85 33
REMARK SMILES IDX 27 34 28 35 29 36 79 37 30 38 84 39 78 40 80 41 31 42 83 43
REMARK SMILES IDX 77 44 76 45 32 47 64 48 44 49 63 50 45 51 48 52 62 53 81 54
REMARK SMILES IDX 46 55 47 56 61 58 82 59 49 60 33 61 34 62 42 63 35 64 37 65
REMARK SMILES IDX 43 66 36 67 38 68 39 69 40 70 41 71 65 72 66 73 74 74 67 75
REMARK SMILES IDX 69 76 75 77 68 78 70 79 71 80 72 81 73 82 50 83 51 84 59 85
REMARK SMILES IDX 52 86 54 87 60 88 53 89 55 90 56 91 57 92 58 93
REMARK H PARENT 80 46 48 57
REMARK Flexibility Score: inf
ROOT
ATOM      1  C   UNL     1      -5.788   1.964  -3.776  1.00  0.00     0.188 C 
ENDROOT
BRANCH   1   2
ATOM      2  C   UNL     1      -6.928   2.854  -3.217  1.00  0.00     0.188 C 
BRANCH   2   3
ATOM      3  O   UNL     1      -7.241   4.146  -3.721  1.00  0.00    -0.376 OA
BRANCH   3   4
ATOM      4  C   UNL     1      -6.236   4.906  -4.361  1.00  0.00     0.202 C 
BRANCH   4   5
ATOM      5  C   UNL     1      -5.070   5.388  -3.488  1.00  0.00     0.261 C 
BRANCH   5   6
ATOM      6  O   UNL     1      -4.551   4.398  -2.585  1.00  0.00    -0.460 OA
BRANCH   6   7
ATOM      7  C   UNL     1      -4.926   4.532  -1.282  1.00  0.00     0.339 C 
ATOM      8  O   UNL     1      -5.530   5.447  -0.784  1.00  0.00    -0.246 OA
BRANCH   7   9
ATOM      9  C   UNL     1      -4.607   3.284  -0.553  1.00  0.00     0.079 A 
ATOM     10  C   UNL     1      -3.205   1.378  -0.012  1.00  0.00     0.001 A 
ATOM     11  C   UNL     1      -4.228   0.976   0.853  1.00  0.00     0.119 A 
ATOM     12  C   UNL     1      -3.438   2.549  -0.753  1.00  0.00     0.027 A 
ATOM     13  N   UNL     1      -5.382   1.659   1.057  1.00  0.00    -0.263 NA
ATOM     14  C   UNL     1      -5.536   2.809   0.361  1.00  0.00     0.126 A 
BRANCH  10  15
ATOM     15  C   UNL     1      -1.913   0.673  -0.066  1.00  0.00    -0.016 A 
ATOM     16  C   UNL     1       1.795   1.613   0.033  1.00  0.00     0.047 C 
ATOM     17  C   UNL     1       0.540   0.798  -0.011  1.00  0.00    -0.015 A 
ATOM     18  C   UNL     1      -0.716   1.417  -0.023  1.00  0.00     0.015 A 
ATOM     19  C   UNL     1       0.596  -0.594  -0.036  1.00  0.00     0.126 A 
ATOM     20  C   UNL     1      -0.565  -1.358  -0.086  1.00  0.00     0.040 A 
ATOM     21  F   UNL     1       1.786  -1.212  -0.002  1.00  0.00    -0.207 F 
ATOM     22  C   UNL     1      -1.814  -0.728  -0.105  1.00  0.00     0.012 A 
ENDBRANCH  10  15
ENDBRANCH   7   9
ENDBRANCH   6   7
ENDBRANCH   5   6
ENDBRANCH   4   5
ENDBRANCH   3   4
ENDBRANCH   2   3
ENDBRANCH   1   2
BRANCH   1  23
ATOM     23  O   UNL     1      -5.190   2.390  -4.996  1.00  0.00    -0.376 OA
BRANCH  23  24
ATOM     24  C   UNL     1      -5.303   1.453  -6.073  1.00  0.00     0.202 C 
BRANCH  24  25
ATOM     25  C   UNL     1      -6.581   1.696  -6.884  1.00  0.00     0.261 C 
BRANCH  25  26
ATOM     26  O   UNL     1      -7.751   1.692  -6.063  1.00  0.00    -0.460 OA
BRANCH  26  27
ATOM     27  C   UNL     1      -7.974   0.477  -5.533  1.00  0.00     0.338 C 
ATOM     28  O   UNL     1      -7.371  -0.558  -5.738  1.00  0.00    -0.246 OA
BRANCH  27  29
ATOM     29  C   UNL     1      -9.072   0.521  -4.584  1.00  0.00     0.060 A 
ATOM     30  C   UNL     1      -8.898  -0.245  -3.416  1.00  0.00     0.016 A 
ATOM     31  C   UNL     1     -10.308   0.835  -5.129  1.00  0.00     0.016 A 
ATOM     32  C   UNL     1      -9.962  -0.980  -2.959  1.00  0.00     0.010 A 
ATOM     33  C   UNL     1     -11.356   0.072  -4.699  1.00  0.00     0.010 A 
ATOM     34  C   UNL     1     -11.117  -0.916  -3.725  1.00  0.00    -0.014 A 
BRANCH  34  35
ATOM     35  C   UNL     1     -11.995  -2.056  -3.841  1.00  0.00     0.031 A 
ATOM     36  C   UNL     1     -13.315  -1.996  -3.207  1.00  0.00     0.074 A 
ATOM     37  C   UNL     1     -11.639  -3.017  -4.728  1.00  0.00     0.049 A 
ATOM     38  N   UNL     1     -14.059  -3.023  -3.010  1.00  0.00    -0.248 NA
ATOM     39  C   UNL     1     -13.895  -0.754  -2.697  1.00  0.00     0.031 C 
ATOM     40  C   UNL     1     -12.526  -3.989  -5.355  1.00  0.00     0.029 A 
ATOM     41  N   UNL     1     -10.376  -3.403  -5.188  1.00  0.00    -0.354 N 
ATOM     42  C   UNL     1     -15.312  -2.551  -2.713  1.00  0.00     0.074 A 
ATOM     43  C   UNL     1     -15.139  -1.149  -2.413  1.00  0.00     0.031 C 
ATOM     44  C   UNL     1     -11.787  -4.999  -5.844  1.00  0.00     0.029 A 
ATOM     45  C   UNL     1     -10.429  -4.791  -5.372  1.00  0.00     0.049 A 
ATOM     46  H   UNL     1      -9.603  -2.815  -5.350  1.00  0.00     0.167 HD
ATOM     47  C   UNL     1     -16.387  -3.359  -2.921  1.00  0.00     0.034 A 
ATOM     48  C   UNL     1      -9.732  -5.701  -4.624  1.00  0.00     0.034 A 
ATOM     49  C   UNL     1     -15.974  -4.661  -3.424  1.00  0.00     0.049 A 
ATOM     50  C   UNL     1     -10.656  -6.683  -3.914  1.00  0.00     0.074 A 
ATOM     51  C   UNL     1     -15.902  -5.189  -4.703  1.00  0.00     0.029 A 
ATOM     52  N   UNL     1     -15.206  -5.488  -2.615  1.00  0.00    -0.354 N 
ATOM     53  N   UNL     1     -11.894  -6.406  -3.600  1.00  0.00    -0.248 NA
ATOM     54  C   UNL     1     -10.274  -8.030  -3.500  1.00  0.00     0.031 C 
ATOM     55  C   UNL     1     -15.045  -6.317  -4.667  1.00  0.00     0.029 A 
ATOM     56  C   UNL     1     -14.614  -6.484  -3.363  1.00  0.00     0.049 A 
ATOM     57  H   UNL     1     -15.098  -5.378  -1.643  1.00  0.00     0.167 HD
ATOM     58  C   UNL     1     -12.492  -7.511  -3.043  1.00  0.00     0.074 A 
ATOM     59  C   UNL     1     -11.425  -8.492  -2.975  1.00  0.00     0.031 C 
ATOM     60  C   UNL     1     -13.820  -7.522  -2.717  1.00  0.00     0.034 A 
BRANCH  47  61
ATOM     61  C   UNL     1     -17.797  -2.834  -2.933  1.00  0.00     0.023 A 
ATOM     62  C   UNL     1     -18.216  -1.814  -2.053  1.00  0.00     0.012 A 
ATOM     63  C   UNL     1     -18.763  -3.324  -3.837  1.00  0.00     0.148 A 
ATOM     64  C   UNL     1     -19.483  -1.226  -2.144  1.00  0.00     0.002 A 
ATOM     65  C   UNL     1     -20.044  -2.775  -3.890  1.00  0.00     0.091 A 
ATOM     66  F   UNL     1     -18.458  -4.319  -4.679  1.00  0.00    -0.205 F 
ATOM     67  C   UNL     1     -20.402  -1.706  -3.067  1.00  0.00     0.022 A 
BRANCH  65  68
ATOM     68  S   UNL     1     -21.248  -3.485  -5.017  1.00  0.00     0.127 S 
ATOM     69  O   UNL     1     -20.661  -3.227  -6.328  1.00  0.00    -0.237 OA
ATOM     70  O   UNL     1     -21.317  -4.879  -4.589  1.00  0.00    -0.237 OA
ATOM     71  O   UNL     1     -22.461  -2.714  -4.739  1.00  0.00    -0.744 OA
ENDBRANCH  65  68
ENDBRANCH  47  61
BRANCH  48  72
ATOM     72  C   UNL     1      -8.448  -5.192  -4.062  1.00  0.00     0.023 A 
ATOM     73  C   UNL     1      -8.410  -4.658  -2.762  1.00  0.00     0.012 A 
ATOM     74  C   UNL     1      -7.386  -4.905  -4.948  1.00  0.00     0.148 A 
ATOM     75  C   UNL     1      -7.393  -3.768  -2.393  1.00  0.00     0.002 A 
ATOM     76  C   UNL     1      -6.395  -3.995  -4.586  1.00  0.00     0.091 A 
ATOM     77  F   UNL     1      -7.392  -5.474  -6.163  1.00  0.00    -0.205 F 
ATOM     78  C   UNL     1      -6.409  -3.406  -3.315  1.00  0.00     0.022 A 
BRANCH  76  79
ATOM     79  S   UNL     1      -5.172  -3.465  -5.799  1.00  0.00     0.127 S 
ATOM     80  O   UNL     1      -4.258  -4.603  -5.834  1.00  0.00    -0.237 OA
ATOM     81  O   UNL     1      -5.946  -3.231  -7.013  1.00  0.00    -0.237 OA
ATOM     82  O   UNL     1      -4.598  -2.257  -5.199  1.00  0.00    -0.744 OA
ENDBRANCH  76  79
ENDBRANCH  48  72
BRANCH  60  83
ATOM     83  C   UNL     1     -14.583  -8.532  -1.876  1.00  0.00     0.023 A 
ATOM     84  C   UNL     1     -16.006  -8.445  -1.871  1.00  0.00     0.012 A 
ATOM     85  C   UNL     1     -14.024  -9.470  -1.000  1.00  0.00     0.148 A 
ATOM     86  C   UNL     1     -16.817  -9.204  -1.028  1.00  0.00     0.002 A 
ATOM     87  C   UNL     1     -14.844 -10.302  -0.229  1.00  0.00     0.091 A 
ATOM     88  F   UNL     1     -12.697  -9.545  -0.844  1.00  0.00    -0.205 F 
ATOM     89  C   UNL     1     -16.234 -10.152  -0.210  1.00  0.00     0.022 A 
BRANCH  87  90
ATOM     90  S   UNL     1     -14.090 -11.649   0.684  1.00  0.00     0.127 S 
ATOM     91  O   UNL     1     -13.454 -12.431  -0.373  1.00  0.00    -0.237 OA
ATOM     92  O   UNL     1     -13.197 -10.968   1.615  1.00  0.00    -0.237 OA
ATOM     93  O   UNL     1     -15.230 -12.313   1.319  1.00  0.00    -0.744 OA
ENDBRANCH  87  90
ENDBRANCH  60  83
ENDBRANCH  34  35
ENDBRANCH  27  29
ENDBRANCH  26  27
ENDBRANCH  25  26
ENDBRANCH  24  25
ENDBRANCH  23  24
ENDBRANCH   1  23
TORSDOF 21
