REMARK SMILES Cc1c(Cl)cc2c(c1C)O[C@@H](C(F)(F)F)C(C(=O)OCCOCCOCCOC(=O)c1ccc(-c3c4nc(c(-c5cccc(S(=O)(=O)[O-])c5F)c5ccc([nH]5)c(-c5cccc(S(=O)(=O)[O-])c5F)c5nc(c(-c6cccc(S(=O)(=O)[O-])c6F)c6ccc3[nH]6)C=C5)C=C4)cc1)=C2
REMARK SMILES IDX 24 1 23 2 22 3 21 4 20 5 19 6 17 7 18 8 16 9 1 10 2 11 3 12
REMARK SMILES IDX 8 13 4 14 5 15 7 16 9 17 6 18 10 19 94 20 11 21 12 22 13 23
REMARK SMILES IDX 14 24 15 25 25 26 26 27 27 28 28 29 29 30 30 31 31 32 32 33
REMARK SMILES IDX 93 34 33 35 92 36 34 37 35 38 36 39 86 40 37 41 91 42 85 43
REMARK SMILES IDX 87 44 38 45 90 46 84 47 83 48 39 50 71 51 51 52 70 53 52 54
REMARK SMILES IDX 55 55 69 56 88 57 53 58 54 59 68 61 89 62 56 63 40 64 41 65
REMARK SMILES IDX 49 66 42 67 44 68 50 69 43 70 45 71 46 72 47 73 48 74 72 75
REMARK SMILES IDX 73 76 81 77 74 78 76 79 82 80 75 81 77 82 78 83 79 84 80 85
REMARK SMILES IDX 57 86 58 87 66 88 59 89 61 90 67 91 60 92 62 93 63 94 64 95
REMARK SMILES IDX 65 96
REMARK H PARENT 87 49 55 60
REMARK Flexibility Score: inf
ROOT
ATOM      1  C   UNL     1      -3.304   3.106  -7.083  1.00  0.00     0.188 C 
ENDROOT
BRANCH   1   2
ATOM      2  C   UNL     1      -2.389   4.258  -7.540  1.00  0.00     0.188 C 
BRANCH   2   3
ATOM      3  O   UNL     1      -2.288   4.546  -8.930  1.00  0.00    -0.376 OA
BRANCH   3   4
ATOM      4  C   UNL     1      -2.152   3.479  -9.862  1.00  0.00     0.202 C 
BRANCH   4   5
ATOM      5  C   UNL     1      -1.028   2.457  -9.640  1.00  0.00     0.261 C 
BRANCH   5   6
ATOM      6  O   UNL     1      -1.094   1.775  -8.371  1.00  0.00    -0.460 OA
BRANCH   6   7
ATOM      7  C   UNL     1       0.030   1.822  -7.622  1.00  0.00     0.338 C 
ATOM      8  O   UNL     1       1.116   2.254  -7.975  1.00  0.00    -0.246 OA
BRANCH   7   9
ATOM      9  C   UNL     1      -0.229   1.371  -6.241  1.00  0.00     0.087 C 
ATOM     10  C   UNL     1       0.868   0.186   0.085  1.00  0.00     0.046 C 
ATOM     11  C   UNL     1       0.527   0.700  -1.293  1.00  0.00    -0.026 A 
ATOM     12  C   UNL     1       0.668   2.079  -1.569  1.00  0.00     0.045 A 
ATOM     13  C   UNL     1       0.181  -0.169  -2.359  1.00  0.00    -0.004 A 
ATOM     14  Cl  UNL     1       1.152   3.212  -0.351  1.00  0.00    -0.084 Cl
ATOM     15  C   UNL     1       0.470   2.590  -2.854  1.00  0.00     0.032 A 
ATOM     16  C   UNL     1       0.010   0.364  -3.659  1.00  0.00     0.131 A 
ATOM     17  C   UNL     1      -0.028  -1.653  -2.187  1.00  0.00     0.049 C 
ATOM     18  C   UNL     1       0.161   1.732  -3.906  1.00  0.00     0.019 A 
ATOM     19  O   UNL     1      -0.204  -0.538  -4.675  1.00  0.00    -0.475 OA
ATOM     20  C   UNL     1       0.142   2.224  -5.276  1.00  0.00     0.027 C 
ATOM     21  C   UNL     1      -0.673  -0.036  -5.959  1.00  0.00     0.316 C 
BRANCH  21  22
ATOM     22  C   UNL     1      -2.187  -0.296  -6.054  1.00  0.00     0.430 C 
ATOM     23  F   UNL     1      -2.908   0.526  -5.259  1.00  0.00    -0.167 F 
ATOM     24  F   UNL     1      -2.646  -0.168  -7.318  1.00  0.00    -0.167 F 
ATOM     25  F   UNL     1      -2.481  -1.569  -5.676  1.00  0.00    -0.167 F 
ENDBRANCH  21  22
ENDBRANCH   7   9
ENDBRANCH   6   7
ENDBRANCH   5   6
ENDBRANCH   4   5
ENDBRANCH   3   4
ENDBRANCH   2   3
ENDBRANCH   1   2
BRANCH   1  26
ATOM     26  O   UNL     1      -4.060   2.532  -8.128  1.00  0.00    -0.376 OA
BRANCH  26  27
ATOM     27  C   UNL     1      -5.465   2.700  -8.082  1.00  0.00     0.202 C 
BRANCH  27  28
ATOM     28  C   UNL     1      -6.033   4.128  -8.039  1.00  0.00     0.261 C 
BRANCH  28  29
ATOM     29  O   UNL     1      -5.391   5.050  -7.145  1.00  0.00    -0.460 OA
BRANCH  29  30
ATOM     30  C   UNL     1      -5.680   4.961  -5.826  1.00  0.00     0.338 C 
ATOM     31  O   UNL     1      -6.439   4.169  -5.294  1.00  0.00    -0.246 OA
BRANCH  30  32
ATOM     32  C   UNL     1      -4.736   5.855  -5.117  1.00  0.00     0.060 A 
ATOM     33  C   UNL     1      -3.775   5.295  -4.263  1.00  0.00     0.016 A 
ATOM     34  C   UNL     1      -4.761   7.234  -5.343  1.00  0.00     0.016 A 
ATOM     35  C   UNL     1      -2.837   6.116  -3.633  1.00  0.00     0.010 A 
ATOM     36  C   UNL     1      -3.840   8.057  -4.688  1.00  0.00     0.010 A 
ATOM     37  C   UNL     1      -2.886   7.505  -3.815  1.00  0.00    -0.014 A 
BRANCH  37  38
ATOM     38  C   UNL     1      -2.080   8.386  -2.934  1.00  0.00     0.031 A 
ATOM     39  C   UNL     1      -2.725   8.915  -1.683  1.00  0.00     0.074 A 
ATOM     40  C   UNL     1      -0.803   8.699  -3.220  1.00  0.00     0.049 A 
ATOM     41  N   UNL     1      -2.220   9.674  -0.748  1.00  0.00    -0.248 NA
ATOM     42  C   UNL     1      -4.130   8.534  -1.456  1.00  0.00     0.031 C 
ATOM     43  C   UNL     1      -0.062   8.248  -4.395  1.00  0.00     0.029 A 
ATOM     44  N   UNL     1       0.095   9.487  -2.538  1.00  0.00    -0.354 N 
ATOM     45  C   UNL     1      -3.242   9.866   0.173  1.00  0.00     0.074 A 
ATOM     46  C   UNL     1      -4.406   9.171  -0.328  1.00  0.00     0.031 C 
ATOM     47  C   UNL     1       1.175   8.776  -4.360  1.00  0.00     0.029 A 
ATOM     48  C   UNL     1       1.310   9.617  -3.170  1.00  0.00     0.049 A 
ATOM     49  H   UNL     1      -0.113   9.918  -1.678  1.00  0.00     0.167 HD
ATOM     50  C   UNL     1      -3.209  10.537   1.347  1.00  0.00     0.034 A 
ATOM     51  C   UNL     1       2.398  10.340  -2.830  1.00  0.00     0.034 A 
ATOM     52  C   UNL     1      -2.052  11.220   1.852  1.00  0.00     0.049 A 
ATOM     53  C   UNL     1       2.388  11.136  -1.546  1.00  0.00     0.074 A 
ATOM     54  C   UNL     1      -1.912  11.893   3.051  1.00  0.00     0.029 A 
ATOM     55  N   UNL     1      -0.843  11.331   1.184  1.00  0.00    -0.354 N 
ATOM     56  N   UNL     1       1.462  11.198  -0.619  1.00  0.00    -0.248 NA
ATOM     57  C   UNL     1       3.581  11.946  -1.248  1.00  0.00     0.031 C 
ATOM     58  C   UNL     1      -0.629  12.443   3.094  1.00  0.00     0.029 A 
ATOM     59  C   UNL     1       0.041  12.087   1.933  1.00  0.00     0.049 A 
ATOM     60  H   UNL     1      -0.643  10.932   0.307  1.00  0.00     0.167 HD
ATOM     61  C   UNL     1       1.967  12.030   0.377  1.00  0.00     0.074 A 
ATOM     62  C   UNL     1       3.293  12.429  -0.046  1.00  0.00     0.031 C 
ATOM     63  C   UNL     1       1.377  12.441   1.527  1.00  0.00     0.034 A 
BRANCH  50  64
ATOM     64  C   UNL     1      -4.454  10.531   2.192  1.00  0.00     0.023 A 
ATOM     65  C   UNL     1      -4.824   9.349   2.866  1.00  0.00     0.012 A 
ATOM     66  C   UNL     1      -5.210  11.703   2.380  1.00  0.00     0.148 A 
ATOM     67  C   UNL     1      -5.943   9.328   3.696  1.00  0.00     0.002 A 
ATOM     68  C   UNL     1      -6.296  11.686   3.246  1.00  0.00     0.091 A 
ATOM     69  F   UNL     1      -4.852  12.809   1.712  1.00  0.00    -0.205 F 
ATOM     70  C   UNL     1      -6.671  10.498   3.895  1.00  0.00     0.022 A 
BRANCH  68  71
ATOM     71  S   UNL     1      -7.251  13.156   3.636  1.00  0.00     0.127 S 
ATOM     72  O   UNL     1      -8.547  12.833   3.041  1.00  0.00    -0.237 OA
ATOM     73  O   UNL     1      -7.234  13.151   5.099  1.00  0.00    -0.237 OA
ATOM     74  O   UNL     1      -6.546  14.271   3.020  1.00  0.00    -0.744 OA
ENDBRANCH  68  71
ENDBRANCH  50  64
BRANCH  51  75
ATOM     75  C   UNL     1       3.615  10.309  -3.694  1.00  0.00     0.023 A 
ATOM     76  C   UNL     1       4.789   9.695  -3.214  1.00  0.00     0.012 A 
ATOM     77  C   UNL     1       3.614  10.861  -4.991  1.00  0.00     0.148 A 
ATOM     78  C   UNL     1       5.942   9.649  -3.998  1.00  0.00     0.002 A 
ATOM     79  C   UNL     1       4.750  10.764  -5.788  1.00  0.00     0.091 A 
ATOM     80  F   UNL     1       2.495  11.459  -5.424  1.00  0.00    -0.205 F 
ATOM     81  C   UNL     1       5.920  10.173  -5.288  1.00  0.00     0.022 A 
BRANCH  79  82
ATOM     82  S   UNL     1       4.781  11.301  -7.503  1.00  0.00     0.127 S 
ATOM     83  O   UNL     1       5.746  12.397  -7.456  1.00  0.00    -0.237 OA
ATOM     84  O   UNL     1       5.252  10.095  -8.184  1.00  0.00    -0.237 OA
ATOM     85  O   UNL     1       3.413  11.683  -7.824  1.00  0.00    -0.744 OA
ENDBRANCH  79  82
ENDBRANCH  51  75
BRANCH  63  86
ATOM     86  C   UNL     1       2.134  13.382   2.432  1.00  0.00     0.023 A 
ATOM     87  C   UNL     1       2.276  14.732   2.057  1.00  0.00     0.012 A 
ATOM     88  C   UNL     1       2.556  12.973   3.714  1.00  0.00     0.148 A 
ATOM     89  C   UNL     1       2.831  15.659   2.938  1.00  0.00     0.002 A 
ATOM     90  C   UNL     1       3.061  13.912   4.606  1.00  0.00     0.091 A 
ATOM     91  F   UNL     1       2.417  11.682   4.049  1.00  0.00    -0.205 F 
ATOM     92  C   UNL     1       3.207  15.254   4.216  1.00  0.00     0.022 A 
BRANCH  90  93
ATOM     93  S   UNL     1       3.470  13.515   6.311  1.00  0.00     0.127 S 
ATOM     94  O   UNL     1       4.914  13.748   6.332  1.00  0.00    -0.237 OA
ATOM     95  O   UNL     1       2.683  14.499   7.054  1.00  0.00    -0.237 OA
ATOM     96  O   UNL     1       3.066  12.130   6.513  1.00  0.00    -0.744 OA
ENDBRANCH  90  93
ENDBRANCH  63  86
ENDBRANCH  37  38
ENDBRANCH  30  32
ENDBRANCH  29  30
ENDBRANCH  28  29
ENDBRANCH  27  28
ENDBRANCH  26  27
ENDBRANCH   1  26
TORSDOF 21
