REMARK SMILES Cc1cc([N+](=O)[O-])ccc1-c1ccc(/C=C/C(=O)Nc2ccc(O)c(C(=O)OCCOCCOCCOC(=O)c3ccc(-c4c5nc(c(-c6cccc(S(=O)(=O)[O-])c6F)c6ccc([nH]6)c(-c6cccc(S(=O)(=O)[O-])c6F)c6nc(c(-c7cccc(S(=O)(=O)[O-])c7F)c7ccc4[nH]7)C=C6)C=C5)cc3)c2)o1
REMARK SMILES IDX 32 1 31 2 30 3 29 4 28 5 26 6 27 7 25 8 20 9 21 10 103 11
REMARK SMILES IDX 22 12 23 13 19 14 17 15 18 16 16 18 15 19 14 20 11 21 12 22
REMARK SMILES IDX 104 23 13 24 10 25 1 26 2 27 3 28 4 29 9 30 8 31 5 32 6 33
REMARK SMILES IDX 7 34 24 35 33 37 34 38 35 39 36 40 37 41 38 42 39 43 40 44
REMARK SMILES IDX 41 45 102 46 42 47 101 48 43 49 44 50 45 51 95 52 46 53
REMARK SMILES IDX 100 54 94 55 96 56 47 57 99 58 93 59 92 60 48 62 80 63 60 64
REMARK SMILES IDX 79 65 61 66 64 67 78 68 97 69 62 70 63 71 77 73 98 74 65 75
REMARK SMILES IDX 49 76 50 77 58 78 51 79 53 80 59 81 52 82 54 83 55 84 56 85
REMARK SMILES IDX 57 86 81 87 82 88 90 89 83 90 85 91 91 92 84 93 86 94 87 95
REMARK SMILES IDX 88 96 89 97 66 98 67 99 75 100 68 101 70 102 76 103 69 104
REMARK SMILES IDX 71 105 72 106 73 107 74 108
REMARK H PARENT 19 17 24 36 96 61 64 72
REMARK Flexibility Score: inf
ROOT
ATOM      1  C   UNL     1       9.706  10.457  -0.854  1.00  0.00     0.188 C 
ENDROOT
BRANCH   1   2
ATOM      2  O   UNL     1       9.964   9.277  -1.637  1.00  0.00    -0.376 OA
BRANCH   2   3
ATOM      3  C   UNL     1       9.291   8.957  -2.873  1.00  0.00     0.202 C 
BRANCH   3   4
ATOM      4  C   UNL     1       8.293   7.684  -3.002  1.00  0.00     0.261 C 
BRANCH   4   5
ATOM      5  O   UNL     1       6.846   7.712  -2.524  1.00  0.00    -0.460 OA
BRANCH   5   6
ATOM      6  C   UNL     1       5.691   8.107  -3.174  1.00  0.00     0.342 C 
ATOM      7  O   UNL     1       5.694   8.448  -4.331  1.00  0.00    -0.246 OA
BRANCH   6   8
ATOM      8  C   UNL     1       4.302   8.139  -2.340  1.00  0.00     0.103 A 
ATOM      9  C   UNL     1       2.849   7.970  -0.229  1.00  0.00     0.042 A 
ATOM     10  C   UNL     1       1.727   7.849  -1.012  1.00  0.00     0.030 A 
ATOM     11  C   UNL     1       4.073   8.116  -0.920  1.00  0.00     0.045 A 
ATOM     12  C   UNL     1       1.863   7.927  -2.412  1.00  0.00     0.049 A 
ATOM     13  C   UNL     1       3.115   8.080  -3.060  1.00  0.00     0.130 A 
BRANCH   9  14
ATOM     14  N   UNL     1       2.843   7.969   1.203  1.00  0.00    -0.322 N 
ATOM     15  C   UNL     1       1.995   7.332   2.090  1.00  0.00     0.248 C 
ATOM     16  O   UNL     1       1.808   7.689   3.247  1.00  0.00    -0.270 OA
ATOM     17  H   UNL     1       3.554   8.506   1.622  1.00  0.00     0.170 HD
BRANCH  15  18
ATOM     18  C   UNL     1       1.397   6.070   1.627  1.00  0.00     0.075 C 
ATOM     19  C   UNL     1       2.264   5.078   1.392  1.00  0.00     0.053 C 
BRANCH  19  20
ATOM     20  C   UNL     1       1.881   4.015   0.549  1.00  0.00     0.127 A 
ATOM     21  C   UNL     1       0.975   2.158  -0.208  1.00  0.00     0.135 A 
ATOM     22  C   UNL     1       1.728   2.655  -1.245  1.00  0.00     0.051 A 
ATOM     23  O   UNL     1       1.012   2.999   0.863  1.00  0.00    -0.457 OA
ATOM     24  C   UNL     1       2.314   3.832  -0.755  1.00  0.00     0.051 A 
BRANCH  21  25
ATOM     25  C   UNL     1       0.239   0.923  -0.044  1.00  0.00     0.021 A 
ATOM     26  C   UNL     1       2.416  -0.426   0.053  1.00  0.00     0.045 C 
ATOM     27  C   UNL     1       0.909  -0.316   0.040  1.00  0.00    -0.033 A 
ATOM     28  C   UNL     1       0.155  -1.501   0.072  1.00  0.00     0.089 A 
ATOM     29  C   UNL     1      -1.244  -1.443   0.053  1.00  0.00     0.269 A 
ATOM     30  C   UNL     1      -1.164   0.967  -0.037  1.00  0.00     0.019 A 
ATOM     31  C   UNL     1      -1.909  -0.212   0.011  1.00  0.00     0.086 A 
BRANCH  29  32
ATOM     32  N   UNL     1      -2.025  -2.686   0.067  1.00  0.00     0.062 N 
ATOM     33  O   UNL     1      -1.412  -3.763   0.062  1.00  0.00    -0.258 OA
ATOM     34  O   UNL     1      -3.263  -2.590   0.076  1.00  0.00    -0.258 OA
ENDBRANCH  29  32
ENDBRANCH  21  25
ENDBRANCH  19  20
ENDBRANCH  15  18
ENDBRANCH   9  14
BRANCH  13  35
ATOM     35  O   UNL     1       3.074   8.121  -4.427  1.00  0.00    -0.507 OA
ATOM     36  H   UNL     1       2.251   8.078  -4.873  1.00  0.00     0.293 HD
ENDBRANCH  13  35
ENDBRANCH   6   8
ENDBRANCH   5   6
ENDBRANCH   4   5
ENDBRANCH   3   4
ENDBRANCH   2   3
ENDBRANCH   1   2
BRANCH   1  37
ATOM     37  C   UNL     1       9.634  11.874  -1.456  1.00  0.00     0.188 C 
BRANCH  37  38
ATOM     38  O   UNL     1       8.740  11.931  -2.555  1.00  0.00    -0.376 OA
BRANCH  38  39
ATOM     39  C   UNL     1       8.551  13.209  -3.155  1.00  0.00     0.202 C 
BRANCH  39  40
ATOM     40  C   UNL     1       7.608  14.158  -2.382  1.00  0.00     0.261 C 
BRANCH  40  41
ATOM     41  O   UNL     1       6.305  13.563  -2.203  1.00  0.00    -0.460 OA
BRANCH  41  42
ATOM     42  C   UNL     1       5.892  13.406  -0.902  1.00  0.00     0.338 C 
ATOM     43  O   UNL     1       5.839  14.315  -0.095  1.00  0.00    -0.246 OA
BRANCH  42  44
ATOM     44  C   UNL     1       5.763  11.944  -0.587  1.00  0.00     0.060 A 
ATOM     45  C   UNL     1       5.588  11.395   0.692  1.00  0.00     0.016 A 
ATOM     46  C   UNL     1       6.154  11.082  -1.567  1.00  0.00     0.016 A 
ATOM     47  C   UNL     1       5.934  10.021   0.985  1.00  0.00     0.010 A 
ATOM     48  C   UNL     1       6.681   9.864  -1.172  1.00  0.00     0.010 A 
ATOM     49  C   UNL     1       6.556   9.197   0.047  1.00  0.00    -0.014 A 
BRANCH  49  50
ATOM     50  C   UNL     1       7.190   7.780   0.231  1.00  0.00     0.031 A 
ATOM     51  C   UNL     1       6.833   6.303  -0.289  1.00  0.00     0.074 A 
ATOM     52  C   UNL     1       8.440   7.864   0.741  1.00  0.00     0.049 A 
ATOM     53  N   UNL     1       7.619   5.286  -0.024  1.00  0.00    -0.248 NA
ATOM     54  C   UNL     1       5.708   5.746  -1.081  1.00  0.00     0.031 C 
ATOM     55  C   UNL     1       9.555   6.934   0.635  1.00  0.00     0.029 A 
ATOM     56  N   UNL     1       8.884   8.795   1.670  1.00  0.00    -0.354 N 
ATOM     57  C   UNL     1       7.347   4.245  -0.897  1.00  0.00     0.074 A 
ATOM     58  C   UNL     1       6.073   4.515  -1.433  1.00  0.00     0.031 C 
ATOM     59  C   UNL     1      10.375   7.129   1.672  1.00  0.00     0.029 A 
ATOM     60  C   UNL     1       9.765   8.126   2.522  1.00  0.00     0.049 A 
ATOM     61  H   UNL     1       8.627   9.744   1.719  1.00  0.00     0.167 HD
ATOM     62  C   UNL     1       8.261   3.280  -1.177  1.00  0.00     0.034 A 
ATOM     63  C   UNL     1       9.564   8.071   3.867  1.00  0.00     0.034 A 
ATOM     64  C   UNL     1       9.262   3.211  -0.123  1.00  0.00     0.049 A 
ATOM     65  C   UNL     1       9.395   6.628   4.321  1.00  0.00     0.074 A 
ATOM     66  C   UNL     1      10.625   3.364   0.020  1.00  0.00     0.029 A 
ATOM     67  N   UNL     1       8.763   3.115   1.162  1.00  0.00    -0.354 N 
ATOM     68  N   UNL     1       9.892   5.577   3.712  1.00  0.00    -0.248 NA
ATOM     69  C   UNL     1       8.537   6.251   5.442  1.00  0.00     0.031 C 
ATOM     70  C   UNL     1      10.910   3.436   1.431  1.00  0.00     0.029 A 
ATOM     71  C   UNL     1       9.729   3.256   2.132  1.00  0.00     0.049 A 
ATOM     72  H   UNL     1       7.811   2.962   1.364  1.00  0.00     0.167 HD
ATOM     73  C   UNL     1       9.238   4.447   4.159  1.00  0.00     0.074 A 
ATOM     74  C   UNL     1       8.462   4.918   5.296  1.00  0.00     0.031 C 
ATOM     75  C   UNL     1       9.241   3.235   3.508  1.00  0.00     0.034 A 
BRANCH  62  76
ATOM     76  C   UNL     1       8.208   2.387  -2.412  1.00  0.00     0.023 A 
ATOM     77  C   UNL     1       9.006   1.226  -2.428  1.00  0.00     0.012 A 
ATOM     78  C   UNL     1       7.491   2.665  -3.613  1.00  0.00     0.148 A 
ATOM     79  C   UNL     1       9.084   0.387  -3.552  1.00  0.00     0.002 A 
ATOM     80  C   UNL     1       7.501   1.781  -4.700  1.00  0.00     0.091 A 
ATOM     81  F   UNL     1       6.867   3.842  -3.759  1.00  0.00    -0.205 F 
ATOM     82  C   UNL     1       8.315   0.649  -4.679  1.00  0.00     0.022 A 
BRANCH  80  83
ATOM     83  S   UNL     1       6.454   2.014  -6.153  1.00  0.00     0.127 S 
ATOM     84  O   UNL     1       7.419   2.437  -7.166  1.00  0.00    -0.237 OA
ATOM     85  O   UNL     1       5.900   0.675  -6.365  1.00  0.00    -0.237 OA
ATOM     86  O   UNL     1       5.463   3.014  -5.772  1.00  0.00    -0.744 OA
ENDBRANCH  80  83
ENDBRANCH  62  76
BRANCH  63  87
ATOM     87  C   UNL     1       8.915   9.339   4.357  1.00  0.00     0.023 A 
ATOM     88  C   UNL     1       9.678  10.517   4.116  1.00  0.00     0.012 A 
ATOM     89  C   UNL     1       7.533   9.492   4.580  1.00  0.00     0.148 A 
ATOM     90  C   UNL     1       9.072  11.764   3.942  1.00  0.00     0.002 A 
ATOM     91  C   UNL     1       6.941  10.757   4.458  1.00  0.00     0.091 A 
ATOM     92  F   UNL     1       6.780   8.403   4.776  1.00  0.00    -0.205 F 
ATOM     93  C   UNL     1       7.697  11.880   4.089  1.00  0.00     0.022 A 
BRANCH  91  94
ATOM     94  S   UNL     1       5.154  10.952   4.625  1.00  0.00     0.127 S 
ATOM     95  O   UNL     1       4.999  11.009   6.073  1.00  0.00    -0.237 OA
ATOM     96  O   UNL     1       4.897  12.211   3.926  1.00  0.00    -0.237 OA
ATOM     97  O   UNL     1       4.618   9.781   3.943  1.00  0.00    -0.744 OA
ENDBRANCH  91  94
ENDBRANCH  63  87
BRANCH  75  98
ATOM     98  C   UNL     1       8.546   1.973   4.048  1.00  0.00     0.023 A 
ATOM     99  C   UNL     1       8.397   1.769   5.433  1.00  0.00     0.012 A 
ATOM    100  C   UNL     1       8.091   0.906   3.219  1.00  0.00     0.148 A 
ATOM    101  C   UNL     1       7.700   0.670   5.957  1.00  0.00     0.002 A 
ATOM    102  C   UNL     1       7.399  -0.188   3.737  1.00  0.00     0.091 A 
ATOM    103  F   UNL     1       8.379   0.891   1.915  1.00  0.00    -0.205 F 
ATOM    104  C   UNL     1       7.175  -0.295   5.107  1.00  0.00     0.022 A 
BRANCH 102 105
ATOM    105  S   UNL     1       6.769  -1.501   2.675  1.00  0.00     0.127 S 
ATOM    106  O   UNL     1       7.762  -2.553   2.887  1.00  0.00    -0.237 OA
ATOM    107  O   UNL     1       5.456  -1.772   3.263  1.00  0.00    -0.237 OA
ATOM    108  O   UNL     1       6.717  -0.936   1.334  1.00  0.00    -0.744 OA
ENDBRANCH 102 105
ENDBRANCH  75  98
ENDBRANCH  49  50
ENDBRANCH  42  44
ENDBRANCH  41  42
ENDBRANCH  40  41
ENDBRANCH  39  40
ENDBRANCH  38  39
ENDBRANCH  37  38
ENDBRANCH   1  37
TORSDOF 26
