REMARK SMILES CSc1cccc(N2C[C@@H](C(=O)OCCOCCOCCOC(=O)c3ccc(-c4c5nc(c(-c6cccc(S(=O)(=O)[O-])c6F)c6ccc([nH]6)c(-c6cccc(S(=O)(=O)[O-])c6F)c6nc(c(-c7cccc(S(=O)(=O)[O-])c7F)c7ccc4[nH]7)C=C6)C=C5)cc3)CC2=O)c1
REMARK SMILES IDX 18 1 17 2 16 3 15 4 14 5 13 6 11 7 12 8 10 9 8 10 9 11 89 12
REMARK SMILES IDX 88 13 90 14 7 15 3 16 4 17 91 18 5 19 6 20 2 21 1 22 19 23
REMARK SMILES IDX 20 24 21 25 22 26 23 27 24 28 25 29 26 30 87 31 27 32 86 33
REMARK SMILES IDX 28 34 29 35 30 36 80 37 31 38 85 39 79 40 81 41 32 42 84 43
REMARK SMILES IDX 78 44 77 45 33 47 65 48 45 49 64 50 46 51 49 52 63 53 82 54
REMARK SMILES IDX 47 55 48 56 62 58 83 59 50 60 34 61 35 62 43 63 36 64 38 65
REMARK SMILES IDX 44 66 37 67 39 68 40 69 41 70 42 71 66 72 67 73 75 74 68 75
REMARK SMILES IDX 70 76 76 77 69 78 71 79 72 80 73 81 74 82 51 83 52 84 60 85
REMARK SMILES IDX 53 86 55 87 61 88 54 89 56 90 57 91 58 92 59 93
REMARK H PARENT 81 46 49 57
REMARK Flexibility Score: inf
ROOT
ATOM      1  C   UNL     1       6.116  -3.899   9.031  1.00  0.00     0.188 C 
ENDROOT
BRANCH   1   2
ATOM      2  C   UNL     1       6.812  -5.260   8.875  1.00  0.00     0.188 C 
BRANCH   2   3
ATOM      3  O   UNL     1       8.220  -5.290   8.677  1.00  0.00    -0.376 OA
BRANCH   3   4
ATOM      4  C   UNL     1       8.814  -4.377   7.760  1.00  0.00     0.202 C 
BRANCH   4   5
ATOM      5  C   UNL     1       8.220  -4.246   6.345  1.00  0.00     0.261 C 
BRANCH   5   6
ATOM      6  O   UNL     1       6.808  -3.951   6.313  1.00  0.00    -0.463 OA
BRANCH   6   7
ATOM      7  C   UNL     1       6.038  -4.746   5.533  1.00  0.00     0.311 C 
ATOM      8  O   UNL     1       6.477  -5.600   4.771  1.00  0.00    -0.252 OA
BRANCH   7   9
ATOM      9  C   UNL     1       4.545  -4.549   5.727  1.00  0.00     0.128 C 
ATOM     10  N   UNL     1       2.798  -3.625   4.441  1.00  0.00    -0.311 N 
ATOM     11  C   UNL     1       3.923  -4.518   4.345  1.00  0.00     0.141 C 
ATOM     12  C   UNL     1       2.845  -2.843   5.586  1.00  0.00     0.227 C 
ATOM     13  C   UNL     1       4.025  -3.280   6.397  1.00  0.00     0.117 C 
ATOM     14  O   UNL     1       2.078  -1.962   5.944  1.00  0.00    -0.274 OA
BRANCH  10  15
ATOM     15  C   UNL     1       1.907  -3.441   3.366  1.00  0.00     0.045 A 
ATOM     16  C   UNL     1       0.589  -1.971   1.952  1.00  0.00     0.009 A 
ATOM     17  C   UNL     1       0.228  -3.062   1.160  1.00  0.00     0.015 A 
ATOM     18  C   UNL     1       1.398  -2.170   3.072  1.00  0.00     0.041 A 
ATOM     19  C   UNL     1       0.701  -4.337   1.464  1.00  0.00     0.003 A 
ATOM     20  C   UNL     1       1.554  -4.521   2.550  1.00  0.00     0.026 A 
BRANCH  16  21
ATOM     21  S   UNL     1       0.051  -0.322   1.538  1.00  0.00    -0.130 SA
ATOM     22  C   UNL     1       1.017  -0.087   0.024  1.00  0.00     0.091 C 
ENDBRANCH  16  21
ENDBRANCH  10  15
ENDBRANCH   7   9
ENDBRANCH   6   7
ENDBRANCH   5   6
ENDBRANCH   4   5
ENDBRANCH   3   4
ENDBRANCH   2   3
ENDBRANCH   1   2
BRANCH   1  23
ATOM     23  O   UNL     1       6.955  -2.777   8.896  1.00  0.00    -0.376 OA
BRANCH  23  24
ATOM     24  C   UNL     1       7.155  -1.953  10.029  1.00  0.00     0.202 C 
BRANCH  24  25
ATOM     25  C   UNL     1       7.500  -2.578  11.394  1.00  0.00     0.261 C 
BRANCH  25  26
ATOM     26  O   UNL     1       6.838  -3.803  11.745  1.00  0.00    -0.460 OA
BRANCH  26  27
ATOM     27  C   UNL     1       5.559  -3.715  12.177  1.00  0.00     0.338 C 
ATOM     28  O   UNL     1       4.904  -2.690  12.305  1.00  0.00    -0.246 OA
BRANCH  27  29
ATOM     29  C   UNL     1       4.998  -5.085  12.225  1.00  0.00     0.060 A 
ATOM     30  C   UNL     1       3.889  -5.398  11.423  1.00  0.00     0.016 A 
ATOM     31  C   UNL     1       5.565  -6.057  13.051  1.00  0.00     0.016 A 
ATOM     32  C   UNL     1       3.315  -6.670  11.481  1.00  0.00     0.010 A 
ATOM     33  C   UNL     1       4.975  -7.322  13.126  1.00  0.00     0.010 A 
ATOM     34  C   UNL     1       3.821  -7.620  12.376  1.00  0.00    -0.014 A 
BRANCH  34  35
ATOM     35  C   UNL     1       3.013  -8.817  12.719  1.00  0.00     0.031 A 
ATOM     36  C   UNL     1       2.183  -8.769  13.975  1.00  0.00     0.074 A 
ATOM     37  C   UNL     1       3.014  -9.924  11.957  1.00  0.00     0.049 A 
ATOM     38  N   UNL     1       1.444  -9.697  14.522  1.00  0.00    -0.248 NA
ATOM     39  C   UNL     1       2.204  -7.499  14.719  1.00  0.00     0.031 C 
ATOM     40  C   UNL     1       3.751 -10.093  10.708  1.00  0.00     0.029 A 
ATOM     41  N   UNL     1       2.385 -11.130  12.146  1.00  0.00    -0.354 N 
ATOM     42  C   UNL     1       0.944  -9.139  15.693  1.00  0.00     0.074 A 
ATOM     43  C   UNL     1       1.480  -7.799  15.785  1.00  0.00     0.031 C 
ATOM     44  C   UNL     1       3.547 -11.342  10.249  1.00  0.00     0.029 A 
ATOM     45  C   UNL     1       2.692 -12.067  11.189  1.00  0.00     0.049 A 
ATOM     46  H   UNL     1       1.771 -11.306  12.896  1.00  0.00     0.167 HD
ATOM     47  C   UNL     1       0.105  -9.682  16.607  1.00  0.00     0.034 A 
ATOM     48  C   UNL     1       2.337 -13.365  11.094  1.00  0.00     0.034 A 
ATOM     49  C   UNL     1      -0.430 -11.013  16.514  1.00  0.00     0.049 A 
ATOM     50  C   UNL     1       1.439 -13.968  12.146  1.00  0.00     0.074 A 
ATOM     51  C   UNL     1      -1.318 -11.646  17.365  1.00  0.00     0.029 A 
ATOM     52  N   UNL     1      -0.112 -11.925  15.519  1.00  0.00    -0.354 N 
ATOM     53  N   UNL     1       0.898 -13.401  13.197  1.00  0.00    -0.248 NA
ATOM     54  C   UNL     1       1.078 -15.384  11.978  1.00  0.00     0.031 C 
ATOM     55  C   UNL     1      -1.501 -12.956  16.909  1.00  0.00     0.029 A 
ATOM     56  C   UNL     1      -0.771 -13.121  15.743  1.00  0.00     0.049 A 
ATOM     57  H   UNL     1       0.495 -11.748  14.764  1.00  0.00     0.167 HD
ATOM     58  C   UNL     1       0.092 -14.373  13.785  1.00  0.00     0.074 A 
ATOM     59  C   UNL     1       0.216 -15.563  12.969  1.00  0.00     0.031 C 
ATOM     60  C   UNL     1      -0.680 -14.287  14.898  1.00  0.00     0.034 A 
BRANCH  47  61
ATOM     61  C   UNL     1      -0.270  -8.827  17.791  1.00  0.00     0.023 A 
ATOM     62  C   UNL     1      -1.075  -7.682  17.609  1.00  0.00     0.012 A 
ATOM     63  C   UNL     1       0.181  -9.153  19.084  1.00  0.00     0.148 A 
ATOM     64  C   UNL     1      -1.373  -6.845  18.684  1.00  0.00     0.002 A 
ATOM     65  C   UNL     1      -0.166  -8.344  20.159  1.00  0.00     0.091 A 
ATOM     66  F   UNL     1       0.965 -10.230  19.238  1.00  0.00    -0.205 F 
ATOM     67  C   UNL     1      -0.926  -7.180  19.959  1.00  0.00     0.022 A 
BRANCH  65  68
ATOM     68  S   UNL     1       0.290  -8.740  21.850  1.00  0.00     0.127 S 
ATOM     69  O   UNL     1       1.337  -7.753  22.113  1.00  0.00    -0.237 OA
ATOM     70  O   UNL     1      -0.962  -8.506  22.570  1.00  0.00    -0.237 OA
ATOM     71  O   UNL     1       0.727 -10.129  21.831  1.00  0.00    -0.744 OA
ENDBRANCH  65  68
ENDBRANCH  47  61
BRANCH  48  72
ATOM     72  C   UNL     1       2.786 -14.174   9.926  1.00  0.00     0.023 A 
ATOM     73  C   UNL     1       1.841 -14.570   8.959  1.00  0.00     0.012 A 
ATOM     74  C   UNL     1       4.137 -14.531   9.754  1.00  0.00     0.148 A 
ATOM     75  C   UNL     1       2.229 -15.328   7.853  1.00  0.00     0.002 A 
ATOM     76  C   UNL     1       4.526 -15.241   8.624  1.00  0.00     0.091 A 
ATOM     77  F   UNL     1       5.017 -14.151  10.691  1.00  0.00    -0.205 F 
ATOM     78  C   UNL     1       3.572 -15.654   7.681  1.00  0.00     0.022 A 
BRANCH  76  79
ATOM     79  S   UNL     1       6.244 -15.611   8.252  1.00  0.00     0.127 S 
ATOM     80  O   UNL     1       6.245 -17.072   8.262  1.00  0.00    -0.237 OA
ATOM     81  O   UNL     1       6.398 -15.004   6.930  1.00  0.00    -0.237 OA
ATOM     82  O   UNL     1       7.024 -14.979   9.307  1.00  0.00    -0.744 OA
ENDBRANCH  76  79
ENDBRANCH  48  72
BRANCH  60  83
ATOM     83  C   UNL     1      -1.515 -15.486  15.274  1.00  0.00     0.023 A 
ATOM     84  C   UNL     1      -0.905 -16.654  15.775  1.00  0.00     0.012 A 
ATOM     85  C   UNL     1      -2.921 -15.423  15.198  1.00  0.00     0.148 A 
ATOM     86  C   UNL     1      -1.679 -17.751  16.155  1.00  0.00     0.002 A 
ATOM     87  C   UNL     1      -3.688 -16.498  15.631  1.00  0.00     0.091 A 
ATOM     88  F   UNL     1      -3.485 -14.311  14.704  1.00  0.00    -0.205 F 
ATOM     89  C   UNL     1      -3.068 -17.669  16.095  1.00  0.00     0.022 A 
BRANCH  87  90
ATOM     90  S   UNL     1      -5.483 -16.442  15.687  1.00  0.00     0.127 S 
ATOM     91  O   UNL     1      -5.843 -17.349  14.598  1.00  0.00    -0.237 OA
ATOM     92  O   UNL     1      -5.767 -16.955  17.027  1.00  0.00    -0.237 OA
ATOM     93  O   UNL     1      -5.848 -15.046  15.484  1.00  0.00    -0.744 OA
ENDBRANCH  87  90
ENDBRANCH  60  83
ENDBRANCH  34  35
ENDBRANCH  27  29
ENDBRANCH  26  27
ENDBRANCH  25  26
ENDBRANCH  24  25
ENDBRANCH  23  24
ENDBRANCH   1  23
TORSDOF 22
