REMARK SMILES CCn1nc(C(=O)OCCOCCOCCOC(=O)c2ccc(-c3c4nc(c(-c5cccc(S(=O)(=O)[O-])c5F)c5ccc([nH]5)c(-c5cccc(S(=O)(=O)[O-])c5F)c5nc(c(-c6cccc(S(=O)(=O)[O-])c6F)c6ccc3[nH]6)C=C5)C=C4)cc2)c2c1CC[C@H]([NH2+]Cc1nn(CC)c3ccccc13)C2
REMARK SMILES IDX 12 1 11 2 10 3 9 4 8 5 6 6 7 7 5 8 3 9 4 10 84 11 83 12
REMARK SMILES IDX 85 13 101 14 86 15 87 16 2 17 1 18 88 19 89 22 90 23 91 24
REMARK SMILES IDX 100 25 92 26 95 27 99 28 96 29 98 30 97 31 93 32 94 33 13 34
REMARK SMILES IDX 14 35 15 36 16 37 17 38 18 39 19 40 20 41 21 42 82 43 22 44
REMARK SMILES IDX 81 45 23 46 24 47 25 48 75 49 26 50 80 51 74 52 76 53 27 54
REMARK SMILES IDX 79 55 73 56 72 57 28 59 60 60 40 61 59 62 41 63 44 64 58 65
REMARK SMILES IDX 77 66 42 67 43 68 57 70 78 71 45 72 29 73 30 74 38 75 31 76
REMARK SMILES IDX 33 77 39 78 32 79 34 80 35 81 36 82 37 83 61 84 62 85 70 86
REMARK SMILES IDX 63 87 65 88 71 89 64 90 66 91 67 92 68 93 69 94 46 95 47 96
REMARK SMILES IDX 55 97 48 98 50 99 56 100 49 101 51 102 52 103 53 104 54 105
REMARK H PARENT 88 20 88 21 76 58 44 69
REMARK Flexibility Score: inf
ROOT
ATOM      1  C   UNL     1      -0.664   6.352  -1.108  1.00  0.00     0.188 C 
ENDROOT
BRANCH   1   2
ATOM      2  O   UNL     1      -0.670   7.749  -0.874  1.00  0.00    -0.376 OA
BRANCH   2   3
ATOM      3  C   UNL     1      -0.518   8.101   0.499  1.00  0.00     0.202 C 
BRANCH   3   4
ATOM      4  C   UNL     1       0.768   7.596   1.124  1.00  0.00     0.261 C 
BRANCH   4   5
ATOM      5  O   UNL     1       0.967   6.181   1.101  1.00  0.00    -0.458 OA
BRANCH   5   6
ATOM      6  C   UNL     1       0.364   5.237   1.871  1.00  0.00     0.359 C 
ATOM      7  O   UNL     1      -0.512   5.462   2.690  1.00  0.00    -0.244 OA
BRANCH   6   8
ATOM      8  C   UNL     1       0.974   3.923   1.554  1.00  0.00     0.174 A 
ATOM      9  N   UNL     1       1.370   1.834   1.257  1.00  0.00    -0.269 N 
ATOM     10  N   UNL     1       0.406   2.709   1.670  1.00  0.00    -0.165 NA
ATOM     11  C   UNL     1       2.570   2.446   1.009  1.00  0.00     0.043 A 
ATOM     12  C   UNL     1       2.302   3.780   1.084  1.00  0.00     0.014 A 
ATOM     13  C   UNL     1       3.933   1.912   0.758  1.00  0.00     0.062 C 
ATOM     14  C   UNL     1       3.288   4.849   0.920  1.00  0.00     0.105 C 
ATOM     15  C   UNL     1       4.989   2.956   1.269  1.00  0.00     0.072 C 
ATOM     16  C   UNL     1       4.745   4.429   0.798  1.00  0.00     0.187 C 
BRANCH   9  17
ATOM     17  C   UNL     1       1.039   0.422   1.212  1.00  0.00     0.141 C 
ATOM     18  C   UNL     1       1.228  -0.216  -0.155  1.00  0.00     0.029 C 
ENDBRANCH   9  17
BRANCH  16  19
ATOM     19  N   UNL     1       5.594   5.417   1.535  1.00  0.00    -0.338 N 
ATOM     20  H   UNL     1       6.573   5.208   1.339  1.00  0.00     0.346 HD
ATOM     21  H   UNL     1       5.365   5.324   2.525  1.00  0.00     0.346 HD
BRANCH  19  22
ATOM     22  C   UNL     1       5.332   6.841   1.160  1.00  0.00     0.320 C 
BRANCH  22  23
ATOM     23  C   UNL     1       4.384   7.622   2.087  1.00  0.00     0.124 A 
ATOM     24  N   UNL     1       3.883   7.130   3.242  1.00  0.00    -0.171 NA
ATOM     25  C   UNL     1       3.904   8.952   1.857  1.00  0.00     0.029 A 
ATOM     26  N   UNL     1       3.000   8.082   3.662  1.00  0.00    -0.265 N 
ATOM     27  C   UNL     1       3.118   9.264   2.967  1.00  0.00     0.069 A 
ATOM     28  C   UNL     1       4.030   9.911   0.831  1.00  0.00     0.012 A 
ATOM     29  C   UNL     1       2.549  10.533   3.154  1.00  0.00     0.028 A 
ATOM     30  C   UNL     1       3.393  11.152   0.968  1.00  0.00     0.001 A 
ATOM     31  C   UNL     1       2.686  11.466   2.125  1.00  0.00     0.002 A 
BRANCH  26  32
ATOM     32  C   UNL     1       2.050   7.784   4.731  1.00  0.00     0.141 C 
ATOM     33  C   UNL     1       0.582   8.200   4.537  1.00  0.00     0.029 C 
ENDBRANCH  26  32
ENDBRANCH  22  23
ENDBRANCH  19  22
ENDBRANCH  16  19
ENDBRANCH   6   8
ENDBRANCH   5   6
ENDBRANCH   4   5
ENDBRANCH   3   4
ENDBRANCH   2   3
ENDBRANCH   1   2
BRANCH   1  34
ATOM     34  C   UNL     1       0.632   5.809  -1.756  1.00  0.00     0.188 C 
BRANCH  34  35
ATOM     35  O   UNL     1       1.860   6.539  -1.779  1.00  0.00    -0.376 OA
BRANCH  35  36
ATOM     36  C   UNL     1       1.968   7.915  -2.135  1.00  0.00     0.202 C 
BRANCH  36  37
ATOM     37  C   UNL     1       1.593   8.381  -3.533  1.00  0.00     0.261 C 
BRANCH  37  38
ATOM     38  O   UNL     1       0.199   8.254  -3.707  1.00  0.00    -0.460 OA
BRANCH  38  39
ATOM     39  C   UNL     1      -0.157   7.116  -4.323  1.00  0.00     0.338 C 
ATOM     40  O   UNL     1       0.570   6.315  -4.885  1.00  0.00    -0.246 OA
BRANCH  39  41
ATOM     41  C   UNL     1      -1.602   6.950  -4.180  1.00  0.00     0.060 A 
ATOM     42  C   UNL     1      -2.125   5.767  -4.698  1.00  0.00     0.016 A 
ATOM     43  C   UNL     1      -2.406   8.022  -3.760  1.00  0.00     0.016 A 
ATOM     44  C   UNL     1      -3.406   5.813  -5.163  1.00  0.00     0.010 A 
ATOM     45  C   UNL     1      -3.689   8.070  -4.223  1.00  0.00     0.010 A 
ATOM     46  C   UNL     1      -4.084   7.029  -5.051  1.00  0.00    -0.014 A 
BRANCH  46  47
ATOM     47  C   UNL     1      -5.128   7.247  -6.013  1.00  0.00     0.031 A 
ATOM     48  C   UNL     1      -6.379   6.574  -5.670  1.00  0.00     0.074 A 
ATOM     49  C   UNL     1      -4.889   7.974  -7.119  1.00  0.00     0.049 A 
ATOM     50  N   UNL     1      -6.881   5.526  -6.228  1.00  0.00    -0.248 NA
ATOM     51  C   UNL     1      -7.042   7.002  -4.434  1.00  0.00     0.031 C 
ATOM     52  C   UNL     1      -3.759   8.875  -7.385  1.00  0.00     0.029 A 
ATOM     53  N   UNL     1      -5.698   8.165  -8.189  1.00  0.00    -0.354 N 
ATOM     54  C   UNL     1      -8.077   5.324  -5.559  1.00  0.00     0.074 A 
ATOM     55  C   UNL     1      -8.011   6.094  -4.344  1.00  0.00     0.031 C 
ATOM     56  C   UNL     1      -4.094   9.704  -8.398  1.00  0.00     0.029 A 
ATOM     57  C   UNL     1      -5.388   9.301  -8.920  1.00  0.00     0.049 A 
ATOM     58  H   UNL     1      -6.436   7.556  -8.424  1.00  0.00     0.167 HD
ATOM     59  C   UNL     1      -9.149   4.800  -6.205  1.00  0.00     0.034 A 
ATOM     60  C   UNL     1      -6.209   9.916  -9.801  1.00  0.00     0.034 A 
ATOM     61  C   UNL     1      -8.773   4.110  -7.411  1.00  0.00     0.049 A 
ATOM     62  C   UNL     1      -7.245   8.931 -10.203  1.00  0.00     0.074 A 
ATOM     63  C   UNL     1      -7.931   3.056  -7.707  1.00  0.00     0.029 A 
ATOM     64  N   UNL     1      -9.019   4.749  -8.603  1.00  0.00    -0.354 N 
ATOM     65  N   UNL     1      -6.995   7.860 -10.906  1.00  0.00    -0.248 NA
ATOM     66  C   UNL     1      -8.500   8.911  -9.467  1.00  0.00     0.031 C 
ATOM     67  C   UNL     1      -7.375   3.367  -8.982  1.00  0.00     0.029 A 
ATOM     68  C   UNL     1      -7.924   4.579  -9.408  1.00  0.00     0.049 A 
ATOM     69  H   UNL     1      -9.838   5.243  -8.836  1.00  0.00     0.167 HD
ATOM     70  C   UNL     1      -7.822   6.881 -10.365  1.00  0.00     0.074 A 
ATOM     71  C   UNL     1      -8.809   7.615  -9.579  1.00  0.00     0.031 C 
ATOM     72  C   UNL     1      -7.454   5.564 -10.363  1.00  0.00     0.034 A 
BRANCH  59  73
ATOM     73  C   UNL     1     -10.559   5.254  -5.941  1.00  0.00     0.023 A 
ATOM     74  C   UNL     1     -11.601   4.487  -6.498  1.00  0.00     0.012 A 
ATOM     75  C   UNL     1     -10.903   6.517  -5.402  1.00  0.00     0.148 A 
ATOM     76  C   UNL     1     -12.912   4.968  -6.542  1.00  0.00     0.002 A 
ATOM     77  C   UNL     1     -12.221   6.945  -5.358  1.00  0.00     0.091 A 
ATOM     78  F   UNL     1      -9.951   7.391  -5.060  1.00  0.00    -0.205 F 
ATOM     79  C   UNL     1     -13.228   6.189  -5.955  1.00  0.00     0.022 A 
BRANCH  77  80
ATOM     80  S   UNL     1     -12.661   8.482  -4.539  1.00  0.00     0.127 S 
ATOM     81  O   UNL     1     -12.760   9.399  -5.669  1.00  0.00    -0.237 OA
ATOM     82  O   UNL     1     -13.934   8.135  -3.906  1.00  0.00    -0.237 OA
ATOM     83  O   UNL     1     -11.579   8.729  -3.592  1.00  0.00    -0.744 OA
ENDBRANCH  77  80
ENDBRANCH  59  73
BRANCH  60  84
ATOM     84  C   UNL     1      -6.323  11.364 -10.086  1.00  0.00     0.023 A 
ATOM     85  C   UNL     1      -6.929  11.787 -11.283  1.00  0.00     0.012 A 
ATOM     86  C   UNL     1      -6.063  12.335  -9.090  1.00  0.00     0.148 A 
ATOM     87  C   UNL     1      -7.283  13.128 -11.475  1.00  0.00     0.002 A 
ATOM     88  C   UNL     1      -6.397  13.670  -9.293  1.00  0.00     0.091 A 
ATOM     89  F   UNL     1      -5.573  11.939  -7.907  1.00  0.00    -0.205 F 
ATOM     90  C   UNL     1      -7.020  14.068 -10.481  1.00  0.00     0.022 A 
BRANCH  88  91
ATOM     91  S   UNL     1      -6.083  14.935  -8.054  1.00  0.00     0.127 S 
ATOM     92  O   UNL     1      -5.488  16.005  -8.856  1.00  0.00    -0.237 OA
ATOM     93  O   UNL     1      -7.427  15.217  -7.559  1.00  0.00    -0.237 OA
ATOM     94  O   UNL     1      -5.167  14.333  -7.093  1.00  0.00    -0.744 OA
ENDBRANCH  88  91
ENDBRANCH  60  84
BRANCH  72  95
ATOM     95  C   UNL     1      -6.263   5.156 -11.200  1.00  0.00     0.023 A 
ATOM     96  C   UNL     1      -4.967   5.647 -10.931  1.00  0.00     0.012 A 
ATOM     97  C   UNL     1      -6.412   4.121 -12.140  1.00  0.00     0.148 A 
ATOM     98  C   UNL     1      -3.852   5.137 -11.601  1.00  0.00     0.002 A 
ATOM     99  C   UNL     1      -5.295   3.584 -12.771  1.00  0.00     0.091 A 
ATOM    100  F   UNL     1      -7.647   3.653 -12.378  1.00  0.00    -0.205 F 
ATOM    101  C   UNL     1      -4.014   4.097 -12.511  1.00  0.00     0.022 A 
BRANCH  99 102
ATOM    102  S   UNL     1      -5.414   2.154 -13.851  1.00  0.00     0.127 S 
ATOM    103  O   UNL     1      -5.250   2.754 -15.174  1.00  0.00    -0.237 OA
ATOM    104  O   UNL     1      -4.288   1.330 -13.410  1.00  0.00    -0.237 OA
ATOM    105  O   UNL     1      -6.721   1.562 -13.588  1.00  0.00    -0.744 OA
ENDBRANCH  99 102
ENDBRANCH  72  95
ENDBRANCH  46  47
ENDBRANCH  39  41
ENDBRANCH  38  39
ENDBRANCH  37  38
ENDBRANCH  36  37
ENDBRANCH  35  36
ENDBRANCH  34  35
ENDBRANCH   1  34
TORSDOF 25
