REMARK SMILES CC[C@@H](C)[C@@H](NC(=O)Cn1nc(-c2ccc3ccccc3c2)ccc1=O)C(=O)OCCOCCOCCOC(=O)c1ccc(-c2c3nc(c(-c4cccc(S(=O)(=O)[O-])c4F)c4ccc([nH]4)c(-c4cccc(S(=O)(=O)[O-])c4F)c4nc(c(-c5cccc(S(=O)(=O)[O-])c5F)c5ccc2[nH]5)C=C4)C=C3)cc1
REMARK SMILES IDX 33 1 32 2 31 3 30 4 29 5 27 6 28 7 5 8 3 9 4 10 2 11 1 12
REMARK SMILES IDX 6 13 7 14 8 16 9 17 10 18 11 19 25 20 12 21 24 22 26 23
REMARK SMILES IDX 23 24 13 25 14 26 22 27 15 28 21 29 16 30 20 31 17 32 19 33
REMARK SMILES IDX 18 34 34 35 35 36 36 37 37 38 38 39 39 40 40 41 41 42 42 43
REMARK SMILES IDX 103 44 43 45 102 46 44 47 45 48 46 49 96 50 47 51 101 52
REMARK SMILES IDX 95 53 97 54 48 55 100 56 94 57 93 58 49 60 81 61 61 62 80 63
REMARK SMILES IDX 62 64 65 65 79 66 98 67 63 68 64 69 78 71 99 72 66 73 50 74
REMARK SMILES IDX 51 75 59 76 52 77 54 78 60 79 53 80 55 81 56 82 57 83 58 84
REMARK SMILES IDX 82 85 83 86 91 87 84 88 86 89 92 90 85 91 87 92 88 93 89 94
REMARK SMILES IDX 90 95 67 96 68 97 76 98 69 99 71 100 77 101 70 102 72 103
REMARK SMILES IDX 73 104 74 105 75 106
REMARK H PARENT 6 15 97 59 65 70
REMARK Flexibility Score: inf
ROOT
ATOM      1  C   UNL     1       1.332  -0.480   3.952  1.00  0.00     0.188 C 
ENDROOT
BRANCH   1   2
ATOM      2  O   UNL     1       0.623  -0.649   5.278  1.00  0.00    -0.376 OA
BRANCH   2   3
ATOM      3  C   UNL     1       0.634  -1.709   6.296  1.00  0.00     0.202 C 
BRANCH   3   4
ATOM      4  C   UNL     1       0.142  -3.129   6.011  1.00  0.00     0.261 C 
BRANCH   4   5
ATOM      5  O   UNL     1       0.222  -3.502   4.647  1.00  0.00    -0.462 OA
BRANCH   5   6
ATOM      6  C   UNL     1      -0.637  -2.906   3.793  1.00  0.00     0.328 C 
ATOM      7  O   UNL     1      -1.635  -2.295   4.142  1.00  0.00    -0.250 OA
BRANCH   6   8
ATOM      8  C   UNL     1      -0.113  -3.066   2.339  1.00  0.00     0.195 C 
BRANCH   8   9
ATOM      9  C   UNL     1       0.179  -1.765   1.500  1.00  0.00     0.019 C 
ATOM     10  C   UNL     1      -0.803  -0.593   1.711  1.00  0.00     0.010 C 
BRANCH   9  11
ATOM     11  C   UNL     1       0.300  -2.014  -0.016  1.00  0.00     0.002 C 
ATOM     12  C   UNL     1       0.942  -0.819  -0.729  1.00  0.00     0.004 C 
ENDBRANCH   9  11
ENDBRANCH   8   9
BRANCH   8  13
ATOM     13  N   UNL     1       1.043  -4.023   2.213  1.00  0.00    -0.341 N 
ATOM     14  C   UNL     1       2.328  -4.102   2.685  1.00  0.00     0.242 C 
ATOM     15  H   UNL     1       0.818  -4.793   1.642  1.00  0.00     0.164 HD
ATOM     16  O   UNL     1       3.125  -4.568   1.852  1.00  0.00    -0.273 OA
BRANCH  14  17
ATOM     17  C   UNL     1       2.830  -3.853   4.164  1.00  0.00     0.248 C 
BRANCH  17  18
ATOM     18  N   UNL     1       3.524  -2.646   4.712  1.00  0.00    -0.220 N 
ATOM     19  N   UNL     1       2.776  -1.527   5.212  1.00  0.00    -0.169 NA
ATOM     20  C   UNL     1       4.906  -2.726   4.726  1.00  0.00     0.267 A 
ATOM     21  C   UNL     1       3.141  -0.235   5.510  1.00  0.00     0.091 A 
ATOM     22  C   UNL     1       5.550  -1.476   5.065  1.00  0.00     0.075 A 
ATOM     23  O   UNL     1       5.595  -3.666   4.423  1.00  0.00    -0.268 OA
ATOM     24  C   UNL     1       4.838  -0.389   5.339  1.00  0.00     0.036 A 
BRANCH  21  25
ATOM     25  C   UNL     1       2.011   1.450   5.441  1.00  0.00     0.003 A 
ATOM     26  C   UNL     1       2.019   2.685   6.327  1.00  0.00     0.011 A 
ATOM     27  C   UNL     1       1.243   2.100   4.341  1.00  0.00     0.019 A 
ATOM     28  C   UNL     1       1.468   4.005   6.272  1.00  0.00     0.009 A 
ATOM     29  C   UNL     1       0.583   3.433   4.208  1.00  0.00    -0.018 A 
ATOM     30  C   UNL     1       0.693   4.370   5.226  1.00  0.00    -0.018 A 
ATOM     31  C   UNL     1      -0.164   3.859   3.088  1.00  0.00     0.009 A 
ATOM     32  C   UNL     1       0.062   5.624   5.213  1.00  0.00     0.009 A 
ATOM     33  C   UNL     1      -0.835   5.095   3.065  1.00  0.00     0.001 A 
ATOM     34  C   UNL     1      -0.739   5.971   4.139  1.00  0.00     0.001 A 
ENDBRANCH  21  25
ENDBRANCH  17  18
ENDBRANCH  14  17
ENDBRANCH   8  13
ENDBRANCH   6   8
ENDBRANCH   5   6
ENDBRANCH   4   5
ENDBRANCH   3   4
ENDBRANCH   2   3
ENDBRANCH   1   2
BRANCH   1  35
ATOM     35  C   UNL     1       2.961   0.428   3.481  1.00  0.00     0.188 C 
BRANCH  35  36
ATOM     36  O   UNL     1       3.912   1.587   4.465  1.00  0.00    -0.376 OA
BRANCH  36  37
ATOM     37  C   UNL     1       4.166   1.708   6.257  1.00  0.00     0.202 C 
BRANCH  37  38
ATOM     38  C   UNL     1       3.144   0.879   7.660  1.00  0.00     0.261 C 
BRANCH  38  39
ATOM     39  O   UNL     1       1.449   0.638   7.568  1.00  0.00    -0.460 OA
BRANCH  39  40
ATOM     40  C   UNL     1       0.340   1.432   7.973  1.00  0.00     0.338 C 
ATOM     41  O   UNL     1       0.529   2.300   8.829  1.00  0.00    -0.246 OA
BRANCH  40  42
ATOM     42  C   UNL     1      -1.171   1.363   7.321  1.00  0.00     0.060 A 
ATOM     43  C   UNL     1      -2.207   2.034   8.012  1.00  0.00     0.016 A 
ATOM     44  C   UNL     1      -1.659   0.824   6.110  1.00  0.00     0.016 A 
ATOM     45  C   UNL     1      -3.595   2.043   7.602  1.00  0.00     0.010 A 
ATOM     46  C   UNL     1      -3.043   0.831   5.678  1.00  0.00     0.010 A 
ATOM     47  C   UNL     1      -4.058   1.393   6.450  1.00  0.00    -0.014 A 
BRANCH  47  48
ATOM     48  C   UNL     1      -5.548   1.203   6.185  1.00  0.00     0.031 A 
ATOM     49  C   UNL     1      -6.171  -0.177   6.367  1.00  0.00     0.074 A 
ATOM     50  C   UNL     1      -6.397   2.220   5.886  1.00  0.00     0.049 A 
ATOM     51  N   UNL     1      -7.429  -0.507   6.549  1.00  0.00    -0.248 NA
ATOM     52  C   UNL     1      -5.261  -1.333   6.349  1.00  0.00     0.031 C 
ATOM     53  C   UNL     1      -5.997   3.583   5.545  1.00  0.00     0.029 A 
ATOM     54  N   UNL     1      -7.783   2.272   5.834  1.00  0.00    -0.354 N 
ATOM     55  C   UNL     1      -7.447  -1.892   6.713  1.00  0.00     0.074 A 
ATOM     56  C   UNL     1      -6.088  -2.350   6.548  1.00  0.00     0.031 C 
ATOM     57  C   UNL     1      -7.097   4.342   5.365  1.00  0.00     0.029 A 
ATOM     58  C   UNL     1      -8.296   3.534   5.597  1.00  0.00     0.049 A 
ATOM     59  H   UNL     1      -8.353   1.478   5.955  1.00  0.00     0.167 HD
ATOM     60  C   UNL     1      -8.483  -2.713   7.018  1.00  0.00     0.034 A 
ATOM     61  C   UNL     1      -9.566   4.009   5.607  1.00  0.00     0.034 A 
ATOM     62  C   UNL     1      -9.843  -2.281   7.180  1.00  0.00     0.049 A 
ATOM     63  C   UNL     1     -10.710   3.096   5.985  1.00  0.00     0.074 A 
ATOM     64  C   UNL     1     -10.944  -3.031   7.555  1.00  0.00     0.029 A 
ATOM     65  N   UNL     1     -10.291  -0.992   6.954  1.00  0.00    -0.354 N 
ATOM     66  N   UNL     1     -10.668   1.831   6.327  1.00  0.00    -0.248 NA
ATOM     67  C   UNL     1     -12.066   3.676   6.022  1.00  0.00     0.031 C 
ATOM     68  C   UNL     1     -12.065  -2.198   7.533  1.00  0.00     0.029 A 
ATOM     69  C   UNL     1     -11.655  -0.925   7.169  1.00  0.00     0.049 A 
ATOM     70  H   UNL     1      -9.723  -0.235   6.681  1.00  0.00     0.167 HD
ATOM     71  C   UNL     1     -11.977   1.470   6.633  1.00  0.00     0.074 A 
ATOM     72  C   UNL     1     -12.793   2.651   6.453  1.00  0.00     0.031 C 
ATOM     73  C   UNL     1     -12.454   0.262   7.020  1.00  0.00     0.034 A 
BRANCH  60  74
ATOM     74  C   UNL     1      -8.185  -4.168   7.283  1.00  0.00     0.023 A 
ATOM     75  C   UNL     1      -7.620  -4.530   8.523  1.00  0.00     0.012 A 
ATOM     76  C   UNL     1      -8.562  -5.174   6.373  1.00  0.00     0.148 A 
ATOM     77  C   UNL     1      -7.422  -5.872   8.850  1.00  0.00     0.002 A 
ATOM     78  C   UNL     1      -8.386  -6.511   6.716  1.00  0.00     0.091 A 
ATOM     79  F   UNL     1      -9.097  -4.806   5.200  1.00  0.00    -0.205 F 
ATOM     80  C   UNL     1      -7.813  -6.861   7.952  1.00  0.00     0.022 A 
BRANCH  78  81
ATOM     81  S   UNL     1      -8.890  -7.869   5.654  1.00  0.00     0.127 S 
ATOM     82  O   UNL     1      -7.615  -8.546   5.414  1.00  0.00    -0.237 OA
ATOM     83  O   UNL     1      -9.817  -8.602   6.514  1.00  0.00    -0.237 OA
ATOM     84  O   UNL     1      -9.491  -7.261   4.475  1.00  0.00    -0.744 OA
ENDBRANCH  78  81
ENDBRANCH  60  74
BRANCH  61  85
ATOM     85  C   UNL     1      -9.821   5.461   5.335  1.00  0.00     0.023 A 
ATOM     86  C   UNL     1     -10.132   6.336   6.396  1.00  0.00     0.012 A 
ATOM     87  C   UNL     1      -9.700   5.987   4.033  1.00  0.00     0.148 A 
ATOM     88  C   UNL     1     -10.301   7.706   6.168  1.00  0.00     0.002 A 
ATOM     89  C   UNL     1      -9.831   7.357   3.818  1.00  0.00     0.091 A 
ATOM     90  F   UNL     1      -9.440   5.136   3.031  1.00  0.00    -0.205 F 
ATOM     91  C   UNL     1     -10.135   8.218   4.884  1.00  0.00     0.022 A 
BRANCH  89  92
ATOM     92  S   UNL     1      -9.541   8.122   2.217  1.00  0.00     0.127 S 
ATOM     93  O   UNL     1     -10.855   8.683   1.909  1.00  0.00    -0.237 OA
ATOM     94  O   UNL     1      -8.511   9.110   2.541  1.00  0.00    -0.237 OA
ATOM     95  O   UNL     1      -9.098   7.049   1.339  1.00  0.00    -0.744 OA
ENDBRANCH  89  92
ENDBRANCH  61  85
BRANCH  73  96
ATOM     96  C   UNL     1     -13.928   0.115   7.281  1.00  0.00     0.023 A 
ATOM     97  C   UNL     1     -14.811  -0.031   6.194  1.00  0.00     0.012 A 
ATOM     98  C   UNL     1     -14.408  -0.053   8.596  1.00  0.00     0.148 A 
ATOM     99  C   UNL     1     -16.153  -0.340   6.412  1.00  0.00     0.002 A 
ATOM    100  C   UNL     1     -15.739  -0.394   8.803  1.00  0.00     0.091 A 
ATOM    101  F   UNL     1     -13.545   0.088   9.612  1.00  0.00    -0.205 F 
ATOM    102  C   UNL     1     -16.613  -0.535   7.713  1.00  0.00     0.022 A 
BRANCH 100 103
ATOM    103  S   UNL     1     -16.409  -0.739  10.434  1.00  0.00     0.127 S 
ATOM    104  O   UNL     1     -17.365   0.355  10.600  1.00  0.00    -0.237 OA
ATOM    105  O   UNL     1     -17.015  -2.057  10.246  1.00  0.00    -0.237 OA
ATOM    106  O   UNL     1     -15.278  -0.714  11.352  1.00  0.00    -0.744 OA
ENDBRANCH 100 103
ENDBRANCH  73  96
ENDBRANCH  47  48
ENDBRANCH  40  42
ENDBRANCH  39  40
ENDBRANCH  38  39
ENDBRANCH  37  38
ENDBRANCH  36  37
ENDBRANCH  35  36
ENDBRANCH   1  35
TORSDOF 26
