REMARK SMILES Cc1c(C(=O)OCCOCCOCCOC(=O)c2ccc(-c3c4nc(c(-c5cccc(S(=O)(=O)[O-])c5F)c5ccc([nH]5)c(-c5cccc(S(=O)(=O)[O-])c5F)c5nc(c(-c6cccc(S(=O)(=O)[O-])c6F)c6ccc3[nH]6)C=C5)C=C4)cc2)oc2c1/C(=N/NC(=O)C(c1ccccc1)c1ccccc1)CCC2
REMARK SMILES IDX 10 1 9 2 8 3 7 4 6 5 4 6 5 7 3 8 1 9 2 10 83 11 81 12 82 13
REMARK SMILES IDX 84 14 104 15 85 16 102 17 103 18 86 19 87 20 88 22 89 23
REMARK SMILES IDX 90 24 91 25 95 26 92 27 94 28 93 29 96 30 97 31 101 32 98 33
REMARK SMILES IDX 100 34 99 35 11 36 12 37 13 38 14 39 15 40 16 41 17 42 18 43
REMARK SMILES IDX 19 44 80 45 20 46 79 47 21 48 22 49 23 50 73 51 24 52 78 53
REMARK SMILES IDX 72 54 74 55 25 56 77 57 71 58 70 59 26 61 58 62 38 63 57 64
REMARK SMILES IDX 39 65 42 66 56 67 75 68 40 69 41 70 55 72 76 73 43 74 27 75
REMARK SMILES IDX 28 76 36 77 29 78 31 79 37 80 30 81 32 82 33 83 34 84 35 85
REMARK SMILES IDX 59 86 60 87 68 88 61 89 63 90 69 91 62 92 64 93 65 94 66 95
REMARK SMILES IDX 67 96 44 97 45 98 53 99 46 100 48 101 54 102 47 103 49 104
REMARK SMILES IDX 50 105 51 106 52 107
REMARK H PARENT 86 21 74 60 42 71
REMARK Flexibility Score: inf
ROOT
ATOM      1  C   UNL     1       3.045  -3.398   0.770  1.00  0.00     0.188 C 
ENDROOT
BRANCH   1   2
ATOM      2  O   UNL     1       2.986  -4.089   2.012  1.00  0.00    -0.376 OA
BRANCH   2   3
ATOM      3  C   UNL     1       2.425  -5.384   2.100  1.00  0.00     0.202 C 
BRANCH   3   4
ATOM      4  C   UNL     1       0.916  -5.532   1.856  1.00  0.00     0.261 C 
BRANCH   4   5
ATOM      5  O   UNL     1       0.374  -4.691   0.836  1.00  0.00    -0.457 OA
BRANCH   5   6
ATOM      6  C   UNL     1      -0.109  -3.469   1.202  1.00  0.00     0.374 C 
ATOM      7  O   UNL     1      -0.204  -3.059   2.356  1.00  0.00    -0.242 OA
BRANCH   6   8
ATOM      8  C   UNL     1      -0.377  -2.712  -0.004  1.00  0.00     0.215 A 
ATOM      9  C   UNL     1       0.280  -0.273   0.536  1.00  0.00     0.049 C 
ATOM     10  C   UNL     1      -0.237  -1.359  -0.341  1.00  0.00     0.012 A 
ATOM     11  C   UNL     1      -0.469  -1.285  -1.754  1.00  0.00     0.043 A 
ATOM     12  O   UNL     1      -0.681  -3.439  -1.124  1.00  0.00    -0.453 OA
ATOM     13  C   UNL     1      -0.665  -2.586  -2.155  1.00  0.00     0.114 A 
ATOM     14  C   UNL     1      -0.363  -0.252  -2.778  1.00  0.00     0.072 C 
ATOM     15  C   UNL     1      -0.674  -3.129  -3.523  1.00  0.00     0.076 C 
ATOM     16  N   UNL     1      -0.601   0.980  -2.441  1.00  0.00    -0.177 NA
ATOM     17  C   UNL     1      -0.001  -0.756  -4.158  1.00  0.00     0.059 C 
ATOM     18  C   UNL     1       0.271  -2.253  -4.350  1.00  0.00     0.014 C 
BRANCH  16  19
ATOM     19  N   UNL     1      -0.480   2.074  -3.272  1.00  0.00    -0.246 N 
ATOM     20  C   UNL     1      -1.183   2.539  -4.368  1.00  0.00     0.252 C 
ATOM     21  H   UNL     1       0.278   2.654  -3.031  1.00  0.00     0.193 HD
ATOM     22  O   UNL     1      -1.146   3.771  -4.550  1.00  0.00    -0.272 OA
BRANCH  20  23
ATOM     23  C   UNL     1      -1.931   1.663  -5.430  1.00  0.00     0.140 C 
BRANCH  23  24
ATOM     24  C   UNL     1      -0.872   1.084  -6.424  1.00  0.00    -0.031 A 
ATOM     25  C   UNL     1      -1.066  -0.033  -7.249  1.00  0.00     0.005 A 
ATOM     26  C   UNL     1       0.420   1.669  -6.476  1.00  0.00     0.005 A 
ATOM     27  C   UNL     1       0.027  -0.696  -7.836  1.00  0.00     0.000 A 
ATOM     28  C   UNL     1       1.506   1.024  -7.075  1.00  0.00     0.000 A 
ATOM     29  C   UNL     1       1.319  -0.195  -7.705  1.00  0.00     0.000 A 
ENDBRANCH  23  24
BRANCH  23  30
ATOM     30  C   UNL     1      -3.017   0.834  -4.694  1.00  0.00    -0.031 A 
ATOM     31  C   UNL     1      -3.671   1.454  -3.601  1.00  0.00     0.005 A 
ATOM     32  C   UNL     1      -3.380  -0.493  -4.955  1.00  0.00     0.005 A 
ATOM     33  C   UNL     1      -4.455   0.731  -2.699  1.00  0.00     0.000 A 
ATOM     34  C   UNL     1      -4.187  -1.217  -4.064  1.00  0.00     0.000 A 
ATOM     35  C   UNL     1      -4.682  -0.619  -2.913  1.00  0.00     0.000 A 
ENDBRANCH  23  30
ENDBRANCH  20  23
ENDBRANCH  16  19
ENDBRANCH   6   8
ENDBRANCH   5   6
ENDBRANCH   4   5
ENDBRANCH   3   4
ENDBRANCH   2   3
ENDBRANCH   1   2
BRANCH   1  36
ATOM     36  C   UNL     1       2.926  -4.104  -0.603  1.00  0.00     0.188 C 
BRANCH  36  37
ATOM     37  O   UNL     1       2.978  -5.523  -0.571  1.00  0.00    -0.376 OA
BRANCH  37  38
ATOM     38  C   UNL     1       4.081  -6.127  -1.235  1.00  0.00     0.202 C 
BRANCH  38  39
ATOM     39  C   UNL     1       5.420  -6.026  -0.513  1.00  0.00     0.261 C 
BRANCH  39  40
ATOM     40  O   UNL     1       5.684  -4.752   0.053  1.00  0.00    -0.460 OA
BRANCH  40  41
ATOM     41  C   UNL     1       6.069  -3.783  -0.799  1.00  0.00     0.338 C 
ATOM     42  O   UNL     1       5.986  -3.801  -2.014  1.00  0.00    -0.246 OA
BRANCH  41  43
ATOM     43  C   UNL     1       6.691  -2.713  -0.006  1.00  0.00     0.060 A 
ATOM     44  C   UNL     1       7.043  -1.538  -0.671  1.00  0.00     0.016 A 
ATOM     45  C   UNL     1       7.119  -2.980   1.306  1.00  0.00     0.016 A 
ATOM     46  C   UNL     1       8.005  -0.733  -0.102  1.00  0.00     0.010 A 
ATOM     47  C   UNL     1       8.088  -2.186   1.866  1.00  0.00     0.010 A 
ATOM     48  C   UNL     1       8.585  -1.131   1.107  1.00  0.00    -0.014 A 
BRANCH  48  49
ATOM     49  C   UNL     1       9.781  -0.441   1.537  1.00  0.00     0.031 A 
ATOM     50  C   UNL     1       9.527   0.859   2.176  1.00  0.00     0.074 A 
ATOM     51  C   UNL     1      10.996  -1.010   1.413  1.00  0.00     0.049 A 
ATOM     52  N   UNL     1       9.814   2.031   1.718  1.00  0.00    -0.248 NA
ATOM     53  C   UNL     1       8.725   0.863   3.408  1.00  0.00     0.031 C 
ATOM     54  C   UNL     1      11.261  -2.420   1.095  1.00  0.00     0.029 A 
ATOM     55  N   UNL     1      12.235  -0.510   1.688  1.00  0.00    -0.354 N 
ATOM     56  C   UNL     1       9.489   2.895   2.757  1.00  0.00     0.074 A 
ATOM     57  C   UNL     1       8.612   2.171   3.639  1.00  0.00     0.031 C 
ATOM     58  C   UNL     1      12.531  -2.717   1.442  1.00  0.00     0.029 A 
ATOM     59  C   UNL     1      13.197  -1.497   1.862  1.00  0.00     0.049 A 
ATOM     60  H   UNL     1      12.428   0.453   1.756  1.00  0.00     0.167 HD
ATOM     61  C   UNL     1      10.262   3.984   3.005  1.00  0.00     0.034 A 
ATOM     62  C   UNL     1      14.432  -1.344   2.392  1.00  0.00     0.034 A 
ATOM     63  C   UNL     1      11.125   4.293   1.896  1.00  0.00     0.049 A 
ATOM     64  C   UNL     1      14.821   0.077   2.275  1.00  0.00     0.074 A 
ATOM     65  C   UNL     1      11.024   4.906   0.668  1.00  0.00     0.029 A 
ATOM     66  N   UNL     1      12.316   3.622   1.925  1.00  0.00    -0.354 N 
ATOM     67  N   UNL     1      15.030   0.677   1.135  1.00  0.00    -0.248 NA
ATOM     68  C   UNL     1      14.703   0.957   3.433  1.00  0.00     0.031 C 
ATOM     69  C   UNL     1      12.171   4.504  -0.078  1.00  0.00     0.029 A 
ATOM     70  C   UNL     1      12.942   3.652   0.709  1.00  0.00     0.049 A 
ATOM     71  H   UNL     1      12.678   3.172   2.723  1.00  0.00     0.167 HD
ATOM     72  C   UNL     1      14.636   1.981   1.368  1.00  0.00     0.074 A 
ATOM     73  C   UNL     1      14.633   2.138   2.814  1.00  0.00     0.031 C 
ATOM     74  C   UNL     1      13.998   2.708   0.407  1.00  0.00     0.034 A 
BRANCH  61  75
ATOM     75  C   UNL     1      10.620   4.481   4.391  1.00  0.00     0.023 A 
ATOM     76  C   UNL     1      11.314   5.709   4.464  1.00  0.00     0.012 A 
ATOM     77  C   UNL     1      10.594   3.694   5.566  1.00  0.00     0.148 A 
ATOM     78  C   UNL     1      11.978   6.111   5.627  1.00  0.00     0.002 A 
ATOM     79  C   UNL     1      11.185   4.136   6.743  1.00  0.00     0.091 A 
ATOM     80  F   UNL     1      10.131   2.441   5.530  1.00  0.00    -0.205 F 
ATOM     81  C   UNL     1      11.905   5.329   6.773  1.00  0.00     0.022 A 
BRANCH  79  82
ATOM     82  S   UNL     1      11.078   3.171   8.256  1.00  0.00     0.127 S 
ATOM     83  O   UNL     1      12.395   2.544   8.296  1.00  0.00    -0.237 OA
ATOM     84  O   UNL     1      10.853   4.210   9.261  1.00  0.00    -0.237 OA
ATOM     85  O   UNL     1       9.941   2.279   8.061  1.00  0.00    -0.744 OA
ENDBRANCH  79  82
ENDBRANCH  61  75
BRANCH  62  86
ATOM     86  C   UNL     1      15.229  -2.320   3.165  1.00  0.00     0.023 A 
ATOM     87  C   UNL     1      16.630  -2.197   3.211  1.00  0.00     0.012 A 
ATOM     88  C   UNL     1      14.604  -3.221   4.057  1.00  0.00     0.148 A 
ATOM     89  C   UNL     1      17.384  -2.926   4.137  1.00  0.00     0.002 A 
ATOM     90  C   UNL     1      15.358  -3.955   4.966  1.00  0.00     0.091 A 
ATOM     91  F   UNL     1      13.266  -3.295   4.069  1.00  0.00    -0.205 F 
ATOM     92  C   UNL     1      16.749  -3.798   5.018  1.00  0.00     0.022 A 
BRANCH  90  93
ATOM     93  S   UNL     1      14.612  -5.099   6.135  1.00  0.00     0.127 S 
ATOM     94  O   UNL     1      15.421  -6.302   5.937  1.00  0.00    -0.237 OA
ATOM     95  O   UNL     1      14.832  -4.417   7.407  1.00  0.00    -0.237 OA
ATOM     96  O   UNL     1      13.221  -5.240   5.723  1.00  0.00    -0.744 OA
ENDBRANCH  90  93
ENDBRANCH  62  86
BRANCH  74  97
ATOM     97  C   UNL     1      14.235   2.349  -1.028  1.00  0.00     0.023 A 
ATOM     98  C   UNL     1      13.801   1.132  -1.587  1.00  0.00     0.012 A 
ATOM     99  C   UNL     1      14.831   3.311  -1.862  1.00  0.00     0.148 A 
ATOM    100  C   UNL     1      13.975   0.874  -2.949  1.00  0.00     0.002 A 
ATOM    101  C   UNL     1      14.962   3.069  -3.223  1.00  0.00     0.091 A 
ATOM    102  F   UNL     1      15.251   4.459  -1.309  1.00  0.00    -0.205 F 
ATOM    103  C   UNL     1      14.543   1.847  -3.770  1.00  0.00     0.022 A 
BRANCH 101 104
ATOM    104  S   UNL     1      15.575   4.332  -4.340  1.00  0.00     0.127 S 
ATOM    105  O   UNL     1      16.953   3.902  -4.564  1.00  0.00    -0.237 OA
ATOM    106  O   UNL     1      14.693   4.186  -5.500  1.00  0.00    -0.237 OA
ATOM    107  O   UNL     1      15.415   5.597  -3.633  1.00  0.00    -0.744 OA
ENDBRANCH 101 104
ENDBRANCH  74  97
ENDBRANCH  48  49
ENDBRANCH  41  43
ENDBRANCH  40  41
ENDBRANCH  39  40
ENDBRANCH  38  39
ENDBRANCH  37  38
ENDBRANCH  36  37
ENDBRANCH   1  36
TORSDOF 24
