REMARK SMILES Cc1ccc([N+](=O)[O-])c(N2CCC[C@H](CC(=O)OCCOCCOCCOC(=O)c3ccc(-c4c5nc(c(-c6cccc(S(=O)(=O)[O-])c6F)c6ccc([nH]6)c(-c6cccc(S(=O)(=O)[O-])c6F)c6nc(c(-c7cccc(S(=O)(=O)[O-])c7F)c7ccc4[nH]7)C=C6)C=C5)cc3)C2)c1
REMARK SMILES IDX 22 1 21 2 20 3 19 4 18 5 16 6 17 7 15 8 14 9 10 10 11 11
REMARK SMILES IDX 93 12 12 13 13 14 9 15 1 16 2 17 3 18 94 19 4 20 5 21 6 22
REMARK SMILES IDX 7 23 8 24 23 25 24 26 25 27 26 28 27 29 28 30 29 31 30 32
REMARK SMILES IDX 31 33 92 34 32 35 91 36 33 37 34 38 35 39 85 40 36 41 90 42
REMARK SMILES IDX 84 43 86 44 37 45 89 46 83 47 82 48 38 50 70 51 50 52 69 53
REMARK SMILES IDX 51 54 54 55 68 56 87 57 52 58 53 59 67 61 88 62 55 63 39 64
REMARK SMILES IDX 40 65 48 66 41 67 43 68 49 69 42 70 44 71 45 72 46 73 47 74
REMARK SMILES IDX 71 75 72 76 80 77 73 78 75 79 81 80 74 81 76 82 77 83 78 84
REMARK SMILES IDX 79 85 56 86 57 87 65 88 58 89 60 90 66 91 59 92 61 93 62 94
REMARK SMILES IDX 63 95 64 96
REMARK H PARENT 86 49 54 60
REMARK Flexibility Score: inf
ROOT
ATOM      1  C   UNL     1      -7.097   5.922  -5.218  1.00  0.00     0.188 C 
ENDROOT
BRANCH   1   2
ATOM      2  O   UNL     1      -7.675   5.602  -3.932  1.00  0.00    -0.376 OA
BRANCH   2   3
ATOM      3  C   UNL     1      -7.441   6.293  -2.684  1.00  0.00     0.202 C 
BRANCH   3   4
ATOM      4  C   UNL     1      -6.579   5.708  -1.322  1.00  0.00     0.261 C 
BRANCH   4   5
ATOM      5  O   UNL     1      -4.965   5.297  -1.115  1.00  0.00    -0.463 OA
BRANCH   5   6
ATOM      6  C   UNL     1      -4.234   4.092  -1.186  1.00  0.00     0.306 C 
ATOM      7  O   UNL     1      -4.650   2.969  -1.483  1.00  0.00    -0.252 OA
BRANCH   6   8
ATOM      8  C   UNL     1      -2.778   3.916  -1.056  1.00  0.00     0.128 C 
BRANCH   8   9
ATOM      9  C   UNL     1      -1.841   4.732  -0.237  1.00  0.00     0.019 C 
ATOM     10  N   UNL     1      -1.038   2.723   0.971  1.00  0.00    -0.366 N 
ATOM     11  C   UNL     1      -1.573   3.165   2.261  1.00  0.00     0.117 C 
ATOM     12  C   UNL     1      -0.633   3.797   0.042  1.00  0.00     0.121 C 
ATOM     13  C   UNL     1      -2.773   4.093   2.045  1.00  0.00     0.022 C 
ATOM     14  C   UNL     1      -2.471   5.225   1.059  1.00  0.00     0.008 C 
BRANCH  10  15
ATOM     15  C   UNL     1      -0.607   1.414   0.769  1.00  0.00     0.116 A 
ATOM     16  C   UNL     1       2.791  -0.217  -0.020  1.00  0.00     0.044 C 
ATOM     17  C   UNL     1       1.322  -0.060   0.239  1.00  0.00    -0.049 A 
ATOM     18  C   UNL     1       0.489  -1.175   0.187  1.00  0.00     0.010 A 
ATOM     19  C   UNL     1       0.771   1.202   0.535  1.00  0.00     0.036 A 
ATOM     20  C   UNL     1      -0.873  -1.023   0.420  1.00  0.00     0.088 A 
ATOM     21  C   UNL     1      -1.417   0.252   0.707  1.00  0.00     0.292 A 
BRANCH  21  22
ATOM     22  N   UNL     1      -2.873   0.271   0.865  1.00  0.00     0.064 N 
ATOM     23  O   UNL     1      -3.531  -0.421   0.074  1.00  0.00    -0.258 OA
ATOM     24  O   UNL     1      -3.345   0.854   1.848  1.00  0.00    -0.258 OA
ENDBRANCH  21  22
ENDBRANCH  10  15
ENDBRANCH   8   9
ENDBRANCH   6   8
ENDBRANCH   5   6
ENDBRANCH   4   5
ENDBRANCH   3   4
ENDBRANCH   2   3
ENDBRANCH   1   2
BRANCH   1  25
ATOM     25  C   UNL     1      -6.413   7.257  -5.562  1.00  0.00     0.188 C 
BRANCH  25  26
ATOM     26  O   UNL     1      -5.725   7.801  -4.454  1.00  0.00    -0.376 OA
BRANCH  26  27
ATOM     27  C   UNL     1      -4.990   8.993  -4.684  1.00  0.00     0.202 C 
BRANCH  27  28
ATOM     28  C   UNL     1      -3.704   8.822  -5.529  1.00  0.00     0.261 C 
BRANCH  28  29
ATOM     29  O   UNL     1      -2.788   7.859  -4.949  1.00  0.00    -0.460 OA
BRANCH  29  30
ATOM     30  C   UNL     1      -2.529   6.704  -5.664  1.00  0.00     0.338 C 
ATOM     31  O   UNL     1      -2.110   6.711  -6.813  1.00  0.00    -0.246 OA
BRANCH  30  32
ATOM     32  C   UNL     1      -3.057   5.504  -4.916  1.00  0.00     0.060 A 
ATOM     33  C   UNL     1      -3.235   4.177  -5.344  1.00  0.00     0.016 A 
ATOM     34  C   UNL     1      -3.745   5.823  -3.805  1.00  0.00     0.016 A 
ATOM     35  C   UNL     1      -4.224   3.273  -4.716  1.00  0.00     0.010 A 
ATOM     36  C   UNL     1      -4.861   5.044  -3.534  1.00  0.00     0.010 A 
ATOM     37  C   UNL     1      -5.170   3.714  -3.790  1.00  0.00    -0.014 A 
BRANCH  37  38
ATOM     38  C   UNL     1      -6.505   3.019  -3.144  1.00  0.00     0.031 A 
ATOM     39  C   UNL     1      -6.971   2.558  -1.569  1.00  0.00     0.074 A 
ATOM     40  C   UNL     1      -7.432   2.659  -4.055  1.00  0.00     0.049 A 
ATOM     41  N   UNL     1      -7.777   1.542  -1.309  1.00  0.00    -0.248 NA
ATOM     42  C   UNL     1      -6.533   3.065  -0.208  1.00  0.00     0.031 C 
ATOM     43  C   UNL     1      -8.796   2.198  -3.822  1.00  0.00     0.029 A 
ATOM     44  N   UNL     1      -7.233   2.455  -5.422  1.00  0.00    -0.354 N 
ATOM     45  C   UNL     1      -7.915   1.437   0.088  1.00  0.00     0.074 A 
ATOM     46  C   UNL     1      -6.831   2.109   0.643  1.00  0.00     0.031 C 
ATOM     47  C   UNL     1      -9.178   1.469  -4.880  1.00  0.00     0.029 A 
ATOM     48  C   UNL     1      -8.024   1.343  -5.752  1.00  0.00     0.049 A 
ATOM     49  H   UNL     1      -6.660   2.980  -6.027  1.00  0.00     0.167 HD
ATOM     50  C   UNL     1      -9.018   0.993   0.743  1.00  0.00     0.034 A 
ATOM     51  C   UNL     1      -7.439   0.188  -6.180  1.00  0.00     0.034 A 
ATOM     52  C   UNL     1      -9.810   0.236  -0.199  1.00  0.00     0.049 A 
ATOM     53  C   UNL     1      -7.804  -1.033  -5.348  1.00  0.00     0.074 A 
ATOM     54  C   UNL     1     -10.917   0.450  -0.990  1.00  0.00     0.029 A 
ATOM     55  N   UNL     1      -9.181  -0.876  -0.703  1.00  0.00    -0.354 N 
ATOM     56  N   UNL     1      -8.666  -1.052  -4.362  1.00  0.00    -0.248 NA
ATOM     57  C   UNL     1      -7.172  -2.337  -5.541  1.00  0.00     0.031 C 
ATOM     58  C   UNL     1     -10.890  -0.542  -2.029  1.00  0.00     0.029 A 
ATOM     59  C   UNL     1      -9.800  -1.372  -1.820  1.00  0.00     0.049 A 
ATOM     60  H   UNL     1      -8.373  -1.273  -0.304  1.00  0.00     0.167 HD
ATOM     61  C   UNL     1      -8.558  -2.245  -3.685  1.00  0.00     0.074 A 
ATOM     62  C   UNL     1      -7.657  -3.038  -4.503  1.00  0.00     0.031 C 
ATOM     63  C   UNL     1      -9.130  -2.491  -2.463  1.00  0.00     0.034 A 
BRANCH  50  64
ATOM     64  C   UNL     1      -9.416   1.309   2.211  1.00  0.00     0.023 A 
ATOM     65  C   UNL     1     -10.695   0.864   2.607  1.00  0.00     0.012 A 
ATOM     66  C   UNL     1      -8.727   2.082   3.206  1.00  0.00     0.148 A 
ATOM     67  C   UNL     1     -11.269   1.191   3.849  1.00  0.00     0.002 A 
ATOM     68  C   UNL     1      -9.293   2.397   4.453  1.00  0.00     0.091 A 
ATOM     69  F   UNL     1      -7.517   2.584   2.987  1.00  0.00    -0.205 F 
ATOM     70  C   UNL     1     -10.574   1.962   4.770  1.00  0.00     0.022 A 
BRANCH  68  71
ATOM     71  S   UNL     1      -8.460   3.439   5.686  1.00  0.00     0.127 S 
ATOM     72  O   UNL     1      -9.411   4.543   5.843  1.00  0.00    -0.237 OA
ATOM     73  O   UNL     1      -8.371   2.554   6.846  1.00  0.00    -0.237 OA
ATOM     74  O   UNL     1      -7.178   3.836   5.117  1.00  0.00    -0.744 OA
ENDBRANCH  68  71
ENDBRANCH  50  64
BRANCH  51  75
ATOM     75  C   UNL     1      -6.179   0.430  -6.975  1.00  0.00     0.023 A 
ATOM     76  C   UNL     1      -6.299   1.311  -8.087  1.00  0.00     0.012 A 
ATOM     77  C   UNL     1      -4.880   0.105  -6.540  1.00  0.00     0.148 A 
ATOM     78  C   UNL     1      -5.191   1.947  -8.651  1.00  0.00     0.002 A 
ATOM     79  C   UNL     1      -3.767   0.717  -7.138  1.00  0.00     0.091 A 
ATOM     80  F   UNL     1      -4.732  -0.743  -5.514  1.00  0.00    -0.205 F 
ATOM     81  C   UNL     1      -3.925   1.666  -8.161  1.00  0.00     0.022 A 
BRANCH  79  82
ATOM     82  S   UNL     1      -2.088   0.451  -6.526  1.00  0.00     0.127 S 
ATOM     83  O   UNL     1      -1.652  -0.675  -7.347  1.00  0.00    -0.237 OA
ATOM     84  O   UNL     1      -1.420   1.718  -6.836  1.00  0.00    -0.237 OA
ATOM     85  O   UNL     1      -2.241   0.196  -5.103  1.00  0.00    -0.744 OA
ENDBRANCH  79  82
ENDBRANCH  51  75
BRANCH  63  86
ATOM     86  C   UNL     1      -9.001  -3.817  -1.714  1.00  0.00     0.023 A 
ATOM     87  C   UNL     1      -9.108  -5.029  -2.421  1.00  0.00     0.012 A 
ATOM     88  C   UNL     1      -8.906  -3.920  -0.295  1.00  0.00     0.148 A 
ATOM     89  C   UNL     1      -9.056  -6.269  -1.771  1.00  0.00     0.002 A 
ATOM     90  C   UNL     1      -8.950  -5.150   0.354  1.00  0.00     0.091 A 
ATOM     91  F   UNL     1      -8.736  -2.827   0.453  1.00  0.00    -0.205 F 
ATOM     92  C   UNL     1      -8.990  -6.330  -0.385  1.00  0.00     0.022 A 
BRANCH  90  93
ATOM     93  S   UNL     1      -9.045  -5.302   2.149  1.00  0.00     0.127 S 
ATOM     94  O   UNL     1     -10.345  -5.955   2.317  1.00  0.00    -0.237 OA
ATOM     95  O   UNL     1      -7.895  -6.156   2.442  1.00  0.00    -0.237 OA
ATOM     96  O   UNL     1      -8.969  -3.951   2.685  1.00  0.00    -0.744 OA
ENDBRANCH  90  93
ENDBRANCH  63  86
ENDBRANCH  37  38
ENDBRANCH  30  32
ENDBRANCH  29  30
ENDBRANCH  28  29
ENDBRANCH  27  28
ENDBRANCH  26  27
ENDBRANCH  25  26
ENDBRANCH   1  25
TORSDOF 23
