REMARK SMILES COc1ccc2[nH]c(/C(C#N)=C/c3ccc(-c4cc(C(=O)OCCOCCOCCOC(=O)c5ccc(-c6c7nc(c(-c8cccc(S(=O)(=O)[O-])c8F)c8ccc([nH]8)c(-c8cccc(S(=O)(=O)[O-])c8F)c8nc(c(-c9cccc(S(=O)(=O)[O-])c9F)c9ccc6[nH]9)C=C8)C=C7)cc5)ccc4Cl)o3)nc2c1
REMARK SMILES IDX 26 1 25 2 24 3 23 4 22 5 20 6 21 7 19 8 17 9 18 10 99 11
REMARK SMILES IDX 98 12 100 13 97 14 16 15 13 16 14 17 101 18 15 19 12 20 9 21
REMARK SMILES IDX 8 22 3 23 4 24 104 25 5 26 103 27 6 28 102 29 7 30 2 32 1 33
REMARK SMILES IDX 10 34 11 35 27 36 28 37 29 38 30 39 31 40 32 41 33 42 34 43
REMARK SMILES IDX 35 44 96 45 36 46 95 47 37 48 38 49 39 50 89 51 40 52 94 53
REMARK SMILES IDX 88 54 90 55 41 56 93 57 87 58 86 59 42 61 74 62 54 63 73 64
REMARK SMILES IDX 55 65 58 66 72 67 91 68 56 69 57 70 71 72 92 73 59 74 43 75
REMARK SMILES IDX 44 76 52 77 45 78 47 79 53 80 46 81 48 82 49 83 50 84 51 85
REMARK SMILES IDX 75 86 76 87 84 88 77 89 79 90 85 91 78 92 80 93 81 94 82 95
REMARK SMILES IDX 83 96 60 97 61 98 69 99 62 100 64 101 70 102 63 103 65 104
REMARK SMILES IDX 66 105 67 106 68 107
REMARK H PARENT 7 31 90 60 58 71
REMARK Flexibility Score: inf
ROOT
ATOM      1  C   UNL     1       2.199 -11.211  11.242  1.00  0.00     0.188 C 
ENDROOT
BRANCH   1   2
ATOM      2  O   UNL     1       2.205 -11.082  12.645  1.00  0.00    -0.376 OA
BRANCH   2   3
ATOM      3  C   UNL     1       1.443 -11.960  13.455  1.00  0.00     0.202 C 
BRANCH   3   4
ATOM      4  C   UNL     1       0.417 -12.998  12.953  1.00  0.00     0.261 C 
BRANCH   4   5
ATOM      5  O   UNL     1       0.512 -13.432  11.593  1.00  0.00    -0.460 OA
BRANCH   5   6
ATOM      6  C   UNL     1      -0.464 -12.989  10.760  1.00  0.00     0.338 C 
ATOM      7  O   UNL     1      -1.430 -12.311  11.059  1.00  0.00    -0.246 OA
BRANCH   6   8
ATOM      8  C   UNL     1      -0.095 -13.304   9.359  1.00  0.00     0.060 A 
ATOM      9  C   UNL     1       0.074 -12.567   7.042  1.00  0.00     0.037 A 
ATOM     10  C   UNL     1      -0.251 -12.306   8.382  1.00  0.00     0.029 A 
ATOM     11  C   UNL     1       0.575 -13.837   6.702  1.00  0.00     0.052 A 
ATOM     12  C   UNL     1       0.757 -14.819   7.684  1.00  0.00     0.022 A 
ATOM     13  Cl  UNL     1       0.956 -14.272   5.069  1.00  0.00    -0.084 Cl
ATOM     14  C   UNL     1       0.419 -14.557   9.012  1.00  0.00     0.017 A 
BRANCH   9  15
ATOM     15  C   UNL     1      -0.284 -11.596   6.023  1.00  0.00     0.136 A 
ATOM     16  C   UNL     1      -0.075  -9.706   4.875  1.00  0.00     0.129 A 
ATOM     17  C   UNL     1      -1.153 -10.423   4.356  1.00  0.00     0.051 A 
ATOM     18  O   UNL     1       0.484 -10.475   5.884  1.00  0.00    -0.457 OA
ATOM     19  C   UNL     1      -1.313 -11.592   5.115  1.00  0.00     0.051 A 
BRANCH  16  20
ATOM     20  C   UNL     1       0.407  -8.425   4.447  1.00  0.00     0.070 C 
ATOM     21  C   UNL     1      -0.442  -7.393   4.242  1.00  0.00     0.098 C 
BRANCH  21  22
ATOM     22  C   UNL     1      -0.090  -6.192   3.561  1.00  0.00     0.149 A 
ATOM     23  C   UNL     1       0.226  -2.445   1.097  1.00  0.00     0.121 A 
ATOM     24  C   UNL     1       1.546  -2.879   0.940  1.00  0.00     0.049 A 
ATOM     25  C   UNL     1      -0.680  -3.186   1.847  1.00  0.00     0.077 A 
ATOM     26  C   UNL     1       2.020  -4.041   1.571  1.00  0.00     0.032 A 
ATOM     27  C   UNL     1      -0.233  -4.361   2.446  1.00  0.00     0.093 A 
ATOM     28  C   UNL     1       1.090  -4.756   2.325  1.00  0.00     0.066 A 
ATOM     29  N   UNL     1      -0.939  -5.249   3.197  1.00  0.00    -0.228 NA
ATOM     30  N   UNL     1       1.177  -5.885   3.108  1.00  0.00    -0.337 N 
ATOM     31  H   UNL     1       2.000  -6.386   3.309  1.00  0.00     0.168 HD
BRANCH  23  32
ATOM     32  O   UNL     1      -0.240  -1.225   0.691  1.00  0.00    -0.497 OA
ATOM     33  C   UNL     1      -0.057  -0.971  -0.696  1.00  0.00     0.278 C 
ENDBRANCH  23  32
ENDBRANCH  21  22
BRANCH  21  34
ATOM     34  C   UNL     1      -1.832  -7.484   4.614  1.00  0.00     0.103 C 
ATOM     35  N   UNL     1      -2.953  -7.619   4.882  1.00  0.00    -0.192 NA
ENDBRANCH  21  34
ENDBRANCH  16  20
ENDBRANCH   9  15
ENDBRANCH   6   8
ENDBRANCH   5   6
ENDBRANCH   4   5
ENDBRANCH   3   4
ENDBRANCH   2   3
ENDBRANCH   1   2
BRANCH   1  36
ATOM     36  C   UNL     1       3.029 -12.366  10.647  1.00  0.00     0.188 C 
BRANCH  36  37
ATOM     37  O   UNL     1       3.493 -13.380  11.510  1.00  0.00    -0.376 OA
BRANCH  37  38
ATOM     38  C   UNL     1       4.504 -13.080  12.460  1.00  0.00     0.202 C 
BRANCH  38  39
ATOM     39  C   UNL     1       5.443 -11.851  12.428  1.00  0.00     0.261 C 
BRANCH  39  40
ATOM     40  O   UNL     1       5.050 -10.700  11.672  1.00  0.00    -0.460 OA
BRANCH  40  41
ATOM     41  C   UNL     1       5.668 -10.538  10.475  1.00  0.00     0.338 C 
ATOM     42  O   UNL     1       6.504 -11.271   9.975  1.00  0.00    -0.246 OA
BRANCH  41  43
ATOM     43  C   UNL     1       5.024  -9.425   9.744  1.00  0.00     0.060 A 
ATOM     44  C   UNL     1       4.238  -9.716   8.618  1.00  0.00     0.016 A 
ATOM     45  C   UNL     1       5.226  -8.105  10.140  1.00  0.00     0.016 A 
ATOM     46  C   UNL     1       3.666  -8.686   7.873  1.00  0.00     0.010 A 
ATOM     47  C   UNL     1       4.676  -7.072   9.373  1.00  0.00     0.010 A 
ATOM     48  C   UNL     1       3.923  -7.355   8.216  1.00  0.00    -0.014 A 
BRANCH  48  49
ATOM     49  C   UNL     1       3.550  -6.264   7.283  1.00  0.00     0.031 A 
ATOM     50  C   UNL     1       4.616  -5.621   6.444  1.00  0.00     0.074 A 
ATOM     51  C   UNL     1       2.285  -5.827   7.168  1.00  0.00     0.049 A 
ATOM     52  N   UNL     1       4.512  -4.635   5.592  1.00  0.00    -0.248 NA
ATOM     53  C   UNL     1       5.973  -6.171   6.574  1.00  0.00     0.031 C 
ATOM     54  C   UNL     1       1.137  -6.370   7.886  1.00  0.00     0.029 A 
ATOM     55  N   UNL     1       1.772  -4.787   6.429  1.00  0.00    -0.354 N 
ATOM     56  C   UNL     1       5.799  -4.402   5.128  1.00  0.00     0.074 A 
ATOM     57  C   UNL     1       6.660  -5.368   5.777  1.00  0.00     0.031 C 
ATOM     58  C   UNL     1       0.058  -5.625   7.594  1.00  0.00     0.029 A 
ATOM     59  C   UNL     1       0.452  -4.527   6.708  1.00  0.00     0.049 A 
ATOM     60  H   UNL     1       2.297  -4.281   5.767  1.00  0.00     0.167 HD
ATOM     61  C   UNL     1       6.235  -3.461   4.259  1.00  0.00     0.034 A 
ATOM     62  C   UNL     1      -0.337  -3.497   6.340  1.00  0.00     0.034 A 
ATOM     63  C   UNL     1       5.410  -2.437   3.672  1.00  0.00     0.049 A 
ATOM     64  C   UNL     1       0.190  -2.404   5.436  1.00  0.00     0.074 A 
ATOM     65  C   UNL     1       5.788  -1.479   2.748  1.00  0.00     0.029 A 
ATOM     66  N   UNL     1       4.090  -2.165   4.002  1.00  0.00    -0.354 N 
ATOM     67  N   UNL     1       1.404  -2.203   4.975  1.00  0.00    -0.248 NA
ATOM     68  C   UNL     1      -0.790  -1.412   4.976  1.00  0.00     0.031 C 
ATOM     69  C   UNL     1       4.760  -0.538   2.653  1.00  0.00     0.029 A 
ATOM     70  C   UNL     1       3.661  -1.016   3.346  1.00  0.00     0.049 A 
ATOM     71  H   UNL     1       3.538  -2.706   4.611  1.00  0.00     0.167 HD
ATOM     72  C   UNL     1       1.327  -1.081   4.136  1.00  0.00     0.074 A 
ATOM     73  C   UNL     1      -0.060  -0.662   4.161  1.00  0.00     0.031 C 
ATOM     74  C   UNL     1       2.310  -0.493   3.389  1.00  0.00     0.034 A 
BRANCH  61  75
ATOM     75  C   UNL     1       7.711  -3.448   3.942  1.00  0.00     0.023 A 
ATOM     76  C   UNL     1       8.303  -4.514   3.233  1.00  0.00     0.012 A 
ATOM     77  C   UNL     1       8.508  -2.349   4.324  1.00  0.00     0.148 A 
ATOM     78  C   UNL     1       9.669  -4.509   2.954  1.00  0.00     0.002 A 
ATOM     79  C   UNL     1       9.853  -2.321   3.984  1.00  0.00     0.091 A 
ATOM     80  F   UNL     1       7.938  -1.358   5.024  1.00  0.00    -0.205 F 
ATOM     81  C   UNL     1      10.440  -3.408   3.318  1.00  0.00     0.022 A 
BRANCH  79  82
ATOM     82  S   UNL     1      10.899  -0.902   4.318  1.00  0.00     0.127 S 
ATOM     83  O   UNL     1      11.755  -1.414   5.388  1.00  0.00    -0.237 OA
ATOM     84  O   UNL     1      11.575  -0.713   3.034  1.00  0.00    -0.237 OA
ATOM     85  O   UNL     1      10.001   0.180   4.696  1.00  0.00    -0.744 OA
ENDBRANCH  79  82
ENDBRANCH  61  75
BRANCH  62  86
ATOM     86  C   UNL     1      -1.738  -3.471   6.852  1.00  0.00     0.023 A 
ATOM     87  C   UNL     1      -2.808  -3.808   6.003  1.00  0.00     0.012 A 
ATOM     88  C   UNL     1      -1.997  -3.208   8.213  1.00  0.00     0.148 A 
ATOM     89  C   UNL     1      -4.114  -3.864   6.496  1.00  0.00     0.002 A 
ATOM     90  C   UNL     1      -3.291  -3.315   8.709  1.00  0.00     0.091 A 
ATOM     91  F   UNL     1      -0.960  -2.901   9.004  1.00  0.00    -0.205 F 
ATOM     92  C   UNL     1      -4.354  -3.629   7.848  1.00  0.00     0.022 A 
BRANCH  90  93
ATOM     93  S   UNL     1      -3.671  -3.160  10.458  1.00  0.00     0.127 S 
ATOM     94  O   UNL     1      -4.484  -1.946  10.483  1.00  0.00    -0.237 OA
ATOM     95  O   UNL     1      -4.406  -4.397  10.721  1.00  0.00    -0.237 OA
ATOM     96  O   UNL     1      -2.386  -3.067  11.138  1.00  0.00    -0.744 OA
ENDBRANCH  90  93
ENDBRANCH  62  86
BRANCH  74  97
ATOM     97  C   UNL     1       1.962   0.709   2.491  1.00  0.00     0.023 A 
ATOM     98  C   UNL     1       1.317   1.845   3.020  1.00  0.00     0.012 A 
ATOM     99  C   UNL     1       2.281   0.739   1.108  1.00  0.00     0.148 A 
ATOM    100  C   UNL     1       0.889   2.894   2.194  1.00  0.00     0.002 A 
ATOM    101  C   UNL     1       1.887   1.799   0.292  1.00  0.00     0.091 A 
ATOM    102  F   UNL     1       2.981  -0.271   0.579  1.00  0.00    -0.205 F 
ATOM    103  C   UNL     1       1.161   2.865   0.829  1.00  0.00     0.022 A 
BRANCH 101 104
ATOM    104  S   UNL     1       2.217   1.841  -1.482  1.00  0.00     0.127 S 
ATOM    105  O   UNL     1       0.873   2.014  -2.037  1.00  0.00    -0.237 OA
ATOM    106  O   UNL     1       3.083   3.010  -1.609  1.00  0.00    -0.237 OA
ATOM    107  O   UNL     1       2.837   0.566  -1.816  1.00  0.00    -0.744 OA
ENDBRANCH 101 104
ENDBRANCH  74  97
ENDBRANCH  48  49
ENDBRANCH  41  43
ENDBRANCH  40  41
ENDBRANCH  39  40
ENDBRANCH  38  39
ENDBRANCH  37  38
ENDBRANCH  36  37
ENDBRANCH   1  36
TORSDOF 25
