REMARK SMILES Cc1cc(NC(=O)/C=C/c2ccco2)cc(C(=O)OCCOCCOCCOC(=O)c2ccc(-c3c4nc(c(-c5cccc(S(=O)(=O)[O-])c5F)c5ccc([nH]5)c(-c5cccc(S(=O)(=O)[O-])c5F)c5nc(c(-c6cccc(S(=O)(=O)[O-])c6F)c6ccc3[nH]6)C=C5)C=C4)cc2)c1O
REMARK SMILES IDX 23 1 22 2 21 3 20 4 19 5 17 6 18 7 16 8 1 9 2 10 3 11 94 12
REMARK SMILES IDX 4 13 15 14 95 15 5 17 6 18 7 20 8 21 9 22 10 23 11 24 14 25
REMARK SMILES IDX 12 26 13 27 24 28 25 29 26 30 27 31 28 32 29 33 30 34 31 35
REMARK SMILES IDX 32 36 93 37 33 38 92 39 34 40 35 41 36 42 86 43 37 44 91 45
REMARK SMILES IDX 85 46 87 47 38 48 90 49 84 50 83 51 39 53 71 54 51 55 70 56
REMARK SMILES IDX 52 57 55 58 69 59 88 60 53 61 54 62 68 64 89 65 56 66 40 67
REMARK SMILES IDX 41 68 49 69 42 70 44 71 50 72 43 73 45 74 46 75 47 76 48 77
REMARK SMILES IDX 72 78 73 79 81 80 74 81 76 82 82 83 75 84 77 85 78 86 79 87
REMARK SMILES IDX 80 88 57 89 58 90 66 91 59 92 61 93 67 94 60 95 62 96 63 97
REMARK SMILES IDX 64 98 65 99
REMARK H PARENT 95 16 5 19 87 52 55 63
REMARK Flexibility Score: inf
ROOT
ATOM      1  C   UNL     1      -0.764   3.881  -1.508  1.00  0.00     0.188 C 
ENDROOT
BRANCH   1   2
ATOM      2  O   UNL     1      -0.781   5.252  -1.124  1.00  0.00    -0.376 OA
BRANCH   2   3
ATOM      3  C   UNL     1       0.218   5.702  -0.212  1.00  0.00     0.202 C 
BRANCH   3   4
ATOM      4  C   UNL     1       0.331   4.943   1.113  1.00  0.00     0.261 C 
BRANCH   4   5
ATOM      5  O   UNL     1       0.718   3.578   0.894  1.00  0.00    -0.460 OA
BRANCH   5   6
ATOM      6  C   UNL     1       0.219   2.683   1.783  1.00  0.00     0.342 C 
ATOM      7  O   UNL     1      -0.296   2.923   2.860  1.00  0.00    -0.246 OA
BRANCH   6   8
ATOM      8  C   UNL     1       0.381   1.335   1.201  1.00  0.00     0.104 A 
ATOM      9  C   UNL     1      -1.714  -1.565  -0.142  1.00  0.00     0.048 C 
ATOM     10  C   UNL     1      -0.559  -0.694   0.267  1.00  0.00    -0.006 A 
ATOM     11  C   UNL     1       0.754  -1.166   0.073  1.00  0.00     0.033 A 
ATOM     12  C   UNL     1      -0.733   0.591   0.794  1.00  0.00     0.133 A 
ATOM     13  C   UNL     1       1.880  -0.398   0.414  1.00  0.00     0.042 A 
ATOM     14  C   UNL     1       1.678   0.833   1.031  1.00  0.00     0.045 A 
BRANCH  12  15
ATOM     15  O   UNL     1      -1.967   1.168   0.886  1.00  0.00    -0.507 OA
ATOM     16  H   UNL     1      -2.728   0.691   0.621  1.00  0.00     0.293 HD
ENDBRANCH  12  15
BRANCH  13  17
ATOM     17  N   UNL     1       3.137  -0.953   0.096  1.00  0.00    -0.322 N 
ATOM     18  C   UNL     1       4.410  -0.458   0.092  1.00  0.00     0.248 C 
ATOM     19  H   UNL     1       3.086  -1.897  -0.180  1.00  0.00     0.170 HD
ATOM     20  O   UNL     1       5.361  -1.201  -0.148  1.00  0.00    -0.270 OA
BRANCH  18  21
ATOM     21  C   UNL     1       4.661   0.960   0.376  1.00  0.00     0.075 C 
ATOM     22  C   UNL     1       4.332   1.904  -0.518  1.00  0.00     0.053 C 
BRANCH  22  23
ATOM     23  C   UNL     1       4.441   3.273  -0.158  1.00  0.00     0.126 A 
ATOM     24  C   UNL     1       4.571   4.391  -0.972  1.00  0.00     0.050 A 
ATOM     25  O   UNL     1       4.371   3.719   1.146  1.00  0.00    -0.465 OA
ATOM     26  C   UNL     1       4.561   5.538  -0.142  1.00  0.00     0.042 A 
ATOM     27  C   UNL     1       4.418   5.072   1.139  1.00  0.00     0.195 A 
ENDBRANCH  22  23
ENDBRANCH  18  21
ENDBRANCH  13  17
ENDBRANCH   6   8
ENDBRANCH   5   6
ENDBRANCH   4   5
ENDBRANCH   3   4
ENDBRANCH   2   3
ENDBRANCH   1   2
BRANCH   1  28
ATOM     28  C   UNL     1       0.546   3.306  -2.088  1.00  0.00     0.188 C 
BRANCH  28  29
ATOM     29  O   UNL     1       1.537   4.282  -2.386  1.00  0.00    -0.376 OA
BRANCH  29  30
ATOM     30  C   UNL     1       1.785   4.517  -3.765  1.00  0.00     0.202 C 
BRANCH  30  31
ATOM     31  C   UNL     1       0.700   5.328  -4.479  1.00  0.00     0.261 C 
BRANCH  31  32
ATOM     32  O   UNL     1      -0.597   4.713  -4.508  1.00  0.00    -0.460 OA
BRANCH  32  33
ATOM     33  C   UNL     1      -0.719   3.538  -5.166  1.00  0.00     0.338 C 
ATOM     34  O   UNL     1       0.151   2.942  -5.774  1.00  0.00    -0.246 OA
BRANCH  33  35
ATOM     35  C   UNL     1      -2.053   2.991  -4.838  1.00  0.00     0.060 A 
ATOM     36  C   UNL     1      -2.142   1.688  -4.330  1.00  0.00     0.016 A 
ATOM     37  C   UNL     1      -3.199   3.779  -4.974  1.00  0.00     0.016 A 
ATOM     38  C   UNL     1      -3.387   1.166  -3.972  1.00  0.00     0.010 A 
ATOM     39  C   UNL     1      -4.444   3.250  -4.630  1.00  0.00     0.010 A 
ATOM     40  C   UNL     1      -4.546   1.934  -4.150  1.00  0.00    -0.014 A 
BRANCH  40  41
ATOM     41  C   UNL     1      -5.883   1.309  -4.011  1.00  0.00     0.031 A 
ATOM     42  C   UNL     1      -6.541   0.761  -5.248  1.00  0.00     0.074 A 
ATOM     43  C   UNL     1      -6.518   1.258  -2.826  1.00  0.00     0.049 A 
ATOM     44  N   UNL     1      -7.712   0.199  -5.384  1.00  0.00    -0.248 NA
ATOM     45  C   UNL     1      -5.773   0.867  -6.502  1.00  0.00     0.031 C 
ATOM     46  C   UNL     1      -5.997   1.775  -1.561  1.00  0.00     0.029 A 
ATOM     47  N   UNL     1      -7.762   0.773  -2.506  1.00  0.00    -0.354 N 
ATOM     48  C   UNL     1      -7.830  -0.103  -6.735  1.00  0.00     0.074 A 
ATOM     49  C   UNL     1      -6.618   0.350  -7.381  1.00  0.00     0.031 C 
ATOM     50  C   UNL     1      -6.932   1.611  -0.607  1.00  0.00     0.029 A 
ATOM     51  C   UNL     1      -8.120   0.994  -1.196  1.00  0.00     0.049 A 
ATOM     52  H   UNL     1      -8.342   0.310  -3.152  1.00  0.00     0.167 HD
ATOM     53  C   UNL     1      -8.848  -0.718  -7.381  1.00  0.00     0.034 A 
ATOM     54  C   UNL     1      -9.283   0.747  -0.558  1.00  0.00     0.034 A 
ATOM     55  C   UNL     1     -10.054  -1.166  -6.745  1.00  0.00     0.049 A 
ATOM     56  C   UNL     1     -10.414   0.086  -1.308  1.00  0.00     0.074 A 
ATOM     57  C   UNL     1     -11.128  -1.832  -7.309  1.00  0.00     0.029 A 
ATOM     58  N   UNL     1     -10.357  -0.980  -5.406  1.00  0.00    -0.354 N 
ATOM     59  N   UNL     1     -10.452  -0.326  -2.553  1.00  0.00    -0.248 NA
ATOM     60  C   UNL     1     -11.650  -0.177  -0.555  1.00  0.00     0.031 C 
ATOM     61  C   UNL     1     -12.089  -2.031  -6.313  1.00  0.00     0.029 A 
ATOM     62  C   UNL     1     -11.603  -1.511  -5.125  1.00  0.00     0.049 A 
ATOM     63  H   UNL     1      -9.771  -0.534  -4.751  1.00  0.00     0.167 HD
ATOM     64  C   UNL     1     -11.697  -0.926  -2.720  1.00  0.00     0.074 A 
ATOM     65  C   UNL     1     -12.375  -0.844  -1.443  1.00  0.00     0.031 C 
ATOM     66  C   UNL     1     -12.238  -1.481  -3.833  1.00  0.00     0.034 A 
BRANCH  53  67
ATOM     67  C   UNL     1      -8.679  -0.975  -8.854  1.00  0.00     0.023 A 
ATOM     68  C   UNL     1      -7.806  -1.996  -9.280  1.00  0.00     0.012 A 
ATOM     69  C   UNL     1      -9.416  -0.248  -9.807  1.00  0.00     0.148 A 
ATOM     70  C   UNL     1      -7.650  -2.274 -10.637  1.00  0.00     0.002 A 
ATOM     71  C   UNL     1      -9.285  -0.557 -11.156  1.00  0.00     0.091 A 
ATOM     72  F   UNL     1     -10.220   0.736  -9.380  1.00  0.00    -0.205 F 
ATOM     73  C   UNL     1      -8.396  -1.562 -11.572  1.00  0.00     0.022 A 
BRANCH  71  74
ATOM     74  S   UNL     1     -10.251   0.253 -12.434  1.00  0.00     0.127 S 
ATOM     75  O   UNL     1      -9.229   1.047 -13.116  1.00  0.00    -0.237 OA
ATOM     76  O   UNL     1     -10.755  -0.884 -13.205  1.00  0.00    -0.237 OA
ATOM     77  O   UNL     1     -11.275   1.020 -11.739  1.00  0.00    -0.744 OA
ENDBRANCH  71  74
ENDBRANCH  53  67
BRANCH  54  78
ATOM     78  C   UNL     1      -9.439   1.095   0.884  1.00  0.00     0.023 A 
ATOM     79  C   UNL     1      -9.546   0.065   1.839  1.00  0.00     0.012 A 
ATOM     80  C   UNL     1      -9.498   2.435   1.312  1.00  0.00     0.148 A 
ATOM     81  C   UNL     1      -9.743   0.362   3.189  1.00  0.00     0.002 A 
ATOM     82  C   UNL     1      -9.643   2.725   2.664  1.00  0.00     0.091 A 
ATOM     83  F   UNL     1      -9.419   3.401   0.386  1.00  0.00    -0.205 F 
ATOM     84  C   UNL     1      -9.782   1.691   3.602  1.00  0.00     0.022 A 
BRANCH  82  85
ATOM     85  S   UNL     1      -9.595   4.406   3.295  1.00  0.00     0.127 S 
ATOM     86  O   UNL     1     -10.998   4.641   3.626  1.00  0.00    -0.237 OA
ATOM     87  O   UNL     1      -8.705   4.271   4.449  1.00  0.00    -0.237 OA
ATOM     88  O   UNL     1      -9.054   5.213   2.211  1.00  0.00    -0.744 OA
ENDBRANCH  82  85
ENDBRANCH  54  78
BRANCH  66  89
ATOM     89  C   UNL     1     -13.613  -2.088  -3.724  1.00  0.00     0.023 A 
ATOM     90  C   UNL     1     -14.743  -1.252  -3.623  1.00  0.00     0.012 A 
ATOM     91  C   UNL     1     -13.791  -3.483  -3.814  1.00  0.00     0.148 A 
ATOM     92  C   UNL     1     -16.026  -1.797  -3.587  1.00  0.00     0.002 A 
ATOM     93  C   UNL     1     -15.075  -4.016  -3.825  1.00  0.00     0.091 A 
ATOM     94  F   UNL     1     -12.703  -4.263  -3.892  1.00  0.00    -0.205 F 
ATOM     95  C   UNL     1     -16.193  -3.175  -3.700  1.00  0.00     0.022 A 
BRANCH  93  96
ATOM     96  S   UNL     1     -15.386  -5.769  -4.065  1.00  0.00     0.127 S 
ATOM     97  O   UNL     1     -15.768  -6.191  -2.719  1.00  0.00    -0.237 OA
ATOM     98  O   UNL     1     -16.481  -5.762  -5.036  1.00  0.00    -0.237 OA
ATOM     99  O   UNL     1     -14.139  -6.330  -4.568  1.00  0.00    -0.744 OA
ENDBRANCH  93  96
ENDBRANCH  66  89
ENDBRANCH  40  41
ENDBRANCH  33  35
ENDBRANCH  32  33
ENDBRANCH  31  32
ENDBRANCH  30  31
ENDBRANCH  29  30
ENDBRANCH  28  29
ENDBRANCH   1  28
TORSDOF 24
