REMARK SMILES COc1ccc2c(CC(=O)OCCOCCOCCOC(=O)c3ccc(-c4c5nc(c(-c6cccc(S(=O)(=O)[O-])c6F)c6ccc([nH]6)c(-c6cccc(S(=O)(=O)[O-])c6F)c6nc(c(-c7cccc(S(=O)(=O)[O-])c7F)c7ccc4[nH]7)C=C6)C=C5)cc3)c(C(=O)c3cc(C)ccn3)[nH]c2c1
REMARK SMILES IDX 15 1 14 2 13 3 12 4 11 5 9 6 10 7 8 8 7 9 3 10 4 11 98 12
REMARK SMILES IDX 5 13 97 14 6 15 96 16 86 17 2 19 1 20 87 21 88 22 89 23
REMARK SMILES IDX 90 24 95 25 91 26 94 27 92 28 93 29 16 30 17 31 18 32 19 33
REMARK SMILES IDX 20 34 21 35 22 36 23 37 24 38 85 39 25 40 84 41 26 42 27 43
REMARK SMILES IDX 28 44 78 45 29 46 83 47 77 48 79 49 30 50 82 51 76 52 75 53
REMARK SMILES IDX 31 55 63 56 43 57 62 58 44 59 47 60 61 61 80 62 45 63 46 64
REMARK SMILES IDX 60 66 81 67 48 68 32 69 33 70 41 71 34 72 36 73 42 74 35 75
REMARK SMILES IDX 37 76 38 77 39 78 40 79 64 80 65 81 73 82 66 83 68 84 74 85
REMARK SMILES IDX 67 86 69 87 70 88 71 89 72 90 49 91 50 92 58 93 51 94 53 95
REMARK SMILES IDX 59 96 52 97 54 98 55 99 56 100 57 101
REMARK H PARENT 96 18 79 54 47 65
REMARK Flexibility Score: inf
ROOT
ATOM      1  C   UNL     1       3.016   8.857   4.468  1.00  0.00     0.188 C 
ENDROOT
BRANCH   1   2
ATOM      2  O   UNL     1       4.194   9.511   4.001  1.00  0.00    -0.376 OA
BRANCH   2   3
ATOM      3  C   UNL     1       4.784   9.052   2.792  1.00  0.00     0.202 C 
BRANCH   3   4
ATOM      4  C   UNL     1       5.218   7.580   2.771  1.00  0.00     0.261 C 
BRANCH   4   5
ATOM      5  O   UNL     1       4.108   6.689   3.012  1.00  0.00    -0.463 OA
BRANCH   5   6
ATOM      6  C   UNL     1       4.357   5.582   3.758  1.00  0.00     0.310 C 
ATOM      7  O   UNL     1       5.488   5.158   3.979  1.00  0.00    -0.252 OA
BRANCH   6   8
ATOM      8  C   UNL     1       3.113   5.012   4.437  1.00  0.00     0.161 C 
BRANCH   8   9
ATOM      9  C   UNL     1       1.897   4.742   3.580  1.00  0.00     0.000 A 
ATOM     10  C   UNL     1       1.043   2.030   0.484  1.00  0.00     0.120 A 
ATOM     11  C   UNL     1       2.380   2.086   0.874  1.00  0.00     0.047 A 
ATOM     12  C   UNL     1       0.107   2.930   0.996  1.00  0.00     0.073 A 
ATOM     13  C   UNL     1       2.802   3.000   1.849  1.00  0.00     0.014 A 
ATOM     14  C   UNL     1       0.540   3.800   2.003  1.00  0.00     0.050 A 
ATOM     15  C   UNL     1       1.854   3.845   2.460  1.00  0.00     0.004 A 
ATOM     16  N   UNL     1      -0.171   4.709   2.744  1.00  0.00    -0.351 N 
ATOM     17  C   UNL     1       0.560   5.081   3.850  1.00  0.00     0.093 A 
ATOM     18  H   UNL     1      -1.069   5.045   2.519  1.00  0.00     0.167 HD
BRANCH  10  19
ATOM     19  O   UNL     1       0.570   1.127  -0.434  1.00  0.00    -0.497 OA
ATOM     20  C   UNL     1       0.948  -0.215  -0.128  1.00  0.00     0.278 C 
ENDBRANCH  10  19
BRANCH  17  21
ATOM     21  C   UNL     1      -0.040   5.622   5.063  1.00  0.00     0.227 C 
ATOM     22  O   UNL     1       0.535   5.617   6.146  1.00  0.00    -0.285 OA
BRANCH  21  23
ATOM     23  C   UNL     1      -1.436   6.154   5.016  1.00  0.00     0.113 A 
ATOM     24  C   UNL     1      -2.493   5.414   5.540  1.00  0.00     0.036 A 
ATOM     25  N   UNL     1      -1.570   7.404   4.503  1.00  0.00    -0.253 NA
ATOM     26  C   UNL     1      -3.763   6.003   5.575  1.00  0.00    -0.047 A 
ATOM     27  C   UNL     1      -2.791   7.972   4.623  1.00  0.00     0.112 A 
ATOM     28  C   UNL     1      -4.971   5.268   6.077  1.00  0.00     0.044 C 
ATOM     29  C   UNL     1      -3.897   7.325   5.148  1.00  0.00     0.023 A 
ENDBRANCH  21  23
ENDBRANCH  17  21
ENDBRANCH   8   9
ENDBRANCH   6   8
ENDBRANCH   5   6
ENDBRANCH   4   5
ENDBRANCH   3   4
ENDBRANCH   2   3
ENDBRANCH   1   2
BRANCH   1  30
ATOM     30  C   UNL     1       1.926   8.474   3.441  1.00  0.00     0.188 C 
BRANCH  30  31
ATOM     31  O   UNL     1       1.921   9.288   2.275  1.00  0.00    -0.376 OA
BRANCH  31  32
ATOM     32  C   UNL     1       0.769  10.109   2.144  1.00  0.00     0.202 C 
BRANCH  32  33
ATOM     33  C   UNL     1       0.730  11.232   3.181  1.00  0.00     0.261 C 
BRANCH  33  34
ATOM     34  O   UNL     1       0.630  10.715   4.526  1.00  0.00    -0.460 OA
BRANCH  34  35
ATOM     35  C   UNL     1      -0.573  10.734   5.124  1.00  0.00     0.338 C 
ATOM     36  O   UNL     1      -1.608  11.197   4.644  1.00  0.00    -0.246 OA
BRANCH  35  37
ATOM     37  C   UNL     1      -0.504  10.144   6.484  1.00  0.00     0.060 A 
ATOM     38  C   UNL     1       0.099   8.908   6.740  1.00  0.00     0.016 A 
ATOM     39  C   UNL     1      -1.162  10.797   7.523  1.00  0.00     0.016 A 
ATOM     40  C   UNL     1      -0.013   8.297   7.996  1.00  0.00     0.010 A 
ATOM     41  C   UNL     1      -1.214  10.219   8.798  1.00  0.00     0.010 A 
ATOM     42  C   UNL     1      -0.667   8.946   9.046  1.00  0.00    -0.014 A 
BRANCH  42  43
ATOM     43  C   UNL     1      -0.825   8.317  10.390  1.00  0.00     0.031 A 
ATOM     44  C   UNL     1      -2.204   8.107  10.963  1.00  0.00     0.074 A 
ATOM     45  C   UNL     1       0.248   7.990  11.139  1.00  0.00     0.049 A 
ATOM     46  N   UNL     1      -2.562   7.844  12.194  1.00  0.00    -0.248 NA
ATOM     47  C   UNL     1      -3.332   8.220  10.023  1.00  0.00     0.031 C 
ATOM     48  C   UNL     1       1.644   8.081  10.713  1.00  0.00     0.029 A 
ATOM     49  N   UNL     1       0.327   7.552  12.441  1.00  0.00    -0.354 N 
ATOM     50  C   UNL     1      -3.952   7.839  12.196  1.00  0.00     0.074 A 
ATOM     51  C   UNL     1      -4.373   8.105  10.836  1.00  0.00     0.031 C 
ATOM     52  C   UNL     1       2.440   7.734  11.736  1.00  0.00     0.029 A 
ATOM     53  C   UNL     1       1.617   7.471  12.912  1.00  0.00     0.049 A 
ATOM     54  H   UNL     1      -0.462   7.319  12.982  1.00  0.00     0.167 HD
ATOM     55  C   UNL     1      -4.800   7.633  13.233  1.00  0.00     0.034 A 
ATOM     56  C   UNL     1       2.094   7.269  14.158  1.00  0.00     0.034 A 
ATOM     57  C   UNL     1      -4.385   7.312  14.574  1.00  0.00     0.049 A 
ATOM     58  C   UNL     1       1.133   7.073  15.300  1.00  0.00     0.074 A 
ATOM     59  C   UNL     1      -5.177   7.058  15.682  1.00  0.00     0.029 A 
ATOM     60  N   UNL     1      -3.069   7.196  14.994  1.00  0.00    -0.354 N 
ATOM     61  N   UNL     1      -0.177   7.040  15.283  1.00  0.00    -0.248 NA
ATOM     62  C   UNL     1       1.720   6.872  16.633  1.00  0.00     0.031 C 
ATOM     63  C   UNL     1      -4.340   6.809  16.775  1.00  0.00     0.029 A 
ATOM     64  C   UNL     1      -3.027   6.878  16.342  1.00  0.00     0.049 A 
ATOM     65  H   UNL     1      -2.280   7.320  14.418  1.00  0.00     0.167 HD
ATOM     66  C   UNL     1      -0.568   6.782  16.593  1.00  0.00     0.074 A 
ATOM     67  C   UNL     1       0.644   6.644  17.372  1.00  0.00     0.031 C 
ATOM     68  C   UNL     1      -1.820   6.686  17.105  1.00  0.00     0.034 A 
BRANCH  55  69
ATOM     69  C   UNL     1      -6.279   7.742  12.964  1.00  0.00     0.023 A 
ATOM     70  C   UNL     1      -6.944   6.720  12.259  1.00  0.00     0.012 A 
ATOM     71  C   UNL     1      -7.022   8.828  13.472  1.00  0.00     0.148 A 
ATOM     72  C   UNL     1      -8.319   6.790  12.037  1.00  0.00     0.002 A 
ATOM     73  C   UNL     1      -8.398   8.869  13.284  1.00  0.00     0.091 A 
ATOM     74  F   UNL     1      -6.369   9.800  14.124  1.00  0.00    -0.205 F 
ATOM     75  C   UNL     1      -9.047   7.857  12.558  1.00  0.00     0.022 A 
BRANCH  73  76
ATOM     76  S   UNL     1      -9.433  10.161  13.984  1.00  0.00     0.127 S 
ATOM     77  O   UNL     1      -9.796  10.925  12.791  1.00  0.00    -0.237 OA
ATOM     78  O   UNL     1     -10.530   9.393  14.572  1.00  0.00    -0.237 OA
ATOM     79  O   UNL     1      -8.599  10.864  14.948  1.00  0.00    -0.744 OA
ENDBRANCH  73  76
ENDBRANCH  55  69
BRANCH  56  80
ATOM     80  C   UNL     1       3.566   7.247  14.396  1.00  0.00     0.023 A 
ATOM     81  C   UNL     1       4.189   6.040  14.765  1.00  0.00     0.012 A 
ATOM     82  C   UNL     1       4.352   8.407  14.243  1.00  0.00     0.148 A 
ATOM     83  C   UNL     1       5.563   5.992  15.003  1.00  0.00     0.002 A 
ATOM     84  C   UNL     1       5.728   8.339  14.420  1.00  0.00     0.091 A 
ATOM     85  F   UNL     1       3.737   9.553  13.916  1.00  0.00    -0.205 F 
ATOM     86  C   UNL     1       6.334   7.137  14.817  1.00  0.00     0.022 A 
BRANCH  84  87
ATOM     87  S   UNL     1       6.813   9.728  14.072  1.00  0.00     0.127 S 
ATOM     88  O   UNL     1       7.235  10.121  15.414  1.00  0.00    -0.237 OA
ATOM     89  O   UNL     1       7.854   9.101  13.257  1.00  0.00    -0.237 OA
ATOM     90  O   UNL     1       5.993  10.696  13.356  1.00  0.00    -0.744 OA
ENDBRANCH  84  87
ENDBRANCH  56  80
BRANCH  68  91
ATOM     91  C   UNL     1      -1.953   6.370  18.574  1.00  0.00     0.023 A 
ATOM     92  C   UNL     1      -1.627   7.346  19.537  1.00  0.00     0.012 A 
ATOM     93  C   UNL     1      -2.450   5.122  18.999  1.00  0.00     0.148 A 
ATOM     94  C   UNL     1      -1.757   7.072  20.898  1.00  0.00     0.002 A 
ATOM     95  C   UNL     1      -2.623   4.872  20.357  1.00  0.00     0.091 A 
ATOM     96  F   UNL     1      -2.737   4.197  18.072  1.00  0.00    -0.205 F 
ATOM     97  C   UNL     1      -2.264   5.841  21.308  1.00  0.00     0.022 A 
BRANCH  95  98
ATOM     98  S   UNL     1      -3.356   3.350  20.969  1.00  0.00     0.127 S 
ATOM     99  O   UNL     1      -2.188   2.649  21.500  1.00  0.00    -0.237 OA
ATOM    100  O   UNL     1      -4.287   3.840  21.986  1.00  0.00    -0.237 OA
ATOM    101  O   UNL     1      -3.995   2.724  19.819  1.00  0.00    -0.744 OA
ENDBRANCH  95  98
ENDBRANCH  68  91
ENDBRANCH  42  43
ENDBRANCH  35  37
ENDBRANCH  34  35
ENDBRANCH  33  34
ENDBRANCH  32  33
ENDBRANCH  31  32
ENDBRANCH  30  31
ENDBRANCH   1  30
TORSDOF 24
