REMARK SMILES COc1ccc(-n2c(SCc3cn(-c4ccc(C(=O)OCCOCCOCCOC(=O)c5ccc(-c6c7nc(c(-c8cccc(S(=O)(=O)[O-])c8F)c8ccc([nH]8)c(-c8cccc(S(=O)(=O)[O-])c8F)c8nc(c(-c9cccc(S(=O)(=O)[O-])c9F)c9ccc6[nH]9)C=C8)C=C7)cc5)cc4)nn3)nc3ccccc3c2=O)cc1
REMARK SMILES IDX 23 1 22 2 21 3 20 4 18 5 19 6 17 7 14 8 15 9 96 10 16 11
REMARK SMILES IDX 95 12 13 13 11 14 12 15 98 16 97 17 10 18 9 19 8 20 7 21
REMARK SMILES IDX 106 22 99 23 105 24 107 25 100 26 104 27 101 28 103 29
REMARK SMILES IDX 102 30 6 31 3 32 4 33 109 34 5 35 108 36 2 37 1 38 24 39
REMARK SMILES IDX 25 40 26 41 27 42 28 43 29 44 30 45 31 46 32 47 33 48 94 49
REMARK SMILES IDX 34 50 93 51 35 52 36 53 37 54 87 55 38 56 92 57 86 58 88 59
REMARK SMILES IDX 39 60 91 61 85 62 84 63 40 65 72 66 52 67 71 68 53 69 56 70
REMARK SMILES IDX 70 71 89 72 54 73 55 74 69 76 90 77 57 78 41 79 42 80 50 81
REMARK SMILES IDX 43 82 45 83 51 84 44 85 46 86 47 87 48 88 49 89 73 90 74 91
REMARK SMILES IDX 82 92 75 93 77 94 83 95 76 96 78 97 79 98 80 99 81 100
REMARK SMILES IDX 58 101 59 102 67 103 60 104 62 105 68 106 61 107 63 108
REMARK SMILES IDX 64 109 65 110 66 111
REMARK H PARENT 88 64 56 75
REMARK Flexibility Score: inf
ROOT
ATOM      1  O   UNL     1      -6.295   0.111  -7.463  1.00  0.00    -0.376 OA
ENDROOT
BRANCH   1   2
ATOM      2  C   UNL     1      -6.955  -1.140  -7.406  1.00  0.00     0.202 C 
BRANCH   2   3
ATOM      3  C   UNL     1      -6.304  -2.491  -7.043  1.00  0.00     0.261 C 
BRANCH   3   4
ATOM      4  O   UNL     1      -5.108  -2.447  -6.268  1.00  0.00    -0.460 OA
BRANCH   4   5
ATOM      5  C   UNL     1      -3.969  -2.804  -6.919  1.00  0.00     0.338 C 
ATOM      6  O   UNL     1      -3.858  -3.249  -8.030  1.00  0.00    -0.246 OA
BRANCH   5   7
ATOM      7  C   UNL     1      -2.826  -2.345  -6.097  1.00  0.00     0.060 A 
ATOM      8  C   UNL     1      -0.698  -1.354  -4.647  1.00  0.00     0.066 A 
ATOM      9  C   UNL     1      -0.820  -0.991  -5.987  1.00  0.00     0.029 A 
ATOM     10  C   UNL     1      -1.644  -2.173  -4.012  1.00  0.00     0.029 A 
ATOM     11  C   UNL     1      -1.875  -1.521  -6.721  1.00  0.00     0.018 A 
ATOM     12  C   UNL     1      -2.734  -2.648  -4.735  1.00  0.00     0.018 A 
BRANCH   8  13
ATOM     13  N   UNL     1       0.540  -1.151  -4.030  1.00  0.00    -0.220 N 
ATOM     14  C   UNL     1       2.594  -1.596  -3.468  1.00  0.00     0.093 A 
ATOM     15  C   UNL     1       1.395  -2.186  -3.773  1.00  0.00     0.141 A 
ATOM     16  N   UNL     1       2.432  -0.236  -3.536  1.00  0.00    -0.134 NA
ATOM     17  N   UNL     1       1.202   0.017  -3.971  1.00  0.00    -0.062 NA
BRANCH  14  18
ATOM     18  C   UNL     1       3.901  -2.188  -3.141  1.00  0.00     0.138 C 
BRANCH  18  19
ATOM     19  S   UNL     1       4.387  -3.599  -4.121  1.00  0.00    -0.081 SA
BRANCH  19  20
ATOM     20  C   UNL     1       3.076  -4.793  -4.056  1.00  0.00     0.176 A 
ATOM     21  N   UNL     1       2.965  -5.521  -2.878  1.00  0.00    -0.255 N 
ATOM     22  C   UNL     1       3.222  -6.884  -2.943  1.00  0.00     0.266 A 
ATOM     23  N   UNL     1       2.818  -5.338  -5.207  1.00  0.00    -0.223 NA
ATOM     24  C   UNL     1       3.870  -7.293  -4.215  1.00  0.00     0.066 A 
ATOM     25  O   UNL     1       3.004  -7.717  -2.071  1.00  0.00    -0.268 OA
ATOM     26  C   UNL     1       3.527  -6.545  -5.349  1.00  0.00     0.079 A 
ATOM     27  C   UNL     1       4.937  -8.187  -4.247  1.00  0.00     0.016 A 
ATOM     28  C   UNL     1       4.176  -6.782  -6.559  1.00  0.00     0.029 A 
ATOM     29  C   UNL     1       5.656  -8.334  -5.436  1.00  0.00     0.001 A 
ATOM     30  C   UNL     1       5.259  -7.659  -6.595  1.00  0.00     0.002 A 
BRANCH  21  31
ATOM     31  C   UNL     1       2.225  -4.971  -1.798  1.00  0.00     0.052 A 
ATOM     32  C   UNL     1       0.917  -3.100  -0.202  1.00  0.00     0.119 A 
ATOM     33  C   UNL     1       0.173  -3.908  -1.057  1.00  0.00     0.048 A 
ATOM     34  C   UNL     1       2.271  -3.362  -0.000  1.00  0.00     0.048 A 
ATOM     35  C   UNL     1       0.830  -4.835  -1.877  1.00  0.00     0.030 A 
ATOM     36  C   UNL     1       2.922  -4.316  -0.784  1.00  0.00     0.030 A 
BRANCH  32  37
ATOM     37  O   UNL     1       0.288  -2.071   0.443  1.00  0.00    -0.497 OA
ATOM     38  C   UNL     1       0.795  -0.793   0.024  1.00  0.00     0.278 C 
ENDBRANCH  32  37
ENDBRANCH  21  31
ENDBRANCH  19  20
ENDBRANCH  18  19
ENDBRANCH  14  18
ENDBRANCH   8  13
ENDBRANCH   5   7
ENDBRANCH   4   5
ENDBRANCH   3   4
ENDBRANCH   2   3
ENDBRANCH   1   2
BRANCH   1  39
ATOM     39  C   UNL     1      -5.052   0.326  -6.834  1.00  0.00     0.188 C 
BRANCH  39  40
ATOM     40  C   UNL     1      -4.954   0.298  -5.296  1.00  0.00     0.188 C 
BRANCH  40  41
ATOM     41  O   UNL     1      -5.928  -0.388  -4.540  1.00  0.00    -0.376 OA
BRANCH  41  42
ATOM     42  C   UNL     1      -7.234   0.117  -4.321  1.00  0.00     0.202 C 
BRANCH  42  43
ATOM     43  C   UNL     1      -7.732   1.520  -4.662  1.00  0.00     0.261 C 
BRANCH  43  44
ATOM     44  O   UNL     1      -6.953   2.259  -5.572  1.00  0.00    -0.460 OA
BRANCH  44  45
ATOM     45  C   UNL     1      -6.099   3.107  -4.963  1.00  0.00     0.338 C 
ATOM     46  O   UNL     1      -5.744   3.080  -3.796  1.00  0.00    -0.246 OA
BRANCH  45  47
ATOM     47  C   UNL     1      -5.736   4.162  -5.903  1.00  0.00     0.060 A 
ATOM     48  C   UNL     1      -4.704   5.008  -5.501  1.00  0.00     0.016 A 
ATOM     49  C   UNL     1      -6.645   4.497  -6.918  1.00  0.00     0.016 A 
ATOM     50  C   UNL     1      -4.743   6.307  -5.940  1.00  0.00     0.010 A 
ATOM     51  C   UNL     1      -6.694   5.800  -7.339  1.00  0.00     0.010 A 
ATOM     52  C   UNL     1      -5.803   6.700  -6.767  1.00  0.00    -0.014 A 
BRANCH  52  53
ATOM     53  C   UNL     1      -5.905   8.102  -7.078  1.00  0.00     0.031 A 
ATOM     54  C   UNL     1      -4.910   8.522  -8.076  1.00  0.00     0.074 A 
ATOM     55  C   UNL     1      -6.831   8.907  -6.531  1.00  0.00     0.049 A 
ATOM     56  N   UNL     1      -3.813   9.160  -7.847  1.00  0.00    -0.248 NA
ATOM     57  C   UNL     1      -5.032   7.978  -9.434  1.00  0.00     0.031 C 
ATOM     58  C   UNL     1      -8.018   8.532  -5.761  1.00  0.00     0.029 A 
ATOM     59  N   UNL     1      -6.961  10.252  -6.673  1.00  0.00    -0.354 N 
ATOM     60  C   UNL     1      -3.241   9.334  -9.100  1.00  0.00     0.074 A 
ATOM     61  C   UNL     1      -3.882   8.385  -9.971  1.00  0.00     0.031 C 
ATOM     62  C   UNL     1      -8.867   9.587  -5.727  1.00  0.00     0.029 A 
ATOM     63  C   UNL     1      -8.223  10.731  -6.351  1.00  0.00     0.049 A 
ATOM     64  H   UNL     1      -6.227  10.833  -6.977  1.00  0.00     0.167 HD
ATOM     65  C   UNL     1      -2.528  10.457  -9.378  1.00  0.00     0.034 A 
ATOM     66  C   UNL     1      -8.711  11.953  -6.676  1.00  0.00     0.034 A 
ATOM     67  C   UNL     1      -2.153  11.154  -8.171  1.00  0.00     0.049 A 
ATOM     68  C   UNL     1      -7.550  12.833  -6.957  1.00  0.00     0.074 A 
ATOM     69  C   UNL     1      -1.456  10.826  -7.025  1.00  0.00     0.029 A 
ATOM     70  N   UNL     1      -2.859  12.296  -7.874  1.00  0.00    -0.354 N 
ATOM     71  N   UNL     1      -6.707  13.228  -6.045  1.00  0.00    -0.248 NA
ATOM     72  C   UNL     1      -7.078  12.936  -8.329  1.00  0.00     0.031 C 
ATOM     73  C   UNL     1      -2.120  11.523  -5.973  1.00  0.00     0.029 A 
ATOM     74  C   UNL     1      -3.148  12.281  -6.537  1.00  0.00     0.049 A 
ATOM     75  H   UNL     1      -3.112  13.001  -8.512  1.00  0.00     0.167 HD
ATOM     76  C   UNL     1      -5.470  13.172  -6.674  1.00  0.00     0.074 A 
ATOM     77  C   UNL     1      -5.774  13.111  -8.101  1.00  0.00     0.031 C 
ATOM     78  C   UNL     1      -4.337  12.878  -5.969  1.00  0.00     0.034 A 
BRANCH  65  79
ATOM     79  C   UNL     1      -2.540  11.158 -10.718  1.00  0.00     0.023 A 
ATOM     80  C   UNL     1      -1.663  12.255 -10.865  1.00  0.00     0.012 A 
ATOM     81  C   UNL     1      -3.539  11.000 -11.708  1.00  0.00     0.148 A 
ATOM     82  C   UNL     1      -1.824  13.189 -11.893  1.00  0.00     0.002 A 
ATOM     83  C   UNL     1      -3.641  11.883 -12.775  1.00  0.00     0.091 A 
ATOM     84  F   UNL     1      -4.496  10.082 -11.568  1.00  0.00    -0.205 F 
ATOM     85  C   UNL     1      -2.812  13.001 -12.851  1.00  0.00     0.022 A 
BRANCH  83  86
ATOM     86  S   UNL     1      -4.870  11.655 -14.067  1.00  0.00     0.127 S 
ATOM     87  O   UNL     1      -5.812  12.728 -13.765  1.00  0.00    -0.237 OA
ATOM     88  O   UNL     1      -4.068  11.851 -15.275  1.00  0.00    -0.237 OA
ATOM     89  O   UNL     1      -5.371  10.296 -13.900  1.00  0.00    -0.744 OA
ENDBRANCH  83  86
ENDBRANCH  65  79
BRANCH  66  90
ATOM     90  C   UNL     1     -10.093  12.357  -7.021  1.00  0.00     0.023 A 
ATOM     91  C   UNL     1     -10.440  13.723  -6.993  1.00  0.00     0.012 A 
ATOM     92  C   UNL     1     -10.981  11.457  -7.651  1.00  0.00     0.148 A 
ATOM     93  C   UNL     1     -11.609  14.184  -7.609  1.00  0.00     0.002 A 
ATOM     94  C   UNL     1     -12.147  11.919  -8.255  1.00  0.00     0.091 A 
ATOM     95  F   UNL     1     -10.637  10.167  -7.744  1.00  0.00    -0.205 F 
ATOM     96  C   UNL     1     -12.457  13.284  -8.248  1.00  0.00     0.022 A 
BRANCH  94  97
ATOM     97  S   UNL     1     -13.276  10.819  -9.120  1.00  0.00     0.127 S 
ATOM     98  O   UNL     1     -14.571  11.220  -8.570  1.00  0.00    -0.237 OA
ATOM     99  O   UNL     1     -13.059  11.197 -10.514  1.00  0.00    -0.237 OA
ATOM    100  O   UNL     1     -12.868   9.466  -8.761  1.00  0.00    -0.744 OA
ENDBRANCH  94  97
ENDBRANCH  66  90
BRANCH  78 101
ATOM    101  C   UNL     1      -4.402  12.933  -4.464  1.00  0.00     0.023 A 
ATOM    102  C   UNL     1      -5.250  12.097  -3.707  1.00  0.00     0.012 A 
ATOM    103  C   UNL     1      -3.466  13.738  -3.792  1.00  0.00     0.148 A 
ATOM    104  C   UNL     1      -5.185  12.089  -2.311  1.00  0.00     0.002 A 
ATOM    105  C   UNL     1      -3.370  13.690  -2.407  1.00  0.00     0.091 A 
ATOM    106  F   UNL     1      -2.666  14.527  -4.525  1.00  0.00    -0.205 F 
ATOM    107  C   UNL     1      -4.235  12.875  -1.661  1.00  0.00     0.022 A 
BRANCH 105 108
ATOM    108  S   UNL     1      -2.083  14.582  -1.532  1.00  0.00     0.127 S 
ATOM    109  O   UNL     1      -2.812  15.735  -1.008  1.00  0.00    -0.237 OA
ATOM    110  O   UNL     1      -1.659  13.614  -0.519  1.00  0.00    -0.237 OA
ATOM    111  O   UNL     1      -1.061  14.882  -2.528  1.00  0.00    -0.744 OA
ENDBRANCH 105 108
ENDBRANCH  78 101
ENDBRANCH  52  53
ENDBRANCH  45  47
ENDBRANCH  44  45
ENDBRANCH  43  44
ENDBRANCH  42  43
ENDBRANCH  41  42
ENDBRANCH  40  41
ENDBRANCH  39  40
ENDBRANCH   1  39
TORSDOF 26
