REMARK SMILES O=C(NC[C@@H]1CCOC1)NC[C@@H]1CC[C@H](C(=O)OCCOCCOCCOC(=O)c2ccc(-c3c4nc(c(-c5cccc(S(=O)(=O)[O-])c5F)c5ccc([nH]5)c(-c5cccc(S(=O)(=O)[O-])c5F)c5nc(c(-c6cccc(S(=O)(=O)[O-])c6F)c6ccc3[nH]6)C=C5)C=C4)cc2)O1
REMARK SMILES IDX 22 1 21 2 20 3 19 4 18 5 16 6 17 7 15 8 12 9 13 10 93 11
REMARK SMILES IDX 14 12 11 13 10 14 1 15 2 16 3 17 4 20 5 21 6 22 9 23 7 24
REMARK SMILES IDX 8 25 23 26 24 27 25 28 26 29 27 30 28 31 29 32 30 33 31 34
REMARK SMILES IDX 92 35 32 36 91 37 33 38 34 39 35 40 85 41 36 42 90 43 84 44
REMARK SMILES IDX 86 45 37 46 89 47 83 48 82 49 38 51 70 52 50 53 69 54 51 55
REMARK SMILES IDX 54 56 68 57 87 58 52 59 53 60 67 62 88 63 55 64 39 65 40 66
REMARK SMILES IDX 48 67 41 68 43 69 49 70 42 71 44 72 45 73 46 74 47 75 71 76
REMARK SMILES IDX 72 77 80 78 73 79 75 80 81 81 74 82 76 83 77 84 78 85 79 86
REMARK SMILES IDX 56 87 57 88 65 89 58 90 60 91 66 92 59 93 61 94 62 95 63 96
REMARK SMILES IDX 64 97
REMARK H PARENT 3 18 10 19 86 50 54 61
REMARK Flexibility Score: inf
ROOT
ATOM      1  C   UNL     1       1.229  -8.262   3.146  1.00  0.00     0.188 C 
ENDROOT
BRANCH   1   2
ATOM      2  O   UNL     1       0.459  -8.092   4.333  1.00  0.00    -0.376 OA
BRANCH   2   3
ATOM      3  C   UNL     1      -0.255  -6.861   4.474  1.00  0.00     0.202 C 
BRANCH   3   4
ATOM      4  C   UNL     1       0.537  -5.570   4.204  1.00  0.00     0.261 C 
BRANCH   4   5
ATOM      5  O   UNL     1       1.003  -5.470   2.839  1.00  0.00    -0.461 OA
BRANCH   5   6
ATOM      6  C   UNL     1       2.281  -5.033   2.678  1.00  0.00     0.335 C 
ATOM      7  O   UNL     1       2.964  -4.572   3.587  1.00  0.00    -0.249 OA
BRANCH   6   8
ATOM      8  C   UNL     1       2.815  -5.220   1.242  1.00  0.00     0.228 C 
ATOM      9  C   UNL     1       2.688  -3.126   0.248  1.00  0.00     0.138 C 
ATOM     10  C   UNL     1       1.452  -3.908  -0.175  1.00  0.00     0.037 C 
ATOM     11  O   UNL     1       3.592  -4.064   0.875  1.00  0.00    -0.361 OA
ATOM     12  C   UNL     1       1.829  -5.340   0.097  1.00  0.00     0.047 C 
BRANCH   9  13
ATOM     13  C   UNL     1       2.367  -1.989   1.232  1.00  0.00     0.149 C 
BRANCH  13  14
ATOM     14  N   UNL     1       3.014  -0.769   0.806  1.00  0.00    -0.336 N 
ATOM     15  O   UNL     1       1.162   0.119  -0.180  1.00  0.00    -0.249 OA
ATOM     16  C   UNL     1       2.366   0.152   0.055  1.00  0.00     0.314 C 
ATOM     17  N   UNL     1       3.113   1.139  -0.483  1.00  0.00    -0.338 N 
ATOM     18  H   UNL     1       2.593   1.865  -0.898  1.00  0.00     0.165 HD
ATOM     19  H   UNL     1       3.948  -0.604   1.068  1.00  0.00     0.165 HD
BRANCH  17  20
ATOM     20  C   UNL     1       4.555   1.312  -0.553  1.00  0.00     0.123 C 
BRANCH  20  21
ATOM     21  C   UNL     1       5.022   1.248  -2.018  1.00  0.00     0.036 C 
ATOM     22  C   UNL     1       5.866   0.018  -2.304  1.00  0.00     0.036 C 
ATOM     23  C   UNL     1       6.025   2.348  -2.318  1.00  0.00     0.165 C 
ATOM     24  C   UNL     1       7.245   0.430  -1.824  1.00  0.00     0.160 C 
ATOM     25  O   UNL     1       7.302   1.863  -1.887  1.00  0.00    -0.381 OA
ENDBRANCH  20  21
ENDBRANCH  17  20
ENDBRANCH  13  14
ENDBRANCH   9  13
ENDBRANCH   6   8
ENDBRANCH   5   6
ENDBRANCH   4   5
ENDBRANCH   3   4
ENDBRANCH   2   3
ENDBRANCH   1   2
BRANCH   1  26
ATOM     26  C   UNL     1       0.429  -8.273   1.839  1.00  0.00     0.188 C 
BRANCH  26  27
ATOM     27  O   UNL     1      -0.691  -7.409   1.849  1.00  0.00    -0.376 OA
BRANCH  27  28
ATOM     28  C   UNL     1      -1.879  -7.766   1.151  1.00  0.00     0.202 C 
BRANCH  28  29
ATOM     29  C   UNL     1      -2.469  -9.185   1.314  1.00  0.00     0.261 C 
BRANCH  29  30
ATOM     30  O   UNL     1      -1.606 -10.297   1.011  1.00  0.00    -0.460 OA
BRANCH  30  31
ATOM     31  C   UNL     1      -0.994 -10.308  -0.197  1.00  0.00     0.338 C 
ATOM     32  O   UNL     1      -1.272  -9.600  -1.152  1.00  0.00    -0.246 OA
BRANCH  31  33
ATOM     33  C   UNL     1       0.260 -11.102  -0.071  1.00  0.00     0.060 A 
ATOM     34  C   UNL     1       1.443 -10.549  -0.586  1.00  0.00     0.016 A 
ATOM     35  C   UNL     1       0.308 -12.314   0.626  1.00  0.00     0.016 A 
ATOM     36  C   UNL     1       2.661 -11.222  -0.445  1.00  0.00     0.010 A 
ATOM     37  C   UNL     1       1.527 -12.995   0.751  1.00  0.00     0.010 A 
ATOM     38  C   UNL     1       2.704 -12.472   0.186  1.00  0.00    -0.014 A 
BRANCH  38  39
ATOM     39  C   UNL     1       3.917 -13.325   0.068  1.00  0.00     0.031 A 
ATOM     40  C   UNL     1       3.922 -14.402  -0.987  1.00  0.00     0.074 A 
ATOM     41  C   UNL     1       4.987 -13.175   0.872  1.00  0.00     0.049 A 
ATOM     42  N   UNL     1       4.826 -15.310  -1.244  1.00  0.00    -0.248 NA
ATOM     43  C   UNL     1       2.743 -14.461  -1.869  1.00  0.00     0.031 C 
ATOM     44  C   UNL     1       5.125 -12.174   1.927  1.00  0.00     0.029 A 
ATOM     45  N   UNL     1       6.157 -13.898   0.941  1.00  0.00    -0.354 N 
ATOM     46  C   UNL     1       4.310 -16.073  -2.285  1.00  0.00     0.074 A 
ATOM     47  C   UNL     1       3.015 -15.521  -2.616  1.00  0.00     0.031 C 
ATOM     48  C   UNL     1       6.293 -12.371   2.566  1.00  0.00     0.029 A 
ATOM     49  C   UNL     1       6.974 -13.528   1.986  1.00  0.00     0.049 A 
ATOM     50  H   UNL     1       6.387 -14.612   0.304  1.00  0.00     0.167 HD
ATOM     51  C   UNL     1       4.864 -17.133  -2.917  1.00  0.00     0.034 A 
ATOM     52  C   UNL     1       8.118 -14.081   2.441  1.00  0.00     0.034 A 
ATOM     53  C   UNL     1       6.160 -17.673  -2.613  1.00  0.00     0.049 A 
ATOM     54  C   UNL     1       8.703 -15.279   1.729  1.00  0.00     0.074 A 
ATOM     55  C   UNL     1       6.825 -18.709  -3.244  1.00  0.00     0.029 A 
ATOM     56  N   UNL     1       6.977 -17.238  -1.584  1.00  0.00    -0.354 N 
ATOM     57  N   UNL     1       8.263 -15.907   0.666  1.00  0.00    -0.248 NA
ATOM     58  C   UNL     1       9.962 -15.826   2.263  1.00  0.00     0.031 C 
ATOM     59  C   UNL     1       8.030 -18.927  -2.571  1.00  0.00     0.029 A 
ATOM     60  C   UNL     1       8.134 -17.996  -1.550  1.00  0.00     0.049 A 
ATOM     61  H   UNL     1       6.767 -16.499  -0.968  1.00  0.00     0.167 HD
ATOM     62  C   UNL     1       9.208 -16.889   0.382  1.00  0.00     0.074 A 
ATOM     63  C   UNL     1      10.255 -16.762   1.371  1.00  0.00     0.031 C 
ATOM     64  C   UNL     1       9.203 -17.822  -0.602  1.00  0.00     0.034 A 
BRANCH  51  65
ATOM     65  C   UNL     1       4.075 -17.788  -4.020  1.00  0.00     0.023 A 
ATOM     66  C   UNL     1       3.948 -17.147  -5.268  1.00  0.00     0.012 A 
ATOM     67  C   UNL     1       3.540 -19.078  -3.842  1.00  0.00     0.148 A 
ATOM     68  C   UNL     1       3.282 -17.776  -6.319  1.00  0.00     0.002 A 
ATOM     69  C   UNL     1       2.920 -19.716  -4.908  1.00  0.00     0.091 A 
ATOM     70  F   UNL     1       3.655 -19.657  -2.638  1.00  0.00    -0.205 F 
ATOM     71  C   UNL     1       2.781 -19.063  -6.144  1.00  0.00     0.022 A 
BRANCH  69  72
ATOM     72  S   UNL     1       2.316 -21.405  -4.809  1.00  0.00     0.127 S 
ATOM     73  O   UNL     1       0.873 -21.210  -4.943  1.00  0.00    -0.237 OA
ATOM     74  O   UNL     1       2.958 -22.026  -5.967  1.00  0.00    -0.237 OA
ATOM     75  O   UNL     1       2.755 -21.916  -3.518  1.00  0.00    -0.744 OA
ENDBRANCH  69  72
ENDBRANCH  51  65
BRANCH  52  76
ATOM     76  C   UNL     1       8.806 -13.520   3.642  1.00  0.00     0.023 A 
ATOM     77  C   UNL     1      10.076 -12.925   3.511  1.00  0.00     0.012 A 
ATOM     78  C   UNL     1       8.222 -13.610   4.921  1.00  0.00     0.148 A 
ATOM     79  C   UNL     1      10.771 -12.472   4.634  1.00  0.00     0.002 A 
ATOM     80  C   UNL     1       8.893 -13.102   6.027  1.00  0.00     0.091 A 
ATOM     81  F   UNL     1       7.024 -14.201   5.032  1.00  0.00    -0.205 F 
ATOM     82  C   UNL     1      10.176 -12.552   5.890  1.00  0.00     0.022 A 
BRANCH  80  83
ATOM     83  S   UNL     1       8.150 -13.055   7.662  1.00  0.00     0.127 S 
ATOM     84  O   UNL     1       8.914 -14.079   8.368  1.00  0.00    -0.237 OA
ATOM     85  O   UNL     1       8.428 -11.680   8.079  1.00  0.00    -0.237 OA
ATOM     86  O   UNL     1       6.737 -13.345   7.458  1.00  0.00    -0.744 OA
ENDBRANCH  80  83
ENDBRANCH  52  76
BRANCH  64  87
ATOM     87  C   UNL     1      10.388 -18.749  -0.711  1.00  0.00     0.023 A 
ATOM     88  C   UNL     1      10.586 -19.762   0.248  1.00  0.00     0.012 A 
ATOM     89  C   UNL     1      11.258 -18.666  -1.817  1.00  0.00     0.148 A 
ATOM     90  C   UNL     1      11.652 -20.654   0.127  1.00  0.00     0.002 A 
ATOM     91  C   UNL     1      12.286 -19.591  -1.959  1.00  0.00     0.091 A 
ATOM     92  F   UNL     1      11.062 -17.688  -2.713  1.00  0.00    -0.205 F 
ATOM     93  C   UNL     1      12.493 -20.576  -0.981  1.00  0.00     0.022 A 
BRANCH  91  94
ATOM     94  S   UNL     1      13.355 -19.631  -3.402  1.00  0.00     0.127 S 
ATOM     95  O   UNL     1      14.624 -19.163  -2.846  1.00  0.00    -0.237 OA
ATOM     96  O   UNL     1      13.334 -21.048  -3.765  1.00  0.00    -0.237 OA
ATOM     97  O   UNL     1      12.741 -18.746  -4.383  1.00  0.00    -0.744 OA
ENDBRANCH  91  94
ENDBRANCH  64  87
ENDBRANCH  38  39
ENDBRANCH  31  33
ENDBRANCH  30  31
ENDBRANCH  29  30
ENDBRANCH  28  29
ENDBRANCH  27  28
ENDBRANCH  26  27
ENDBRANCH   1  26
TORSDOF 24
