REMARK SMILES Cc1nc(NC(=O)[C@@H]2CCC[C@@H](C(=O)OCCOCCOCCOC(=O)c3ccc(-c4c5nc(c(-c6cccc(S(=O)(=O)[O-])c6F)c6ccc([nH]6)c(-c6cccc(S(=O)(=O)[O-])c6F)c6nc(c(-c7cccc(S(=O)(=O)[O-])c7F)c7ccc4[nH]7)C=C6)C=C5)cc3)C2)ccc1Br
REMARK SMILES IDX 20 1 19 2 18 3 17 4 16 5 15 6 13 7 14 8 12 9 8 10 9 11 90 12
REMARK SMILES IDX 10 13 11 14 6 15 5 16 7 18 4 19 1 20 2 21 3 22 93 23 92 24
REMARK SMILES IDX 94 25 91 26 21 27 22 28 23 29 24 30 25 31 26 32 27 33 28 34
REMARK SMILES IDX 89 35 29 36 88 37 30 38 31 39 32 40 82 41 33 42 87 43 81 44
REMARK SMILES IDX 83 45 34 46 86 47 80 48 79 49 35 51 67 52 47 53 66 54 48 55
REMARK SMILES IDX 51 56 65 57 84 58 49 59 50 60 64 62 85 63 52 64 36 65 37 66
REMARK SMILES IDX 45 67 38 68 40 69 46 70 39 71 41 72 42 73 43 74 44 75 68 76
REMARK SMILES IDX 69 77 77 78 70 79 72 80 78 81 71 82 73 83 74 84 75 85 76 86
REMARK SMILES IDX 53 87 54 88 62 89 55 90 57 91 63 92 56 93 58 94 59 95 60 96
REMARK SMILES IDX 61 97
REMARK H PARENT 5 17 83 50 51 61
REMARK Flexibility Score: inf
ROOT
ATOM      1  C   UNL     1       1.966   7.690  -0.975  1.00  0.00     0.188 C 
ENDROOT
BRANCH   1   2
ATOM      2  C   UNL     1       2.081   7.347  -2.471  1.00  0.00     0.188 C 
BRANCH   2   3
ATOM      3  O   UNL     1       2.831   8.248  -3.279  1.00  0.00    -0.376 OA
BRANCH   3   4
ATOM      4  C   UNL     1       2.553   9.635  -3.140  1.00  0.00     0.202 C 
BRANCH   4   5
ATOM      5  C   UNL     1       1.192  10.053  -3.690  1.00  0.00     0.261 C 
BRANCH   5   6
ATOM      6  O   UNL     1       0.127   9.564  -2.850  1.00  0.00    -0.463 OA
BRANCH   6   7
ATOM      7  C   UNL     1      -0.887   8.923  -3.484  1.00  0.00     0.309 C 
ATOM      8  O   UNL     1      -0.929   8.724  -4.692  1.00  0.00    -0.252 OA
BRANCH   7   9
ATOM      9  C   UNL     1      -1.998   8.454  -2.546  1.00  0.00     0.100 C 
ATOM     10  C   UNL     1      -1.883   6.146  -1.336  1.00  0.00     0.080 C 
ATOM     11  C   UNL     1      -2.668   6.824  -0.222  1.00  0.00     0.013 C 
ATOM     12  C   UNL     1      -2.164   6.918  -2.637  1.00  0.00     0.028 C 
ATOM     13  C   UNL     1      -1.984   8.147   0.065  1.00  0.00     0.002 C 
ATOM     14  C   UNL     1      -2.032   9.089  -1.136  1.00  0.00     0.015 C 
BRANCH  10  15
ATOM     15  C   UNL     1      -2.272   4.683  -1.433  1.00  0.00     0.228 C 
ATOM     16  N   UNL     1      -1.713   3.733  -0.638  1.00  0.00    -0.310 N 
ATOM     17  H   UNL     1      -2.041   2.835  -0.873  1.00  0.00     0.171 HD
ATOM     18  O   UNL     1      -3.094   4.312  -2.276  1.00  0.00    -0.274 OA
BRANCH  16  19
ATOM     19  C   UNL     1      -0.803   3.679   0.421  1.00  0.00     0.132 A 
ATOM     20  C   UNL     1       1.104   0.770   1.693  1.00  0.00     0.068 C 
ATOM     21  C   UNL     1       0.580   2.178   1.617  1.00  0.00     0.054 A 
ATOM     22  N   UNL     1      -0.347   2.433   0.654  1.00  0.00    -0.235 NA
ATOM     23  C   UNL     1       1.013   3.182   2.461  1.00  0.00     0.039 A 
ATOM     24  C   UNL     1       0.535   4.470   2.238  1.00  0.00     0.021 A 
ATOM     25  Br  UNL     1       2.213   2.886   3.889  1.00  0.00    -0.049 Br
ATOM     26  C   UNL     1      -0.358   4.728   1.191  1.00  0.00     0.048 A 
ENDBRANCH  16  19
ENDBRANCH  10  15
ENDBRANCH   7   9
ENDBRANCH   6   7
ENDBRANCH   5   6
ENDBRANCH   4   5
ENDBRANCH   3   4
ENDBRANCH   2   3
ENDBRANCH   1   2
BRANCH   1  27
ATOM     27  O   UNL     1       3.141   8.196  -0.345  1.00  0.00    -0.376 OA
BRANCH  27  28
ATOM     28  C   UNL     1       4.340   7.449  -0.551  1.00  0.00     0.202 C 
BRANCH  28  29
ATOM     29  C   UNL     1       4.297   6.041   0.041  1.00  0.00     0.261 C 
BRANCH  29  30
ATOM     30  O   UNL     1       3.519   5.160  -0.793  1.00  0.00    -0.460 OA
BRANCH  30  31
ATOM     31  C   UNL     1       3.527   3.871  -0.369  1.00  0.00     0.338 C 
ATOM     32  O   UNL     1       4.132   3.463   0.608  1.00  0.00    -0.246 OA
BRANCH  31  33
ATOM     33  C   UNL     1       2.678   2.993  -1.220  1.00  0.00     0.060 A 
ATOM     34  C   UNL     1       1.572   3.460  -1.936  1.00  0.00     0.016 A 
ATOM     35  C   UNL     1       2.929   1.617  -1.180  1.00  0.00     0.016 A 
ATOM     36  C   UNL     1       0.671   2.547  -2.510  1.00  0.00     0.010 A 
ATOM     37  C   UNL     1       2.033   0.711  -1.763  1.00  0.00     0.010 A 
ATOM     38  C   UNL     1       0.862   1.161  -2.386  1.00  0.00    -0.014 A 
BRANCH  38  39
ATOM     39  C   UNL     1      -0.128   0.169  -2.891  1.00  0.00     0.031 A 
ATOM     40  C   UNL     1      -0.863  -0.756  -1.963  1.00  0.00     0.074 A 
ATOM     41  C   UNL     1      -0.416   0.073  -4.196  1.00  0.00     0.049 A 
ATOM     42  N   UNL     1      -1.219  -2.005  -2.094  1.00  0.00    -0.248 NA
ATOM     43  C   UNL     1      -1.268  -0.177  -0.691  1.00  0.00     0.031 C 
ATOM     44  C   UNL     1       0.089   0.947  -5.247  1.00  0.00     0.029 A 
ATOM     45  N   UNL     1      -1.210  -0.835  -4.844  1.00  0.00    -0.354 N 
ATOM     46  C   UNL     1      -1.724  -2.384  -0.848  1.00  0.00     0.074 A 
ATOM     47  C   UNL     1      -1.659  -1.229   0.010  1.00  0.00     0.031 C 
ATOM     48  C   UNL     1      -0.405   0.531  -6.423  1.00  0.00     0.029 A 
ATOM     49  C   UNL     1      -1.177  -0.691  -6.205  1.00  0.00     0.049 A 
ATOM     50  H   UNL     1      -1.746  -1.519  -4.381  1.00  0.00     0.167 HD
ATOM     51  C   UNL     1      -2.279  -3.561  -0.478  1.00  0.00     0.034 A 
ATOM     52  C   UNL     1      -1.658  -1.498  -7.168  1.00  0.00     0.034 A 
ATOM     53  C   UNL     1      -2.729  -4.526  -1.439  1.00  0.00     0.049 A 
ATOM     54  C   UNL     1      -2.352  -2.772  -6.782  1.00  0.00     0.074 A 
ATOM     55  C   UNL     1      -3.377  -5.727  -1.221  1.00  0.00     0.029 A 
ATOM     56  N   UNL     1      -2.715  -4.310  -2.807  1.00  0.00    -0.354 N 
ATOM     57  N   UNL     1      -2.559  -3.267  -5.584  1.00  0.00    -0.248 NA
ATOM     58  C   UNL     1      -2.878  -3.598  -7.875  1.00  0.00     0.031 C 
ATOM     59  C   UNL     1      -3.832  -6.194  -2.459  1.00  0.00     0.029 A 
ATOM     60  C   UNL     1      -3.425  -5.305  -3.444  1.00  0.00     0.049 A 
ATOM     61  H   UNL     1      -2.265  -3.559  -3.257  1.00  0.00     0.167 HD
ATOM     62  C   UNL     1      -3.247  -4.459  -5.777  1.00  0.00     0.074 A 
ATOM     63  C   UNL     1      -3.437  -4.601  -7.207  1.00  0.00     0.031 C 
ATOM     64  C   UNL     1      -3.658  -5.370  -4.862  1.00  0.00     0.034 A 
BRANCH  51  65
ATOM     65  C   UNL     1      -2.564  -3.824   0.979  1.00  0.00     0.023 A 
ATOM     66  C   UNL     1      -3.686  -3.244   1.601  1.00  0.00     0.012 A 
ATOM     67  C   UNL     1      -1.774  -4.744   1.702  1.00  0.00     0.148 A 
ATOM     68  C   UNL     1      -4.002  -3.550   2.926  1.00  0.00     0.002 A 
ATOM     69  C   UNL     1      -2.120  -5.077   3.009  1.00  0.00     0.091 A 
ATOM     70  F   UNL     1      -0.708  -5.285   1.095  1.00  0.00    -0.205 F 
ATOM     71  C   UNL     1      -3.227  -4.473   3.625  1.00  0.00     0.022 A 
BRANCH  69  72
ATOM     72  S   UNL     1      -1.242  -6.322   3.965  1.00  0.00     0.127 S 
ATOM     73  O   UNL     1      -0.628  -5.511   5.016  1.00  0.00    -0.237 OA
ATOM     74  O   UNL     1      -2.333  -7.185   4.421  1.00  0.00    -0.237 OA
ATOM     75  O   UNL     1      -0.309  -6.956   3.044  1.00  0.00    -0.744 OA
ENDBRANCH  69  72
ENDBRANCH  51  65
BRANCH  52  76
ATOM     76  C   UNL     1      -1.462  -1.082  -8.578  1.00  0.00     0.023 A 
ATOM     77  C   UNL     1      -2.532  -0.498  -9.277  1.00  0.00     0.012 A 
ATOM     78  C   UNL     1      -0.175  -1.090  -9.153  1.00  0.00     0.148 A 
ATOM     79  C   UNL     1      -2.320   0.088 -10.525  1.00  0.00     0.002 A 
ATOM     80  C   UNL     1       0.039  -0.453 -10.368  1.00  0.00     0.091 A 
ATOM     81  F   UNL     1       0.823  -1.664  -8.466  1.00  0.00    -0.205 F 
ATOM     82  C   UNL     1      -1.034   0.130 -11.059  1.00  0.00     0.022 A 
BRANCH  80  83
ATOM     83  S   UNL     1       1.690  -0.203 -11.033  1.00  0.00     0.127 S 
ATOM     84  O   UNL     1       1.717  -1.164 -12.132  1.00  0.00    -0.237 OA
ATOM     85  O   UNL     1       1.646   1.201 -11.442  1.00  0.00    -0.237 OA
ATOM     86  O   UNL     1       2.602  -0.474  -9.929  1.00  0.00    -0.744 OA
ENDBRANCH  80  83
ENDBRANCH  52  76
BRANCH  64  87
ATOM     87  C   UNL     1      -4.375  -6.590  -5.357  1.00  0.00     0.023 A 
ATOM     88  C   UNL     1      -3.613  -7.702  -5.757  1.00  0.00     0.012 A 
ATOM     89  C   UNL     1      -5.777  -6.687  -5.280  1.00  0.00     0.148 A 
ATOM     90  C   UNL     1      -4.239  -8.903  -6.077  1.00  0.00     0.002 A 
ATOM     91  C   UNL     1      -6.393  -7.895  -5.578  1.00  0.00     0.091 A 
ATOM     92  F   UNL     1      -6.473  -5.606  -4.899  1.00  0.00    -0.205 F 
ATOM     93  C   UNL     1      -5.625  -9.003  -5.977  1.00  0.00     0.022 A 
BRANCH  91  94
ATOM     94  S   UNL     1      -8.164  -8.144  -5.411  1.00  0.00     0.127 S 
ATOM     95  O   UNL     1      -8.581  -8.252  -6.808  1.00  0.00    -0.237 OA
ATOM     96  O   UNL     1      -8.232  -9.395  -4.655  1.00  0.00    -0.237 OA
ATOM     97  O   UNL     1      -8.669  -6.978  -4.698  1.00  0.00    -0.744 OA
ENDBRANCH  91  94
ENDBRANCH  64  87
ENDBRANCH  38  39
ENDBRANCH  31  33
ENDBRANCH  30  31
ENDBRANCH  29  30
ENDBRANCH  28  29
ENDBRANCH  27  28
ENDBRANCH   1  27
TORSDOF 22
