REMARK SMILES Cc1ccc(C#N)cc1Nc1cc(C)c(N)c(C(=O)OCCOCCOCCOC(=O)c2ccc(-c3c4nc(c(-c5cccc(S(=O)(=O)[O-])c5F)c5ccc([nH]5)c(-c5cccc(S(=O)(=O)[O-])c5F)c5nc(c(-c6cccc(S(=O)(=O)[O-])c6F)c6ccc3[nH]6)C=C5)C=C4)cc2)c1
REMARK SMILES IDX 24 1 23 2 22 3 21 4 20 5 18 6 19 7 17 8 11 9 12 10 95 11
REMARK SMILES IDX 13 12 14 13 15 14 10 15 9 17 1 18 2 19 3 20 4 21 8 22 5 23
REMARK SMILES IDX 6 24 7 25 16 26 25 29 26 30 27 31 28 32 29 33 30 34 31 35
REMARK SMILES IDX 32 36 33 37 94 38 34 39 93 40 35 41 36 42 37 43 87 44 38 45
REMARK SMILES IDX 92 46 86 47 88 48 39 49 91 50 85 51 84 52 40 54 72 55 52 56
REMARK SMILES IDX 71 57 53 58 56 59 70 60 89 61 54 62 55 63 69 65 90 66 57 67
REMARK SMILES IDX 41 68 42 69 50 70 43 71 45 72 51 73 44 74 46 75 47 76 48 77
REMARK SMILES IDX 49 78 73 79 74 80 82 81 75 82 77 83 83 84 76 85 78 86 79 87
REMARK SMILES IDX 80 88 81 89 58 90 59 91 67 92 60 93 62 94 68 95 61 96 63 97
REMARK SMILES IDX 64 98 65 99 66 100
REMARK H PARENT 10 16 16 27 16 28 88 53 56 64
REMARK Flexibility Score: inf
ROOT
ATOM      1  C   UNL     1      -4.456   2.318  -7.037  1.00  0.00     0.188 C 
ENDROOT
BRANCH   1   2
ATOM      2  O   UNL     1      -5.705   1.696  -7.234  1.00  0.00    -0.376 OA
BRANCH   2   3
ATOM      3  C   UNL     1      -5.762   0.285  -7.343  1.00  0.00     0.202 C 
BRANCH   3   4
ATOM      4  C   UNL     1      -4.763  -0.693  -6.686  1.00  0.00     0.261 C 
BRANCH   4   5
ATOM      5  O   UNL     1      -3.593  -0.155  -6.062  1.00  0.00    -0.460 OA
BRANCH   5   6
ATOM      6  C   UNL     1      -2.459  -0.130  -6.811  1.00  0.00     0.340 C 
ATOM      7  O   UNL     1      -2.349  -0.542  -7.954  1.00  0.00    -0.246 OA
BRANCH   6   8
ATOM      8  C   UNL     1      -1.408   0.650  -6.099  1.00  0.00     0.085 A 
ATOM      9  C   UNL     1      -0.173   1.037  -4.040  1.00  0.00     0.040 A 
ATOM     10  C   UNL     1       0.585   1.998  -4.712  1.00  0.00     0.031 A 
ATOM     11  C   UNL     1      -1.207   0.408  -4.734  1.00  0.00     0.044 A 
ATOM     12  C   UNL     1       0.354   2.313  -6.067  1.00  0.00    -0.025 A 
ATOM     13  C   UNL     1       1.294   3.309  -6.699  1.00  0.00     0.047 C 
ATOM     14  C   UNL     1      -0.627   1.605  -6.792  1.00  0.00     0.049 A 
BRANCH   9  15
ATOM     15  N   UNL     1       0.238   0.601  -2.764  1.00  0.00    -0.355 N 
ATOM     16  H   UNL     1       0.436   1.310  -2.111  1.00  0.00     0.167 HD
BRANCH  15  17
ATOM     17  C   UNL     1       0.403  -0.725  -2.305  1.00  0.00     0.043 A 
ATOM     18  C   UNL     1       0.885   0.057   0.085  1.00  0.00     0.046 C 
ATOM     19  C   UNL     1       0.639  -1.013  -0.946  1.00  0.00    -0.027 A 
ATOM     20  C   UNL     1       0.746  -2.357  -0.532  1.00  0.00     0.007 A 
ATOM     21  C   UNL     1       0.598  -3.409  -1.438  1.00  0.00     0.020 A 
ATOM     22  C   UNL     1       0.289  -1.807  -3.200  1.00  0.00     0.045 A 
ATOM     23  C   UNL     1       0.371  -3.134  -2.780  1.00  0.00     0.054 A 
BRANCH  23  24
ATOM     24  C   UNL     1       0.226  -4.188  -3.736  1.00  0.00     0.099 C 
ATOM     25  N   UNL     1       0.099  -5.047  -4.511  1.00  0.00    -0.192 NA
ENDBRANCH  23  24
ENDBRANCH  15  17
ENDBRANCH   9  15
BRANCH  14  26
ATOM     26  N   UNL     1      -0.959   1.983  -8.098  1.00  0.00    -0.398 N 
ATOM     27  H   UNL     1      -0.410   2.649  -8.572  1.00  0.00     0.156 HD
ATOM     28  H   UNL     1      -1.741   1.583  -8.543  1.00  0.00     0.156 HD
ENDBRANCH  14  26
ENDBRANCH   6   8
ENDBRANCH   5   6
ENDBRANCH   4   5
ENDBRANCH   3   4
ENDBRANCH   2   3
ENDBRANCH   1   2
BRANCH   1  29
ATOM     29  C   UNL     1      -4.154   2.647  -5.558  1.00  0.00     0.188 C 
BRANCH  29  30
ATOM     30  O   UNL     1      -5.020   2.168  -4.541  1.00  0.00    -0.376 OA
BRANCH  30  31
ATOM     31  C   UNL     1      -6.411   2.432  -4.648  1.00  0.00     0.202 C 
BRANCH  31  32
ATOM     32  C   UNL     1      -6.960   3.792  -5.131  1.00  0.00     0.261 C 
BRANCH  32  33
ATOM     33  O   UNL     1      -6.271   4.446  -6.208  1.00  0.00    -0.460 OA
BRANCH  33  34
ATOM     34  C   UNL     1      -5.496   5.514  -5.879  1.00  0.00     0.338 C 
ATOM     35  O   UNL     1      -5.323   5.983  -4.768  1.00  0.00    -0.246 OA
BRANCH  34  36
ATOM     36  C   UNL     1      -4.741   5.920  -7.087  1.00  0.00     0.060 A 
ATOM     37  C   UNL     1      -5.425   6.450  -8.179  1.00  0.00     0.016 A 
ATOM     38  C   UNL     1      -3.352   5.726  -7.148  1.00  0.00     0.016 A 
ATOM     39  C   UNL     1      -4.718   6.777  -9.338  1.00  0.00     0.010 A 
ATOM     40  C   UNL     1      -2.651   6.032  -8.319  1.00  0.00     0.010 A 
ATOM     41  C   UNL     1      -3.328   6.570  -9.421  1.00  0.00    -0.014 A 
BRANCH  41  42
ATOM     42  C   UNL     1      -2.584   7.048 -10.614  1.00  0.00     0.031 A 
ATOM     43  C   UNL     1      -2.067   6.108 -11.663  1.00  0.00     0.074 A 
ATOM     44  C   UNL     1      -2.378   8.373 -10.743  1.00  0.00     0.049 A 
ATOM     45  N   UNL     1      -1.478   6.397 -12.796  1.00  0.00    -0.248 NA
ATOM     46  C   UNL     1      -2.228   4.667 -11.420  1.00  0.00     0.031 C 
ATOM     47  C   UNL     1      -2.804   9.383  -9.774  1.00  0.00     0.029 A 
ATOM     48  N   UNL     1      -1.769   9.096 -11.737  1.00  0.00    -0.354 N 
ATOM     49  C   UNL     1      -1.185   5.181 -13.399  1.00  0.00     0.074 A 
ATOM     50  C   UNL     1      -1.656   4.146 -12.501  1.00  0.00     0.031 C 
ATOM     51  C   UNL     1      -2.466  10.597 -10.231  1.00  0.00     0.029 A 
ATOM     52  C   UNL     1      -1.774  10.451 -11.508  1.00  0.00     0.049 A 
ATOM     53  H   UNL     1      -1.367   8.685 -12.536  1.00  0.00     0.167 HD
ATOM     54  C   UNL     1      -0.589   4.955 -14.595  1.00  0.00     0.034 A 
ATOM     55  C   UNL     1      -1.281  11.470 -12.239  1.00  0.00     0.034 A 
ATOM     56  C   UNL     1      -0.133   5.986 -15.492  1.00  0.00     0.049 A 
ATOM     57  C   UNL     1      -0.617  11.188 -13.554  1.00  0.00     0.074 A 
ATOM     58  C   UNL     1       0.419   5.837 -16.754  1.00  0.00     0.029 A 
ATOM     59  N   UNL     1      -0.147   7.344 -15.223  1.00  0.00    -0.354 N 
ATOM     60  N   UNL     1      -0.456  10.038 -14.161  1.00  0.00    -0.248 NA
ATOM     61  C   UNL     1      -0.087  12.341 -14.296  1.00  0.00     0.031 C 
ATOM     62  C   UNL     1       0.780   7.101 -17.228  1.00  0.00     0.029 A 
ATOM     63  C   UNL     1       0.413   8.042 -16.281  1.00  0.00     0.049 A 
ATOM     64  H   UNL     1      -0.501   7.754 -14.400  1.00  0.00     0.167 HD
ATOM     65  C   UNL     1       0.175  10.328 -15.364  1.00  0.00     0.074 A 
ATOM     66  C   UNL     1       0.355  11.764 -15.407  1.00  0.00     0.031 C 
ATOM     67  C   UNL     1       0.573   9.473 -16.336  1.00  0.00     0.034 A 
BRANCH  54  68
ATOM     68  C   UNL     1      -0.401   3.530 -15.043  1.00  0.00     0.023 A 
ATOM     69  C   UNL     1      -1.496   2.813 -15.563  1.00  0.00     0.012 A 
ATOM     70  C   UNL     1       0.885   2.956 -15.079  1.00  0.00     0.148 A 
ATOM     71  C   UNL     1      -1.313   1.543 -16.111  1.00  0.00     0.002 A 
ATOM     72  C   UNL     1       1.064   1.702 -15.650  1.00  0.00     0.091 A 
ATOM     73  F   UNL     1       1.910   3.659 -14.575  1.00  0.00    -0.205 F 
ATOM     74  C   UNL     1      -0.034   0.994 -16.165  1.00  0.00     0.022 A 
BRANCH  72  75
ATOM     75  S   UNL     1       2.676   0.925 -15.805  1.00  0.00     0.127 S 
ATOM     76  O   UNL     1       2.517  -0.252 -14.951  1.00  0.00    -0.237 OA
ATOM     77  O   UNL     1       2.741   0.636 -17.237  1.00  0.00    -0.237 OA
ATOM     78  O   UNL     1       3.645   1.903 -15.330  1.00  0.00    -0.744 OA
ENDBRANCH  72  75
ENDBRANCH  54  68
BRANCH  55  79
ATOM     79  C   UNL     1      -1.465  12.860 -11.746  1.00  0.00     0.023 A 
ATOM     80  C   UNL     1      -2.452  13.673 -12.332  1.00  0.00     0.012 A 
ATOM     81  C   UNL     1      -0.734  13.339 -10.642  1.00  0.00     0.148 A 
ATOM     82  C   UNL     1      -2.715  14.944 -11.821  1.00  0.00     0.002 A 
ATOM     83  C   UNL     1      -1.022  14.592 -10.119  1.00  0.00     0.091 A 
ATOM     84  F   UNL     1       0.194  12.537 -10.103  1.00  0.00    -0.205 F 
ATOM     85  C   UNL     1      -2.009  15.398 -10.709  1.00  0.00     0.022 A 
BRANCH  83  86
ATOM     86  S   UNL     1      -0.220  15.236  -8.648  1.00  0.00     0.127 S 
ATOM     87  O   UNL     1       0.411  16.451  -9.161  1.00  0.00    -0.237 OA
ATOM     88  O   UNL     1      -1.361  15.461  -7.762  1.00  0.00    -0.237 OA
ATOM     89  O   UNL     1       0.701  14.198  -8.208  1.00  0.00    -0.744 OA
ENDBRANCH  83  86
ENDBRANCH  55  79
BRANCH  67  90
ATOM     90  C   UNL     1       1.246  10.049 -17.554  1.00  0.00     0.023 A 
ATOM     91  C   UNL     1       2.581  10.489 -17.470  1.00  0.00     0.012 A 
ATOM     92  C   UNL     1       0.591  10.055 -18.802  1.00  0.00     0.148 A 
ATOM     93  C   UNL     1       3.250  10.940 -18.608  1.00  0.00     0.002 A 
ATOM     94  C   UNL     1       1.273  10.476 -19.937  1.00  0.00     0.091 A 
ATOM     95  F   UNL     1      -0.681   9.634 -18.856  1.00  0.00    -0.205 F 
ATOM     96  C   UNL     1       2.602  10.923 -19.841  1.00  0.00     0.022 A 
BRANCH  94  97
ATOM     97  S   UNL     1       0.541  10.447 -21.577  1.00  0.00     0.127 S 
ATOM     98  O   UNL     1       0.471  11.873 -21.895  1.00  0.00    -0.237 OA
ATOM     99  O   UNL     1       1.535   9.699 -22.346  1.00  0.00    -0.237 OA
ATOM    100  O   UNL     1      -0.747   9.783 -21.435  1.00  0.00    -0.744 OA
ENDBRANCH  94  97
ENDBRANCH  67  90
ENDBRANCH  41  42
ENDBRANCH  34  36
ENDBRANCH  33  34
ENDBRANCH  32  33
ENDBRANCH  31  32
ENDBRANCH  30  31
ENDBRANCH  29  30
ENDBRANCH   1  29
TORSDOF 24
