REMARK SMILES CC(C)(C)c1cc(NC(=O)CSC[C@H]([NH3+])C(=O)OCCOCCOCCOC(=O)c2ccc(-c3c4nc(c(-c5cccc(S(=O)(=O)[O-])c5F)c5ccc([nH]5)c(-c5cccc(S(=O)(=O)[O-])c5F)c5nc(c(-c6cccc(S(=O)(=O)[O-])c6F)c6ccc3[nH]6)C=C5)C=C4)cc2)on1
REMARK SMILES IDX 21 1 20 2 19 3 18 4 16 5 17 6 14 7 13 8 12 9 11 10 9 11 8 12
REMARK SMILES IDX 10 14 7 15 5 16 6 17 94 18 93 19 2 20 1 21 3 22 4 23 15 24
REMARK SMILES IDX 22 28 23 29 24 30 25 31 26 32 27 33 28 34 29 35 30 36 31 37
REMARK SMILES IDX 92 38 32 39 91 40 33 41 34 42 35 43 85 44 36 45 90 46 84 47
REMARK SMILES IDX 86 48 37 49 89 50 83 51 82 52 38 54 70 55 50 56 69 57 51 58
REMARK SMILES IDX 54 59 68 60 87 61 52 62 53 63 67 65 88 66 55 67 39 68 40 69
REMARK SMILES IDX 48 70 41 71 43 72 49 73 42 74 44 75 45 76 46 77 47 78 71 79
REMARK SMILES IDX 72 80 80 81 73 82 75 83 81 84 74 85 76 86 77 87 78 88 79 89
REMARK SMILES IDX 56 90 57 91 65 92 58 93 60 94 66 95 59 96 61 97 62 98 63 99
REMARK SMILES IDX 64 100
REMARK H PARENT 8 13 15 25 15 26 15 27 86 53 54 64
REMARK Flexibility Score: inf
ROOT
ATOM      1  O   UNL     1       8.185   7.858   0.107  1.00  0.00    -0.376 OA
ENDROOT
BRANCH   1   2
ATOM      2  C   UNL     1       7.657   9.145  -0.119  1.00  0.00     0.202 C 
BRANCH   2   3
ATOM      3  C   UNL     1       6.300   9.424  -0.790  1.00  0.00     0.261 C 
BRANCH   3   4
ATOM      4  O   UNL     1       5.537   8.386  -1.419  1.00  0.00    -0.459 OA
BRANCH   4   5
ATOM      5  C   UNL     1       5.879   8.107  -2.707  1.00  0.00     0.365 C 
ATOM      6  O   UNL     1       6.881   8.555  -3.250  1.00  0.00    -0.245 OA
BRANCH   5   7
ATOM      7  C   UNL     1       4.894   7.176  -3.430  1.00  0.00     0.301 C 
BRANCH   7   8
ATOM      8  C   UNL     1       4.029   7.983  -4.399  1.00  0.00     0.147 C 
BRANCH   8   9
ATOM      9  S   UNL     1       4.897   8.557  -5.905  1.00  0.00    -0.145 SA
BRANCH   9  10
ATOM     10  C   UNL     1       5.751  10.106  -5.370  1.00  0.00     0.170 C 
BRANCH  10  11
ATOM     11  C   UNL     1       4.992  10.922  -4.330  1.00  0.00     0.236 C 
ATOM     12  N   UNL     1       3.778  11.483  -4.570  1.00  0.00    -0.294 N 
ATOM     13  H   UNL     1       3.287  11.835  -3.793  1.00  0.00     0.173 HD
ATOM     14  O   UNL     1       5.434  11.118  -3.195  1.00  0.00    -0.274 OA
BRANCH  12  15
ATOM     15  C   UNL     1       3.179  11.603  -5.782  1.00  0.00     0.231 A 
ATOM     16  C   UNL     1       1.966  12.071  -7.543  1.00  0.00     0.091 A 
ATOM     17  C   UNL     1       1.976  12.150  -6.128  1.00  0.00     0.097 A 
ATOM     18  N   UNL     1       3.070  11.475  -8.000  1.00  0.00    -0.082 NA
ATOM     19  O   UNL     1       3.825  11.204  -6.898  1.00  0.00    -0.338 OA
BRANCH  16  20
ATOM     20  C   UNL     1       0.956  12.622  -8.505  1.00  0.00     0.008 C 
ATOM     21  C   UNL     1      -0.436  12.053  -8.184  1.00  0.00     0.018 C 
ATOM     22  C   UNL     1       1.310  12.256  -9.963  1.00  0.00     0.018 C 
ATOM     23  C   UNL     1       0.946  14.156  -8.373  1.00  0.00     0.018 C 
ENDBRANCH  16  20
ENDBRANCH  12  15
ENDBRANCH  10  11
ENDBRANCH   9  10
ENDBRANCH   8   9
ENDBRANCH   7   8
BRANCH   7  24
ATOM     24  N   UNL     1       4.058   6.387  -2.489  1.00  0.00    -0.345 N 
ATOM     25  H   UNL     1       3.485   7.021  -1.931  1.00  0.00     0.345 HD
ATOM     26  H   UNL     1       4.661   5.842  -1.874  1.00  0.00     0.345 HD
ATOM     27  H   UNL     1       3.453   5.758  -3.017  1.00  0.00     0.345 HD
ENDBRANCH   7  24
ENDBRANCH   5   7
ENDBRANCH   4   5
ENDBRANCH   3   4
ENDBRANCH   2   3
ENDBRANCH   1   2
BRANCH   1  28
ATOM     28  C   UNL     1       8.076   6.894  -0.913  1.00  0.00     0.188 C 
BRANCH  28  29
ATOM     29  C   UNL     1       6.908   5.918  -0.673  1.00  0.00     0.188 C 
BRANCH  29  30
ATOM     30  O   UNL     1       6.086   6.079   0.475  1.00  0.00    -0.376 OA
BRANCH  30  31
ATOM     31  C   UNL     1       6.727   6.260   1.730  1.00  0.00     0.202 C 
BRANCH  31  32
ATOM     32  C   UNL     1       7.967   5.427   2.141  1.00  0.00     0.261 C 
BRANCH  32  33
ATOM     33  O   UNL     1       8.915   5.073   1.115  1.00  0.00    -0.460 OA
BRANCH  33  34
ATOM     34  C   UNL     1       8.860   3.797   0.643  1.00  0.00     0.338 C 
ATOM     35  O   UNL     1       8.143   2.905   1.049  1.00  0.00    -0.246 OA
BRANCH  34  36
ATOM     36  C   UNL     1       9.645   3.704  -0.621  1.00  0.00     0.060 A 
ATOM     37  C   UNL     1       8.971   3.410  -1.821  1.00  0.00     0.016 A 
ATOM     38  C   UNL     1      11.023   3.910  -0.634  1.00  0.00     0.016 A 
ATOM     39  C   UNL     1       9.667   3.319  -3.029  1.00  0.00     0.010 A 
ATOM     40  C   UNL     1      11.727   3.771  -1.839  1.00  0.00     0.010 A 
ATOM     41  C   UNL     1      11.059   3.451  -3.037  1.00  0.00    -0.014 A 
BRANCH  41  42
ATOM     42  C   UNL     1      11.840   3.051  -4.236  1.00  0.00     0.031 A 
ATOM     43  C   UNL     1      12.429   1.666  -4.267  1.00  0.00     0.074 A 
ATOM     44  C   UNL     1      12.055   3.894  -5.262  1.00  0.00     0.049 A 
ATOM     45  N   UNL     1      13.231   1.122  -5.144  1.00  0.00    -0.248 NA
ATOM     46  C   UNL     1      12.067   0.778  -3.149  1.00  0.00     0.031 C 
ATOM     47  C   UNL     1      11.510   5.244  -5.381  1.00  0.00     0.029 A 
ATOM     48  N   UNL     1      12.823   3.739  -6.391  1.00  0.00    -0.354 N 
ATOM     49  C   UNL     1      13.512  -0.150  -4.660  1.00  0.00     0.074 A 
ATOM     50  C   UNL     1      12.788  -0.300  -3.417  1.00  0.00     0.031 C 
ATOM     51  C   UNL     1      11.991   5.810  -6.503  1.00  0.00     0.029 A 
ATOM     52  C   UNL     1      12.904   4.876  -7.162  1.00  0.00     0.049 A 
ATOM     53  H   UNL     1      13.273   2.896  -6.626  1.00  0.00     0.167 HD
ATOM     54  C   UNL     1      14.303  -1.108  -5.199  1.00  0.00     0.034 A 
ATOM     55  C   UNL     1      13.653   5.142  -8.252  1.00  0.00     0.034 A 
ATOM     56  C   UNL     1      15.010  -0.966  -6.442  1.00  0.00     0.049 A 
ATOM     57  C   UNL     1      14.567   4.074  -8.805  1.00  0.00     0.074 A 
ATOM     58  C   UNL     1      15.785  -1.904  -7.100  1.00  0.00     0.029 A 
ATOM     59  N   UNL     1      15.052   0.192  -7.202  1.00  0.00    -0.354 N 
ATOM     60  N   UNL     1      14.737   2.838  -8.401  1.00  0.00    -0.248 NA
ATOM     61  C   UNL     1      15.376   4.433  -9.981  1.00  0.00     0.031 C 
ATOM     62  C   UNL     1      16.336  -1.297  -8.233  1.00  0.00     0.029 A 
ATOM     63  C   UNL     1      15.864   0.003  -8.307  1.00  0.00     0.049 A 
ATOM     64  H   UNL     1      14.574   1.026  -6.988  1.00  0.00     0.167 HD
ATOM     65  C   UNL     1      15.636   2.262  -9.295  1.00  0.00     0.074 A 
ATOM     66  C   UNL     1      15.965   3.280 -10.270  1.00  0.00     0.031 C 
ATOM     67  C   UNL     1      16.149   1.006  -9.302  1.00  0.00     0.034 A 
BRANCH  54  68
ATOM     68  C   UNL     1      14.456  -2.397  -4.435  1.00  0.00     0.023 A 
ATOM     69  C   UNL     1      13.380  -3.304  -4.352  1.00  0.00     0.012 A 
ATOM     70  C   UNL     1      15.687  -2.728  -3.834  1.00  0.00     0.148 A 
ATOM     71  C   UNL     1      13.514  -4.501  -3.650  1.00  0.00     0.002 A 
ATOM     72  C   UNL     1      15.828  -3.945  -3.179  1.00  0.00     0.091 A 
ATOM     73  F   UNL     1      16.691  -1.842  -3.904  1.00  0.00    -0.205 F 
ATOM     74  C   UNL     1      14.740  -4.826  -3.074  1.00  0.00     0.022 A 
BRANCH  72  75
ATOM     75  S   UNL     1      17.389  -4.489  -2.478  1.00  0.00     0.127 S 
ATOM     76  O   UNL     1      17.113  -4.408  -1.044  1.00  0.00    -0.237 OA
ATOM     77  O   UNL     1      17.502  -5.851  -3.001  1.00  0.00    -0.237 OA
ATOM     78  O   UNL     1      18.398  -3.564  -2.974  1.00  0.00    -0.744 OA
ENDBRANCH  72  75
ENDBRANCH  54  68
BRANCH  55  79
ATOM     79  C   UNL     1      13.561   6.472  -8.922  1.00  0.00     0.023 A 
ATOM     80  C   UNL     1      12.996   6.558 -10.210  1.00  0.00     0.012 A 
ATOM     81  C   UNL     1      14.032   7.646  -8.300  1.00  0.00     0.148 A 
ATOM     82  C   UNL     1      12.928   7.781 -10.878  1.00  0.00     0.002 A 
ATOM     83  C   UNL     1      13.912   8.870  -8.950  1.00  0.00     0.091 A 
ATOM     84  F   UNL     1      14.584   7.542  -7.083  1.00  0.00    -0.205 F 
ATOM     85  C   UNL     1      13.376   8.937 -10.245  1.00  0.00     0.022 A 
BRANCH  83  86
ATOM     86  S   UNL     1      14.363  10.427  -8.177  1.00  0.00     0.127 S 
ATOM     87  O   UNL     1      15.485  10.860  -9.006  1.00  0.00    -0.237 OA
ATOM     88  O   UNL     1      13.137  11.209  -8.342  1.00  0.00    -0.237 OA
ATOM     89  O   UNL     1      14.692  10.104  -6.795  1.00  0.00    -0.744 OA
ENDBRANCH  83  86
ENDBRANCH  55  79
BRANCH  67  90
ATOM     90  C   UNL     1      17.088   0.628 -10.422  1.00  0.00     0.023 A 
ATOM     91  C   UNL     1      18.391   1.162 -10.463  1.00  0.00     0.012 A 
ATOM     92  C   UNL     1      16.704  -0.328 -11.385  1.00  0.00     0.148 A 
ATOM     93  C   UNL     1      19.285   0.775 -11.462  1.00  0.00     0.002 A 
ATOM     94  C   UNL     1      17.617  -0.747 -12.346  1.00  0.00     0.091 A 
ATOM     95  F   UNL     1      15.456  -0.816 -11.339  1.00  0.00    -0.205 F 
ATOM     96  C   UNL     1      18.903  -0.187 -12.394  1.00  0.00     0.022 A 
BRANCH  94  97
ATOM     97  S   UNL     1      17.251  -2.053 -13.524  1.00  0.00     0.127 S 
ATOM     98  O   UNL     1      17.198  -1.312 -14.784  1.00  0.00    -0.237 OA
ATOM     99  O   UNL     1      18.412  -2.932 -13.383  1.00  0.00    -0.237 OA
ATOM    100  O   UNL     1      15.989  -2.642 -13.097  1.00  0.00    -0.744 OA
ENDBRANCH  94  97
ENDBRANCH  67  90
ENDBRANCH  41  42
ENDBRANCH  34  36
ENDBRANCH  33  34
ENDBRANCH  32  33
ENDBRANCH  31  32
ENDBRANCH  30  31
ENDBRANCH  29  30
ENDBRANCH  28  29
ENDBRANCH   1  28
TORSDOF 27
