REMARK SMILES COc1ccccc1C[N@@H+](C)[C@@H](C)c1ccc(C(=O)OCCOCCOCCOC(=O)c2ccc(-c3c4nc(c(-c5cccc(S(=O)(=O)[O-])c5F)c5ccc([nH]5)c(-c5cccc(S(=O)(=O)[O-])c5F)c5nc(c(-c6cccc(S(=O)(=O)[O-])c6F)c6ccc3[nH]6)C=C5)C=C4)cc2)o1
REMARK SMILES IDX 24 1 23 2 22 3 21 4 20 5 18 6 19 7 17 8 14 9 15 10 95 11
REMARK SMILES IDX 16 12 12 13 13 14 10 15 11 16 9 18 8 19 3 20 4 21 5 22 7 23
REMARK SMILES IDX 6 24 2 25 1 26 25 27 26 28 27 29 28 30 29 31 30 32 31 33
REMARK SMILES IDX 32 34 33 35 94 36 34 37 93 38 35 39 36 40 37 41 87 42 38 43
REMARK SMILES IDX 92 44 86 45 88 46 39 47 91 48 85 49 84 50 40 52 72 53 52 54
REMARK SMILES IDX 71 55 53 56 56 57 70 58 89 59 54 60 55 61 69 63 90 64 57 65
REMARK SMILES IDX 41 66 42 67 50 68 43 69 45 70 51 71 44 72 46 73 47 74 48 75
REMARK SMILES IDX 49 76 73 77 74 78 82 79 75 80 77 81 83 82 76 83 78 84 79 85
REMARK SMILES IDX 80 86 81 87 58 88 59 89 67 90 60 91 62 92 68 93 61 94 63 95
REMARK SMILES IDX 64 96 65 97 66 98
REMARK H PARENT 10 17 88 51 56 62
REMARK Flexibility Score: inf
ROOT
ATOM      1  C   UNL     1       1.271   5.625  -4.945  1.00  0.00     0.188 C 
ENDROOT
BRANCH   1   2
ATOM      2  O   UNL     1       1.199   6.278  -6.207  1.00  0.00    -0.376 OA
BRANCH   2   3
ATOM      3  C   UNL     1       0.643   5.457  -7.235  1.00  0.00     0.202 C 
BRANCH   3   4
ATOM      4  C   UNL     1       1.636   4.416  -7.787  1.00  0.00     0.261 C 
BRANCH   4   5
ATOM      5  O   UNL     1       1.619   3.177  -7.035  1.00  0.00    -0.457 OA
BRANCH   5   6
ATOM      6  C   UNL     1       2.824   2.684  -6.585  1.00  0.00     0.374 C 
ATOM      7  O   UNL     1       3.895   3.260  -6.737  1.00  0.00    -0.242 OA
BRANCH   6   8
ATOM      8  C   UNL     1       2.624   1.399  -5.937  1.00  0.00     0.212 A 
ATOM      9  C   UNL     1       3.114  -0.279  -4.545  1.00  0.00     0.162 A 
ATOM     10  C   UNL     1       1.865  -0.540  -5.082  1.00  0.00     0.053 A 
ATOM     11  O   UNL     1       3.607   0.873  -5.119  1.00  0.00    -0.448 OA
ATOM     12  C   UNL     1       1.552   0.524  -5.960  1.00  0.00     0.059 A 
BRANCH   9  13
ATOM     13  C   UNL     1       3.989  -1.046  -3.549  1.00  0.00     0.248 C 
ATOM     14  C   UNL     1       3.277  -2.327  -3.076  1.00  0.00     0.084 C 
BRANCH  13  15
ATOM     15  N   UNL     1       4.549  -0.242  -2.427  1.00  0.00    -0.325 N 
ATOM     16  C   UNL     1       5.798  -0.809  -1.917  1.00  0.00     0.333 C 
ATOM     17  H   UNL     1       4.714   0.664  -2.867  1.00  0.00     0.348 HD
BRANCH  15  18
ATOM     18  C   UNL     1       3.639   0.024  -1.288  1.00  0.00     0.303 C 
BRANCH  18  19
ATOM     19  C   UNL     1       2.523   0.947  -1.689  1.00  0.00     0.048 A 
ATOM     20  C   UNL     1       1.173   0.587  -1.644  1.00  0.00     0.127 A 
ATOM     21  C   UNL     1       0.232   1.301  -2.382  1.00  0.00     0.047 A 
ATOM     22  C   UNL     1       0.625   2.445  -3.072  1.00  0.00     0.004 A 
ATOM     23  C   UNL     1       2.882   2.163  -2.276  1.00  0.00     0.013 A 
ATOM     24  C   UNL     1       1.939   2.900  -2.965  1.00  0.00     0.001 A 
BRANCH  20  25
ATOM     25  O   UNL     1       0.738  -0.495  -0.926  1.00  0.00    -0.496 OA
ATOM     26  C   UNL     1       0.605  -0.110   0.449  1.00  0.00     0.278 C 
ENDBRANCH  20  25
ENDBRANCH  18  19
ENDBRANCH  15  18
ENDBRANCH  13  15
ENDBRANCH   9  13
ENDBRANCH   6   8
ENDBRANCH   5   6
ENDBRANCH   4   5
ENDBRANCH   3   4
ENDBRANCH   2   3
ENDBRANCH   1   2
BRANCH   1  27
ATOM     27  C   UNL     1       0.119   6.016  -4.025  1.00  0.00     0.188 C 
BRANCH  27  28
ATOM     28  O   UNL     1      -1.069   5.271  -4.333  1.00  0.00    -0.376 OA
BRANCH  28  29
ATOM     29  C   UNL     1      -2.264   6.039  -4.203  1.00  0.00     0.202 C 
BRANCH  29  30
ATOM     30  C   UNL     1      -2.698   6.442  -2.780  1.00  0.00     0.261 C 
BRANCH  30  31
ATOM     31  O   UNL     1      -1.620   6.534  -1.837  1.00  0.00    -0.460 OA
BRANCH  31  32
ATOM     32  C   UNL     1      -1.466   5.437  -1.050  1.00  0.00     0.338 C 
ATOM     33  O   UNL     1      -2.222   4.479  -0.993  1.00  0.00    -0.246 OA
BRANCH  32  34
ATOM     34  C   UNL     1      -0.155   5.473  -0.350  1.00  0.00     0.060 A 
ATOM     35  C   UNL     1       0.490   4.249  -0.151  1.00  0.00     0.016 A 
ATOM     36  C   UNL     1       0.453   6.650   0.096  1.00  0.00     0.016 A 
ATOM     37  C   UNL     1       1.737   4.187   0.470  1.00  0.00     0.010 A 
ATOM     38  C   UNL     1       1.691   6.586   0.758  1.00  0.00     0.010 A 
ATOM     39  C   UNL     1       2.333   5.351   0.960  1.00  0.00    -0.014 A 
BRANCH  39  40
ATOM     40  C   UNL     1       3.506   5.229   1.861  1.00  0.00     0.031 A 
ATOM     41  C   UNL     1       3.252   5.059   3.334  1.00  0.00     0.074 A 
ATOM     42  C   UNL     1       4.771   5.216   1.401  1.00  0.00     0.049 A 
ATOM     43  N   UNL     1       4.108   4.941   4.316  1.00  0.00    -0.248 NA
ATOM     44  C   UNL     1       1.841   5.001   3.752  1.00  0.00     0.031 C 
ATOM     45  C   UNL     1       5.168   5.305  -0.002  1.00  0.00     0.029 A 
ATOM     46  N   UNL     1       5.962   5.136   2.085  1.00  0.00    -0.354 N 
ATOM     47  C   UNL     1       3.343   4.813   5.468  1.00  0.00     0.074 A 
ATOM     48  C   UNL     1       1.954   4.865   5.065  1.00  0.00     0.031 C 
ATOM     49  C   UNL     1       6.512   5.310  -0.073  1.00  0.00     0.029 A 
ATOM     50  C   UNL     1       7.070   5.249   1.279  1.00  0.00     0.049 A 
ATOM     51  H   UNL     1       6.015   5.010   3.060  1.00  0.00     0.167 HD
ATOM     52  C   UNL     1       3.751   4.659   6.748  1.00  0.00     0.034 A 
ATOM     53  C   UNL     1       8.380   5.320   1.598  1.00  0.00     0.034 A 
ATOM     54  C   UNL     1       5.123   4.609   7.168  1.00  0.00     0.049 A 
ATOM     55  C   UNL     1       8.806   5.233   3.045  1.00  0.00     0.074 A 
ATOM     56  C   UNL     1       5.622   4.452   8.449  1.00  0.00     0.029 A 
ATOM     57  N   UNL     1       6.215   4.731   6.325  1.00  0.00    -0.354 N 
ATOM     58  N   UNL     1       8.078   5.015   4.113  1.00  0.00    -0.248 NA
ATOM     59  C   UNL     1      10.245   5.380   3.327  1.00  0.00     0.031 C 
ATOM     60  C   UNL     1       7.019   4.503   8.384  1.00  0.00     0.029 A 
ATOM     61  C   UNL     1       7.387   4.669   7.059  1.00  0.00     0.049 A 
ATOM     62  H   UNL     1       6.164   4.846   5.348  1.00  0.00     0.167 HD
ATOM     63  C   UNL     1       8.969   4.963   5.182  1.00  0.00     0.074 A 
ATOM     64  C   UNL     1      10.294   5.153   4.633  1.00  0.00     0.031 C 
ATOM     65  C   UNL     1       8.710   4.792   6.503  1.00  0.00     0.034 A 
BRANCH  52  66
ATOM     66  C   UNL     1       2.683   4.528   7.795  1.00  0.00     0.023 A 
ATOM     67  C   UNL     1       1.992   3.308   7.933  1.00  0.00     0.012 A 
ATOM     68  C   UNL     1       2.389   5.598   8.660  1.00  0.00     0.148 A 
ATOM     69  C   UNL     1       1.003   3.163   8.905  1.00  0.00     0.002 A 
ATOM     70  C   UNL     1       1.428   5.433   9.650  1.00  0.00     0.091 A 
ATOM     71  F   UNL     1       3.037   6.758   8.486  1.00  0.00    -0.205 F 
ATOM     72  C   UNL     1       0.729   4.221   9.768  1.00  0.00     0.022 A 
BRANCH  70  73
ATOM     73  S   UNL     1       1.054   6.718  10.846  1.00  0.00     0.127 S 
ATOM     74  O   UNL     1      -0.238   7.202  10.364  1.00  0.00    -0.237 OA
ATOM     75  O   UNL     1       0.994   5.966  12.100  1.00  0.00    -0.237 OA
ATOM     76  O   UNL     1       2.152   7.671  10.765  1.00  0.00    -0.744 OA
ENDBRANCH  70  73
ENDBRANCH  52  66
BRANCH  53  77
ATOM     77  C   UNL     1       9.408   5.480   0.530  1.00  0.00     0.023 A 
ATOM     78  C   UNL     1      10.315   4.433   0.274  1.00  0.00     0.012 A 
ATOM     79  C   UNL     1       9.514   6.676  -0.207  1.00  0.00     0.148 A 
ATOM     80  C   UNL     1      11.328   4.585  -0.674  1.00  0.00     0.002 A 
ATOM     81  C   UNL     1      10.495   6.803  -1.184  1.00  0.00     0.091 A 
ATOM     82  F   UNL     1       8.663   7.672   0.073  1.00  0.00    -0.205 F 
ATOM     83  C   UNL     1      11.413   5.765  -1.408  1.00  0.00     0.022 A 
BRANCH  81  84
ATOM     84  S   UNL     1      10.617   8.249  -2.243  1.00  0.00     0.127 S 
ATOM     85  O   UNL     1      11.825   8.892  -1.732  1.00  0.00    -0.237 OA
ATOM     86  O   UNL     1      10.755   7.644  -3.568  1.00  0.00    -0.237 OA
ATOM     87  O   UNL     1       9.376   8.985  -2.045  1.00  0.00    -0.744 OA
ENDBRANCH  81  84
ENDBRANCH  53  77
BRANCH  65  88
ATOM     88  C   UNL     1       9.873   4.762   7.462  1.00  0.00     0.023 A 
ATOM     89  C   UNL     1      10.548   5.957   7.779  1.00  0.00     0.012 A 
ATOM     90  C   UNL     1      10.234   3.571   8.124  1.00  0.00     0.148 A 
ATOM     91  C   UNL     1      11.578   5.963   8.720  1.00  0.00     0.002 A 
ATOM     92  C   UNL     1      11.231   3.592   9.094  1.00  0.00     0.091 A 
ATOM     93  F   UNL     1       9.594   2.438   7.798  1.00  0.00    -0.205 F 
ATOM     94  C   UNL     1      11.911   4.786   9.386  1.00  0.00     0.022 A 
BRANCH  92  95
ATOM     95  S   UNL     1      11.657   2.144  10.069  1.00  0.00     0.127 S 
ATOM     96  O   UNL     1      12.931   1.746   9.473  1.00  0.00    -0.237 OA
ATOM     97  O   UNL     1      11.762   2.695  11.420  1.00  0.00    -0.237 OA
ATOM     98  O   UNL     1      10.558   1.204   9.887  1.00  0.00    -0.744 OA
ENDBRANCH  92  95
ENDBRANCH  65  88
ENDBRANCH  39  40
ENDBRANCH  32  34
ENDBRANCH  31  32
ENDBRANCH  30  31
ENDBRANCH  29  30
ENDBRANCH  28  29
ENDBRANCH  27  28
ENDBRANCH   1  27
TORSDOF 25
