REMARK SMILES CC[C@@H](C)[C@@H](NC(=O)[C@H](C)[NH3+])C(=O)OCCOCCOCCOC(=O)c1ccc(-c2c3nc(c(-c4cccc(S(=O)(=O)[O-])c4F)c4ccc([nH]4)c(-c4cccc(S(=O)(=O)[O-])c4F)c4nc(c(-c5cccc(S(=O)(=O)[O-])c5F)c5ccc2[nH]5)C=C4)C=C3)cc1
REMARK SMILES IDX 18 1 17 2 16 3 15 4 14 5 12 6 13 7 5 8 3 9 4 10 2 11 1 12
REMARK SMILES IDX 6 13 7 14 8 16 9 17 10 18 11 19 19 23 20 24 21 25 22 26
REMARK SMILES IDX 23 27 24 28 25 29 26 30 27 31 88 32 28 33 87 34 29 35 30 36
REMARK SMILES IDX 31 37 81 38 32 39 86 40 80 41 82 42 33 43 85 44 79 45 78 46
REMARK SMILES IDX 34 48 66 49 46 50 65 51 47 52 50 53 64 54 83 55 48 56 49 57
REMARK SMILES IDX 63 59 84 60 51 61 35 62 36 63 44 64 37 65 39 66 45 67 38 68
REMARK SMILES IDX 40 69 41 70 42 71 43 72 67 73 68 74 76 75 69 76 71 77 77 78
REMARK SMILES IDX 70 79 72 80 73 81 74 82 75 83 52 84 53 85 61 86 54 87 56 88
REMARK SMILES IDX 62 89 55 90 57 91 58 92 59 93 60 94
REMARK H PARENT 6 15 11 20 11 21 11 22 82 47 50 58
REMARK Flexibility Score: inf
ROOT
ATOM      1  C   UNL     1       2.776   4.380  -5.564  1.00  0.00     0.188 C 
ENDROOT
BRANCH   1   2
ATOM      2  O   UNL     1       2.086   4.339  -6.803  1.00  0.00    -0.376 OA
BRANCH   2   3
ATOM      3  C   UNL     1       1.031   3.391  -6.893  1.00  0.00     0.202 C 
BRANCH   3   4
ATOM      4  C   UNL     1       1.371   1.920  -6.603  1.00  0.00     0.261 C 
BRANCH   4   5
ATOM      5  O   UNL     1       1.829   1.548  -5.269  1.00  0.00    -0.462 OA
BRANCH   5   6
ATOM      6  C   UNL     1       3.053   0.945  -5.224  1.00  0.00     0.328 C 
ATOM      7  O   UNL     1       3.831   0.933  -6.176  1.00  0.00    -0.250 OA
BRANCH   6   8
ATOM      8  C   UNL     1       3.387   0.143  -3.938  1.00  0.00     0.195 C 
BRANCH   8   9
ATOM      9  C   UNL     1       2.595   0.231  -2.592  1.00  0.00     0.019 C 
ATOM     10  C   UNL     1       2.404   1.677  -2.140  1.00  0.00     0.010 C 
BRANCH   9  11
ATOM     11  C   UNL     1       3.367  -0.559  -1.479  1.00  0.00     0.002 C 
ATOM     12  C   UNL     1       2.807  -0.484  -0.063  1.00  0.00     0.004 C 
ENDBRANCH   9  11
ENDBRANCH   8   9
BRANCH   8  13
ATOM     13  N   UNL     1       3.705  -1.273  -4.259  1.00  0.00    -0.337 N 
ATOM     14  C   UNL     1       3.016  -2.247  -4.915  1.00  0.00     0.278 C 
ATOM     15  H   UNL     1       4.587  -1.564  -3.934  1.00  0.00     0.164 HD
ATOM     16  O   UNL     1       3.246  -3.418  -4.587  1.00  0.00    -0.268 OA
BRANCH  14  17
ATOM     17  C   UNL     1       2.120  -1.931  -6.136  1.00  0.00     0.267 C 
ATOM     18  C   UNL     1       0.768  -1.331  -5.797  1.00  0.00     0.086 C 
BRANCH  17  19
ATOM     19  N   UNL     1       1.872  -3.178  -6.904  1.00  0.00    -0.348 N 
ATOM     20  H   UNL     1       1.356  -3.838  -6.323  1.00  0.00     0.345 HD
ATOM     21  H   UNL     1       2.764  -3.591  -7.178  1.00  0.00     0.345 HD
ATOM     22  H   UNL     1       1.328  -2.961  -7.739  1.00  0.00     0.345 HD
ENDBRANCH  17  19
ENDBRANCH  14  17
ENDBRANCH   8  13
ENDBRANCH   6   8
ENDBRANCH   5   6
ENDBRANCH   4   5
ENDBRANCH   3   4
ENDBRANCH   2   3
ENDBRANCH   1   2
BRANCH   1  23
ATOM     23  C   UNL     1       1.919   4.735  -4.345  1.00  0.00     0.188 C 
BRANCH  23  24
ATOM     24  O   UNL     1       0.656   4.080  -4.284  1.00  0.00    -0.376 OA
BRANCH  24  25
ATOM     25  C   UNL     1      -0.159   4.328  -3.137  1.00  0.00     0.202 C 
BRANCH  25  26
ATOM     26  C   UNL     1      -0.385   5.803  -2.773  1.00  0.00     0.261 C 
BRANCH  26  27
ATOM     27  O   UNL     1       0.814   6.495  -2.374  1.00  0.00    -0.460 OA
BRANCH  27  28
ATOM     28  C   UNL     1       1.564   5.933  -1.397  1.00  0.00     0.338 C 
ATOM     29  O   UNL     1       1.191   5.098  -0.589  1.00  0.00    -0.246 OA
BRANCH  28  30
ATOM     30  C   UNL     1       2.989   6.279  -1.653  1.00  0.00     0.060 A 
ATOM     31  C   UNL     1       3.970   5.338  -1.308  1.00  0.00     0.016 A 
ATOM     32  C   UNL     1       3.355   7.444  -2.341  1.00  0.00     0.016 A 
ATOM     33  C   UNL     1       5.314   5.583  -1.596  1.00  0.00     0.010 A 
ATOM     34  C   UNL     1       4.699   7.689  -2.629  1.00  0.00     0.010 A 
ATOM     35  C   UNL     1       5.689   6.783  -2.214  1.00  0.00    -0.014 A 
BRANCH  35  36
ATOM     36  C   UNL     1       7.106   7.220  -2.168  1.00  0.00     0.031 A 
ATOM     37  C   UNL     1       7.501   8.159  -1.059  1.00  0.00     0.074 A 
ATOM     38  C   UNL     1       8.022   6.806  -3.061  1.00  0.00     0.049 A 
ATOM     39  N   UNL     1       8.657   8.714  -0.812  1.00  0.00    -0.248 NA
ATOM     40  C   UNL     1       6.442   8.522  -0.100  1.00  0.00     0.031 C 
ATOM     41  C   UNL     1       7.776   5.894  -4.175  1.00  0.00     0.029 A 
ATOM     42  N   UNL     1       9.352   7.129  -3.176  1.00  0.00    -0.354 N 
ATOM     43  C   UNL     1       8.458   9.510   0.310  1.00  0.00     0.074 A 
ATOM     44  C   UNL     1       7.068   9.382   0.685  1.00  0.00     0.031 C 
ATOM     45  C   UNL     1       8.914   5.751  -4.878  1.00  0.00     0.029 A 
ATOM     46  C   UNL     1       9.961   6.578  -4.279  1.00  0.00     0.049 A 
ATOM     47  H   UNL     1       9.825   7.702  -2.529  1.00  0.00     0.167 HD
ATOM     48  C   UNL     1       9.352  10.266   0.986  1.00  0.00     0.034 A 
ATOM     49  C   UNL     1      11.213   6.743  -4.757  1.00  0.00     0.034 A 
ATOM     50  C   UNL     1      10.736  10.388   0.628  1.00  0.00     0.049 A 
ATOM     51  C   UNL     1      12.185   7.621  -4.006  1.00  0.00     0.074 A 
ATOM     52  C   UNL     1      11.728  11.109   1.268  1.00  0.00     0.029 A 
ATOM     53  N   UNL     1      11.323   9.786  -0.472  1.00  0.00    -0.354 N 
ATOM     54  N   UNL     1      12.013   8.279  -2.885  1.00  0.00    -0.248 NA
ATOM     55  C   UNL     1      13.537   7.755  -4.573  1.00  0.00     0.031 C 
ATOM     56  C   UNL     1      12.911  10.963   0.538  1.00  0.00     0.029 A 
ATOM     57  C   UNL     1      12.662  10.125  -0.537  1.00  0.00     0.049 A 
ATOM     58  H   UNL     1      10.856   9.203  -1.114  1.00  0.00     0.167 HD
ATOM     59  C   UNL     1      13.239   8.873  -2.595  1.00  0.00     0.074 A 
ATOM     60  C   UNL     1      14.151   8.480  -3.648  1.00  0.00     0.031 C 
ATOM     61  C   UNL     1      13.575   9.681  -1.558  1.00  0.00     0.034 A 
BRANCH  48  62
ATOM     62  C   UNL     1       8.852  11.004   2.196  1.00  0.00     0.023 A 
ATOM     63  C   UNL     1       8.546  10.290   3.373  1.00  0.00     0.012 A 
ATOM     64  C   UNL     1       8.707  12.404   2.177  1.00  0.00     0.148 A 
ATOM     65  C   UNL     1       8.070  10.954   4.502  1.00  0.00     0.002 A 
ATOM     66  C   UNL     1       8.277  13.064   3.321  1.00  0.00     0.091 A 
ATOM     67  F   UNL     1       8.974  13.059   1.038  1.00  0.00    -0.205 F 
ATOM     68  C   UNL     1       7.946  12.341   4.479  1.00  0.00     0.022 A 
BRANCH  66  69
ATOM     69  S   UNL     1       8.154  14.853   3.414  1.00  0.00     0.127 S 
ATOM     70  O   UNL     1       6.705  15.048   3.436  1.00  0.00    -0.237 OA
ATOM     71  O   UNL     1       8.828  15.140   4.680  1.00  0.00    -0.237 OA
ATOM     72  O   UNL     1       8.836  15.364   2.233  1.00  0.00    -0.744 OA
ENDBRANCH  66  69
ENDBRANCH  48  62
BRANCH  49  73
ATOM     73  C   UNL     1      11.635   6.047  -6.007  1.00  0.00     0.023 A 
ATOM     74  C   UNL     1      12.600   5.022  -5.944  1.00  0.00     0.012 A 
ATOM     75  C   UNL     1      11.093   6.403  -7.257  1.00  0.00     0.148 A 
ATOM     76  C   UNL     1      13.039   4.386  -7.107  1.00  0.00     0.002 A 
ATOM     77  C   UNL     1      11.495   5.729  -8.404  1.00  0.00     0.091 A 
ATOM     78  F   UNL     1      10.194   7.396  -7.298  1.00  0.00    -0.205 F 
ATOM     79  C   UNL     1      12.480   4.732  -8.334  1.00  0.00     0.022 A 
BRANCH  77  80
ATOM     80  S   UNL     1      10.747   6.028 -10.010  1.00  0.00     0.127 S 
ATOM     81  O   UNL     1      11.843   6.666 -10.735  1.00  0.00    -0.237 OA
ATOM     82  O   UNL     1      10.426   4.670 -10.449  1.00  0.00    -0.237 OA
ATOM     83  O   UNL     1       9.586   6.869  -9.752  1.00  0.00    -0.744 OA
ENDBRANCH  77  80
ENDBRANCH  49  73
BRANCH  61  84
ATOM     84  C   UNL     1      14.999  10.170  -1.473  1.00  0.00     0.023 A 
ATOM     85  C   UNL     1      15.460  11.154  -2.369  1.00  0.00     0.012 A 
ATOM     86  C   UNL     1      15.850   9.721  -0.443  1.00  0.00     0.148 A 
ATOM     87  C   UNL     1      16.755  11.662  -2.260  1.00  0.00     0.002 A 
ATOM     88  C   UNL     1      17.121  10.267  -0.310  1.00  0.00     0.091 A 
ATOM     89  F   UNL     1      15.399   8.773   0.392  1.00  0.00    -0.205 F 
ATOM     90  C   UNL     1      17.579  11.229  -1.224  1.00  0.00     0.022 A 
BRANCH  88  91
ATOM     91  S   UNL     1      18.215   9.843   1.052  1.00  0.00     0.127 S 
ATOM     92  O   UNL     1      19.226   9.029   0.379  1.00  0.00    -0.237 OA
ATOM     93  O   UNL     1      18.684  11.156   1.494  1.00  0.00    -0.237 OA
ATOM     94  O   UNL     1      17.390   9.138   2.024  1.00  0.00    -0.744 OA
ENDBRANCH  88  91
ENDBRANCH  61  84
ENDBRANCH  35  36
ENDBRANCH  28  30
ENDBRANCH  27  28
ENDBRANCH  26  27
ENDBRANCH  25  26
ENDBRANCH  24  25
ENDBRANCH  23  24
ENDBRANCH   1  23
TORSDOF 25
