REMARK SMILES O=C(OCCOCCOCCOC(=O)[C@@H]1[C@@H](C(=O)Nc2cccc([N+](=O)[O-])c2)[C@@H]2C=C[C@H]1O2)c1ccc(-c2c3nc(c(-c4cccc(S(=O)(=O)[O-])c4F)c4ccc([nH]4)c(-c4cccc(S(=O)(=O)[O-])c4F)c4nc(c(-c5cccc(S(=O)(=O)[O-])c5F)c5ccc2[nH]5)C=C4)C=C3)cc1
REMARK SMILES IDX 7 1 6 2 5 3 4 4 3 5 2 6 1 7 34 8 35 9 96 10 36 11 95 12
REMARK SMILES IDX 37 13 38 14 39 15 89 16 40 17 94 18 88 19 90 20 41 21 93 22
REMARK SMILES IDX 87 23 86 24 42 26 74 27 54 28 73 29 55 30 58 31 72 32 91 33
REMARK SMILES IDX 56 34 57 35 71 37 92 38 59 39 43 40 44 41 52 42 45 43 47 44
REMARK SMILES IDX 53 45 46 46 48 47 49 48 50 49 51 50 75 51 76 52 84 53 77 54
REMARK SMILES IDX 79 55 85 56 78 57 80 58 81 59 82 60 83 61 60 62 61 63 69 64
REMARK SMILES IDX 62 65 64 66 70 67 63 68 65 69 66 70 67 71 68 72 8 73 9 74
REMARK SMILES IDX 10 75 11 76 12 77 13 78 14 79 15 80 16 81 32 82 29 83 31 84
REMARK SMILES IDX 33 85 30 86 17 87 18 88 19 89 20 91 21 92 28 93 22 94 24 95
REMARK SMILES IDX 23 96 25 97 26 98 27 99
REMARK H PARENT 90 25 58 36 19 90
REMARK Flexibility Score: inf
ROOT
ATOM      1  C   UNL     1       2.937  -1.678  -0.489  1.00  0.00     0.188 C 
ENDROOT
BRANCH   1   2
ATOM      2  O   UNL     1       4.275  -1.247  -0.734  1.00  0.00    -0.376 OA
BRANCH   2   3
ATOM      3  C   UNL     1       5.136  -1.405   0.397  1.00  0.00     0.202 C 
BRANCH   3   4
ATOM      4  C   UNL     1       4.883  -0.438   1.571  1.00  0.00     0.261 C 
BRANCH   4   5
ATOM      5  O   UNL     1       3.522   0.002   1.705  1.00  0.00    -0.460 OA
BRANCH   5   6
ATOM      6  C   UNL     1       2.887   1.056   1.137  1.00  0.00     0.338 C 
ATOM      7  O   UNL     1       1.719   1.261   1.468  1.00  0.00    -0.246 OA
BRANCH   6   8
ATOM      8  C   UNL     1       3.490   1.963   0.105  1.00  0.00     0.060 A 
ATOM      9  C   UNL     1       4.681   1.737  -0.588  1.00  0.00     0.016 A 
ATOM     10  C   UNL     1       2.758   3.117  -0.229  1.00  0.00     0.016 A 
ATOM     11  C   UNL     1       5.176   2.641  -1.524  1.00  0.00     0.010 A 
ATOM     12  C   UNL     1       3.224   4.015  -1.194  1.00  0.00     0.010 A 
ATOM     13  C   UNL     1       4.469   3.801  -1.801  1.00  0.00    -0.014 A 
BRANCH  13  14
ATOM     14  C   UNL     1       5.156   4.911  -2.485  1.00  0.00     0.031 A 
ATOM     15  C   UNL     1       5.626   6.045  -1.629  1.00  0.00     0.074 A 
ATOM     16  C   UNL     1       5.437   4.892  -3.798  1.00  0.00     0.049 A 
ATOM     17  N   UNL     1       6.166   7.174  -1.986  1.00  0.00    -0.248 NA
ATOM     18  C   UNL     1       5.533   5.849  -0.170  1.00  0.00     0.031 C 
ATOM     19  C   UNL     1       5.266   3.752  -4.689  1.00  0.00     0.029 A 
ATOM     20  N   UNL     1       5.866   5.899  -4.626  1.00  0.00    -0.354 N 
ATOM     21  C   UNL     1       6.489   7.817  -0.802  1.00  0.00     0.074 A 
ATOM     22  C   UNL     1       6.046   6.979   0.287  1.00  0.00     0.031 C 
ATOM     23  C   UNL     1       5.410   4.165  -5.959  1.00  0.00     0.029 A 
ATOM     24  C   UNL     1       5.669   5.594  -5.954  1.00  0.00     0.049 A 
ATOM     25  H   UNL     1       6.266   6.740  -4.308  1.00  0.00     0.167 HD
ATOM     26  C   UNL     1       7.133   8.993  -0.647  1.00  0.00     0.034 A 
ATOM     27  C   UNL     1       5.635   6.399  -7.030  1.00  0.00     0.034 A 
ATOM     28  C   UNL     1       7.524   9.816  -1.753  1.00  0.00     0.049 A 
ATOM     29  C   UNL     1       6.102   7.811  -6.844  1.00  0.00     0.074 A 
ATOM     30  C   UNL     1       8.174  11.034  -1.737  1.00  0.00     0.029 A 
ATOM     31  N   UNL     1       7.258   9.514  -3.082  1.00  0.00    -0.354 N 
ATOM     32  N   UNL     1       6.460   8.407  -5.732  1.00  0.00    -0.248 NA
ATOM     33  C   UNL     1       6.276   8.624  -8.052  1.00  0.00     0.031 C 
ATOM     34  C   UNL     1       8.247  11.495  -3.056  1.00  0.00     0.029 A 
ATOM     35  C   UNL     1       7.699  10.537  -3.898  1.00  0.00     0.049 A 
ATOM     36  H   UNL     1       6.818   8.691  -3.397  1.00  0.00     0.167 HD
ATOM     37  C   UNL     1       7.003   9.623  -6.111  1.00  0.00     0.074 A 
ATOM     38  C   UNL     1       6.878   9.698  -7.555  1.00  0.00     0.031 C 
ATOM     39  C   UNL     1       7.595  10.565  -5.337  1.00  0.00     0.034 A 
BRANCH  26  40
ATOM     40  C   UNL     1       7.390   9.439   0.763  1.00  0.00     0.023 A 
ATOM     41  C   UNL     1       8.320   8.749   1.571  1.00  0.00     0.012 A 
ATOM     42  C   UNL     1       6.657  10.507   1.310  1.00  0.00     0.148 A 
ATOM     43  C   UNL     1       8.474   9.081   2.916  1.00  0.00     0.002 A 
ATOM     44  C   UNL     1       6.851  10.863   2.637  1.00  0.00     0.091 A 
ATOM     45  F   UNL     1       5.754  11.124   0.535  1.00  0.00    -0.205 F 
ATOM     46  C   UNL     1       7.743  10.141   3.447  1.00  0.00     0.022 A 
BRANCH  44  47
ATOM     47  S   UNL     1       6.001  12.251   3.393  1.00  0.00     0.127 S 
ATOM     48  O   UNL     1       5.104  11.573   4.327  1.00  0.00    -0.237 OA
ATOM     49  O   UNL     1       7.105  12.975   4.022  1.00  0.00    -0.237 OA
ATOM     50  O   UNL     1       5.348  12.964   2.305  1.00  0.00    -0.744 OA
ENDBRANCH  44  47
ENDBRANCH  26  40
BRANCH  27  51
ATOM     51  C   UNL     1       5.200   5.869  -8.351  1.00  0.00     0.023 A 
ATOM     52  C   UNL     1       6.156   5.572  -9.338  1.00  0.00     0.012 A 
ATOM     53  C   UNL     1       3.837   5.613  -8.614  1.00  0.00     0.148 A 
ATOM     54  C   UNL     1       5.764   5.055 -10.574  1.00  0.00     0.002 A 
ATOM     55  C   UNL     1       3.457   5.067  -9.835  1.00  0.00     0.091 A 
ATOM     56  F   UNL     1       2.942   5.886  -7.655  1.00  0.00    -0.205 F 
ATOM     57  C   UNL     1       4.418   4.800 -10.822  1.00  0.00     0.022 A 
BRANCH  55  58
ATOM     58  S   UNL     1       1.765   4.605 -10.228  1.00  0.00     0.127 S 
ATOM     59  O   UNL     1       1.513   5.375 -11.440  1.00  0.00    -0.237 OA
ATOM     60  O   UNL     1       1.902   3.163 -10.420  1.00  0.00    -0.237 OA
ATOM     61  O   UNL     1       0.969   4.992  -9.067  1.00  0.00    -0.744 OA
ENDBRANCH  55  58
ENDBRANCH  27  51
BRANCH  39  62
ATOM     62  C   UNL     1       8.242  11.725  -6.034  1.00  0.00     0.023 A 
ATOM     63  C   UNL     1       7.458  12.745  -6.602  1.00  0.00     0.012 A 
ATOM     64  C   UNL     1       9.646  11.845  -6.015  1.00  0.00     0.148 A 
ATOM     65  C   UNL     1       8.069  13.866  -7.160  1.00  0.00     0.002 A 
ATOM     66  C   UNL     1      10.242  12.991  -6.516  1.00  0.00     0.091 A 
ATOM     67  F   UNL     1      10.366  10.844  -5.488  1.00  0.00    -0.205 F 
ATOM     68  C   UNL     1       9.456  13.997  -7.101  1.00  0.00     0.022 A 
BRANCH  66  69
ATOM     69  S   UNL     1      12.004  13.296  -6.372  1.00  0.00     0.127 S 
ATOM     70  O   UNL     1      12.431  13.237  -7.769  1.00  0.00    -0.237 OA
ATOM     71  O   UNL     1      12.035  14.633  -5.779  1.00  0.00    -0.237 OA
ATOM     72  O   UNL     1      12.531  12.241  -5.517  1.00  0.00    -0.744 OA
ENDBRANCH  66  69
ENDBRANCH  39  62
ENDBRANCH  13  14
ENDBRANCH   6   8
ENDBRANCH   5   6
ENDBRANCH   4   5
ENDBRANCH   3   4
ENDBRANCH   2   3
ENDBRANCH   1   2
BRANCH   1  73
ATOM     73  C   UNL     1       2.391  -2.761  -1.421  1.00  0.00     0.188 C 
BRANCH  73  74
ATOM     74  O   UNL     1       3.235  -3.840  -1.776  1.00  0.00    -0.376 OA
BRANCH  74  75
ATOM     75  C   UNL     1       4.489  -3.522  -2.362  1.00  0.00     0.202 C 
BRANCH  75  76
ATOM     76  C   UNL     1       4.584  -2.603  -3.604  1.00  0.00     0.261 C 
BRANCH  76  77
ATOM     77  O   UNL     1       3.789  -1.389  -3.638  1.00  0.00    -0.463 OA
BRANCH  77  78
ATOM     78  C   UNL     1       2.672  -1.476  -4.406  1.00  0.00     0.312 C 
ATOM     79  O   UNL     1       2.297  -2.530  -4.919  1.00  0.00    -0.252 OA
BRANCH  78  80
ATOM     80  C   UNL     1       1.871  -0.217  -4.620  1.00  0.00     0.147 C 
ATOM     81  C   UNL     1       2.334   1.217  -4.320  1.00  0.00     0.129 C 
ATOM     82  C   UNL     1       0.458  -0.283  -4.046  1.00  0.00     0.157 C 
ATOM     83  C   UNL     1       1.065   1.756  -3.591  1.00  0.00     0.155 C 
ATOM     84  C   UNL     1       0.411  -0.166  -2.563  1.00  0.00     0.004 C 
ATOM     85  O   UNL     1       0.032   1.067  -4.368  1.00  0.00    -0.365 OA
ATOM     86  C   UNL     1       0.803   1.080  -2.279  1.00  0.00     0.004 C 
BRANCH  81  87
ATOM     87  C   UNL     1       2.524   2.211  -5.496  1.00  0.00     0.231 C 
ATOM     88  O   UNL     1       2.313   3.412  -5.286  1.00  0.00    -0.274 OA
ATOM     89  N   UNL     1       3.084   1.915  -6.710  1.00  0.00    -0.325 N 
ATOM     90  H   UNL     1       3.447   2.688  -7.199  1.00  0.00     0.169 HD
BRANCH  89  91
ATOM     91  C   UNL     1       3.221   0.692  -7.365  1.00  0.00     0.048 A 
ATOM     92  C   UNL     1       4.492   0.151  -7.547  1.00  0.00     0.026 A 
ATOM     93  C   UNL     1       2.085  -0.010  -7.764  1.00  0.00     0.111 A 
ATOM     94  C   UNL     1       4.622  -1.173  -7.972  1.00  0.00     0.009 A 
ATOM     95  C   UNL     1       2.214  -1.371  -8.050  1.00  0.00     0.271 A 
ATOM     96  C   UNL     1       3.482  -1.957  -8.169  1.00  0.00     0.086 A 
BRANCH  95  97
ATOM     97  N   UNL     1       1.022  -2.229  -7.994  1.00  0.00     0.062 N 
ATOM     98  O   UNL     1       1.153  -3.420  -8.319  1.00  0.00    -0.258 OA
ATOM     99  O   UNL     1      -0.034  -1.732  -7.576  1.00  0.00    -0.258 OA
ENDBRANCH  95  97
ENDBRANCH  89  91
ENDBRANCH  81  87
ENDBRANCH  78  80
ENDBRANCH  77  78
ENDBRANCH  76  77
ENDBRANCH  75  76
ENDBRANCH  74  75
ENDBRANCH  73  74
ENDBRANCH   1  73
TORSDOF 23
