REMARK SMILES COc1ccc2[nH]cc([C@H](C(=O)OCCOCCOCCOC(=O)c3ccc(-c4c5nc(c(-c6cccc(S(=O)(=O)[O-])c6F)c6ccc([nH]6)c(-c6cccc(S(=O)(=O)[O-])c6F)c6nc(c(-c7cccc(S(=O)(=O)[O-])c7F)c7ccc4[nH]7)C=C6)C=C5)cc3)[NH+]3CC[NH+](Cc4cccc5ccccc45)CC3)c2c1
REMARK SMILES IDX 17 1 16 2 15 3 14 4 13 5 11 6 12 7 10 8 9 9 3 10 4 11 106 12
REMARK SMILES IDX 5 13 105 14 6 15 7 16 8 17 2 19 1 20 88 21 89 22 104 23
REMARK SMILES IDX 90 25 103 26 91 27 92 29 93 30 94 31 102 32 95 33 97 34
REMARK SMILES IDX 101 35 96 36 98 37 100 38 99 39 18 40 19 41 20 42 21 43
REMARK SMILES IDX 22 44 23 45 24 46 25 47 26 48 87 49 27 50 86 51 28 52 29 53
REMARK SMILES IDX 30 54 80 55 31 56 85 57 79 58 81 59 32 60 84 61 78 62 77 63
REMARK SMILES IDX 33 65 65 66 45 67 64 68 46 69 49 70 63 71 82 72 47 73 48 74
REMARK SMILES IDX 62 76 83 77 50 78 34 79 35 80 43 81 36 82 38 83 44 84 37 85
REMARK SMILES IDX 39 86 40 87 41 88 42 89 66 90 67 91 75 92 68 93 70 94 76 95
REMARK SMILES IDX 69 96 71 97 72 98 73 99 74 100 51 101 52 102 60 103 53 104
REMARK SMILES IDX 55 105 61 106 54 107 56 108 57 109 58 110 59 111
REMARK H PARENT 7 18 88 24 91 28 81 64 49 75
REMARK Flexibility Score: inf
ROOT
ATOM      1  C   UNL     1       1.919   2.036   6.819  1.00  0.00     0.188 C 
ENDROOT
BRANCH   1   2
ATOM      2  O   UNL     1       3.035   2.252   5.974  1.00  0.00    -0.376 OA
BRANCH   2   3
ATOM      3  C   UNL     1       2.780   2.761   4.665  1.00  0.00     0.202 C 
BRANCH   3   4
ATOM      4  C   UNL     1       1.582   2.211   3.865  1.00  0.00     0.261 C 
BRANCH   4   5
ATOM      5  O   UNL     1       0.333   2.770   4.312  1.00  0.00    -0.459 OA
BRANCH   5   6
ATOM      6  C   UNL     1      -0.832   2.210   3.843  1.00  0.00     0.370 C 
ATOM      7  O   UNL     1      -0.851   1.238   3.094  1.00  0.00    -0.245 OA
BRANCH   6   8
ATOM      8  C   UNL     1      -2.115   2.975   4.339  1.00  0.00     0.328 C 
BRANCH   8   9
ATOM      9  C   UNL     1      -2.904   2.241   5.411  1.00  0.00     0.046 A 
ATOM     10  C   UNL     1      -1.218  -0.733   7.165  1.00  0.00     0.119 A 
ATOM     11  C   UNL     1      -2.356  -1.167   7.820  1.00  0.00     0.048 A 
ATOM     12  C   UNL     1      -1.321   0.364   6.316  1.00  0.00     0.057 A 
ATOM     13  C   UNL     1      -3.552  -0.429   7.790  1.00  0.00     0.030 A 
ATOM     14  C   UNL     1      -2.504   1.114   6.205  1.00  0.00     0.013 A 
ATOM     15  C   UNL     1      -3.590   0.715   6.983  1.00  0.00     0.046 A 
ATOM     16  N   UNL     1      -4.604   1.607   6.744  1.00  0.00    -0.361 N 
ATOM     17  C   UNL     1      -4.222   2.500   5.776  1.00  0.00     0.094 A 
ATOM     18  H   UNL     1      -5.476   1.607   7.199  1.00  0.00     0.166 HD
BRANCH  10  19
ATOM     19  O   UNL     1       0.034  -1.274   7.215  1.00  0.00    -0.497 OA
ATOM     20  C   UNL     1       0.340  -2.168   8.280  1.00  0.00     0.278 C 
ENDBRANCH  10  19
ENDBRANCH   8   9
BRANCH   8  21
ATOM     21  N   UNL     1      -1.718   4.333   4.711  1.00  0.00    -0.310 N 
ATOM     22  C   UNL     1      -2.216   5.064   5.857  1.00  0.00     0.325 C 
ATOM     23  C   UNL     1      -1.392   5.212   3.598  1.00  0.00     0.325 C 
ATOM     24  H   UNL     1      -0.898   3.955   5.185  1.00  0.00     0.349 HD
ATOM     25  C   UNL     1      -1.210   6.176   6.282  1.00  0.00     0.324 C 
ATOM     26  C   UNL     1      -0.242   6.145   4.024  1.00  0.00     0.324 C 
ATOM     27  N   UNL     1      -0.470   6.926   5.246  1.00  0.00    -0.322 N 
ATOM     28  H   UNL     1       0.461   7.055   5.643  1.00  0.00     0.348 HD
BRANCH  27  29
ATOM     29  C   UNL     1      -0.867   8.320   5.053  1.00  0.00     0.300 C 
BRANCH  29  30
ATOM     30  C   UNL     1      -2.228   8.493   4.409  1.00  0.00     0.014 A 
ATOM     31  C   UNL     1      -2.281   8.531   3.003  1.00  0.00     0.010 A 
ATOM     32  C   UNL     1      -3.425   8.384   5.163  1.00  0.00    -0.010 A 
ATOM     33  C   UNL     1      -3.476   8.291   2.340  1.00  0.00     0.001 A 
ATOM     34  C   UNL     1      -4.610   8.034   4.480  1.00  0.00    -0.018 A 
ATOM     35  C   UNL     1      -3.495   8.552   6.566  1.00  0.00     0.009 A 
ATOM     36  C   UNL     1      -4.617   7.984   3.076  1.00  0.00     0.009 A 
ATOM     37  C   UNL     1      -5.760   7.707   5.219  1.00  0.00     0.009 A 
ATOM     38  C   UNL     1      -4.656   8.268   7.283  1.00  0.00     0.001 A 
ATOM     39  C   UNL     1      -5.778   7.809   6.610  1.00  0.00     0.001 A 
ENDBRANCH  29  30
ENDBRANCH  27  29
ENDBRANCH   8  21
ENDBRANCH   6   8
ENDBRANCH   5   6
ENDBRANCH   4   5
ENDBRANCH   3   4
ENDBRANCH   2   3
ENDBRANCH   1   2
BRANCH   1  40
ATOM     40  C   UNL     1       1.017   3.223   7.130  1.00  0.00     0.188 C 
BRANCH  40  41
ATOM     41  O   UNL     1       1.387   4.476   6.612  1.00  0.00    -0.376 OA
BRANCH  41  42
ATOM     42  C   UNL     1       2.289   5.365   7.232  1.00  0.00     0.202 C 
BRANCH  42  43
ATOM     43  C   UNL     1       2.518   5.447   8.748  1.00  0.00     0.261 C 
BRANCH  43  44
ATOM     44  O   UNL     1       1.686   4.660   9.594  1.00  0.00    -0.460 OA
BRANCH  44  45
ATOM     45  C   UNL     1       0.426   5.097   9.819  1.00  0.00     0.338 C 
ATOM     46  O   UNL     1      -0.072   6.147   9.445  1.00  0.00    -0.246 OA
BRANCH  45  47
ATOM     47  C   UNL     1      -0.304   3.996  10.494  1.00  0.00     0.060 A 
ATOM     48  C   UNL     1      -1.585   3.650  10.048  1.00  0.00     0.016 A 
ATOM     49  C   UNL     1       0.297   3.270  11.530  1.00  0.00     0.016 A 
ATOM     50  C   UNL     1      -2.280   2.604  10.667  1.00  0.00     0.010 A 
ATOM     51  C   UNL     1      -0.401   2.230  12.149  1.00  0.00     0.010 A 
ATOM     52  C   UNL     1      -1.707   1.913  11.747  1.00  0.00    -0.014 A 
BRANCH  52  53
ATOM     53  C   UNL     1      -2.512   0.943  12.535  1.00  0.00     0.031 A 
ATOM     54  C   UNL     1      -3.125   1.381  13.824  1.00  0.00     0.074 A 
ATOM     55  C   UNL     1      -2.626  -0.346  12.171  1.00  0.00     0.049 A 
ATOM     56  N   UNL     1      -3.850   0.687  14.659  1.00  0.00    -0.248 NA
ATOM     57  C   UNL     1      -2.836   2.755  14.258  1.00  0.00     0.031 C 
ATOM     58  C   UNL     1      -1.918  -0.924  11.047  1.00  0.00     0.029 A 
ATOM     59  N   UNL     1      -3.332  -1.402  12.701  1.00  0.00    -0.354 N 
ATOM     60  C   UNL     1      -4.037   1.509  15.757  1.00  0.00     0.074 A 
ATOM     61  C   UNL     1      -3.372   2.763  15.469  1.00  0.00     0.031 C 
ATOM     62  C   UNL     1      -2.249  -2.220  10.945  1.00  0.00     0.029 A 
ATOM     63  C   UNL     1      -3.214  -2.565  11.971  1.00  0.00     0.049 A 
ATOM     64  H   UNL     1      -3.870  -1.333  13.522  1.00  0.00     0.167 HD
ATOM     65  C   UNL     1      -4.685   1.230  16.911  1.00  0.00     0.034 A 
ATOM     66  C   UNL     1      -3.815  -3.767  12.093  1.00  0.00     0.034 A 
ATOM     67  C   UNL     1      -5.325  -0.026  17.197  1.00  0.00     0.049 A 
ATOM     68  C   UNL     1      -4.673  -3.997  13.301  1.00  0.00     0.074 A 
ATOM     69  C   UNL     1      -6.047  -0.381  18.322  1.00  0.00     0.029 A 
ATOM     70  N   UNL     1      -5.302  -1.140  16.370  1.00  0.00    -0.354 N 
ATOM     71  N   UNL     1      -4.957  -3.161  14.268  1.00  0.00    -0.248 NA
ATOM     72  C   UNL     1      -5.267  -5.332  13.459  1.00  0.00     0.031 C 
ATOM     73  C   UNL     1      -6.434  -1.719  18.190  1.00  0.00     0.029 A 
ATOM     74  C   UNL     1      -5.998  -2.183  16.960  1.00  0.00     0.049 A 
ATOM     75  H   UNL     1      -4.856  -1.183  15.493  1.00  0.00     0.167 HD
ATOM     76  C   UNL     1      -5.741  -3.871  15.162  1.00  0.00     0.074 A 
ATOM     77  C   UNL     1      -5.947  -5.187  14.588  1.00  0.00     0.031 C 
ATOM     78  C   UNL     1      -6.211  -3.480  16.370  1.00  0.00     0.034 A 
BRANCH  65  79
ATOM     79  C   UNL     1      -4.706   2.310  17.955  1.00  0.00     0.023 A 
ATOM     80  C   UNL     1      -5.462   3.481  17.742  1.00  0.00     0.012 A 
ATOM     81  C   UNL     1      -3.981   2.160  19.152  1.00  0.00     0.148 A 
ATOM     82  C   UNL     1      -5.463   4.504  18.688  1.00  0.00     0.002 A 
ATOM     83  C   UNL     1      -4.030   3.160  20.113  1.00  0.00     0.091 A 
ATOM     84  F   UNL     1      -3.246   1.052  19.320  1.00  0.00    -0.205 F 
ATOM     85  C   UNL     1      -4.757   4.339  19.876  1.00  0.00     0.022 A 
BRANCH  83  86
ATOM     86  S   UNL     1      -3.223   3.010  21.709  1.00  0.00     0.127 S 
ATOM     87  O   UNL     1      -2.190   4.041  21.614  1.00  0.00    -0.237 OA
ATOM     88  O   UNL     1      -4.315   3.322  22.631  1.00  0.00    -0.237 OA
ATOM     89  O   UNL     1      -2.731   1.642  21.786  1.00  0.00    -0.744 OA
ENDBRANCH  83  86
ENDBRANCH  65  79
BRANCH  66  90
ATOM     90  C   UNL     1      -3.684  -4.819  11.035  1.00  0.00     0.023 A 
ATOM     91  C   UNL     1      -4.829  -5.220  10.313  1.00  0.00     0.012 A 
ATOM     92  C   UNL     1      -2.449  -5.405  10.708  1.00  0.00     0.148 A 
ATOM     93  C   UNL     1      -4.749  -6.194   9.313  1.00  0.00     0.002 A 
ATOM     94  C   UNL     1      -2.359  -6.306   9.650  1.00  0.00     0.091 A 
ATOM     95  F   UNL     1      -1.370  -5.061  11.425  1.00  0.00    -0.205 F 
ATOM     96  C   UNL     1      -3.510  -6.722   8.967  1.00  0.00     0.022 A 
BRANCH  94  97
ATOM     97  S   UNL     1      -0.768  -6.856   9.024  1.00  0.00     0.127 S 
ATOM     98  O   UNL     1      -0.653  -8.185   9.616  1.00  0.00    -0.237 OA
ATOM     99  O   UNL     1      -0.983  -6.840   7.577  1.00  0.00    -0.237 OA
ATOM    100  O   UNL     1       0.184  -5.855   9.491  1.00  0.00    -0.744 OA
ENDBRANCH  94  97
ENDBRANCH  66  90
BRANCH  78 101
ATOM    101  C   UNL     1      -7.013  -4.486  17.147  1.00  0.00     0.023 A 
ATOM    102  C   UNL     1      -6.378  -5.601  17.731  1.00  0.00     0.012 A 
ATOM    103  C   UNL     1      -8.394  -4.296  17.333  1.00  0.00     0.148 A 
ATOM    104  C   UNL     1      -7.116  -6.532  18.460  1.00  0.00     0.002 A 
ATOM    105  C   UNL     1      -9.113  -5.198  18.105  1.00  0.00     0.091 A 
ATOM    106  F   UNL     1      -8.978  -3.241  16.746  1.00  0.00    -0.205 F 
ATOM    107  C   UNL     1      -8.480  -6.324  18.657  1.00  0.00     0.022 A 
BRANCH 105 108
ATOM    108  S   UNL     1     -10.850  -4.960  18.487  1.00  0.00     0.127 S 
ATOM    109  O   UNL     1     -11.472  -6.041  17.724  1.00  0.00    -0.237 OA
ATOM    110  O   UNL     1     -10.873  -5.143  19.938  1.00  0.00    -0.237 OA
ATOM    111  O   UNL     1     -11.181  -3.613  18.041  1.00  0.00    -0.744 OA
ENDBRANCH 105 108
ENDBRANCH  78 101
ENDBRANCH  52  53
ENDBRANCH  45  47
ENDBRANCH  44  45
ENDBRANCH  43  44
ENDBRANCH  42  43
ENDBRANCH  41  42
ENDBRANCH  40  41
ENDBRANCH   1  40
TORSDOF 25
