REMARK SMILES C[C@H](CC(=O)OCCOCCOCCOC(=O)c1ccc(-c2c3nc(c(-c4cccc(S(=O)(=O)[O-])c4F)c4ccc([nH]4)c(-c4cccc(S(=O)(=O)[O-])c4F)c4nc(c(-c5cccc(S(=O)(=O)[O-])c5F)c5ccc2[nH]5)C=C4)C=C3)cc1)NC(=O)Cn1nc2ccccn2c1=O
REMARK SMILES IDX 10 1 9 2 8 3 7 4 6 5 4 6 5 7 3 8 2 9 1 10 81 11 82 12 83 14
REMARK SMILES IDX 84 15 85 16 86 17 93 18 87 19 92 20 94 21 88 22 91 23 89 24
REMARK SMILES IDX 90 25 11 26 12 27 13 28 14 29 15 30 16 31 17 32 18 33 19 34
REMARK SMILES IDX 80 35 20 36 79 37 21 38 22 39 23 40 73 41 24 42 78 43 72 44
REMARK SMILES IDX 74 45 25 46 77 47 71 48 70 49 26 51 58 52 38 53 57 54 39 55
REMARK SMILES IDX 42 56 56 57 75 58 40 59 41 60 55 62 76 63 43 64 27 65 28 66
REMARK SMILES IDX 36 67 29 68 31 69 37 70 30 71 32 72 33 73 34 74 35 75 59 76
REMARK SMILES IDX 60 77 68 78 61 79 63 80 69 81 62 82 64 83 65 84 66 85 67 86
REMARK SMILES IDX 44 87 45 88 53 89 46 90 48 91 54 92 47 93 49 94 50 95 51 96
REMARK SMILES IDX 52 97
REMARK H PARENT 81 13 74 50 42 61
REMARK Flexibility Score: inf
ROOT
ATOM      1  C   UNL     1       3.800  -1.979  -1.193  1.00  0.00     0.188 C 
ENDROOT
BRANCH   1   2
ATOM      2  O   UNL     1       3.967  -3.380  -1.385  1.00  0.00    -0.376 OA
BRANCH   2   3
ATOM      3  C   UNL     1       2.833  -4.101  -1.878  1.00  0.00     0.202 C 
BRANCH   3   4
ATOM      4  C   UNL     1       1.512  -3.884  -1.121  1.00  0.00     0.261 C 
BRANCH   4   5
ATOM      5  O   UNL     1       1.018  -2.529  -1.246  1.00  0.00    -0.463 OA
BRANCH   5   6
ATOM      6  C   UNL     1       0.310  -2.085  -0.178  1.00  0.00     0.307 C 
ATOM      7  O   UNL     1      -0.149  -2.820   0.691  1.00  0.00    -0.252 OA
BRANCH   6   8
ATOM      8  C   UNL     1       0.360  -0.584  -0.020  1.00  0.00     0.147 C 
BRANCH   8   9
ATOM      9  C   UNL     1      -0.185   0.440  -1.032  1.00  0.00     0.090 C 
ATOM     10  C   UNL     1      -0.152   0.053  -2.496  1.00  0.00     0.031 C 
BRANCH   9  11
ATOM     11  N   UNL     1      -1.522   0.928  -0.668  1.00  0.00    -0.351 N 
ATOM     12  C   UNL     1      -1.930   2.175  -0.266  1.00  0.00     0.242 C 
ATOM     13  H   UNL     1      -2.237   0.254  -0.721  1.00  0.00     0.163 HD
ATOM     14  O   UNL     1      -3.117   2.308   0.050  1.00  0.00    -0.273 OA
BRANCH  12  15
ATOM     15  C   UNL     1      -0.955   3.358  -0.179  1.00  0.00     0.249 C 
BRANCH  15  16
ATOM     16  N   UNL     1      -0.424   3.589   1.155  1.00  0.00    -0.203 N 
ATOM     17  N   UNL     1      -0.268   4.878   1.678  1.00  0.00    -0.149 NA
ATOM     18  C   UNL     1       0.502   2.738   1.764  1.00  0.00     0.350 A 
ATOM     19  C   UNL     1       0.699   4.750   2.538  1.00  0.00     0.161 A 
ATOM     20  N   UNL     1       1.211   3.501   2.634  1.00  0.00    -0.250 N 
ATOM     21  O   UNL     1       0.743   1.573   1.492  1.00  0.00    -0.246 OA
ATOM     22  C   UNL     1       1.362   5.792   3.351  1.00  0.00     0.050 A 
ATOM     23  C   UNL     1       2.362   3.161   3.288  1.00  0.00     0.098 A 
ATOM     24  C   UNL     1       2.574   5.495   3.856  1.00  0.00     0.005 A 
ATOM     25  C   UNL     1       3.088   4.136   3.848  1.00  0.00     0.019 A 
ENDBRANCH  15  16
ENDBRANCH  12  15
ENDBRANCH   9  11
ENDBRANCH   8   9
ENDBRANCH   6   8
ENDBRANCH   5   6
ENDBRANCH   4   5
ENDBRANCH   3   4
ENDBRANCH   2   3
ENDBRANCH   1   2
BRANCH   1  26
ATOM     26  C   UNL     1       3.539  -1.165  -2.470  1.00  0.00     0.188 C 
BRANCH  26  27
ATOM     27  O   UNL     1       2.651  -1.793  -3.388  1.00  0.00    -0.376 OA
BRANCH  27  28
ATOM     28  C   UNL     1       2.473  -1.188  -4.667  1.00  0.00     0.202 C 
BRANCH  28  29
ATOM     29  C   UNL     1       3.742  -1.028  -5.513  1.00  0.00     0.261 C 
BRANCH  29  30
ATOM     30  O   UNL     1       4.712  -0.104  -4.983  1.00  0.00    -0.460 OA
BRANCH  30  31
ATOM     31  C   UNL     1       4.291   1.125  -4.600  1.00  0.00     0.338 C 
ATOM     32  O   UNL     1       3.230   1.657  -4.877  1.00  0.00    -0.246 OA
BRANCH  31  33
ATOM     33  C   UNL     1       5.226   1.609  -3.554  1.00  0.00     0.060 A 
ATOM     34  C   UNL     1       4.694   2.227  -2.412  1.00  0.00     0.016 A 
ATOM     35  C   UNL     1       6.599   1.369  -3.646  1.00  0.00     0.016 A 
ATOM     36  C   UNL     1       5.537   2.617  -1.368  1.00  0.00     0.010 A 
ATOM     37  C   UNL     1       7.440   1.765  -2.606  1.00  0.00     0.010 A 
ATOM     38  C   UNL     1       6.919   2.409  -1.471  1.00  0.00    -0.014 A 
BRANCH  38  39
ATOM     39  C   UNL     1       7.861   2.983  -0.479  1.00  0.00     0.031 A 
ATOM     40  C   UNL     1       8.585   4.251  -0.835  1.00  0.00     0.074 A 
ATOM     41  C   UNL     1       8.123   2.361   0.684  1.00  0.00     0.049 A 
ATOM     42  N   UNL     1       9.544   4.866  -0.195  1.00  0.00    -0.248 NA
ATOM     43  C   UNL     1       8.175   4.908  -2.087  1.00  0.00     0.031 C 
ATOM     44  C   UNL     1       7.481   1.136   1.155  1.00  0.00     0.029 A 
ATOM     45  N   UNL     1       9.036   2.663   1.666  1.00  0.00    -0.354 N 
ATOM     46  C   UNL     1       9.876   5.963  -0.979  1.00  0.00     0.074 A 
ATOM     47  C   UNL     1       9.021   5.924  -2.146  1.00  0.00     0.031 C 
ATOM     48  C   UNL     1       8.044   0.770   2.321  1.00  0.00     0.029 A 
ATOM     49  C   UNL     1       9.112   1.712   2.657  1.00  0.00     0.049 A 
ATOM     50  H   UNL     1       9.584   3.481   1.660  1.00  0.00     0.167 HD
ATOM     51  C   UNL     1      10.801   6.924  -0.748  1.00  0.00     0.034 A 
ATOM     52  C   UNL     1       9.968   1.597   3.693  1.00  0.00     0.034 A 
ATOM     53  C   UNL     1      11.652   6.964   0.409  1.00  0.00     0.049 A 
ATOM     54  C   UNL     1      11.042   2.639   3.891  1.00  0.00     0.074 A 
ATOM     55  C   UNL     1      12.591   7.920   0.752  1.00  0.00     0.029 A 
ATOM     56  N   UNL     1      11.686   5.996   1.400  1.00  0.00    -0.354 N 
ATOM     57  N   UNL     1      11.268   3.734   3.206  1.00  0.00    -0.248 NA
ATOM     58  C   UNL     1      11.968   2.437   5.016  1.00  0.00     0.031 C 
ATOM     59  C   UNL     1      13.219   7.511   1.933  1.00  0.00     0.029 A 
ATOM     60  C   UNL     1      12.646   6.319   2.345  1.00  0.00     0.049 A 
ATOM     61  H   UNL     1      11.113   5.197   1.429  1.00  0.00     0.167 HD
ATOM     62  C   UNL     1      12.338   4.366   3.836  1.00  0.00     0.074 A 
ATOM     63  C   UNL     1      12.702   3.541   4.968  1.00  0.00     0.031 C 
ATOM     64  C   UNL     1      12.969   5.518   3.499  1.00  0.00     0.034 A 
BRANCH  51  65
ATOM     65  C   UNL     1      10.927   8.022  -1.770  1.00  0.00     0.023 A 
ATOM     66  C   UNL     1       9.907   8.989  -1.885  1.00  0.00     0.012 A 
ATOM     67  C   UNL     1      12.064   8.114  -2.595  1.00  0.00     0.148 A 
ATOM     68  C   UNL     1       9.999  10.008  -2.832  1.00  0.00     0.002 A 
ATOM     69  C   UNL     1      12.169   9.158  -3.506  1.00  0.00     0.091 A 
ATOM     70  F   UNL     1      13.010   7.170  -2.489  1.00  0.00    -0.205 F 
ATOM     71  C   UNL     1      11.132  10.097  -3.635  1.00  0.00     0.022 A 
BRANCH  69  72
ATOM     72  S   UNL     1      13.622   9.403  -4.531  1.00  0.00     0.127 S 
ATOM     73  O   UNL     1      13.119   9.020  -5.850  1.00  0.00    -0.237 OA
ATOM     74  O   UNL     1      13.877  10.835  -4.368  1.00  0.00    -0.237 OA
ATOM     75  O   UNL     1      14.653   8.536  -3.978  1.00  0.00    -0.744 OA
ENDBRANCH  69  72
ENDBRANCH  51  65
BRANCH  52  76
ATOM     76  C   UNL     1       9.841   0.458   4.647  1.00  0.00     0.023 A 
ATOM     77  C   UNL     1       9.432   0.710   5.972  1.00  0.00     0.012 A 
ATOM     78  C   UNL     1      10.120  -0.866   4.255  1.00  0.00     0.148 A 
ATOM     79  C   UNL     1       9.328  -0.331   6.895  1.00  0.00     0.002 A 
ATOM     80  C   UNL     1       9.965  -1.904   5.166  1.00  0.00     0.091 A 
ATOM     81  F   UNL     1      10.527  -1.081   2.996  1.00  0.00    -0.205 F 
ATOM     82  C   UNL     1       9.585  -1.638   6.490  1.00  0.00     0.022 A 
BRANCH  80  83
ATOM     83  S   UNL     1      10.164  -3.630   4.710  1.00  0.00     0.127 S 
ATOM     84  O   UNL     1      11.337  -4.012   5.492  1.00  0.00    -0.237 OA
ATOM     85  O   UNL     1       8.901  -4.207   5.171  1.00  0.00    -0.237 OA
ATOM     86  O   UNL     1      10.342  -3.639   3.264  1.00  0.00    -0.744 OA
ENDBRANCH  80  83
ENDBRANCH  52  76
BRANCH  64  87
ATOM     87  C   UNL     1      14.100   5.992   4.376  1.00  0.00     0.023 A 
ATOM     88  C   UNL     1      15.343   5.330   4.338  1.00  0.00     0.012 A 
ATOM     89  C   UNL     1      13.961   7.155   5.162  1.00  0.00     0.148 A 
ATOM     90  C   UNL     1      16.422   5.804   5.085  1.00  0.00     0.002 A 
ATOM     91  C   UNL     1      15.053   7.649   5.865  1.00  0.00     0.091 A 
ATOM     92  F   UNL     1      12.766   7.763   5.195  1.00  0.00    -0.205 F 
ATOM     93  C   UNL     1      16.282   6.969   5.837  1.00  0.00     0.022 A 
BRANCH  91  94
ATOM     94  S   UNL     1      14.998   9.192   6.783  1.00  0.00     0.127 S 
ATOM     95  O   UNL     1      15.138   8.724   8.162  1.00  0.00    -0.237 OA
ATOM     96  O   UNL     1      16.163   9.905   6.259  1.00  0.00    -0.237 OA
ATOM     97  O   UNL     1      13.716   9.807   6.465  1.00  0.00    -0.744 OA
ENDBRANCH  91  94
ENDBRANCH  64  87
ENDBRANCH  38  39
ENDBRANCH  31  33
ENDBRANCH  30  31
ENDBRANCH  29  30
ENDBRANCH  28  29
ENDBRANCH  27  28
ENDBRANCH  26  27
ENDBRANCH   1  26
TORSDOF 24
