REMARK SMILES O=C(OCCOCCOCCOC(=O)[C@H](F)[C@H](O)C1CCOCC1)c1ccc(-c2c3nc(c(-c4cccc(S(=O)(=O)[O-])c4F)c4ccc([nH]4)c(-c4cccc(S(=O)(=O)[O-])c4F)c4nc(c(-c5cccc(S(=O)(=O)[O-])c5F)c5ccc2[nH]5)C=C4)C=C3)cc1
REMARK SMILES IDX 7 1 6 2 5 3 4 4 3 5 2 6 1 7 25 8 26 9 87 10 27 11 86 12
REMARK SMILES IDX 28 13 29 14 30 15 80 16 31 17 85 18 79 19 81 20 32 21 84 22
REMARK SMILES IDX 78 23 77 24 33 26 65 27 45 28 64 29 46 30 49 31 63 32 82 33
REMARK SMILES IDX 47 34 48 35 62 37 83 38 50 39 34 40 35 41 43 42 36 43 38 44
REMARK SMILES IDX 44 45 37 46 39 47 40 48 41 49 42 50 66 51 67 52 75 53 68 54
REMARK SMILES IDX 70 55 76 56 69 57 71 58 72 59 73 60 74 61 51 62 52 63 60 64
REMARK SMILES IDX 53 65 55 66 61 67 54 68 56 69 57 70 58 71 59 72 8 73 9 74
REMARK SMILES IDX 10 75 11 76 12 77 13 78 14 79 15 80 16 81 17 82 19 83 20 84
REMARK SMILES IDX 24 85 21 86 23 87 22 88 18 89
REMARK H PARENT 81 25 49 36 18 90
REMARK Flexibility Score: inf
ROOT
ATOM      1  C   UNL     1       1.174  -3.163 -10.465  1.00  0.00     0.188 C 
ENDROOT
BRANCH   1   2
ATOM      2  O   UNL     1       1.491  -4.417  -9.859  1.00  0.00    -0.376 OA
BRANCH   2   3
ATOM      3  C   UNL     1       0.940  -5.563 -10.510  1.00  0.00     0.202 C 
BRANCH   3   4
ATOM      4  C   UNL     1      -0.594  -5.702 -10.524  1.00  0.00     0.261 C 
BRANCH   4   5
ATOM      5  O   UNL     1      -1.310  -4.460 -10.446  1.00  0.00    -0.460 OA
BRANCH   5   6
ATOM      6  C   UNL     1      -1.880  -3.888  -9.352  1.00  0.00     0.338 C 
ATOM      7  O   UNL     1      -2.655  -2.949  -9.526  1.00  0.00    -0.246 OA
BRANCH   6   8
ATOM      8  C   UNL     1      -1.595  -4.324  -7.950  1.00  0.00     0.060 A 
ATOM      9  C   UNL     1      -0.453  -5.017  -7.545  1.00  0.00     0.016 A 
ATOM     10  C   UNL     1      -2.515  -3.946  -6.960  1.00  0.00     0.016 A 
ATOM     11  C   UNL     1      -0.272  -5.433  -6.235  1.00  0.00     0.010 A 
ATOM     12  C   UNL     1      -2.324  -4.321  -5.627  1.00  0.00     0.010 A 
ATOM     13  C   UNL     1      -1.222  -5.111  -5.277  1.00  0.00    -0.014 A 
BRANCH  13  14
ATOM     14  C   UNL     1      -1.149  -5.774  -3.966  1.00  0.00     0.031 A 
ATOM     15  C   UNL     1      -2.128  -6.874  -3.698  1.00  0.00     0.074 A 
ATOM     16  C   UNL     1      -0.196  -5.438  -3.082  1.00  0.00     0.049 A 
ATOM     17  N   UNL     1      -2.375  -7.513  -2.591  1.00  0.00    -0.248 NA
ATOM     18  C   UNL     1      -2.947  -7.311  -4.844  1.00  0.00     0.031 C 
ATOM     19  C   UNL     1       0.854  -4.445  -3.314  1.00  0.00     0.029 A 
ATOM     20  N   UNL     1       0.031  -5.881  -1.807  1.00  0.00    -0.354 N 
ATOM     21  C   UNL     1      -3.433  -8.365  -2.884  1.00  0.00     0.074 A 
ATOM     22  C   UNL     1      -3.762  -8.184  -4.278  1.00  0.00     0.031 C 
ATOM     23  C   UNL     1       1.600  -4.333  -2.203  1.00  0.00     0.029 A 
ATOM     24  C   UNL     1       1.030  -5.188  -1.166  1.00  0.00     0.049 A 
ATOM     25  H   UNL     1      -0.470  -6.620  -1.392  1.00  0.00     0.167 HD
ATOM     26  C   UNL     1      -4.079  -9.207  -2.047  1.00  0.00     0.034 A 
ATOM     27  C   UNL     1       1.388  -5.202   0.132  1.00  0.00     0.034 A 
ATOM     28  C   UNL     1      -3.713  -9.359  -0.668  1.00  0.00     0.049 A 
ATOM     29  C   UNL     1       0.636  -6.119   1.059  1.00  0.00     0.074 A 
ATOM     30  C   UNL     1      -4.287 -10.162   0.296  1.00  0.00     0.029 A 
ATOM     31  N   UNL     1      -2.673  -8.668  -0.058  1.00  0.00    -0.354 N 
ATOM     32  N   UNL     1      -0.358  -6.932   0.782  1.00  0.00    -0.248 NA
ATOM     33  C   UNL     1       1.052  -6.137   2.466  1.00  0.00     0.031 C 
ATOM     34  C   UNL     1      -3.615  -9.928   1.501  1.00  0.00     0.029 A 
ATOM     35  C   UNL     1      -2.591  -9.017   1.274  1.00  0.00     0.049 A 
ATOM     36  H   UNL     1      -2.082  -8.023  -0.510  1.00  0.00     0.167 HD
ATOM     37  C   UNL     1      -0.664  -7.585   1.968  1.00  0.00     0.074 A 
ATOM     38  C   UNL     1       0.255  -7.073   2.968  1.00  0.00     0.031 C 
ATOM     39  C   UNL     1      -1.618  -8.517   2.216  1.00  0.00     0.034 A 
BRANCH  26  40
ATOM     40  C   UNL     1      -5.264  -9.951  -2.603  1.00  0.00     0.023 A 
ATOM     41  C   UNL     1      -5.086 -10.965  -3.567  1.00  0.00     0.012 A 
ATOM     42  C   UNL     1      -6.569  -9.600  -2.207  1.00  0.00     0.148 A 
ATOM     43  C   UNL     1      -6.187 -11.573  -4.170  1.00  0.00     0.002 A 
ATOM     44  C   UNL     1      -7.660 -10.245  -2.776  1.00  0.00     0.091 A 
ATOM     45  F   UNL     1      -6.723  -8.613  -1.313  1.00  0.00    -0.205 F 
ATOM     46  C   UNL     1      -7.473 -11.217  -3.771  1.00  0.00     0.022 A 
BRANCH  44  47
ATOM     47  S   UNL     1      -9.351  -9.901  -2.277  1.00  0.00     0.127 S 
ATOM     48  O   UNL     1      -9.860  -9.175  -3.439  1.00  0.00    -0.237 OA
ATOM     49  O   UNL     1      -9.900 -11.248  -2.111  1.00  0.00    -0.237 OA
ATOM     50  O   UNL     1      -9.257  -9.130  -1.045  1.00  0.00    -0.744 OA
ENDBRANCH  44  47
ENDBRANCH  26  40
BRANCH  27  51
ATOM     51  C   UNL     1       2.486  -4.311   0.604  1.00  0.00     0.023 A 
ATOM     52  C   UNL     1       3.713  -4.866   1.012  1.00  0.00     0.012 A 
ATOM     53  C   UNL     1       2.346  -2.907   0.572  1.00  0.00     0.148 A 
ATOM     54  C   UNL     1       4.776  -4.041   1.390  1.00  0.00     0.002 A 
ATOM     55  C   UNL     1       3.426  -2.092   0.890  1.00  0.00     0.091 A 
ATOM     56  F   UNL     1       1.165  -2.397   0.194  1.00  0.00    -0.205 F 
ATOM     57  C   UNL     1       4.637  -2.657   1.316  1.00  0.00     0.022 A 
BRANCH  55  58
ATOM     58  S   UNL     1       3.387  -0.308   0.679  1.00  0.00     0.127 S 
ATOM     59  O   UNL     1       3.528   0.160   2.056  1.00  0.00    -0.237 OA
ATOM     60  O   UNL     1       4.556  -0.083  -0.174  1.00  0.00    -0.237 OA
ATOM     61  O   UNL     1       2.115  -0.007   0.039  1.00  0.00    -0.744 OA
ENDBRANCH  55  58
ENDBRANCH  27  51
BRANCH  39  62
ATOM     62  C   UNL     1      -1.678  -9.102   3.598  1.00  0.00     0.023 A 
ATOM     63  C   UNL     1      -2.248  -8.368   4.654  1.00  0.00     0.012 A 
ATOM     64  C   UNL     1      -1.301 -10.444   3.801  1.00  0.00     0.148 A 
ATOM     65  C   UNL     1      -2.433  -8.962   5.901  1.00  0.00     0.002 A 
ATOM     66  C   UNL     1      -1.540 -11.045   5.028  1.00  0.00     0.091 A 
ATOM     67  F   UNL     1      -0.744 -11.111   2.780  1.00  0.00    -0.205 F 
ATOM     68  C   UNL     1      -2.097 -10.303   6.082  1.00  0.00     0.022 A 
BRANCH  66  69
ATOM     69  S   UNL     1      -1.251 -12.794   5.311  1.00  0.00     0.127 S 
ATOM     70  O   UNL     1      -0.129 -12.761   6.248  1.00  0.00    -0.237 OA
ATOM     71  O   UNL     1      -2.522 -13.226   5.892  1.00  0.00    -0.237 OA
ATOM     72  O   UNL     1      -0.953 -13.372   4.007  1.00  0.00    -0.744 OA
ENDBRANCH  66  69
ENDBRANCH  39  62
ENDBRANCH  13  14
ENDBRANCH   6   8
ENDBRANCH   5   6
ENDBRANCH   4   5
ENDBRANCH   3   4
ENDBRANCH   2   3
ENDBRANCH   1   2
BRANCH   1  73
ATOM     73  C   UNL     1       2.241  -2.105 -10.194  1.00  0.00     0.188 C 
BRANCH  73  74
ATOM     74  O   UNL     1       3.507  -2.289 -10.830  1.00  0.00    -0.376 OA
BRANCH  74  75
ATOM     75  C   UNL     1       4.146  -3.546 -10.626  1.00  0.00     0.202 C 
BRANCH  75  76
ATOM     76  C   UNL     1       4.733  -3.816  -9.231  1.00  0.00     0.261 C 
BRANCH  76  77
ATOM     77  O   UNL     1       3.838  -3.494  -8.159  1.00  0.00    -0.461 OA
BRANCH  77  78
ATOM     78  C   UNL     1       4.246  -2.532  -7.276  1.00  0.00     0.343 C 
ATOM     79  O   UNL     1       5.374  -2.047  -7.250  1.00  0.00    -0.249 OA
BRANCH  78  80
ATOM     80  C   UNL     1       3.120  -2.163  -6.327  1.00  0.00     0.304 C 
ATOM     81  F   UNL     1       1.885  -2.313  -6.906  1.00  0.00    -0.232 F 
BRANCH  80  82
ATOM     82  C   UNL     1       3.231  -0.734  -5.755  1.00  0.00     0.163 C 
BRANCH  82  83
ATOM     83  C   UNL     1       2.754   0.401  -6.703  1.00  0.00     0.026 C 
ATOM     84  C   UNL     1       3.640   0.581  -7.945  1.00  0.00     0.035 C 
ATOM     85  C   UNL     1       2.677   1.758  -5.970  1.00  0.00     0.035 C 
ATOM     86  C   UNL     1       3.159   1.751  -8.793  1.00  0.00     0.160 C 
ATOM     87  C   UNL     1       2.290   2.889  -6.917  1.00  0.00     0.160 C 
ATOM     88  O   UNL     1       3.174   2.957  -8.035  1.00  0.00    -0.381 OA
ENDBRANCH  82  83
BRANCH  82  89
ATOM     89  O   UNL     1       2.408  -0.713  -4.577  1.00  0.00    -0.389 OA
ATOM     90  H   UNL     1       1.488  -0.900  -4.822  1.00  0.00     0.211 HD
ENDBRANCH  82  89
ENDBRANCH  80  82
ENDBRANCH  78  80
ENDBRANCH  77  78
ENDBRANCH  76  77
ENDBRANCH  75  76
ENDBRANCH  74  75
ENDBRANCH  73  74
ENDBRANCH   1  73
TORSDOF 23
