REMARK SMILES C[C@H]1CCc2sc3ncn4nc(/C=C\C(=O)OCCOCCOCCOC(=O)c5ccc(-c6c7nc(c(-c8cccc(S(=O)(=O)[O-])c8F)c8ccc([nH]8)c(-c8cccc(S(=O)(=O)[O-])c8F)c8nc(c(-c9cccc(S(=O)(=O)[O-])c9F)c9ccc6[nH]9)C=C8)C=C7)cc5)nc4c3c2C1
REMARK SMILES IDX 22 1 21 2 20 3 19 4 18 5 17 6 15 7 16 8 14 9 13 10 12 11
REMARK SMILES IDX 1 12 2 13 3 14 96 15 4 16 95 17 5 18 94 19 6 20 7 21 93 22
REMARK SMILES IDX 8 23 10 24 92 25 9 26 11 27 23 28 24 29 25 30 26 31 27 32
REMARK SMILES IDX 28 33 29 34 30 35 91 36 31 37 90 38 32 39 33 40 34 41 84 42
REMARK SMILES IDX 35 43 89 44 83 45 85 46 36 47 88 48 82 49 81 50 37 52 69 53
REMARK SMILES IDX 49 54 68 55 50 56 53 57 67 58 86 59 51 60 52 61 66 63 87 64
REMARK SMILES IDX 54 65 38 66 39 67 47 68 40 69 42 70 48 71 41 72 43 73 44 74
REMARK SMILES IDX 45 75 46 76 70 77 71 78 79 79 72 80 74 81 80 82 73 83 75 84
REMARK SMILES IDX 76 85 77 86 78 87 55 88 56 89 64 90 57 91 59 92 65 93 58 94
REMARK SMILES IDX 60 95 61 96 62 97 63 98
REMARK H PARENT 85 51 53 62
REMARK Flexibility Score: inf
ROOT
ATOM      1  C   UNL     1       4.056  -4.492  -0.616  1.00  0.00     0.188 C 
ENDROOT
BRANCH   1   2
ATOM      2  C   UNL     1       3.723  -3.969  -2.039  1.00  0.00     0.188 C 
BRANCH   2   3
ATOM      3  O   UNL     1       3.381  -2.605  -2.244  1.00  0.00    -0.376 OA
BRANCH   3   4
ATOM      4  C   UNL     1       2.300  -2.046  -1.510  1.00  0.00     0.202 C 
BRANCH   4   5
ATOM      5  C   UNL     1       1.009  -2.851  -1.292  1.00  0.00     0.261 C 
BRANCH   5   6
ATOM      6  O   UNL     1       1.218  -4.189  -0.844  1.00  0.00    -0.460 OA
BRANCH   6   7
ATOM      7  C   UNL     1       0.530  -5.177  -1.447  1.00  0.00     0.330 C 
ATOM      8  O   UNL     1      -0.247  -5.067  -2.371  1.00  0.00    -0.247 OA
BRANCH   7   9
ATOM      9  C   UNL     1       0.999  -6.497  -0.972  1.00  0.00     0.097 C 
ATOM     10  C   UNL     1       1.216  -6.926   0.281  1.00  0.00     0.058 C 
BRANCH  10  11
ATOM     11  C   UNL     1       1.046  -6.277   1.541  1.00  0.00     0.175 A 
ATOM     12  C   UNL     1      -1.378   0.055   1.772  1.00  0.00     0.008 C 
ATOM     13  C   UNL     1       0.137  -0.120   1.915  1.00  0.00    -0.009 C 
ATOM     14  C   UNL     1       0.730   0.675   3.098  1.00  0.00     0.009 C 
ATOM     15  C   UNL     1       0.499  -1.613   1.998  1.00  0.00     0.041 C 
ATOM     16  C   UNL     1       0.317   0.132   4.478  1.00  0.00     0.047 C 
ATOM     17  C   UNL     1       0.505  -2.158   3.383  1.00  0.00    -0.020 A 
ATOM     18  C   UNL     1       0.436  -1.361   4.507  1.00  0.00     0.011 A 
ATOM     19  C   UNL     1       0.625  -3.514   3.747  1.00  0.00     0.060 A 
ATOM     20  S   UNL     1       0.473  -2.266   5.958  1.00  0.00    -0.120 S 
ATOM     21  C   UNL     1       0.629  -3.750   5.112  1.00  0.00     0.129 A 
ATOM     22  C   UNL     1       0.772  -4.726   2.925  1.00  0.00     0.168 A 
ATOM     23  N   UNL     1       0.743  -4.965   5.752  1.00  0.00    -0.225 NA
ATOM     24  N   UNL     1       0.941  -5.902   3.583  1.00  0.00    -0.201 N 
ATOM     25  N   UNL     1       0.767  -4.933   1.635  1.00  0.00    -0.207 NA
ATOM     26  C   UNL     1       0.907  -6.008   4.973  1.00  0.00     0.227 A 
ATOM     27  N   UNL     1       1.123  -6.921   2.724  1.00  0.00    -0.145 NA
ENDBRANCH  10  11
ENDBRANCH   7   9
ENDBRANCH   6   7
ENDBRANCH   5   6
ENDBRANCH   4   5
ENDBRANCH   3   4
ENDBRANCH   2   3
ENDBRANCH   1   2
BRANCH   1  28
ATOM     28  O   UNL     1       3.491  -3.771   0.458  1.00  0.00    -0.376 OA
BRANCH  28  29
ATOM     29  C   UNL     1       4.226  -2.898   1.299  1.00  0.00     0.202 C 
BRANCH  29  30
ATOM     30  C   UNL     1       5.472  -2.126   0.889  1.00  0.00     0.261 C 
BRANCH  30  31
ATOM     31  O   UNL     1       5.772  -2.205  -0.480  1.00  0.00    -0.460 OA
BRANCH  31  32
ATOM     32  C   UNL     1       6.712  -3.130  -0.748  1.00  0.00     0.338 C 
ATOM     33  O   UNL     1       7.171  -3.966   0.017  1.00  0.00    -0.246 OA
BRANCH  32  34
ATOM     34  C   UNL     1       7.181  -2.938  -2.112  1.00  0.00     0.060 A 
ATOM     35  C   UNL     1       8.000  -3.954  -2.601  1.00  0.00     0.016 A 
ATOM     36  C   UNL     1       7.205  -1.622  -2.594  1.00  0.00     0.016 A 
ATOM     37  C   UNL     1       9.088  -3.566  -3.330  1.00  0.00     0.010 A 
ATOM     38  C   UNL     1       8.303  -1.236  -3.306  1.00  0.00     0.010 A 
ATOM     39  C   UNL     1       9.277  -2.196  -3.553  1.00  0.00    -0.014 A 
BRANCH  39  40
ATOM     40  C   UNL     1      10.512  -1.793  -4.166  1.00  0.00     0.031 A 
ATOM     41  C   UNL     1      10.509  -2.122  -5.599  1.00  0.00     0.074 A 
ATOM     42  C   UNL     1      11.490  -1.175  -3.484  1.00  0.00     0.049 A 
ATOM     43  N   UNL     1      11.102  -3.123  -6.155  1.00  0.00    -0.248 NA
ATOM     44  C   UNL     1       9.517  -1.452  -6.451  1.00  0.00     0.031 C 
ATOM     45  C   UNL     1      11.454  -0.596  -2.139  1.00  0.00     0.029 A 
ATOM     46  N   UNL     1      12.721  -0.828  -3.931  1.00  0.00    -0.354 N 
ATOM     47  C   UNL     1      10.764  -3.029  -7.498  1.00  0.00     0.074 A 
ATOM     48  C   UNL     1       9.597  -2.194  -7.555  1.00  0.00     0.031 C 
ATOM     49  C   UNL     1      12.506   0.248  -1.996  1.00  0.00     0.029 A 
ATOM     50  C   UNL     1      13.348   0.156  -3.178  1.00  0.00     0.049 A 
ATOM     51  H   UNL     1      13.136  -1.238  -4.723  1.00  0.00     0.167 HD
ATOM     52  C   UNL     1      11.669  -3.370  -8.452  1.00  0.00     0.034 A 
ATOM     53  C   UNL     1      14.422   0.885  -3.573  1.00  0.00     0.034 A 
ATOM     54  C   UNL     1      12.722  -4.186  -7.885  1.00  0.00     0.049 A 
ATOM     55  C   UNL     1      15.084   0.118  -4.660  1.00  0.00     0.074 A 
ATOM     56  C   UNL     1      12.762  -5.396  -7.221  1.00  0.00     0.029 A 
ATOM     57  N   UNL     1      13.909  -3.553  -7.597  1.00  0.00    -0.354 N 
ATOM     58  N   UNL     1      15.664  -1.034  -4.471  1.00  0.00    -0.248 NA
ATOM     59  C   UNL     1      14.680   0.401  -6.030  1.00  0.00     0.031 C 
ATOM     60  C   UNL     1      13.760  -5.235  -6.216  1.00  0.00     0.029 A 
ATOM     61  C   UNL     1      14.328  -3.967  -6.362  1.00  0.00     0.049 A 
ATOM     62  H   UNL     1      14.377  -2.913  -8.180  1.00  0.00     0.167 HD
ATOM     63  C   UNL     1      15.276  -1.798  -5.566  1.00  0.00     0.074 A 
ATOM     64  C   UNL     1      14.759  -0.833  -6.538  1.00  0.00     0.031 C 
ATOM     65  C   UNL     1      15.120  -3.151  -5.463  1.00  0.00     0.034 A 
BRANCH  52  66
ATOM     66  C   UNL     1      11.855  -2.622  -9.757  1.00  0.00     0.023 A 
ATOM     67  C   UNL     1      12.871  -3.104 -10.612  1.00  0.00     0.012 A 
ATOM     68  C   UNL     1      11.312  -1.353 -10.074  1.00  0.00     0.148 A 
ATOM     69  C   UNL     1      13.387  -2.329 -11.654  1.00  0.00     0.002 A 
ATOM     70  C   UNL     1      11.779  -0.614 -11.153  1.00  0.00     0.091 A 
ATOM     71  F   UNL     1      10.411  -0.776  -9.282  1.00  0.00    -0.205 F 
ATOM     72  C   UNL     1      12.843  -1.080 -11.923  1.00  0.00     0.022 A 
BRANCH  70  73
ATOM     73  S   UNL     1      11.080   0.991 -11.573  1.00  0.00     0.127 S 
ATOM     74  O   UNL     1      12.174   1.888 -11.216  1.00  0.00    -0.237 OA
ATOM     75  O   UNL     1      10.842   0.840 -13.009  1.00  0.00    -0.237 OA
ATOM     76  O   UNL     1       9.865   1.121 -10.778  1.00  0.00    -0.744 OA
ENDBRANCH  70  73
ENDBRANCH  52  66
BRANCH  53  77
ATOM     77  C   UNL     1      14.729   2.320  -3.339  1.00  0.00     0.023 A 
ATOM     78  C   UNL     1      16.027   2.803  -3.608  1.00  0.00     0.012 A 
ATOM     79  C   UNL     1      13.696   3.266  -3.155  1.00  0.00     0.148 A 
ATOM     80  C   UNL     1      16.279   4.176  -3.732  1.00  0.00     0.002 A 
ATOM     81  C   UNL     1      13.950   4.629  -3.282  1.00  0.00     0.091 A 
ATOM     82  F   UNL     1      12.448   2.827  -2.949  1.00  0.00    -0.205 F 
ATOM     83  C   UNL     1      15.238   5.088  -3.582  1.00  0.00     0.022 A 
BRANCH  81  84
ATOM     84  S   UNL     1      12.647   5.864  -3.157  1.00  0.00     0.127 S 
ATOM     85  O   UNL     1      13.214   6.803  -2.188  1.00  0.00    -0.237 OA
ATOM     86  O   UNL     1      12.576   6.365  -4.526  1.00  0.00    -0.237 OA
ATOM     87  O   UNL     1      11.466   5.154  -2.684  1.00  0.00    -0.744 OA
ENDBRANCH  81  84
ENDBRANCH  53  77
BRANCH  65  88
ATOM     88  C   UNL     1      15.587  -3.834  -4.198  1.00  0.00     0.023 A 
ATOM     89  C   UNL     1      14.990  -3.590  -2.941  1.00  0.00     0.012 A 
ATOM     90  C   UNL     1      16.487  -4.905  -4.323  1.00  0.00     0.148 A 
ATOM     91  C   UNL     1      15.290  -4.395  -1.837  1.00  0.00     0.002 A 
ATOM     92  C   UNL     1      16.739  -5.736  -3.238  1.00  0.00     0.091 A 
ATOM     93  F   UNL     1      17.046  -5.122  -5.523  1.00  0.00    -0.205 F 
ATOM     94  C   UNL     1      16.150  -5.479  -1.990  1.00  0.00     0.022 A 
BRANCH  92  95
ATOM     95  S   UNL     1      17.710  -7.234  -3.410  1.00  0.00     0.127 S 
ATOM     96  O   UNL     1      18.930  -6.893  -2.681  1.00  0.00    -0.237 OA
ATOM     97  O   UNL     1      16.863  -8.232  -2.753  1.00  0.00    -0.237 OA
ATOM     98  O   UNL     1      17.877  -7.446  -4.843  1.00  0.00    -0.744 OA
ENDBRANCH  92  95
ENDBRANCH  65  88
ENDBRANCH  39  40
ENDBRANCH  32  34
ENDBRANCH  31  32
ENDBRANCH  30  31
ENDBRANCH  29  30
ENDBRANCH  28  29
ENDBRANCH   1  28
TORSDOF 21
