REMARK SMILES O=C(OCCOCCOCCOC(=O)[C@@H]1C[C@@H](O)CN1C(=O)CSc1ccc(F)cc1F)c1ccc(-c2c3nc(c(-c4cccc(S(=O)(=O)[O-])c4F)c4ccc([nH]4)c(-c4cccc(S(=O)(=O)[O-])c4F)c4nc(c(-c5cccc(S(=O)(=O)[O-])c5F)c5ccc2[nH]5)C=C4)C=C3)cc1
REMARK SMILES IDX 8 1 7 2 6 3 5 4 4 5 3 6 2 7 1 8 33 9 34 10 95 11 35 12 94 13
REMARK SMILES IDX 36 14 37 15 38 16 88 17 39 18 93 19 87 20 89 21 40 22 92 23
REMARK SMILES IDX 86 24 85 25 41 27 73 28 53 29 72 30 54 31 57 32 71 33 90 34
REMARK SMILES IDX 55 35 56 36 70 38 91 39 58 40 42 41 43 42 51 43 44 44 46 45
REMARK SMILES IDX 52 46 45 47 47 48 48 49 49 50 50 51 74 52 75 53 83 54 76 55
REMARK SMILES IDX 78 56 84 57 77 58 79 59 80 60 81 61 82 62 59 63 60 64 68 65
REMARK SMILES IDX 61 66 63 67 69 68 62 69 64 70 65 71 66 72 67 73 9 74 10 75
REMARK SMILES IDX 11 76 12 77 13 78 14 79 15 80 16 81 20 82 17 83 19 84 21 85
REMARK SMILES IDX 22 86 23 87 24 88 25 89 26 90 31 91 27 92 30 93 32 94 28 95
REMARK SMILES IDX 29 96 18 97
REMARK H PARENT 89 26 57 37 18 98
REMARK Flexibility Score: inf
ROOT
ATOM      1  C   UNL     1       1.076  -5.798   4.829  1.00  0.00     0.188 C 
ENDROOT
BRANCH   1   2
ATOM      2  C   UNL     1      -0.358  -6.257   4.652  1.00  0.00     0.188 C 
BRANCH   2   3
ATOM      3  O   UNL     1      -1.315  -5.198   4.616  1.00  0.00    -0.376 OA
BRANCH   3   4
ATOM      4  C   UNL     1      -2.637  -5.665   4.901  1.00  0.00     0.202 C 
BRANCH   4   5
ATOM      5  C   UNL     1      -3.329  -6.533   3.823  1.00  0.00     0.261 C 
BRANCH   5   6
ATOM      6  O   UNL     1      -2.450  -7.359   3.039  1.00  0.00    -0.460 OA
BRANCH   6   7
ATOM      7  C   UNL     1      -2.052  -7.170   1.753  1.00  0.00     0.338 C 
ATOM      8  O   UNL     1      -1.689  -8.153   1.110  1.00  0.00    -0.246 OA
BRANCH   7   9
ATOM      9  C   UNL     1      -1.903  -5.814   1.121  1.00  0.00     0.060 A 
ATOM     10  C   UNL     1      -2.240  -4.606   1.729  1.00  0.00     0.016 A 
ATOM     11  C   UNL     1      -1.344  -5.754  -0.172  1.00  0.00     0.016 A 
ATOM     12  C   UNL     1      -2.077  -3.389   1.084  1.00  0.00     0.010 A 
ATOM     13  C   UNL     1      -1.159  -4.528  -0.828  1.00  0.00     0.010 A 
ATOM     14  C   UNL     1      -1.550  -3.342  -0.201  1.00  0.00    -0.014 A 
BRANCH  14  15
ATOM     15  C   UNL     1      -1.553  -2.036  -0.881  1.00  0.00     0.031 A 
ATOM     16  C   UNL     1      -2.705  -1.705  -1.773  1.00  0.00     0.074 A 
ATOM     17  C   UNL     1      -0.624  -1.115  -0.573  1.00  0.00     0.049 A 
ATOM     18  N   UNL     1      -2.973  -0.582  -2.377  1.00  0.00    -0.248 NA
ATOM     19  C   UNL     1      -3.721  -2.756  -1.964  1.00  0.00     0.031 C 
ATOM     20  C   UNL     1       0.442  -1.305   0.407  1.00  0.00     0.029 A 
ATOM     21  N   UNL     1      -0.420   0.155  -1.039  1.00  0.00    -0.354 N 
ATOM     22  C   UNL     1      -4.188  -0.783  -3.013  1.00  0.00     0.074 A 
ATOM     23  C   UNL     1      -4.606  -2.138  -2.732  1.00  0.00     0.031 C 
ATOM     24  C   UNL     1       1.236  -0.223   0.417  1.00  0.00     0.029 A 
ATOM     25  C   UNL     1       0.735   0.730  -0.564  1.00  0.00     0.049 A 
ATOM     26  H   UNL     1      -1.039   0.611  -1.654  1.00  0.00     0.167 HD
ATOM     27  C   UNL     1      -4.893   0.097  -3.757  1.00  0.00     0.034 A 
ATOM     28  C   UNL     1       1.330   1.886  -0.912  1.00  0.00     0.034 A 
ATOM     29  C   UNL     1      -4.439   1.427  -4.047  1.00  0.00     0.049 A 
ATOM     30  C   UNL     1       0.605   2.779  -1.877  1.00  0.00     0.074 A 
ATOM     31  C   UNL     1      -5.054   2.399  -4.812  1.00  0.00     0.029 A 
ATOM     32  N   UNL     1      -3.234   1.958  -3.608  1.00  0.00    -0.354 N 
ATOM     33  N   UNL     1      -0.581   2.610  -2.412  1.00  0.00    -0.248 NA
ATOM     34  C   UNL     1       1.265   4.034  -2.254  1.00  0.00     0.031 C 
ATOM     35  C   UNL     1      -4.198   3.504  -4.871  1.00  0.00     0.029 A 
ATOM     36  C   UNL     1      -3.068   3.233  -4.113  1.00  0.00     0.049 A 
ATOM     37  H   UNL     1      -2.592   1.494  -3.023  1.00  0.00     0.167 HD
ATOM     38  C   UNL     1      -0.834   3.759  -3.146  1.00  0.00     0.074 A 
ATOM     39  C   UNL     1       0.322   4.619  -2.981  1.00  0.00     0.031 C 
ATOM     40  C   UNL     1      -1.921   4.077  -3.889  1.00  0.00     0.034 A 
BRANCH  27  41
ATOM     41  C   UNL     1      -6.198  -0.376  -4.326  1.00  0.00     0.023 A 
ATOM     42  C   UNL     1      -7.332  -0.481  -3.497  1.00  0.00     0.012 A 
ATOM     43  C   UNL     1      -6.297  -0.712  -5.688  1.00  0.00     0.148 A 
ATOM     44  C   UNL     1      -8.545  -0.936  -4.014  1.00  0.00     0.002 A 
ATOM     45  C   UNL     1      -7.515  -1.132  -6.203  1.00  0.00     0.091 A 
ATOM     46  F   UNL     1      -5.194  -0.630  -6.445  1.00  0.00    -0.205 F 
ATOM     47  C   UNL     1      -8.638  -1.254  -5.367  1.00  0.00     0.022 A 
BRANCH  45  48
ATOM     48  S   UNL     1      -7.749  -1.526  -7.939  1.00  0.00     0.127 S 
ATOM     49  O   UNL     1      -8.097  -2.945  -7.874  1.00  0.00    -0.237 OA
ATOM     50  O   UNL     1      -8.855  -0.641  -8.303  1.00  0.00    -0.237 OA
ATOM     51  O   UNL     1      -6.483  -1.232  -8.595  1.00  0.00    -0.744 OA
ENDBRANCH  45  48
ENDBRANCH  27  41
BRANCH  28  52
ATOM     52  C   UNL     1       2.670   2.244  -0.369  1.00  0.00     0.023 A 
ATOM     53  C   UNL     1       2.834   3.366   0.464  1.00  0.00     0.012 A 
ATOM     54  C   UNL     1       3.797   1.464  -0.691  1.00  0.00     0.148 A 
ATOM     55  C   UNL     1       4.102   3.725   0.931  1.00  0.00     0.002 A 
ATOM     56  C   UNL     1       5.045   1.793  -0.177  1.00  0.00     0.091 A 
ATOM     57  F   UNL     1       3.633   0.407  -1.501  1.00  0.00    -0.205 F 
ATOM     58  C   UNL     1       5.207   2.936   0.618  1.00  0.00     0.022 A 
BRANCH  56  59
ATOM     59  S   UNL     1       6.460   0.717  -0.426  1.00  0.00     0.127 S 
ATOM     60  O   UNL     1       7.128   1.354  -1.554  1.00  0.00    -0.237 OA
ATOM     61  O   UNL     1       7.160   0.824   0.853  1.00  0.00    -0.237 OA
ATOM     62  O   UNL     1       5.876  -0.602  -0.671  1.00  0.00    -0.744 OA
ENDBRANCH  56  59
ENDBRANCH  28  52
BRANCH  40  63
ATOM     63  C   UNL     1      -1.928   5.427  -4.545  1.00  0.00     0.023 A 
ATOM     64  C   UNL     1      -1.113   5.668  -5.667  1.00  0.00     0.012 A 
ATOM     65  C   UNL     1      -2.808   6.428  -4.092  1.00  0.00     0.148 A 
ATOM     66  C   UNL     1      -1.154   6.900  -6.314  1.00  0.00     0.002 A 
ATOM     67  C   UNL     1      -2.885   7.632  -4.776  1.00  0.00     0.091 A 
ATOM     68  F   UNL     1      -3.556   6.181  -3.006  1.00  0.00    -0.205 F 
ATOM     69  C   UNL     1      -2.049   7.875  -5.879  1.00  0.00     0.022 A 
BRANCH  67  70
ATOM     70  S   UNL     1      -4.086   8.896  -4.353  1.00  0.00     0.127 S 
ATOM     71  O   UNL     1      -3.241   9.914  -3.732  1.00  0.00    -0.237 OA
ATOM     72  O   UNL     1      -4.624   9.263  -5.663  1.00  0.00    -0.237 OA
ATOM     73  O   UNL     1      -5.047   8.254  -3.465  1.00  0.00    -0.744 OA
ENDBRANCH  67  70
ENDBRANCH  40  63
ENDBRANCH  14  15
ENDBRANCH   7   9
ENDBRANCH   6   7
ENDBRANCH   5   6
ENDBRANCH   4   5
ENDBRANCH   3   4
ENDBRANCH   2   3
ENDBRANCH   1   2
BRANCH   1  74
ATOM     74  O   UNL     1       1.407  -5.334   6.129  1.00  0.00    -0.376 OA
BRANCH  74  75
ATOM     75  C   UNL     1       0.883  -4.067   6.490  1.00  0.00     0.202 C 
BRANCH  75  76
ATOM     76  C   UNL     1       1.460  -2.831   5.774  1.00  0.00     0.261 C 
BRANCH  76  77
ATOM     77  O   UNL     1       2.020  -3.079   4.478  1.00  0.00    -0.462 OA
BRANCH  77  78
ATOM     78  C   UNL     1       3.318  -3.522   4.463  1.00  0.00     0.329 C 
ATOM     79  O   UNL     1       4.019  -3.576   5.466  1.00  0.00    -0.250 OA
BRANCH  78  80
ATOM     80  C   UNL     1       3.766  -3.980   3.045  1.00  0.00     0.197 C 
ATOM     81  C   UNL     1       2.962  -3.268   1.945  1.00  0.00     0.070 C 
ATOM     82  N   UNL     1       3.711  -5.404   2.608  1.00  0.00    -0.325 N 
ATOM     83  C   UNL     1       3.339  -4.022   0.685  1.00  0.00     0.136 C 
ATOM     84  C   UNL     1       3.384  -5.473   1.179  1.00  0.00     0.152 C 
BRANCH  82  85
ATOM     85  C   UNL     1       4.234  -6.435   3.362  1.00  0.00     0.233 C 
ATOM     86  O   UNL     1       4.488  -6.269   4.559  1.00  0.00    -0.274 OA
BRANCH  85  87
ATOM     87  C   UNL     1       4.625  -7.775   2.730  1.00  0.00     0.175 C 
BRANCH  87  88
ATOM     88  S   UNL     1       3.370  -8.669   1.756  1.00  0.00    -0.113 SA
BRANCH  88  89
ATOM     89  C   UNL     1       2.419  -9.527   2.993  1.00  0.00     0.044 A 
ATOM     90  C   UNL     1       1.165  -9.009   3.314  1.00  0.00     0.021 A 
ATOM     91  C   UNL     1       2.780 -10.760   3.545  1.00  0.00     0.139 A 
ATOM     92  C   UNL     1       0.333  -9.646   4.240  1.00  0.00     0.040 A 
ATOM     93  C   UNL     1       1.946 -11.423   4.448  1.00  0.00     0.079 A 
ATOM     94  F   UNL     1       3.925 -11.359   3.183  1.00  0.00    -0.206 F 
ATOM     95  C   UNL     1       0.737 -10.844   4.806  1.00  0.00     0.126 A 
ATOM     96  F   UNL     1      -0.064 -11.461   5.685  1.00  0.00    -0.207 F 
ENDBRANCH  88  89
ENDBRANCH  87  88
ENDBRANCH  85  87
ENDBRANCH  82  85
BRANCH  83  97
ATOM     97  O   UNL     1       4.630  -3.638   0.237  1.00  0.00    -0.391 OA
ATOM     98  H   UNL     1       5.275  -3.779   0.948  1.00  0.00     0.211 HD
ENDBRANCH  83  97
ENDBRANCH  78  80
ENDBRANCH  77  78
ENDBRANCH  76  77
ENDBRANCH  75  76
ENDBRANCH  74  75
ENDBRANCH   1  74
TORSDOF 25
