REMARK SMILES O=C(OCCOCCOCCOC(=O)[C@@H]([NH2+]Cc1ccc([N+](=O)[O-])c(F)c1)C1CC1)c1ccc(-c2c3nc(c(-c4cccc(S(=O)(=O)[O-])c4F)c4ccc([nH]4)c(-c4cccc(S(=O)(=O)[O-])c4F)c4nc(c(-c5cccc(S(=O)(=O)[O-])c5F)c5ccc2[nH]5)C=C4)C=C3)cc1
REMARK SMILES IDX 8 1 7 2 6 3 5 4 4 5 3 6 2 7 1 8 31 9 32 10 93 11 33 12 92 13
REMARK SMILES IDX 34 14 35 15 36 16 86 17 37 18 91 19 85 20 87 21 38 22 90 23
REMARK SMILES IDX 84 24 83 25 39 27 71 28 51 29 70 30 52 31 55 32 69 33 88 34
REMARK SMILES IDX 53 35 54 36 68 38 89 39 56 40 40 41 41 42 49 43 42 44 44 45
REMARK SMILES IDX 50 46 43 47 45 48 46 49 47 50 48 51 72 52 73 53 81 54 74 55
REMARK SMILES IDX 76 56 82 57 75 58 77 59 78 60 79 61 80 62 57 63 58 64 66 65
REMARK SMILES IDX 59 66 61 67 67 68 60 69 62 70 63 71 64 72 65 73 9 74 10 75
REMARK SMILES IDX 11 76 12 77 13 78 14 79 15 80 16 81 17 84 18 85 19 86 27 87
REMARK SMILES IDX 20 88 25 89 21 90 26 91 22 92 23 93 24 94 28 95 29 96 30 97
REMARK H PARENT 87 26 55 37 16 82 16 83
REMARK Flexibility Score: inf
ROOT
ATOM      1  C   UNL     1       1.903   1.061  -2.844  1.00  0.00     0.188 C 
ENDROOT
BRANCH   1   2
ATOM      2  C   UNL     1       2.493   0.131  -1.785  1.00  0.00     0.188 C 
BRANCH   2   3
ATOM      3  O   UNL     1       3.836   0.458  -1.418  1.00  0.00    -0.376 OA
BRANCH   3   4
ATOM      4  C   UNL     1       4.692  -0.683  -1.272  1.00  0.00     0.202 C 
BRANCH   4   5
ATOM      5  C   UNL     1       4.452  -1.547  -0.018  1.00  0.00     0.261 C 
BRANCH   5   6
ATOM      6  O   UNL     1       3.088  -1.536   0.442  1.00  0.00    -0.460 OA
BRANCH   6   7
ATOM      7  C   UNL     1       2.489  -0.676   1.306  1.00  0.00     0.338 C 
ATOM      8  O   UNL     1       1.302  -0.856   1.574  1.00  0.00    -0.246 OA
BRANCH   7   9
ATOM      9  C   UNL     1       3.176   0.494   1.936  1.00  0.00     0.060 A 
ATOM     10  C   UNL     1       4.375   1.049   1.494  1.00  0.00     0.016 A 
ATOM     11  C   UNL     1       2.551   1.098   3.042  1.00  0.00     0.016 A 
ATOM     12  C   UNL     1       5.019   2.053   2.190  1.00  0.00     0.010 A 
ATOM     13  C   UNL     1       3.164   2.156   3.724  1.00  0.00     0.010 A 
ATOM     14  C   UNL     1       4.437   2.588   3.329  1.00  0.00    -0.014 A 
BRANCH  14  15
ATOM     15  C   UNL     1       5.298   3.424   4.182  1.00  0.00     0.031 A 
ATOM     16  C   UNL     1       5.819   2.805   5.443  1.00  0.00     0.074 A 
ATOM     17  C   UNL     1       5.744   4.617   3.747  1.00  0.00     0.049 A 
ATOM     18  N   UNL     1       6.632   3.308   6.327  1.00  0.00    -0.248 NA
ATOM     19  C   UNL     1       5.413   1.413   5.723  1.00  0.00     0.031 C 
ATOM     20  C   UNL     1       5.443   5.204   2.442  1.00  0.00     0.029 A 
ATOM     21  N   UNL     1       6.553   5.548   4.340  1.00  0.00    -0.354 N 
ATOM     22  C   UNL     1       6.818   2.308   7.270  1.00  0.00     0.074 A 
ATOM     23  C   UNL     1       6.022   1.173   6.873  1.00  0.00     0.031 C 
ATOM     24  C   UNL     1       5.982   6.428   2.362  1.00  0.00     0.029 A 
ATOM     25  C   UNL     1       6.683   6.705   3.606  1.00  0.00     0.049 A 
ATOM     26  H   UNL     1       6.998   5.404   5.206  1.00  0.00     0.167 HD
ATOM     27  C   UNL     1       7.612   2.333   8.360  1.00  0.00     0.034 A 
ATOM     28  C   UNL     1       7.294   7.863   3.913  1.00  0.00     0.034 A 
ATOM     29  C   UNL     1       8.412   3.467   8.713  1.00  0.00     0.049 A 
ATOM     30  C   UNL     1       8.070   7.912   5.196  1.00  0.00     0.074 A 
ATOM     31  C   UNL     1       9.239   3.625   9.806  1.00  0.00     0.029 A 
ATOM     32  N   UNL     1       8.472   4.644   7.979  1.00  0.00    -0.354 N 
ATOM     33  N   UNL     1       8.262   6.949   6.067  1.00  0.00    -0.248 NA
ATOM     34  C   UNL     1       8.746   9.171   5.526  1.00  0.00     0.031 C 
ATOM     35  C   UNL     1       9.766   4.917   9.757  1.00  0.00     0.029 A 
ATOM     36  C   UNL     1       9.301   5.548   8.611  1.00  0.00     0.049 A 
ATOM     37  H   UNL     1       7.994   4.809   7.135  1.00  0.00     0.167 HD
ATOM     38  C   UNL     1       9.108   7.472   7.033  1.00  0.00     0.074 A 
ATOM     39  C   UNL     1       9.401   8.835   6.631  1.00  0.00     0.031 C 
ATOM     40  C   UNL     1       9.592   6.884   8.153  1.00  0.00     0.034 A 
BRANCH  27  41
ATOM     41  C   UNL     1       7.631   1.118   9.240  1.00  0.00     0.023 A 
ATOM     42  C   UNL     1       8.304  -0.049   8.827  1.00  0.00     0.012 A 
ATOM     43  C   UNL     1       7.001   1.149  10.498  1.00  0.00     0.148 A 
ATOM     44  C   UNL     1       8.334  -1.175   9.649  1.00  0.00     0.002 A 
ATOM     45  C   UNL     1       7.075   0.041  11.330  1.00  0.00     0.091 A 
ATOM     46  F   UNL     1       6.339   2.260  10.851  1.00  0.00    -0.205 F 
ATOM     47  C   UNL     1       7.731  -1.126  10.904  1.00  0.00     0.022 A 
BRANCH  45  48
ATOM     48  S   UNL     1       6.389   0.032  12.989  1.00  0.00     0.127 S 
ATOM     49  O   UNL     1       5.386  -1.030  12.886  1.00  0.00    -0.237 OA
ATOM     50  O   UNL     1       7.561  -0.316  13.796  1.00  0.00    -0.237 OA
ATOM     51  O   UNL     1       5.857   1.363  13.217  1.00  0.00    -0.744 OA
ENDBRANCH  45  48
ENDBRANCH  27  41
BRANCH  28  52
ATOM     52  C   UNL     1       7.207   9.020   2.979  1.00  0.00     0.023 A 
ATOM     53  C   UNL     1       8.351   9.467   2.293  1.00  0.00     0.012 A 
ATOM     54  C   UNL     1       5.967   9.642   2.720  1.00  0.00     0.148 A 
ATOM     55  C   UNL     1       8.267  10.526   1.385  1.00  0.00     0.002 A 
ATOM     56  C   UNL     1       5.880  10.659   1.776  1.00  0.00     0.091 A 
ATOM     57  F   UNL     1       4.888   9.211   3.389  1.00  0.00    -0.205 F 
ATOM     58  C   UNL     1       7.032  11.114   1.119  1.00  0.00     0.022 A 
BRANCH  56  59
ATOM     59  S   UNL     1       4.309  11.371   1.273  1.00  0.00     0.127 S 
ATOM     60  O   UNL     1       4.383  12.704   1.864  1.00  0.00    -0.237 OA
ATOM     61  O   UNL     1       4.415  11.333  -0.186  1.00  0.00    -0.237 OA
ATOM     62  O   UNL     1       3.286  10.488   1.819  1.00  0.00    -0.744 OA
ENDBRANCH  56  59
ENDBRANCH  28  52
BRANCH  40  63
ATOM     63  C   UNL     1      10.494   7.701   9.031  1.00  0.00     0.023 A 
ATOM     64  C   UNL     1       9.939   8.700   9.852  1.00  0.00     0.012 A 
ATOM     65  C   UNL     1      11.853   7.360   9.159  1.00  0.00     0.148 A 
ATOM     66  C   UNL     1      10.731   9.355  10.790  1.00  0.00     0.002 A 
ATOM     67  C   UNL     1      12.621   7.975  10.136  1.00  0.00     0.091 A 
ATOM     68  F   UNL     1      12.353   6.412   8.351  1.00  0.00    -0.205 F 
ATOM     69  C   UNL     1      12.065   8.979  10.945  1.00  0.00     0.022 A 
BRANCH  67  70
ATOM     70  S   UNL     1      14.305   7.469  10.494  1.00  0.00     0.127 S 
ATOM     71  O   UNL     1      15.061   8.658  10.102  1.00  0.00    -0.237 OA
ATOM     72  O   UNL     1      14.251   7.226  11.936  1.00  0.00    -0.237 OA
ATOM     73  O   UNL     1      14.554   6.284   9.685  1.00  0.00    -0.744 OA
ENDBRANCH  67  70
ENDBRANCH  40  63
ENDBRANCH  14  15
ENDBRANCH   7   9
ENDBRANCH   6   7
ENDBRANCH   5   6
ENDBRANCH   4   5
ENDBRANCH   3   4
ENDBRANCH   2   3
ENDBRANCH   1   2
BRANCH   1  74
ATOM     74  O   UNL     1       2.523   1.048  -4.125  1.00  0.00    -0.376 OA
BRANCH  74  75
ATOM     75  C   UNL     1       3.921   1.299  -4.170  1.00  0.00     0.202 C 
BRANCH  75  76
ATOM     76  C   UNL     1       4.435   2.693  -3.777  1.00  0.00     0.261 C 
BRANCH  76  77
ATOM     77  O   UNL     1       3.909   3.267  -2.568  1.00  0.00    -0.459 OA
BRANCH  77  78
ATOM     78  C   UNL     1       2.961   4.236  -2.755  1.00  0.00     0.365 C 
ATOM     79  O   UNL     1       2.439   4.473  -3.842  1.00  0.00    -0.245 OA
BRANCH  78  80
ATOM     80  C   UNL     1       2.658   5.084  -1.482  1.00  0.00     0.296 C 
BRANCH  80  81
ATOM     81  N   UNL     1       2.978   4.366  -0.232  1.00  0.00    -0.331 N 
ATOM     82  H   UNL     1       3.992   4.352  -0.122  1.00  0.00     0.347 HD
ATOM     83  H   UNL     1       2.576   3.433  -0.320  1.00  0.00     0.347 HD
BRANCH  81  84
ATOM     84  C   UNL     1       2.393   4.964   0.978  1.00  0.00     0.298 C 
BRANCH  84  85
ATOM     85  C   UNL     1       0.884   5.008   1.035  1.00  0.00     0.010 A 
ATOM     86  C   UNL     1       0.132   3.826   1.073  1.00  0.00     0.017 A 
ATOM     87  C   UNL     1       0.214   6.241   1.105  1.00  0.00     0.056 A 
ATOM     88  C   UNL     1      -1.264   3.877   1.137  1.00  0.00     0.089 A 
ATOM     89  C   UNL     1      -1.177   6.297   1.158  1.00  0.00     0.201 A 
ATOM     90  C   UNL     1      -1.918   5.120   1.164  1.00  0.00     0.304 A 
ATOM     91  F   UNL     1      -1.752   7.506   1.203  1.00  0.00    -0.199 F 
BRANCH  90  92
ATOM     92  N   UNL     1      -3.378   5.161   1.189  1.00  0.00     0.065 N 
ATOM     93  O   UNL     1      -3.976   4.073   1.212  1.00  0.00    -0.258 OA
ATOM     94  O   UNL     1      -3.953   6.256   1.167  1.00  0.00    -0.258 OA
ENDBRANCH  90  92
ENDBRANCH  84  85
ENDBRANCH  81  84
ENDBRANCH  80  81
BRANCH  80  95
ATOM     95  C   UNL     1       3.422   6.377  -1.623  1.00  0.00     0.059 C 
ATOM     96  C   UNL     1       2.672   7.538  -2.240  1.00  0.00     0.011 C 
ATOM     97  C   UNL     1       3.217   7.662  -0.852  1.00  0.00     0.011 C 
ENDBRANCH  80  95
ENDBRANCH  78  80
ENDBRANCH  77  78
ENDBRANCH  76  77
ENDBRANCH  75  76
ENDBRANCH  74  75
ENDBRANCH   1  74
TORSDOF 25
