REMARK SMILES CCc1ccsc1C(=O)N(CC(=O)OCCOCCOCCOC(=O)c1ccc(-c2c3nc(c(-c4cccc(S(=O)(=O)[O-])c4F)c4ccc([nH]4)c(-c4cccc(S(=O)(=O)[O-])c4F)c4nc(c(-c5cccc(S(=O)(=O)[O-])c5F)c5ccc2[nH]5)C=C4)C=C3)cc1)c1ccccc1N
REMARK SMILES IDX 18 1 17 2 16 3 15 4 14 5 12 6 13 7 11 8 10 9 8 10 9 11 7 12
REMARK SMILES IDX 3 13 4 14 5 15 6 16 2 17 1 18 89 19 90 20 94 21 91 22 93 23
REMARK SMILES IDX 92 24 95 25 19 28 20 29 21 30 22 31 23 32 24 33 25 34 26 35
REMARK SMILES IDX 27 36 88 37 28 38 87 39 29 40 30 41 31 42 81 43 32 44 86 45
REMARK SMILES IDX 80 46 82 47 33 48 85 49 79 50 78 51 34 53 66 54 46 55 65 56
REMARK SMILES IDX 47 57 50 58 64 59 83 60 48 61 49 62 63 64 84 65 51 66 35 67
REMARK SMILES IDX 36 68 44 69 37 70 39 71 45 72 38 73 40 74 41 75 42 76 43 77
REMARK SMILES IDX 67 78 68 79 76 80 69 81 71 82 77 83 70 84 72 85 73 86 74 87
REMARK SMILES IDX 75 88 52 89 53 90 61 91 54 92 56 93 62 94 55 95 57 96 58 97
REMARK SMILES IDX 59 98 60 99
REMARK H PARENT 95 26 95 27 82 52 50 63
REMARK Flexibility Score: inf
ROOT
ATOM      1  C   UNL     1       1.866   4.379   3.133  1.00  0.00     0.188 C 
ENDROOT
BRANCH   1   2
ATOM      2  O   UNL     1       2.542   3.216   3.599  1.00  0.00    -0.376 OA
BRANCH   2   3
ATOM      3  C   UNL     1       3.368   2.497   2.696  1.00  0.00     0.202 C 
BRANCH   3   4
ATOM      4  C   UNL     1       2.634   1.710   1.610  1.00  0.00     0.261 C 
BRANCH   4   5
ATOM      5  O   UNL     1       2.112   2.516   0.519  1.00  0.00    -0.462 OA
BRANCH   5   6
ATOM      6  C   UNL     1       0.755   2.587   0.410  1.00  0.00     0.326 C 
ATOM      7  O   UNL     1      -0.016   2.148   1.258  1.00  0.00    -0.250 OA
BRANCH   6   8
ATOM      8  C   UNL     1       0.232   3.183  -0.909  1.00  0.00     0.248 C 
BRANCH   8   9
ATOM      9  N   UNL     1       1.154   3.682  -1.946  1.00  0.00    -0.294 N 
BRANCH   9  10
ATOM     10  C   UNL     1       1.751   2.978  -3.014  1.00  0.00     0.269 C 
ATOM     11  O   UNL     1       2.491   3.635  -3.763  1.00  0.00    -0.268 OA
BRANCH  10  12
ATOM     12  C   UNL     1       1.494   1.548  -3.354  1.00  0.00     0.096 A 
ATOM     13  C   UNL     1       1.220   0.335  -2.700  1.00  0.00    -0.025 A 
ATOM     14  C   UNL     1       1.175  -0.774  -3.624  1.00  0.00     0.016 A 
ATOM     15  C   UNL     1       1.432  -0.423  -4.921  1.00  0.00     0.066 A 
ATOM     16  S   UNL     1       1.644   1.244  -5.080  1.00  0.00    -0.138 S 
BRANCH  13  17
ATOM     17  C   UNL     1       1.044   0.104  -1.232  1.00  0.00     0.034 C 
ATOM     18  C   UNL     1       1.246  -1.298  -0.684  1.00  0.00     0.009 C 
ENDBRANCH  13  17
ENDBRANCH  10  12
ENDBRANCH   9  10
BRANCH   9  19
ATOM     19  C   UNL     1       1.068   5.118  -2.111  1.00  0.00     0.068 A 
ATOM     20  C   UNL     1       1.925   5.945  -1.384  1.00  0.00     0.028 A 
ATOM     21  C   UNL     1       0.061   5.698  -2.920  1.00  0.00     0.056 A 
ATOM     22  C   UNL     1       1.716   7.326  -1.355  1.00  0.00     0.002 A 
ATOM     23  C   UNL     1      -0.185   7.074  -2.810  1.00  0.00     0.028 A 
ATOM     24  C   UNL     1       0.635   7.886  -2.029  1.00  0.00     0.002 A 
BRANCH  21  25
ATOM     25  N   UNL     1      -0.794   4.923  -3.711  1.00  0.00    -0.397 N 
ATOM     26  H   UNL     1      -0.639   3.955  -3.801  1.00  0.00     0.156 HD
ATOM     27  H   UNL     1      -1.551   5.346  -4.177  1.00  0.00     0.156 HD
ENDBRANCH  21  25
ENDBRANCH   9  19
ENDBRANCH   8   9
ENDBRANCH   6   8
ENDBRANCH   5   6
ENDBRANCH   4   5
ENDBRANCH   3   4
ENDBRANCH   2   3
ENDBRANCH   1   2
BRANCH   1  28
ATOM     28  C   UNL     1       2.497   5.150   1.976  1.00  0.00     0.188 C 
BRANCH  28  29
ATOM     29  O   UNL     1       3.875   5.426   2.198  1.00  0.00    -0.376 OA
BRANCH  29  30
ATOM     30  C   UNL     1       4.255   6.752   1.843  1.00  0.00     0.202 C 
BRANCH  30  31
ATOM     31  C   UNL     1       3.967   7.701   3.008  1.00  0.00     0.261 C 
BRANCH  31  32
ATOM     32  O   UNL     1       2.558   7.821   3.297  1.00  0.00    -0.460 OA
BRANCH  32  33
ATOM     33  C   UNL     1       1.838   8.544   2.405  1.00  0.00     0.338 C 
ATOM     34  O   UNL     1       2.273   9.161   1.450  1.00  0.00    -0.246 OA
BRANCH  33  35
ATOM     35  C   UNL     1       0.401   8.319   2.663  1.00  0.00     0.060 A 
ATOM     36  C   UNL     1      -0.352   7.571   1.748  1.00  0.00     0.016 A 
ATOM     37  C   UNL     1      -0.210   8.891   3.776  1.00  0.00     0.016 A 
ATOM     38  C   UNL     1      -1.728   7.417   1.922  1.00  0.00     0.010 A 
ATOM     39  C   UNL     1      -1.590   8.746   3.944  1.00  0.00     0.010 A 
ATOM     40  C   UNL     1      -2.361   8.033   3.005  1.00  0.00    -0.014 A 
BRANCH  40  41
ATOM     41  C   UNL     1      -3.841   8.076   3.103  1.00  0.00     0.031 A 
ATOM     42  C   UNL     1      -4.543   9.366   2.778  1.00  0.00     0.074 A 
ATOM     43  C   UNL     1      -4.549   7.013   3.524  1.00  0.00     0.049 A 
ATOM     44  N   UNL     1      -5.782   9.716   3.001  1.00  0.00    -0.248 NA
ATOM     45  C   UNL     1      -3.731  10.404   2.119  1.00  0.00     0.031 C 
ATOM     46  C   UNL     1      -4.001   5.691   3.818  1.00  0.00     0.029 A 
ATOM     47  N   UNL     1      -5.886   6.899   3.819  1.00  0.00    -0.354 N 
ATOM     48  C   UNL     1      -5.883  11.034   2.575  1.00  0.00     0.074 A 
ATOM     49  C   UNL     1      -4.586  11.415   2.057  1.00  0.00     0.031 C 
ATOM     50  C   UNL     1      -4.986   4.908   4.293  1.00  0.00     0.029 A 
ATOM     51  C   UNL     1      -6.218   5.689   4.385  1.00  0.00     0.049 A 
ATOM     52  H   UNL     1      -6.542   7.612   3.643  1.00  0.00     0.167 HD
ATOM     53  C   UNL     1      -6.959  11.854   2.613  1.00  0.00     0.034 A 
ATOM     54  C   UNL     1      -7.368   5.280   4.957  1.00  0.00     0.034 A 
ATOM     55  C   UNL     1      -8.258  11.460   3.084  1.00  0.00     0.049 A 
ATOM     56  C   UNL     1      -8.541   6.226   5.022  1.00  0.00     0.074 A 
ATOM     57  C   UNL     1      -9.423  12.207   3.117  1.00  0.00     0.029 A 
ATOM     58  N   UNL     1      -8.566  10.214   3.605  1.00  0.00    -0.354 N 
ATOM     59  N   UNL     1      -8.649   7.445   4.552  1.00  0.00    -0.248 NA
ATOM     60  C   UNL     1      -9.758   5.732   5.686  1.00  0.00     0.031 C 
ATOM     61  C   UNL     1     -10.432  11.417   3.679  1.00  0.00     0.029 A 
ATOM     62  C   UNL     1      -9.899  10.172   3.974  1.00  0.00     0.049 A 
ATOM     63  H   UNL     1      -7.930   9.469   3.700  1.00  0.00     0.167 HD
ATOM     64  C   UNL     1      -9.952   7.848   4.828  1.00  0.00     0.074 A 
ATOM     65  C   UNL     1     -10.601   6.737   5.492  1.00  0.00     0.031 C 
ATOM     66  C   UNL     1     -10.553   9.037   4.572  1.00  0.00     0.034 A 
BRANCH  53  67
ATOM     67  C   UNL     1      -6.780  13.266   2.127  1.00  0.00     0.023 A 
ATOM     68  C   UNL     1      -6.694  13.528   0.746  1.00  0.00     0.012 A 
ATOM     69  C   UNL     1      -6.761  14.339   3.040  1.00  0.00     0.148 A 
ATOM     70  C   UNL     1      -6.567  14.836   0.281  1.00  0.00     0.002 A 
ATOM     71  C   UNL     1      -6.675  15.643   2.567  1.00  0.00     0.091 A 
ATOM     72  F   UNL     1      -6.816  14.065   4.351  1.00  0.00    -0.205 F 
ATOM     73  C   UNL     1      -6.569  15.893   1.189  1.00  0.00     0.022 A 
BRANCH  71  74
ATOM     74  S   UNL     1      -6.747  17.070   3.654  1.00  0.00     0.127 S 
ATOM     75  O   UNL     1      -5.362  17.536   3.621  1.00  0.00    -0.237 OA
ATOM     76  O   UNL     1      -7.699  17.939   2.961  1.00  0.00    -0.237 OA
ATOM     77  O   UNL     1      -7.210  16.571   4.941  1.00  0.00    -0.744 OA
ENDBRANCH  71  74
ENDBRANCH  53  67
BRANCH  54  78
ATOM     78  C   UNL     1      -7.480   3.902   5.516  1.00  0.00     0.023 A 
ATOM     79  C   UNL     1      -8.333   2.972   4.891  1.00  0.00     0.012 A 
ATOM     80  C   UNL     1      -6.755   3.508   6.658  1.00  0.00     0.148 A 
ATOM     81  C   UNL     1      -8.485   1.685   5.408  1.00  0.00     0.002 A 
ATOM     82  C   UNL     1      -6.869   2.208   7.136  1.00  0.00     0.091 A 
ATOM     83  F   UNL     1      -5.969   4.415   7.256  1.00  0.00    -0.205 F 
ATOM     84  C   UNL     1      -7.745   1.300   6.523  1.00  0.00     0.022 A 
BRANCH  82  85
ATOM     85  S   UNL     1      -5.865   1.591   8.492  1.00  0.00     0.127 S 
ATOM     86  O   UNL     1      -6.842   1.506   9.574  1.00  0.00    -0.237 OA
ATOM     87  O   UNL     1      -5.410   0.301   7.970  1.00  0.00    -0.237 OA
ATOM     88  O   UNL     1      -4.803   2.573   8.669  1.00  0.00    -0.744 OA
ENDBRANCH  82  85
ENDBRANCH  54  78
BRANCH  66  89
ATOM     89  C   UNL     1     -12.000   9.193   4.961  1.00  0.00     0.023 A 
ATOM     90  C   UNL     1     -12.349   9.345   6.317  1.00  0.00     0.012 A 
ATOM     91  C   UNL     1     -13.005   9.272   3.976  1.00  0.00     0.148 A 
ATOM     92  C   UNL     1     -13.679   9.544   6.689  1.00  0.00     0.002 A 
ATOM     93  C   UNL     1     -14.321   9.517   4.350  1.00  0.00     0.091 A 
ATOM     94  F   UNL     1     -12.656   9.106   2.691  1.00  0.00    -0.205 F 
ATOM     95  C   UNL     1     -14.661   9.642   5.706  1.00  0.00     0.022 A 
BRANCH  93  96
ATOM     96  S   UNL     1     -15.633   9.752   3.145  1.00  0.00     0.127 S 
ATOM     97  O   UNL     1     -16.358   8.486   3.241  1.00  0.00    -0.237 OA
ATOM     98  O   UNL     1     -16.351  10.907   3.686  1.00  0.00    -0.237 OA
ATOM     99  O   UNL     1     -14.968  10.000   1.873  1.00  0.00    -0.744 OA
ENDBRANCH  93  96
ENDBRANCH  66  89
ENDBRANCH  40  41
ENDBRANCH  33  35
ENDBRANCH  32  33
ENDBRANCH  31  32
ENDBRANCH  30  31
ENDBRANCH  29  30
ENDBRANCH  28  29
ENDBRANCH   1  28
TORSDOF 26
