REMARK SMILES O=C(/C=C/c1ccc(S(=O)(=O)Nc2ccc3c(c2)OCCO3)cc1)OCCOCCOCCOC(=O)c1ccc(-c2c3nc(c(-c4cccc(S(=O)(=O)[O-])c4F)c4ccc([nH]4)c(-c4cccc(S(=O)(=O)[O-])c4F)c4nc(c(-c5cccc(S(=O)(=O)[O-])c5F)c5ccc2[nH]5)C=C4)C=C3)cc1
REMARK SMILES IDX 29 1 28 2 27 3 26 4 25 5 2 6 1 7 3 8 4 9 5 10 6 11 24 12
REMARK SMILES IDX 7 13 23 14 8 15 9 16 10 17 11 18 12 19 13 21 14 22 18 23
REMARK SMILES IDX 15 24 17 25 16 26 19 27 22 28 20 29 21 30 30 31 31 32 32 33
REMARK SMILES IDX 33 34 34 35 35 36 36 37 37 38 38 39 99 40 39 41 98 42 40 43
REMARK SMILES IDX 41 44 42 45 92 46 43 47 97 48 91 49 93 50 44 51 96 52 90 53
REMARK SMILES IDX 89 54 45 56 77 57 57 58 76 59 58 60 61 61 75 62 94 63 59 64
REMARK SMILES IDX 60 65 74 67 95 68 62 69 46 70 47 71 55 72 48 73 50 74 56 75
REMARK SMILES IDX 49 76 51 77 52 78 53 79 54 80 78 81 79 82 87 83 80 84 82 85
REMARK SMILES IDX 88 86 81 87 83 88 84 89 85 90 86 91 63 92 64 93 72 94 65 95
REMARK SMILES IDX 67 96 73 97 66 98 68 99 69 100 70 101 71 102
REMARK H PARENT 12 20 93 55 61 66
REMARK Flexibility Score: inf
ROOT
ATOM      1  C   UNL     1       3.302  -1.292  -1.150  1.00  0.00     0.188 C 
ENDROOT
BRANCH   1   2
ATOM      2  O   UNL     1       4.623  -1.116  -0.634  1.00  0.00    -0.376 OA
BRANCH   2   3
ATOM      3  C   UNL     1       4.859  -1.491   0.715  1.00  0.00     0.202 C 
BRANCH   3   4
ATOM      4  C   UNL     1       4.340  -0.529   1.788  1.00  0.00     0.261 C 
BRANCH   4   5
ATOM      5  O   UNL     1       3.035  -0.013   1.502  1.00  0.00    -0.460 OA
BRANCH   5   6
ATOM      6  C   UNL     1       2.927   1.339   1.393  1.00  0.00     0.330 C 
ATOM      7  O   UNL     1       2.296   2.020   2.187  1.00  0.00    -0.247 OA
BRANCH   6   8
ATOM      8  C   UNL     1       3.334   1.858   0.068  1.00  0.00     0.094 C 
ATOM      9  C   UNL     1       4.614   1.834  -0.330  1.00  0.00     0.015 C 
BRANCH   9  10
ATOM     10  C   UNL     1       5.176   2.242  -1.625  1.00  0.00    -0.025 A 
ATOM     11  C   UNL     1       6.562   2.078  -1.793  1.00  0.00     0.009 A 
ATOM     12  C   UNL     1       4.436   2.831  -2.654  1.00  0.00     0.009 A 
ATOM     13  C   UNL     1       7.221   2.633  -2.886  1.00  0.00     0.023 A 
ATOM     14  C   UNL     1       5.087   3.354  -3.777  1.00  0.00     0.023 A 
ATOM     15  C   UNL     1       6.482   3.335  -3.835  1.00  0.00     0.087 A 
BRANCH  15  16
ATOM     16  S   UNL     1       7.344   4.523  -4.872  1.00  0.00     0.261 S 
ATOM     17  O   UNL     1       8.674   4.676  -4.301  1.00  0.00    -0.201 OA
ATOM     18  O   UNL     1       7.167   4.073  -6.230  1.00  0.00    -0.201 OA
BRANCH  16  19
ATOM     19  N   UNL     1       6.486   5.940  -4.609  1.00  0.00    -0.279 N 
ATOM     20  H   UNL     1       6.319   6.550  -5.364  1.00  0.00     0.180 HD
BRANCH  19  21
ATOM     21  C   UNL     1       5.993   6.280  -3.316  1.00  0.00     0.053 A 
ATOM     22  C   UNL     1       4.640   6.620  -3.252  1.00  0.00     0.031 A 
ATOM     23  C   UNL     1       6.734   6.179  -2.146  1.00  0.00     0.077 A 
ATOM     24  C   UNL     1       3.977   6.743  -2.039  1.00  0.00     0.052 A 
ATOM     25  C   UNL     1       6.063   6.228  -0.923  1.00  0.00     0.163 A 
ATOM     26  C   UNL     1       4.683   6.480  -0.878  1.00  0.00     0.161 A 
ATOM     27  O   UNL     1       6.801   5.912   0.191  1.00  0.00    -0.486 OA
ATOM     28  O   UNL     1       3.949   6.399   0.279  1.00  0.00    -0.486 OA
ATOM     29  C   UNL     1       6.023   5.897   1.393  1.00  0.00     0.271 C 
ATOM     30  C   UNL     1       4.587   5.464   1.148  1.00  0.00     0.271 C 
ENDBRANCH  19  21
ENDBRANCH  16  19
ENDBRANCH  15  16
ENDBRANCH   9  10
ENDBRANCH   6   8
ENDBRANCH   5   6
ENDBRANCH   4   5
ENDBRANCH   3   4
ENDBRANCH   2   3
ENDBRANCH   1   2
BRANCH   1  31
ATOM     31  C   UNL     1       2.616  -2.625  -0.845  1.00  0.00     0.188 C 
BRANCH  31  32
ATOM     32  O   UNL     1       3.511  -3.733  -0.851  1.00  0.00    -0.376 OA
BRANCH  32  33
ATOM     33  C   UNL     1       3.562  -4.471  -2.067  1.00  0.00     0.202 C 
BRANCH  33  34
ATOM     34  C   UNL     1       4.460  -3.846  -3.143  1.00  0.00     0.261 C 
BRANCH  34  35
ATOM     35  O   UNL     1       3.936  -2.697  -3.835  1.00  0.00    -0.460 OA
BRANCH  35  36
ATOM     36  C   UNL     1       2.736  -2.798  -4.445  1.00  0.00     0.338 C 
ATOM     37  O   UNL     1       1.990  -3.761  -4.452  1.00  0.00    -0.246 OA
BRANCH  36  38
ATOM     38  C   UNL     1       2.395  -1.488  -5.039  1.00  0.00     0.060 A 
ATOM     39  C   UNL     1       1.173  -0.887  -4.715  1.00  0.00     0.016 A 
ATOM     40  C   UNL     1       3.255  -0.885  -5.959  1.00  0.00     0.016 A 
ATOM     41  C   UNL     1       0.793   0.308  -5.339  1.00  0.00     0.010 A 
ATOM     42  C   UNL     1       2.869   0.304  -6.587  1.00  0.00     0.010 A 
ATOM     43  C   UNL     1       1.625   0.896  -6.303  1.00  0.00    -0.014 A 
BRANCH  43  44
ATOM     44  C   UNL     1       1.178   2.056  -7.120  1.00  0.00     0.031 A 
ATOM     45  C   UNL     1       0.638   1.814  -8.503  1.00  0.00     0.074 A 
ATOM     46  C   UNL     1       1.315   3.321  -6.679  1.00  0.00     0.049 A 
ATOM     47  N   UNL     1       0.292   2.687  -9.412  1.00  0.00    -0.248 NA
ATOM     48  C   UNL     1       0.441   0.411  -8.906  1.00  0.00     0.031 C 
ATOM     49  C   UNL     1       1.755   3.710  -5.344  1.00  0.00     0.029 A 
ATOM     50  N   UNL     1       1.140   4.520  -7.331  1.00  0.00    -0.354 N 
ATOM     51  C   UNL     1      -0.167   1.947 -10.493  1.00  0.00     0.074 A 
ATOM     52  C   UNL     1      -0.036   0.550 -10.137  1.00  0.00     0.031 C 
ATOM     53  C   UNL     1       1.907   5.046  -5.306  1.00  0.00     0.029 A 
ATOM     54  C   UNL     1       1.604   5.604  -6.619  1.00  0.00     0.049 A 
ATOM     55  H   UNL     1       0.724   4.596  -8.220  1.00  0.00     0.167 HD
ATOM     56  C   UNL     1      -0.683   2.392 -11.662  1.00  0.00     0.034 A 
ATOM     57  C   UNL     1       1.799   6.882  -7.003  1.00  0.00     0.034 A 
ATOM     58  C   UNL     1      -0.837   3.776 -12.014  1.00  0.00     0.049 A 
ATOM     59  C   UNL     1       1.354   7.326  -8.366  1.00  0.00     0.074 A 
ATOM     60  C   UNL     1      -1.473   4.319 -13.117  1.00  0.00     0.029 A 
ATOM     61  N   UNL     1      -0.315   4.835 -11.294  1.00  0.00    -0.354 N 
ATOM     62  N   UNL     1       0.780   6.627  -9.310  1.00  0.00    -0.248 NA
ATOM     63  C   UNL     1       1.523   8.753  -8.682  1.00  0.00     0.031 C 
ATOM     64  C   UNL     1      -1.308   5.708 -13.081  1.00  0.00     0.029 A 
ATOM     65  C   UNL     1      -0.580   6.026 -11.948  1.00  0.00     0.049 A 
ATOM     66  H   UNL     1       0.173   4.755 -10.442  1.00  0.00     0.167 HD
ATOM     67  C   UNL     1       0.488   7.536 -10.319  1.00  0.00     0.074 A 
ATOM     68  C   UNL     1       0.950   8.832  -9.873  1.00  0.00     0.031 C 
ATOM     69  C   UNL     1      -0.123   7.313 -11.505  1.00  0.00     0.034 A 
BRANCH  56  70
ATOM     70  C   UNL     1      -1.185   1.372 -12.641  1.00  0.00     0.023 A 
ATOM     71  C   UNL     1      -2.458   0.802 -12.443  1.00  0.00     0.012 A 
ATOM     72  C   UNL     1      -0.455   1.068 -13.804  1.00  0.00     0.148 A 
ATOM     73  C   UNL     1      -2.998  -0.064 -13.391  1.00  0.00     0.002 A 
ATOM     74  C   UNL     1      -1.012   0.226 -14.758  1.00  0.00     0.091 A 
ATOM     75  F   UNL     1       0.763   1.607 -13.954  1.00  0.00    -0.205 F 
ATOM     76  C   UNL     1      -2.281  -0.342 -14.553  1.00  0.00     0.022 A 
BRANCH  74  77
ATOM     77  S   UNL     1      -0.195  -0.150 -16.312  1.00  0.00     0.127 S 
ATOM     78  O   UNL     1       0.158  -1.556 -16.126  1.00  0.00    -0.237 OA
ATOM     79  O   UNL     1      -1.262   0.087 -17.285  1.00  0.00    -0.237 OA
ATOM     80  O   UNL     1       0.931   0.769 -16.407  1.00  0.00    -0.744 OA
ENDBRANCH  74  77
ENDBRANCH  56  70
BRANCH  57  81
ATOM     81  C   UNL     1       2.443   7.886  -6.117  1.00  0.00     0.023 A 
ATOM     82  C   UNL     1       1.664   8.620  -5.209  1.00  0.00     0.012 A 
ATOM     83  C   UNL     1       3.812   8.192  -6.261  1.00  0.00     0.148 A 
ATOM     84  C   UNL     1       2.240   9.641  -4.450  1.00  0.00     0.002 A 
ATOM     85  C   UNL     1       4.384   9.199  -5.488  1.00  0.00     0.091 A 
ATOM     86  F   UNL     1       4.534   7.495  -7.150  1.00  0.00    -0.205 F 
ATOM     87  C   UNL     1       3.599   9.926  -4.582  1.00  0.00     0.022 A 
BRANCH  85  88
ATOM     88  S   UNL     1       6.152   9.521  -5.539  1.00  0.00     0.127 S 
ATOM     89  O   UNL     1       6.245  10.556  -6.560  1.00  0.00    -0.237 OA
ATOM     90  O   UNL     1       6.435   9.964  -4.175  1.00  0.00    -0.237 OA
ATOM     91  O   UNL     1       6.746   8.227  -5.869  1.00  0.00    -0.744 OA
ENDBRANCH  85  88
ENDBRANCH  57  81
BRANCH  69  92
ATOM     92  C   UNL     1      -0.330   8.497 -12.404  1.00  0.00     0.023 A 
ATOM     93  C   UNL     1       0.764   9.022 -13.119  1.00  0.00     0.012 A 
ATOM     94  C   UNL     1      -1.605   9.070 -12.563  1.00  0.00     0.148 A 
ATOM     95  C   UNL     1       0.595  10.117 -13.964  1.00  0.00     0.002 A 
ATOM     96  C   UNL     1      -1.774  10.136 -13.438  1.00  0.00     0.091 A 
ATOM     97  F   UNL     1      -2.624   8.572 -11.848  1.00  0.00    -0.205 F 
ATOM     98  C   UNL     1      -0.675  10.666 -14.132  1.00  0.00     0.022 A 
BRANCH  96  99
ATOM     99  S   UNL     1      -3.385  10.857 -13.771  1.00  0.00     0.127 S 
ATOM    100  O   UNL     1      -3.298  12.130 -13.058  1.00  0.00    -0.237 OA
ATOM    101  O   UNL     1      -3.380  10.973 -15.230  1.00  0.00    -0.237 OA
ATOM    102  O   UNL     1      -4.363   9.912 -13.247  1.00  0.00    -0.744 OA
ENDBRANCH  96  99
ENDBRANCH  69  92
ENDBRANCH  43  44
ENDBRANCH  36  38
ENDBRANCH  35  36
ENDBRANCH  34  35
ENDBRANCH  33  34
ENDBRANCH  32  33
ENDBRANCH  31  32
ENDBRANCH   1  31
TORSDOF 24
