REMARK SMILES Cc1ccc(C(=O)c2cccc(C)c2C(=O)OCCOCCOCCOC(=O)c2ccc(-c3c4nc(c(-c5cccc(S(=O)(=O)[O-])c5F)c5ccc([nH]5)c(-c5cccc(S(=O)(=O)[O-])c5F)c5nc(c(-c6cccc(S(=O)(=O)[O-])c6F)c6ccc3[nH]6)C=C5)C=C4)cc2)c(C)c1
REMARK SMILES IDX 22 1 21 2 20 3 19 4 18 5 17 6 15 7 16 8 14 9 8 10 9 11 10 12
REMARK SMILES IDX 12 13 11 14 13 15 6 16 7 17 5 18 1 19 2 20 3 21 94 22 4 23
REMARK SMILES IDX 92 24 93 25 23 26 24 27 25 28 26 29 27 30 28 31 29 32 30 33
REMARK SMILES IDX 91 34 31 35 90 36 32 37 33 38 34 39 84 40 35 41 89 42 83 43
REMARK SMILES IDX 85 44 36 45 88 46 82 47 81 48 37 50 69 51 49 52 68 53 50 54
REMARK SMILES IDX 53 55 67 56 86 57 51 58 52 59 66 61 87 62 54 63 38 64 39 65
REMARK SMILES IDX 47 66 40 67 42 68 48 69 41 70 43 71 44 72 45 73 46 74 70 75
REMARK SMILES IDX 71 76 79 77 72 78 74 79 80 80 73 81 75 82 76 83 77 84 78 85
REMARK SMILES IDX 55 86 56 87 64 88 57 89 59 90 65 91 58 92 60 93 61 94 62 95
REMARK SMILES IDX 63 96
REMARK H PARENT 85 49 53 60
REMARK Flexibility Score: inf
ROOT
ATOM      1  C   UNL     1      -5.308  -7.025  -4.001  1.00  0.00     0.188 C 
ENDROOT
BRANCH   1   2
ATOM      2  C   UNL     1      -6.352  -6.872  -2.896  1.00  0.00     0.188 C 
BRANCH   2   3
ATOM      3  O   UNL     1      -7.339  -5.902  -3.208  1.00  0.00    -0.376 OA
BRANCH   3   4
ATOM      4  C   UNL     1      -6.845  -4.589  -3.030  1.00  0.00     0.202 C 
BRANCH   4   5
ATOM      5  C   UNL     1      -5.614  -4.395  -2.057  1.00  0.00     0.261 C 
BRANCH   5   6
ATOM      6  O   UNL     1      -5.492  -4.613  -0.364  1.00  0.00    -0.460 OA
BRANCH   6   7
ATOM      7  C   UNL     1      -5.200  -3.759   0.870  1.00  0.00     0.339 C 
ATOM      8  O   UNL     1      -6.215  -3.299   1.408  1.00  0.00    -0.246 OA
BRANCH   7   9
ATOM      9  C   UNL     1      -3.801  -3.543   1.830  1.00  0.00     0.074 A 
ATOM     10  C   UNL     1      -2.385  -2.944   1.611  1.00  0.00     0.037 A 
ATOM     11  C   UNL     1      -1.442  -3.081   2.643  1.00  0.00     0.013 A 
ATOM     12  C   UNL     1      -1.737  -3.709   3.839  1.00  0.00     0.001 A 
ATOM     13  C   UNL     1      -4.070  -3.993   3.171  1.00  0.00    -0.036 A 
ATOM     14  C   UNL     1      -3.028  -4.120   4.108  1.00  0.00     0.004 A 
ATOM     15  C   UNL     1      -5.442  -4.301   3.745  1.00  0.00     0.045 C 
BRANCH  10  16
ATOM     16  C   UNL     1      -1.790  -1.927   0.537  1.00  0.00     0.194 C 
ATOM     17  O   UNL     1      -2.561  -1.297  -0.154  1.00  0.00    -0.289 OA
BRANCH  16  18
ATOM     18  C   UNL     1      -0.457  -1.297   0.236  1.00  0.00     0.025 A 
ATOM     19  C   UNL     1       3.238   0.940   0.036  1.00  0.00     0.044 C 
ATOM     20  C   UNL     1       2.005   0.095  -0.017  1.00  0.00    -0.051 A 
ATOM     21  C   UNL     1       1.964  -1.238   0.405  1.00  0.00     0.004 A 
ATOM     22  C   UNL     1       0.835   0.695  -0.452  1.00  0.00     0.007 A 
ATOM     23  C   UNL     1       0.747  -1.935   0.518  1.00  0.00     0.013 A 
ATOM     24  C   UNL     1      -0.380   0.003  -0.413  1.00  0.00    -0.040 A 
ATOM     25  C   UNL     1      -1.507   0.769  -1.101  1.00  0.00     0.045 C 
ENDBRANCH  16  18
ENDBRANCH  10  16
ENDBRANCH   7   9
ENDBRANCH   6   7
ENDBRANCH   5   6
ENDBRANCH   4   5
ENDBRANCH   3   4
ENDBRANCH   2   3
ENDBRANCH   1   2
BRANCH   1  26
ATOM     26  O   UNL     1      -4.741  -5.777  -4.404  1.00  0.00    -0.376 OA
BRANCH  26  27
ATOM     27  C   UNL     1      -4.089  -5.772  -5.664  1.00  0.00     0.202 C 
BRANCH  27  28
ATOM     28  C   UNL     1      -2.779  -6.554  -5.633  1.00  0.00     0.261 C 
BRANCH  28  29
ATOM     29  O   UNL     1      -1.807  -5.729  -4.965  1.00  0.00    -0.460 OA
BRANCH  29  30
ATOM     30  C   UNL     1      -1.705  -6.004  -3.636  1.00  0.00     0.338 C 
ATOM     31  O   UNL     1      -1.542  -7.106  -3.178  1.00  0.00    -0.246 OA
BRANCH  30  32
ATOM     32  C   UNL     1      -2.059  -4.773  -2.854  1.00  0.00     0.060 A 
ATOM     33  C   UNL     1      -2.355  -5.006  -1.547  1.00  0.00     0.016 A 
ATOM     34  C   UNL     1      -2.371  -3.496  -3.372  1.00  0.00     0.016 A 
ATOM     35  C   UNL     1      -3.134  -4.046  -0.883  1.00  0.00     0.010 A 
ATOM     36  C   UNL     1      -3.153  -2.516  -2.653  1.00  0.00     0.010 A 
ATOM     37  C   UNL     1      -3.691  -2.776  -1.384  1.00  0.00    -0.014 A 
BRANCH  37  38
ATOM     38  C   UNL     1      -4.977  -1.712  -0.799  1.00  0.00     0.031 A 
ATOM     39  C   UNL     1      -4.766  -0.402   0.028  1.00  0.00     0.074 A 
ATOM     40  C   UNL     1      -6.354  -1.839  -1.002  1.00  0.00     0.049 A 
ATOM     41  N   UNL     1      -5.196   0.747  -0.412  1.00  0.00    -0.248 NA
ATOM     42  C   UNL     1      -4.133  -0.244   1.385  1.00  0.00     0.031 C 
ATOM     43  C   UNL     1      -7.382  -0.830  -1.255  1.00  0.00     0.029 A 
ATOM     44  N   UNL     1      -7.176  -2.974  -0.933  1.00  0.00    -0.354 N 
ATOM     45  C   UNL     1      -4.840   1.707   0.502  1.00  0.00     0.074 A 
ATOM     46  C   UNL     1      -4.097   1.077   1.555  1.00  0.00     0.031 C 
ATOM     47  C   UNL     1      -8.615  -1.386  -1.252  1.00  0.00     0.029 A 
ATOM     48  C   UNL     1      -8.523  -2.773  -0.826  1.00  0.00     0.049 A 
ATOM     49  H   UNL     1      -6.796  -3.881  -0.961  1.00  0.00     0.167 HD
ATOM     50  C   UNL     1      -5.577   2.812   0.735  1.00  0.00     0.034 A 
ATOM     51  C   UNL     1      -9.279  -3.539   0.020  1.00  0.00     0.034 A 
ATOM     52  C   UNL     1      -7.003   2.510   0.678  1.00  0.00     0.049 A 
ATOM     53  C   UNL     1      -9.779  -2.610   1.092  1.00  0.00     0.074 A 
ATOM     54  C   UNL     1      -7.983   2.506  -0.300  1.00  0.00     0.029 A 
ATOM     55  N   UNL     1      -7.540   1.816   1.756  1.00  0.00    -0.354 N 
ATOM     56  N   UNL     1      -9.444  -1.349   1.111  1.00  0.00    -0.248 NA
ATOM     57  C   UNL     1     -10.683  -2.940   2.184  1.00  0.00     0.031 C 
ATOM     58  C   UNL     1      -9.084   1.728   0.186  1.00  0.00     0.029 A 
ATOM     59  C   UNL     1      -8.796   1.299   1.475  1.00  0.00     0.049 A 
ATOM     60  H   UNL     1      -7.081   1.704   2.620  1.00  0.00     0.167 HD
ATOM     61  C   UNL     1      -9.932  -0.725   2.201  1.00  0.00     0.074 A 
ATOM     62  C   UNL     1     -10.769  -1.749   2.814  1.00  0.00     0.031 C 
ATOM     63  C   UNL     1      -9.526   0.543   2.509  1.00  0.00     0.034 A 
BRANCH  50  64
ATOM     64  C   UNL     1      -4.837   4.045   0.251  1.00  0.00     0.023 A 
ATOM     65  C   UNL     1      -5.595   5.099  -0.277  1.00  0.00     0.012 A 
ATOM     66  C   UNL     1      -3.411   4.182   0.205  1.00  0.00     0.148 A 
ATOM     67  C   UNL     1      -4.988   6.199  -0.891  1.00  0.00     0.002 A 
ATOM     68  C   UNL     1      -2.809   5.273  -0.425  1.00  0.00     0.091 A 
ATOM     69  F   UNL     1      -2.630   3.259   0.785  1.00  0.00    -0.205 F 
ATOM     70  C   UNL     1      -3.602   6.279  -0.983  1.00  0.00     0.022 A 
BRANCH  68  71
ATOM     71  S   UNL     1      -1.022   5.433  -0.640  1.00  0.00     0.127 S 
ATOM     72  O   UNL     1      -0.908   5.882  -2.031  1.00  0.00    -0.237 OA
ATOM     73  O   UNL     1      -0.676   6.453   0.348  1.00  0.00    -0.237 OA
ATOM     74  O   UNL     1      -0.454   4.112  -0.401  1.00  0.00    -0.744 OA
ENDBRANCH  68  71
ENDBRANCH  50  64
BRANCH  51  75
ATOM     75  C   UNL     1      -9.033  -5.054   0.091  1.00  0.00     0.023 A 
ATOM     76  C   UNL     1      -9.562  -5.819  -0.978  1.00  0.00     0.012 A 
ATOM     77  C   UNL     1      -8.122  -5.743   0.939  1.00  0.00     0.148 A 
ATOM     78  C   UNL     1      -9.209  -7.164  -1.201  1.00  0.00     0.002 A 
ATOM     79  C   UNL     1      -7.645  -7.036   0.617  1.00  0.00     0.091 A 
ATOM     80  F   UNL     1      -7.770  -5.176   2.097  1.00  0.00    -0.205 F 
ATOM     81  C   UNL     1      -8.230  -7.763  -0.422  1.00  0.00     0.022 A 
BRANCH  79  82
ATOM     82  S   UNL     1      -6.069  -7.729   1.235  1.00  0.00     0.127 S 
ATOM     83  O   UNL     1      -6.507  -8.592   2.328  1.00  0.00    -0.237 OA
ATOM     84  O   UNL     1      -5.550  -8.450   0.067  1.00  0.00    -0.237 OA
ATOM     85  O   UNL     1      -5.242  -6.594   1.611  1.00  0.00    -0.744 OA
ENDBRANCH  79  82
ENDBRANCH  51  75
BRANCH  63  86
ATOM     86  C   UNL     1      -9.708   1.151   3.877  1.00  0.00     0.023 A 
ATOM     87  C   UNL     1      -9.923   0.360   5.022  1.00  0.00     0.012 A 
ATOM     88  C   UNL     1      -9.451   2.525   4.088  1.00  0.00     0.148 A 
ATOM     89  C   UNL     1      -9.939   0.908   6.305  1.00  0.00     0.002 A 
ATOM     90  C   UNL     1      -9.306   3.029   5.373  1.00  0.00     0.091 A 
ATOM     91  F   UNL     1      -9.336   3.360   3.045  1.00  0.00    -0.205 F 
ATOM     92  C   UNL     1      -9.593   2.238   6.485  1.00  0.00     0.022 A 
BRANCH  90  93
ATOM     93  S   UNL     1      -8.508   4.619   5.623  1.00  0.00     0.127 S 
ATOM     94  O   UNL     1      -9.642   5.538   5.602  1.00  0.00    -0.237 OA
ATOM     95  O   UNL     1      -7.878   4.453   6.934  1.00  0.00    -0.237 OA
ATOM     96  O   UNL     1      -7.559   4.724   4.521  1.00  0.00    -0.744 OA
ENDBRANCH  90  93
ENDBRANCH  63  86
ENDBRANCH  37  38
ENDBRANCH  30  32
ENDBRANCH  29  30
ENDBRANCH  28  29
ENDBRANCH  27  28
ENDBRANCH  26  27
ENDBRANCH   1  26
TORSDOF 22
