REMARK SMILES C[NH2+][C@]1(C(=O)OCCOCCOCCOC(=O)c2ccc(-c3c4nc(c(-c5cccc(S(=O)(=O)[O-])c5F)c5ccc([nH]5)c(-c5cccc(S(=O)(=O)[O-])c5F)c5nc(c(-c6cccc(S(=O)(=O)[O-])c6F)c6ccc3[nH]6)C=C5)C=C4)cc2)CCC[C@H]1CCOC1C[C@@H](C)C[C@H](C)C1
REMARK SMILES IDX 10 1 9 2 8 3 7 4 6 5 4 6 5 7 3 8 81 9 84 10 82 11 83 12 2 13
REMARK SMILES IDX 1 14 85 17 86 18 87 19 88 20 89 21 95 22 90 23 93 24 91 25
REMARK SMILES IDX 92 26 94 27 11 28 12 29 13 30 14 31 15 32 16 33 17 34 18 35
REMARK SMILES IDX 19 36 80 37 20 38 79 39 21 40 22 41 23 42 73 43 24 44 78 45
REMARK SMILES IDX 72 46 74 47 25 48 77 49 71 50 70 51 26 53 58 54 38 55 57 56
REMARK SMILES IDX 39 57 42 58 56 59 75 60 40 61 41 62 55 64 76 65 43 66 27 67
REMARK SMILES IDX 28 68 36 69 29 70 31 71 37 72 30 73 32 74 33 75 34 76 35 77
REMARK SMILES IDX 59 78 60 79 68 80 61 81 63 82 69 83 62 84 64 85 65 86 66 87
REMARK SMILES IDX 67 88 44 89 45 90 53 91 46 92 48 93 54 94 47 95 49 96 50 97
REMARK SMILES IDX 51 98 52 99
REMARK H PARENT 2 15 2 16 74 52 42 63
REMARK Flexibility Score: inf
ROOT
ATOM      1  C   UNL     1       2.079   2.000   2.501  1.00  0.00     0.188 C 
ENDROOT
BRANCH   1   2
ATOM      2  O   UNL     1       3.392   1.720   2.078  1.00  0.00    -0.376 OA
BRANCH   2   3
ATOM      3  C   UNL     1       3.553   0.536   1.333  1.00  0.00     0.202 C 
BRANCH   3   4
ATOM      4  C   UNL     1       2.399  -0.450   1.133  1.00  0.00     0.261 C 
BRANCH   4   5
ATOM      5  O   UNL     1       1.100  -0.088   0.549  1.00  0.00    -0.459 OA
BRANCH   5   6
ATOM      6  C   UNL     1      -0.021  -0.368   1.311  1.00  0.00     0.368 C 
ATOM      7  O   UNL     1       0.061  -0.534   2.529  1.00  0.00    -0.245 OA
BRANCH   6   8
ATOM      8  C   UNL     1      -1.457  -0.359   0.568  1.00  0.00     0.197 C 
ATOM      9  C   UNL     1      -1.565   0.832  -0.417  1.00  0.00     0.081 C 
ATOM     10  C   UNL     1      -2.141  -1.621  -0.351  1.00  0.00     0.065 C 
ATOM     11  C   UNL     1      -2.955   0.669  -1.020  1.00  0.00     0.008 C 
ATOM     12  C   UNL     1      -2.972  -0.789  -1.418  1.00  0.00     0.011 C 
BRANCH   8  13
ATOM     13  N   UNL     1      -2.413   0.220   1.645  1.00  0.00    -0.334 N 
ATOM     14  C   UNL     1      -3.053  -0.615   2.647  1.00  0.00     0.331 C 
ATOM     15  H   UNL     1      -1.874   0.917   2.159  1.00  0.00     0.347 HD
ATOM     16  H   UNL     1      -3.209   0.519   1.081  1.00  0.00     0.347 HD
ENDBRANCH   8  13
BRANCH  10  17
ATOM     17  C   UNL     1      -1.572  -2.882  -1.299  1.00  0.00     0.039 C 
BRANCH  17  18
ATOM     18  C   UNL     1      -0.772  -4.336  -1.308  1.00  0.00     0.161 C 
BRANCH  18  19
ATOM     19  O   UNL     1      -0.652  -5.495  -0.465  1.00  0.00    -0.378 OA
BRANCH  19  20
ATOM     20  C   UNL     1      -0.280  -5.726   0.906  1.00  0.00     0.118 C 
ATOM     21  C   UNL     1       0.716  -4.822   1.623  1.00  0.00     0.035 C 
ATOM     22  C   UNL     1      -1.569  -5.787   1.726  1.00  0.00     0.035 C 
ATOM     23  C   UNL     1       0.203  -3.413   1.600  1.00  0.00    -0.011 C 
ATOM     24  C   UNL     1      -2.264  -4.474   1.447  1.00  0.00    -0.011 C 
ATOM     25  C   UNL     1       0.841  -2.870   0.322  1.00  0.00     0.008 C 
ATOM     26  C   UNL     1      -1.318  -3.381   1.980  1.00  0.00     0.006 C 
ATOM     27  C   UNL     1      -3.730  -4.428   1.863  1.00  0.00     0.008 C 
ENDBRANCH  19  20
ENDBRANCH  18  19
ENDBRANCH  17  18
ENDBRANCH  10  17
ENDBRANCH   6   8
ENDBRANCH   5   6
ENDBRANCH   4   5
ENDBRANCH   3   4
ENDBRANCH   2   3
ENDBRANCH   1   2
BRANCH   1  28
ATOM     28  C   UNL     1       1.145   2.551   1.403  1.00  0.00     0.188 C 
BRANCH  28  29
ATOM     29  O   UNL     1       1.616   2.670   0.072  1.00  0.00    -0.376 OA
BRANCH  29  30
ATOM     30  C   UNL     1       2.776   3.471  -0.125  1.00  0.00     0.202 C 
BRANCH  30  31
ATOM     31  C   UNL     1       2.953   4.812   0.628  1.00  0.00     0.261 C 
BRANCH  31  32
ATOM     32  O   UNL     1       2.655   4.802   2.045  1.00  0.00    -0.460 OA
BRANCH  32  33
ATOM     33  C   UNL     1       1.517   5.460   2.435  1.00  0.00     0.338 C 
ATOM     34  O   UNL     1       0.817   6.152   1.735  1.00  0.00    -0.246 OA
BRANCH  33  35
ATOM     35  C   UNL     1       1.069   4.940   3.770  1.00  0.00     0.060 A 
ATOM     36  C   UNL     1      -0.180   4.288   3.859  1.00  0.00     0.016 A 
ATOM     37  C   UNL     1       1.879   5.022   4.900  1.00  0.00     0.016 A 
ATOM     38  C   UNL     1      -0.624   3.735   5.066  1.00  0.00     0.010 A 
ATOM     39  C   UNL     1       1.406   4.522   6.125  1.00  0.00     0.010 A 
ATOM     40  C   UNL     1       0.138   3.911   6.224  1.00  0.00    -0.014 A 
BRANCH  40  41
ATOM     41  C   UNL     1      -0.508   3.775   7.559  1.00  0.00     0.031 A 
ATOM     42  C   UNL     1      -1.092   5.029   8.163  1.00  0.00     0.074 A 
ATOM     43  C   UNL     1      -0.575   2.618   8.243  1.00  0.00     0.049 A 
ATOM     44  N   UNL     1      -1.594   5.229   9.352  1.00  0.00    -0.248 NA
ATOM     45  C   UNL     1      -1.097   6.224   7.299  1.00  0.00     0.031 C 
ATOM     46  C   UNL     1      -0.102   1.319   7.775  1.00  0.00     0.029 A 
ATOM     47  N   UNL     1      -1.048   2.367   9.512  1.00  0.00    -0.354 N 
ATOM     48  C   UNL     1      -1.930   6.578   9.396  1.00  0.00     0.074 A 
ATOM     49  C   UNL     1      -1.574   7.148   8.116  1.00  0.00     0.031 C 
ATOM     50  C   UNL     1      -0.263   0.416   8.761  1.00  0.00     0.029 A 
ATOM     51  C   UNL     1      -0.821   1.079   9.942  1.00  0.00     0.049 A 
ATOM     52  H   UNL     1      -1.504   3.045  10.061  1.00  0.00     0.167 HD
ATOM     53  C   UNL     1      -2.487   7.286  10.405  1.00  0.00     0.034 A 
ATOM     54  C   UNL     1      -1.007   0.513  11.154  1.00  0.00     0.034 A 
ATOM     55  C   UNL     1      -2.854   6.729  11.676  1.00  0.00     0.049 A 
ATOM     56  C   UNL     1      -1.584   1.335  12.285  1.00  0.00     0.074 A 
ATOM     57  C   UNL     1      -3.459   7.363  12.747  1.00  0.00     0.029 A 
ATOM     58  N   UNL     1      -2.638   5.415  12.057  1.00  0.00    -0.354 N 
ATOM     59  N   UNL     1      -1.980   2.585  12.284  1.00  0.00    -0.248 NA
ATOM     60  C   UNL     1      -1.765   0.656  13.580  1.00  0.00     0.031 C 
ATOM     61  C   UNL     1      -3.570   6.441  13.792  1.00  0.00     0.029 A 
ATOM     62  C   UNL     1      -3.082   5.221  13.353  1.00  0.00     0.049 A 
ATOM     63  H   UNL     1      -2.229   4.723  11.489  1.00  0.00     0.167 HD
ATOM     64  C   UNL     1      -2.495   2.827  13.557  1.00  0.00     0.074 A 
ATOM     65  C   UNL     1      -2.374   1.590  14.298  1.00  0.00     0.031 C 
ATOM     66  C   UNL     1      -3.012   3.973  14.068  1.00  0.00     0.034 A 
BRANCH  53  67
ATOM     67  C   UNL     1      -2.731   8.753  10.171  1.00  0.00     0.023 A 
ATOM     68  C   UNL     1      -3.747   9.166   9.286  1.00  0.00     0.012 A 
ATOM     69  C   UNL     1      -1.976   9.722  10.860  1.00  0.00     0.148 A 
ATOM     70  C   UNL     1      -3.984  10.522   9.063  1.00  0.00     0.002 A 
ATOM     71  C   UNL     1      -2.252  11.070  10.672  1.00  0.00     0.091 A 
ATOM     72  F   UNL     1      -0.997   9.308  11.677  1.00  0.00    -0.205 F 
ATOM     73  C   UNL     1      -3.246  11.472   9.764  1.00  0.00     0.022 A 
BRANCH  71  74
ATOM     74  S   UNL     1      -1.415  12.367  11.589  1.00  0.00     0.127 S 
ATOM     75  O   UNL     1      -0.631  13.013  10.537  1.00  0.00    -0.237 OA
ATOM     76  O   UNL     1      -2.538  13.162  12.087  1.00  0.00    -0.237 OA
ATOM     77  O   UNL     1      -0.639  11.695  12.621  1.00  0.00    -0.744 OA
ENDBRANCH  71  74
ENDBRANCH  53  67
BRANCH  54  78
ATOM     78  C   UNL     1      -0.650  -0.920  11.382  1.00  0.00     0.023 A 
ATOM     79  C   UNL     1      -1.667  -1.859  11.645  1.00  0.00     0.012 A 
ATOM     80  C   UNL     1       0.691  -1.352  11.363  1.00  0.00     0.148 A 
ATOM     81  C   UNL     1      -1.354  -3.192  11.918  1.00  0.00     0.002 A 
ATOM     82  C   UNL     1       0.991  -2.692  11.578  1.00  0.00     0.091 A 
ATOM     83  F   UNL     1       1.647  -0.441  11.135  1.00  0.00    -0.205 F 
ATOM     84  C   UNL     1      -0.028  -3.610  11.876  1.00  0.00     0.022 A 
BRANCH  82  85
ATOM     85  S   UNL     1       2.657  -3.348  11.428  1.00  0.00     0.127 S 
ATOM     86  O   UNL     1       2.947  -3.748  12.803  1.00  0.00    -0.237 OA
ATOM     87  O   UNL     1       2.458  -4.455  10.492  1.00  0.00    -0.237 OA
ATOM     88  O   UNL     1       3.467  -2.255  10.907  1.00  0.00    -0.744 OA
ENDBRANCH  82  85
ENDBRANCH  54  78
BRANCH  66  89
ATOM     89  C   UNL     1      -3.549   3.947  15.478  1.00  0.00     0.023 A 
ATOM     90  C   UNL     1      -2.668   3.856  16.573  1.00  0.00     0.012 A 
ATOM     91  C   UNL     1      -4.931   4.103  15.717  1.00  0.00     0.148 A 
ATOM     92  C   UNL     1      -3.155   3.884  17.881  1.00  0.00     0.002 A 
ATOM     93  C   UNL     1      -5.403   4.183  17.022  1.00  0.00     0.091 A 
ATOM     94  F   UNL     1      -5.757   4.176  14.664  1.00  0.00    -0.205 F 
ATOM     95  C   UNL     1      -4.518   4.059  18.105  1.00  0.00     0.022 A 
BRANCH  93  96
ATOM     96  S   UNL     1      -7.128   4.508  17.407  1.00  0.00     0.127 S 
ATOM     97  O   UNL     1      -7.557   3.223  17.957  1.00  0.00    -0.237 OA
ATOM     98  O   UNL     1      -7.027   5.588  18.389  1.00  0.00    -0.237 OA
ATOM     99  O   UNL     1      -7.758   4.889  16.151  1.00  0.00    -0.744 OA
ENDBRANCH  93  96
ENDBRANCH  66  89
ENDBRANCH  40  41
ENDBRANCH  33  35
ENDBRANCH  32  33
ENDBRANCH  31  32
ENDBRANCH  30  31
ENDBRANCH  29  30
ENDBRANCH  28  29
ENDBRANCH   1  28
TORSDOF 25
