REMARK SMILES COc1ccc(-c2nc3ccc(C)cc3[nH]2)c(C(=O)OCCOCCOCCOC(=O)c2ccc(-c3c4nc(c(-c5cccc(S(=O)(=O)[O-])c5F)c5ccc([nH]5)c(-c5cccc(S(=O)(=O)[O-])c5F)c5nc(c(-c6cccc(S(=O)(=O)[O-])c6F)c6ccc3[nH]6)C=C5)C=C4)cc2)c1OC
REMARK SMILES IDX 25 1 24 2 23 3 22 4 21 5 20 6 18 7 19 8 17 9 3 10 4 11 95 12
REMARK SMILES IDX 5 13 6 14 2 15 1 16 96 17 97 18 7 19 8 20 16 21 9 22 15 23
REMARK SMILES IDX 10 25 14 26 11 27 12 28 13 29 26 30 27 31 28 32 29 33 30 34
REMARK SMILES IDX 31 35 32 36 33 37 94 38 34 39 93 40 35 41 36 42 37 43 87 44
REMARK SMILES IDX 38 45 92 46 86 47 88 48 39 49 91 50 85 51 84 52 40 54 72 55
REMARK SMILES IDX 52 56 71 57 53 58 56 59 70 60 89 61 54 62 55 63 69 65 90 66
REMARK SMILES IDX 57 67 41 68 42 69 50 70 43 71 45 72 51 73 44 74 46 75 47 76
REMARK SMILES IDX 48 77 49 78 73 79 74 80 82 81 75 82 77 83 83 84 76 85 78 86
REMARK SMILES IDX 79 87 80 88 81 89 58 90 59 91 67 92 60 93 62 94 68 95 61 96
REMARK SMILES IDX 63 97 64 98 65 99 66 100
REMARK H PARENT 16 24 88 53 56 64
REMARK Flexibility Score: inf
ROOT
ATOM      1  C   UNL     1       4.856  -1.181  -4.396  1.00  0.00     0.188 C 
ENDROOT
BRANCH   1   2
ATOM      2  C   UNL     1       5.687  -0.066  -5.047  1.00  0.00     0.188 C 
BRANCH   2   3
ATOM      3  O   UNL     1       6.823   0.336  -4.280  1.00  0.00    -0.376 OA
BRANCH   3   4
ATOM      4  C   UNL     1       6.855   1.746  -4.047  1.00  0.00     0.202 C 
BRANCH   4   5
ATOM      5  C   UNL     1       6.120   2.076  -2.750  1.00  0.00     0.261 C 
BRANCH   5   6
ATOM      6  O   UNL     1       4.769   1.582  -2.765  1.00  0.00    -0.460 OA
BRANCH   6   7
ATOM      7  C   UNL     1       3.784   2.441  -3.104  1.00  0.00     0.342 C 
ATOM      8  O   UNL     1       3.906   3.627  -3.369  1.00  0.00    -0.246 OA
BRANCH   7   9
ATOM      9  C   UNL     1       2.495   1.706  -3.161  1.00  0.00     0.116 A 
ATOM     10  C   UNL     1       0.838   0.267  -2.142  1.00  0.00     0.161 A 
ATOM     11  C   UNL     1       0.061   0.340  -3.301  1.00  0.00     0.051 A 
ATOM     12  C   UNL     1       2.062   0.947  -2.057  1.00  0.00     0.176 A 
ATOM     13  C   UNL     1       0.497   1.085  -4.398  1.00  0.00     0.017 A 
ATOM     14  C   UNL     1       1.728   1.752  -4.349  1.00  0.00     0.036 A 
BRANCH  10  15
ATOM     15  O   UNL     1       0.393  -0.581  -1.163  1.00  0.00    -0.493 OA
ATOM     16  C   UNL     1      -0.135   0.117  -0.039  1.00  0.00     0.278 C 
ENDBRANCH  10  15
BRANCH  12  17
ATOM     17  O   UNL     1       2.818   0.968  -0.912  1.00  0.00    -0.492 OA
ATOM     18  C   UNL     1       3.182  -0.321  -0.414  1.00  0.00     0.278 C 
ENDBRANCH  12  17
BRANCH  14  19
ATOM     19  C   UNL     1       2.317   2.248  -5.587  1.00  0.00     0.139 A 
ATOM     20  N   UNL     1       3.294   1.619  -6.203  1.00  0.00    -0.228 NA
ATOM     21  N   UNL     1       2.027   3.429  -6.228  1.00  0.00    -0.338 N 
ATOM     22  C   UNL     1       3.789   2.499  -7.120  1.00  0.00     0.089 A 
ATOM     23  C   UNL     1       2.995   3.635  -7.186  1.00  0.00     0.066 A 
ATOM     24  H   UNL     1       1.264   4.021  -6.036  1.00  0.00     0.168 HD
ATOM     25  C   UNL     1       4.928   2.384  -7.926  1.00  0.00     0.031 A 
ATOM     26  C   UNL     1       3.252   4.679  -8.076  1.00  0.00     0.031 A 
ATOM     27  C   UNL     1       5.215   3.418  -8.817  1.00  0.00     0.006 A 
ATOM     28  C   UNL     1       4.378   4.538  -8.914  1.00  0.00    -0.049 A 
ATOM     29  C   UNL     1       4.675   5.564  -9.973  1.00  0.00     0.044 C 
ENDBRANCH  14  19
ENDBRANCH   7   9
ENDBRANCH   6   7
ENDBRANCH   5   6
ENDBRANCH   4   5
ENDBRANCH   3   4
ENDBRANCH   2   3
ENDBRANCH   1   2
BRANCH   1  30
ATOM     30  O   UNL     1       5.500  -2.338  -3.868  1.00  0.00    -0.376 OA
BRANCH  30  31
ATOM     31  C   UNL     1       6.796  -2.659  -4.342  1.00  0.00     0.202 C 
BRANCH  31  32
ATOM     32  C   UNL     1       6.873  -3.307  -5.729  1.00  0.00     0.261 C 
BRANCH  32  33
ATOM     33  O   UNL     1       6.211  -2.577  -6.776  1.00  0.00    -0.460 OA
BRANCH  33  34
ATOM     34  C   UNL     1       4.994  -3.056  -7.134  1.00  0.00     0.338 C 
ATOM     35  O   UNL     1       4.423  -4.027  -6.664  1.00  0.00    -0.246 OA
BRANCH  34  36
ATOM     36  C   UNL     1       4.366  -2.189  -8.157  1.00  0.00     0.060 A 
ATOM     37  C   UNL     1       3.063  -1.728  -7.928  1.00  0.00     0.016 A 
ATOM     38  C   UNL     1       4.988  -1.942  -9.382  1.00  0.00     0.016 A 
ATOM     39  C   UNL     1       2.361  -1.062  -8.939  1.00  0.00     0.010 A 
ATOM     40  C   UNL     1       4.278  -1.283 -10.397  1.00  0.00     0.010 A 
ATOM     41  C   UNL     1       2.946  -0.871 -10.197  1.00  0.00    -0.014 A 
BRANCH  41  42
ATOM     42  C   UNL     1       2.140  -0.366 -11.344  1.00  0.00     0.031 A 
ATOM     43  C   UNL     1       1.625  -1.337 -12.370  1.00  0.00     0.074 A 
ATOM     44  C   UNL     1       1.879   0.945 -11.504  1.00  0.00     0.049 A 
ATOM     45  N   UNL     1       0.968  -1.094 -13.475  1.00  0.00    -0.248 NA
ATOM     46  C   UNL     1       1.872  -2.765 -12.116  1.00  0.00     0.031 C 
ATOM     47  C   UNL     1       2.270   1.991 -10.572  1.00  0.00     0.029 A 
ATOM     48  N   UNL     1       1.251   1.626 -12.521  1.00  0.00    -0.354 N 
ATOM     49  C   UNL     1       0.754  -2.330 -14.068  1.00  0.00     0.074 A 
ATOM     50  C   UNL     1       1.348  -3.324 -13.198  1.00  0.00     0.031 C 
ATOM     51  C   UNL     1       1.925   3.186 -11.079  1.00  0.00     0.029 A 
ATOM     52  C   UNL     1       1.308   2.994 -12.381  1.00  0.00     0.049 A 
ATOM     53  H   UNL     1       0.805   1.178 -13.276  1.00  0.00     0.167 HD
ATOM     54  C   UNL     1       0.110  -2.613 -15.225  1.00  0.00     0.034 A 
ATOM     55  C   UNL     1       0.932   3.989 -13.208  1.00  0.00     0.034 A 
ATOM     56  C   UNL     1      -0.509  -1.633 -16.077  1.00  0.00     0.049 A 
ATOM     57  C   UNL     1       0.273   3.649 -14.512  1.00  0.00     0.074 A 
ATOM     58  C   UNL     1      -1.258  -1.845 -17.223  1.00  0.00     0.029 A 
ATOM     59  N   UNL     1      -0.435  -0.262 -15.898  1.00  0.00    -0.354 N 
ATOM     60  N   UNL     1      -0.030   2.470 -14.993  1.00  0.00    -0.248 NA
ATOM     61  C   UNL     1      -0.132   4.775 -15.366  1.00  0.00     0.031 C 
ATOM     62  C   UNL     1      -1.606  -0.599 -17.756  1.00  0.00     0.029 A 
ATOM     63  C   UNL     1      -1.098   0.387 -16.928  1.00  0.00     0.049 A 
ATOM     64  H   UNL     1       0.022   0.187 -15.150  1.00  0.00     0.167 HD
ATOM     65  C   UNL     1      -0.690   2.711 -16.191  1.00  0.00     0.074 A 
ATOM     66  C   UNL     1      -0.755   4.149 -16.355  1.00  0.00     0.031 C 
ATOM     67  C   UNL     1      -1.190   1.816 -17.076  1.00  0.00     0.034 A 
BRANCH  54  68
ATOM     68  C   UNL     1       0.024  -4.054 -15.640  1.00  0.00     0.023 A 
ATOM     69  C   UNL     1      -0.880  -4.918 -14.991  1.00  0.00     0.012 A 
ATOM     70  C   UNL     1       0.783  -4.530 -16.727  1.00  0.00     0.148 A 
ATOM     71  C   UNL     1      -1.013  -6.242 -15.406  1.00  0.00     0.002 A 
ATOM     72  C   UNL     1       0.615  -5.839 -17.160  1.00  0.00     0.091 A 
ATOM     73  F   UNL     1       1.653  -3.695 -17.312  1.00  0.00    -0.205 F 
ATOM     74  C   UNL     1      -0.276  -6.698 -16.496  1.00  0.00     0.022 A 
BRANCH  72  75
ATOM     75  S   UNL     1       1.464  -6.496 -18.599  1.00  0.00     0.127 S 
ATOM     76  O   UNL     1       2.404  -7.433 -17.985  1.00  0.00    -0.237 OA
ATOM     77  O   UNL     1       0.370  -7.127 -19.339  1.00  0.00    -0.237 OA
ATOM     78  O   UNL     1       2.068  -5.353 -19.267  1.00  0.00    -0.744 OA
ENDBRANCH  72  75
ENDBRANCH  54  68
BRANCH  55  79
ATOM     79  C   UNL     1       1.135   5.415 -12.825  1.00  0.00     0.023 A 
ATOM     80  C   UNL     1       0.027   6.177 -12.406  1.00  0.00     0.012 A 
ATOM     81  C   UNL     1       2.402   6.024 -12.902  1.00  0.00     0.148 A 
ATOM     82  C   UNL     1       0.174   7.528 -12.091  1.00  0.00     0.002 A 
ATOM     83  C   UNL     1       2.547   7.364 -12.558  1.00  0.00     0.091 A 
ATOM     84  F   UNL     1       3.439   5.279 -13.309  1.00  0.00    -0.205 F 
ATOM     85  C   UNL     1       1.432   8.120 -12.162  1.00  0.00     0.022 A 
BRANCH  83  86
ATOM     86  S   UNL     1       4.136   8.205 -12.542  1.00  0.00     0.127 S 
ATOM     87  O   UNL     1       3.952   9.217 -13.579  1.00  0.00    -0.237 OA
ATOM     88  O   UNL     1       4.183   8.725 -11.175  1.00  0.00    -0.237 OA
ATOM     89  O   UNL     1       5.129   7.181 -12.834  1.00  0.00    -0.744 OA
ENDBRANCH  83  86
ENDBRANCH  55  79
BRANCH  67  90
ATOM     90  C   UNL     1      -1.875   2.358 -18.300  1.00  0.00     0.023 A 
ATOM     91  C   UNL     1      -1.107   2.927 -19.335  1.00  0.00     0.012 A 
ATOM     92  C   UNL     1      -3.271   2.252 -18.450  1.00  0.00     0.148 A 
ATOM     93  C   UNL     1      -1.722   3.406 -20.491  1.00  0.00     0.002 A 
ATOM     94  C   UNL     1      -3.872   2.690 -19.623  1.00  0.00     0.091 A 
ATOM     95  F   UNL     1      -3.984   1.728 -17.442  1.00  0.00    -0.205 F 
ATOM     96  C   UNL     1      -3.102   3.277 -20.639  1.00  0.00     0.022 A 
BRANCH  94  97
ATOM     97  S   UNL     1      -5.629   2.489 -19.939  1.00  0.00     0.127 S 
ATOM     98  O   UNL     1      -6.106   3.869 -19.864  1.00  0.00    -0.237 OA
ATOM     99  O   UNL     1      -5.637   1.913 -21.285  1.00  0.00    -0.237 OA
ATOM    100  O   UNL     1      -6.127   1.600 -18.898  1.00  0.00    -0.744 OA
ENDBRANCH  94  97
ENDBRANCH  67  90
ENDBRANCH  41  42
ENDBRANCH  34  36
ENDBRANCH  33  34
ENDBRANCH  32  33
ENDBRANCH  31  32
ENDBRANCH  30  31
ENDBRANCH   1  30
TORSDOF 23
