REMARK SMILES O=C(OCCOCCOCCOC(=O)[C@]1([NH2+]C2CC2)CCC[C@@H](n2cc(Br)cn2)C1)c1ccc(-c2c3nc(c(-c4cccc(S(=O)(=O)[O-])c4F)c4ccc([nH]4)c(-c4cccc(S(=O)(=O)[O-])c4F)c4nc(c(-c5cccc(S(=O)(=O)[O-])c5F)c5ccc2[nH]5)C=C4)C=C3)cc1
REMARK SMILES IDX 7 1 6 2 5 3 4 4 3 5 2 6 1 7 31 8 32 9 93 10 33 11 92 12
REMARK SMILES IDX 34 13 35 14 36 15 86 16 37 17 91 18 85 19 87 20 38 21 90 22
REMARK SMILES IDX 84 23 83 24 39 26 71 27 51 28 70 29 52 30 55 31 69 32 88 33
REMARK SMILES IDX 53 34 54 35 68 37 89 38 56 39 40 40 41 41 49 42 42 43 44 44
REMARK SMILES IDX 50 45 43 46 45 47 46 48 47 49 48 50 72 51 73 52 81 53 74 54
REMARK SMILES IDX 76 55 82 56 75 57 77 58 78 59 79 60 80 61 57 62 58 63 66 64
REMARK SMILES IDX 59 65 61 66 67 67 60 68 62 69 63 70 64 71 65 72 8 73 9 74
REMARK SMILES IDX 10 75 11 76 12 77 13 78 14 79 15 80 20 81 30 82 21 83 23 84
REMARK SMILES IDX 22 85 16 86 17 89 18 90 19 91 24 92 25 93 29 94 26 95 28 96
REMARK SMILES IDX 27 97
REMARK H PARENT 87 25 55 36 16 87 16 88
REMARK Flexibility Score: inf
ROOT
ATOM      1  C   UNL     1      -0.157   4.884   3.752  1.00  0.00     0.188 C 
ENDROOT
BRANCH   1   2
ATOM      2  O   UNL     1      -0.653   3.800   4.512  1.00  0.00    -0.376 OA
BRANCH   2   3
ATOM      3  C   UNL     1      -1.775   3.888   5.369  1.00  0.00     0.202 C 
BRANCH   3   4
ATOM      4  C   UNL     1      -2.179   5.143   6.147  1.00  0.00     0.261 C 
BRANCH   4   5
ATOM      5  O   UNL     1      -2.082   6.370   5.430  1.00  0.00    -0.460 OA
BRANCH   5   6
ATOM      6  C   UNL     1      -1.158   7.352   5.478  1.00  0.00     0.338 C 
ATOM      7  O   UNL     1      -1.396   8.380   4.845  1.00  0.00    -0.246 OA
BRANCH   6   8
ATOM      8  C   UNL     1       0.175   7.230   6.143  1.00  0.00     0.060 A 
ATOM      9  C   UNL     1       0.572   6.241   7.051  1.00  0.00     0.016 A 
ATOM     10  C   UNL     1       1.109   8.220   5.789  1.00  0.00     0.016 A 
ATOM     11  C   UNL     1       1.750   6.372   7.767  1.00  0.00     0.010 A 
ATOM     12  C   UNL     1       2.315   8.324   6.457  1.00  0.00     0.010 A 
ATOM     13  C   UNL     1       2.562   7.470   7.527  1.00  0.00    -0.014 A 
BRANCH  13  14
ATOM     14  C   UNL     1       3.559   7.801   8.530  1.00  0.00     0.031 A 
ATOM     15  C   UNL     1       4.727   6.897   8.676  1.00  0.00     0.074 A 
ATOM     16  C   UNL     1       3.421   8.944   9.232  1.00  0.00     0.049 A 
ATOM     17  N   UNL     1       5.141   6.294   9.745  1.00  0.00    -0.248 NA
ATOM     18  C   UNL     1       5.494   6.577   7.466  1.00  0.00     0.031 C 
ATOM     19  C   UNL     1       2.447  10.022   9.001  1.00  0.00     0.029 A 
ATOM     20  N   UNL     1       4.239   9.467  10.185  1.00  0.00    -0.354 N 
ATOM     21  C   UNL     1       6.349   5.693   9.393  1.00  0.00     0.074 A 
ATOM     22  C   UNL     1       6.447   5.784   7.957  1.00  0.00     0.031 C 
ATOM     23  C   UNL     1       2.914  11.159   9.553  1.00  0.00     0.029 A 
ATOM     24  C   UNL     1       4.117  10.845  10.298  1.00  0.00     0.049 A 
ATOM     25  H   UNL     1       4.852   8.926  10.734  1.00  0.00     0.167 HD
ATOM     26  C   UNL     1       7.291   5.351  10.315  1.00  0.00     0.034 A 
ATOM     27  C   UNL     1       5.010  11.687  10.863  1.00  0.00     0.034 A 
ATOM     28  C   UNL     1       6.761   5.280  11.648  1.00  0.00     0.049 A 
ATOM     29  C   UNL     1       5.852  10.892  11.783  1.00  0.00     0.074 A 
ATOM     30  C   UNL     1       5.788   4.535  12.284  1.00  0.00     0.029 A 
ATOM     31  N   UNL     1       7.062   6.307  12.508  1.00  0.00    -0.354 N 
ATOM     32  N   UNL     1       5.394  10.311  12.857  1.00  0.00    -0.248 NA
ATOM     33  C   UNL     1       7.127  10.392  11.297  1.00  0.00     0.031 C 
ATOM     34  C   UNL     1       5.223   5.418  13.251  1.00  0.00     0.029 A 
ATOM     35  C   UNL     1       5.901   6.635  13.155  1.00  0.00     0.049 A 
ATOM     36  H   UNL     1       7.943   6.727  12.634  1.00  0.00     0.167 HD
ATOM     37  C   UNL     1       6.082   9.107  12.925  1.00  0.00     0.074 A 
ATOM     38  C   UNL     1       7.218   9.273  12.021  1.00  0.00     0.031 C 
ATOM     39  C   UNL     1       5.511   7.992  13.476  1.00  0.00     0.034 A 
BRANCH  26  40
ATOM     40  C   UNL     1       8.780   5.388  10.066  1.00  0.00     0.023 A 
ATOM     41  C   UNL     1       9.627   4.773  11.015  1.00  0.00     0.012 A 
ATOM     42  C   UNL     1       9.393   6.222   9.104  1.00  0.00     0.148 A 
ATOM     43  C   UNL     1      11.007   5.005  11.027  1.00  0.00     0.002 A 
ATOM     44  C   UNL     1      10.774   6.383   9.070  1.00  0.00     0.091 A 
ATOM     45  F   UNL     1       8.639   6.977   8.297  1.00  0.00    -0.205 F 
ATOM     46  C   UNL     1      11.584   5.801  10.046  1.00  0.00     0.022 A 
BRANCH  44  47
ATOM     47  S   UNL     1      11.560   7.355   7.780  1.00  0.00     0.127 S 
ATOM     48  O   UNL     1      11.735   8.640   8.445  1.00  0.00    -0.237 OA
ATOM     49  O   UNL     1      12.793   6.606   7.540  1.00  0.00    -0.237 OA
ATOM     50  O   UNL     1      10.620   7.319   6.663  1.00  0.00    -0.744 OA
ENDBRANCH  44  47
ENDBRANCH  26  40
BRANCH  27  51
ATOM     51  C   UNL     1       5.352  13.049  10.402  1.00  0.00     0.023 A 
ATOM     52  C   UNL     1       5.899  13.980  11.300  1.00  0.00     0.012 A 
ATOM     53  C   UNL     1       5.342  13.371   9.022  1.00  0.00     0.148 A 
ATOM     54  C   UNL     1       6.422  15.194  10.839  1.00  0.00     0.002 A 
ATOM     55  C   UNL     1       5.844  14.586   8.573  1.00  0.00     0.091 A 
ATOM     56  F   UNL     1       4.920  12.450   8.145  1.00  0.00    -0.205 F 
ATOM     57  C   UNL     1       6.395  15.498   9.479  1.00  0.00     0.022 A 
BRANCH  55  58
ATOM     58  S   UNL     1       5.830  15.040   6.833  1.00  0.00     0.127 S 
ATOM     59  O   UNL     1       5.307  16.407   6.881  1.00  0.00    -0.237 OA
ATOM     60  O   UNL     1       7.244  14.939   6.482  1.00  0.00    -0.237 OA
ATOM     61  O   UNL     1       4.943  14.085   6.180  1.00  0.00    -0.744 OA
ENDBRANCH  55  58
ENDBRANCH  27  51
BRANCH  39  62
ATOM     62  C   UNL     1       4.186   8.147  14.188  1.00  0.00     0.023 A 
ATOM     63  C   UNL     1       3.026   8.546  13.489  1.00  0.00     0.012 A 
ATOM     64  C   UNL     1       4.051   7.696  15.512  1.00  0.00     0.148 A 
ATOM     65  C   UNL     1       1.770   8.525  14.098  1.00  0.00     0.002 A 
ATOM     66  C   UNL     1       2.792   7.636  16.103  1.00  0.00     0.091 A 
ATOM     67  F   UNL     1       5.155   7.295  16.162  1.00  0.00    -0.205 F 
ATOM     68  C   UNL     1       1.651   8.059  15.402  1.00  0.00     0.022 A 
BRANCH  66  69
ATOM     69  S   UNL     1       2.540   6.920  17.730  1.00  0.00     0.127 S 
ATOM     70  O   UNL     1       2.315   8.104  18.555  1.00  0.00    -0.237 OA
ATOM     71  O   UNL     1       1.356   6.083  17.527  1.00  0.00    -0.237 OA
ATOM     72  O   UNL     1       3.753   6.167  18.027  1.00  0.00    -0.744 OA
ENDBRANCH  66  69
ENDBRANCH  39  62
ENDBRANCH  13  14
ENDBRANCH   6   8
ENDBRANCH   5   6
ENDBRANCH   4   5
ENDBRANCH   3   4
ENDBRANCH   2   3
ENDBRANCH   1   2
BRANCH   1  73
ATOM     73  C   UNL     1      -1.013   5.657   2.734  1.00  0.00     0.188 C 
BRANCH  73  74
ATOM     74  O   UNL     1      -1.398   4.995   1.535  1.00  0.00    -0.376 OA
BRANCH  74  75
ATOM     75  C   UNL     1      -1.798   3.648   1.656  1.00  0.00     0.202 C 
BRANCH  75  76
ATOM     76  C   UNL     1      -0.741   2.696   1.088  1.00  0.00     0.261 C 
BRANCH  76  77
ATOM     77  O   UNL     1       0.619   2.932   1.516  1.00  0.00    -0.459 OA
BRANCH  77  78
ATOM     78  C   UNL     1       1.312   3.883   0.816  1.00  0.00     0.368 C 
ATOM     79  O   UNL     1       0.806   4.601  -0.044  1.00  0.00    -0.245 OA
BRANCH  78  80
ATOM     80  C   UNL     1       2.855   3.877   1.111  1.00  0.00     0.196 C 
ATOM     81  C   UNL     1       3.344   2.990   2.285  1.00  0.00     0.081 C 
ATOM     82  C   UNL     1       3.349   5.352   1.278  1.00  0.00     0.108 C 
ATOM     83  C   UNL     1       3.297   3.592   3.683  1.00  0.00     0.009 C 
ATOM     84  C   UNL     1       3.183   5.926   2.700  1.00  0.00     0.114 C 
ATOM     85  C   UNL     1       3.846   5.005   3.735  1.00  0.00     0.028 C 
BRANCH  80  86
ATOM     86  N   UNL     1       3.473   3.347  -0.160  1.00  0.00    -0.330 N 
ATOM     87  H   UNL     1       4.482   3.486  -0.103  1.00  0.00     0.347 HD
ATOM     88  H   UNL     1       3.036   3.861  -0.925  1.00  0.00     0.347 HD
BRANCH  86  89
ATOM     89  C   UNL     1       3.222   1.921  -0.426  1.00  0.00     0.183 C 
ATOM     90  C   UNL     1       1.942   1.466  -1.071  1.00  0.00     0.071 C 
ATOM     91  C   UNL     1       3.221   1.445  -1.851  1.00  0.00     0.071 C 
ENDBRANCH  86  89
ENDBRANCH  80  86
BRANCH  84  92
ATOM     92  N   UNL     1       3.645   7.315   2.815  1.00  0.00    -0.268 N 
ATOM     93  C   UNL     1       3.000   8.420   2.327  1.00  0.00     0.124 A 
ATOM     94  N   UNL     1       4.692   7.626   3.609  1.00  0.00    -0.180 NA
ATOM     95  C   UNL     1       3.655   9.495   2.871  1.00  0.00     0.055 A 
ATOM     96  C   UNL     1       4.685   8.964   3.654  1.00  0.00     0.150 A 
ATOM     97  Br  UNL     1       3.261  11.306   2.673  1.00  0.00    -0.047 Br
ENDBRANCH  84  92
ENDBRANCH  78  80
ENDBRANCH  77  78
ENDBRANCH  76  77
ENDBRANCH  75  76
ENDBRANCH  74  75
ENDBRANCH  73  74
ENDBRANCH   1  73
TORSDOF 23
