REMARK SMILES Cc1cc(N2CC[NH+]([C@@H](C(=O)OCCOCCOCCOC(=O)c3ccc(-c4c5nc(c(-c6cccc(S(=O)(=O)[O-])c6F)c6ccc([nH]6)c(-c6cccc(S(=O)(=O)[O-])c6F)c6nc(c(-c7cccc(S(=O)(=O)[O-])c7F)c7ccc4[nH]7)C=C6)C=C5)cc3)c3c[nH]c4ccccc34)CC2)nc2ccccc12
REMARK SMILES IDX 17 1 16 2 15 3 14 4 13 5 12 6 10 7 11 8 9 9 8 10 5 11 6 12
REMARK SMILES IDX 97 13 7 14 96 15 4 17 1 18 2 19 3 20 104 21 99 22 103 23
REMARK SMILES IDX 98 24 100 25 102 26 101 27 87 28 88 29 95 30 89 31 90 32
REMARK SMILES IDX 94 33 91 35 93 36 92 37 18 38 19 39 20 40 21 41 22 42 23 43
REMARK SMILES IDX 24 44 25 45 86 46 26 47 85 48 27 49 28 50 29 51 79 52 30 53
REMARK SMILES IDX 84 54 78 55 80 56 31 57 83 58 77 59 76 60 32 62 64 63 44 64
REMARK SMILES IDX 63 65 45 66 48 67 62 68 81 69 46 70 47 71 61 73 82 74 49 75
REMARK SMILES IDX 33 76 34 77 42 78 35 79 37 80 43 81 36 82 38 83 39 84 40 85
REMARK SMILES IDX 41 86 65 87 66 88 74 89 67 90 69 91 75 92 68 93 70 94 71 95
REMARK SMILES IDX 72 96 73 97 50 98 51 99 59 100 52 101 54 102 60 103 53 104
REMARK SMILES IDX 55 105 56 106 57 107 58 108
REMARK H PARENT 8 16 89 34 80 61 48 72
REMARK Flexibility Score: inf
ROOT
ATOM      1  C   UNL     1      -0.376  -5.442   0.287  1.00  0.00     0.188 C 
ENDROOT
BRANCH   1   2
ATOM      2  C   UNL     1      -0.595  -6.619  -0.666  1.00  0.00     0.188 C 
BRANCH   2   3
ATOM      3  O   UNL     1      -0.053  -6.474  -1.971  1.00  0.00    -0.376 OA
BRANCH   3   4
ATOM      4  C   UNL     1      -0.412  -5.300  -2.691  1.00  0.00     0.202 C 
BRANCH   4   5
ATOM      5  C   UNL     1      -1.899  -5.103  -3.018  1.00  0.00     0.261 C 
BRANCH   5   6
ATOM      6  O   UNL     1      -2.678  -4.837  -1.842  1.00  0.00    -0.459 OA
BRANCH   6   7
ATOM      7  C   UNL     1      -3.538  -5.785  -1.395  1.00  0.00     0.370 C 
ATOM      8  O   UNL     1      -3.816  -6.796  -2.035  1.00  0.00    -0.245 OA
BRANCH   7   9
ATOM      9  C   UNL     1      -4.172  -5.412  -0.045  1.00  0.00     0.328 C 
BRANCH   9  10
ATOM     10  N   UNL     1      -4.895  -4.049   0.011  1.00  0.00    -0.316 N 
ATOM     11  N   UNL     1      -3.706  -1.260  -0.395  1.00  0.00    -0.345 N 
ATOM     12  C   UNL     1      -3.716  -1.973   0.903  1.00  0.00     0.179 C 
ATOM     13  C   UNL     1      -3.987  -2.132  -1.548  1.00  0.00     0.179 C 
ATOM     14  C   UNL     1      -4.796  -3.065   1.077  1.00  0.00     0.285 C 
ATOM     15  C   UNL     1      -5.045  -3.269  -1.245  1.00  0.00     0.285 C 
ATOM     16  H   UNL     1      -5.689  -4.630   0.281  1.00  0.00     0.349 HD
BRANCH  11  17
ATOM     17  C   UNL     1      -2.625  -0.329  -0.528  1.00  0.00     0.129 A 
ATOM     18  C   UNL     1      -1.966   3.338   0.179  1.00  0.00     0.045 C 
ATOM     19  C   UNL     1      -1.718   1.880  -0.070  1.00  0.00    -0.038 A 
ATOM     20  C   UNL     1      -2.807   0.979  -0.108  1.00  0.00     0.051 A 
ATOM     21  C   UNL     1      -0.401   1.410  -0.263  1.00  0.00     0.003 A 
ATOM     22  C   UNL     1      -0.282   0.104  -0.733  1.00  0.00     0.073 A 
ATOM     23  C   UNL     1       0.774   2.175   0.017  1.00  0.00     0.010 A 
ATOM     24  N   UNL     1      -1.388  -0.675  -0.979  1.00  0.00    -0.231 NA
ATOM     25  C   UNL     1       1.037  -0.383  -0.871  1.00  0.00     0.029 A 
ATOM     26  C   UNL     1       2.053   1.625  -0.052  1.00  0.00     0.001 A 
ATOM     27  C   UNL     1       2.185   0.321  -0.476  1.00  0.00     0.002 A 
ENDBRANCH  11  17
ENDBRANCH   9  10
BRANCH   9  28
ATOM     28  C   UNL     1      -3.872  -6.346   1.261  1.00  0.00     0.046 A 
ATOM     29  C   UNL     1      -4.963  -6.694   2.062  1.00  0.00     0.094 A 
ATOM     30  C   UNL     1      -2.842  -6.615   2.300  1.00  0.00     0.009 A 
ATOM     31  N   UNL     1      -4.880  -5.666   3.013  1.00  0.00    -0.361 N 
ATOM     32  C   UNL     1      -3.582  -5.696   3.629  1.00  0.00     0.046 A 
ATOM     33  C   UNL     1      -1.175  -7.209   2.621  1.00  0.00     0.011 A 
ATOM     34  H   UNL     1      -5.598  -5.026   3.225  1.00  0.00     0.166 HD
ATOM     35  C   UNL     1      -2.477  -5.226   5.243  1.00  0.00     0.026 A 
ATOM     36  C   UNL     1      -0.183  -6.811   4.061  1.00  0.00     0.001 A 
ATOM     37  C   UNL     1      -0.783  -5.822   5.354  1.00  0.00     0.002 A 
ENDBRANCH   9  28
ENDBRANCH   7   9
ENDBRANCH   6   7
ENDBRANCH   5   6
ENDBRANCH   4   5
ENDBRANCH   3   4
ENDBRANCH   2   3
ENDBRANCH   1   2
BRANCH   1  38
ATOM     38  O   UNL     1      -1.037  -4.263  -0.053  1.00  0.00    -0.376 OA
BRANCH  38  39
ATOM     39  C   UNL     1      -0.383  -3.060   0.266  1.00  0.00     0.202 C 
BRANCH  39  40
ATOM     40  C   UNL     1       0.078  -2.676   1.670  1.00  0.00     0.261 C 
BRANCH  40  41
ATOM     41  O   UNL     1      -0.857  -3.148   2.631  1.00  0.00    -0.460 OA
BRANCH  41  42
ATOM     42  C   UNL     1      -1.874  -2.559   3.271  1.00  0.00     0.338 C 
ATOM     43  O   UNL     1      -2.144  -1.386   3.387  1.00  0.00    -0.246 OA
BRANCH  42  44
ATOM     44  C   UNL     1      -2.630  -3.744   3.738  1.00  0.00     0.060 A 
ATOM     45  C   UNL     1      -4.109  -3.792   4.712  1.00  0.00     0.016 A 
ATOM     46  C   UNL     1      -1.726  -5.274   3.529  1.00  0.00     0.016 A 
ATOM     47  C   UNL     1      -4.686  -5.284   5.551  1.00  0.00     0.010 A 
ATOM     48  C   UNL     1      -2.386  -6.940   4.443  1.00  0.00     0.010 A 
ATOM     49  C   UNL     1      -3.851  -6.847   5.451  1.00  0.00    -0.014 A 
BRANCH  49  50
ATOM     50  C   UNL     1      -3.977  -7.986   6.370  1.00  0.00     0.031 A 
ATOM     51  C   UNL     1      -3.572  -7.818   7.801  1.00  0.00     0.074 A 
ATOM     52  C   UNL     1      -4.073  -9.234   5.873  1.00  0.00     0.049 A 
ATOM     53  N   UNL     1      -3.827  -8.580   8.826  1.00  0.00    -0.248 NA
ATOM     54  C   UNL     1      -2.715  -6.670   8.129  1.00  0.00     0.031 C 
ATOM     55  C   UNL     1      -4.046  -9.599   4.454  1.00  0.00     0.029 A 
ATOM     56  N   UNL     1      -4.164 -10.440   6.511  1.00  0.00    -0.354 N 
ATOM     57  C   UNL     1      -3.233  -7.951   9.914  1.00  0.00     0.074 A 
ATOM     58  C   UNL     1      -2.511  -6.811   9.425  1.00  0.00     0.031 C 
ATOM     59  C   UNL     1      -4.166 -10.928   4.327  1.00  0.00     0.029 A 
ATOM     60  C   UNL     1      -4.325 -11.500   5.652  1.00  0.00     0.049 A 
ATOM     61  H   UNL     1      -4.118 -10.539   7.490  1.00  0.00     0.167 HD
ATOM     62  C   UNL     1      -3.320  -8.286  11.218  1.00  0.00     0.034 A 
ATOM     63  C   UNL     1      -4.634 -12.781   5.914  1.00  0.00     0.034 A 
ATOM     64  C   UNL     1      -3.902  -9.527  11.625  1.00  0.00     0.049 A 
ATOM     65  C   UNL     1      -4.884 -13.136   7.347  1.00  0.00     0.074 A 
ATOM     66  C   UNL     1      -4.187  -9.990  12.891  1.00  0.00     0.029 A 
ATOM     67  N   UNL     1      -4.219 -10.546  10.735  1.00  0.00    -0.354 N 
ATOM     68  N   UNL     1      -4.687 -12.404   8.420  1.00  0.00    -0.248 NA
ATOM     69  C   UNL     1      -5.465 -14.454   7.606  1.00  0.00     0.031 C 
ATOM     70  C   UNL     1      -4.622 -11.315  12.768  1.00  0.00     0.029 A 
ATOM     71  C   UNL     1      -4.684 -11.646  11.420  1.00  0.00     0.049 A 
ATOM     72  H   UNL     1      -4.124 -10.490   9.757  1.00  0.00     0.167 HD
ATOM     73  C   UNL     1      -5.154 -13.156   9.485  1.00  0.00     0.074 A 
ATOM     74  C   UNL     1      -5.663 -14.393   8.916  1.00  0.00     0.031 C 
ATOM     75  C   UNL     1      -5.170 -12.858  10.809  1.00  0.00     0.034 A 
BRANCH  62  76
ATOM     76  C   UNL     1      -2.809  -7.287  12.224  1.00  0.00     0.023 A 
ATOM     77  C   UNL     1      -3.380  -5.992  12.267  1.00  0.00     0.012 A 
ATOM     78  C   UNL     1      -1.771  -7.603  13.116  1.00  0.00     0.148 A 
ATOM     79  C   UNL     1      -2.889  -5.016  13.133  1.00  0.00     0.002 A 
ATOM     80  C   UNL     1      -1.324  -6.641  14.017  1.00  0.00     0.091 A 
ATOM     81  F   UNL     1      -1.217  -8.820  13.050  1.00  0.00    -0.205 F 
ATOM     82  C   UNL     1      -1.866  -5.345  14.014  1.00  0.00     0.022 A 
BRANCH  80  83
ATOM     83  S   UNL     1      -0.059  -6.980  15.245  1.00  0.00     0.127 S 
ATOM     84  O   UNL     1       1.029  -6.112  14.794  1.00  0.00    -0.237 OA
ATOM     85  O   UNL     1      -0.713  -6.546  16.479  1.00  0.00    -0.237 OA
ATOM     86  O   UNL     1       0.211  -8.408  15.165  1.00  0.00    -0.744 OA
ENDBRANCH  80  83
ENDBRANCH  62  76
BRANCH  63  87
ATOM     87  C   UNL     1      -4.878 -13.724   4.791  1.00  0.00     0.023 A 
ATOM     88  C   UNL     1      -6.194 -14.094   4.449  1.00  0.00     0.012 A 
ATOM     89  C   UNL     1      -3.809 -14.183   4.001  1.00  0.00     0.148 A 
ATOM     90  C   UNL     1      -6.437 -14.935   3.361  1.00  0.00     0.002 A 
ATOM     91  C   UNL     1      -4.060 -14.981   2.892  1.00  0.00     0.091 A 
ATOM     92  F   UNL     1      -2.570 -13.795   4.332  1.00  0.00    -0.205 F 
ATOM     93  C   UNL     1      -5.372 -15.372   2.578  1.00  0.00     0.022 A 
BRANCH  91  94
ATOM     94  S   UNL     1      -2.761 -15.497   1.765  1.00  0.00     0.127 S 
ATOM     95  O   UNL     1      -2.776 -16.948   1.941  1.00  0.00    -0.237 OA
ATOM     96  O   UNL     1      -3.276 -15.027   0.479  1.00  0.00    -0.237 OA
ATOM     97  O   UNL     1      -1.552 -14.824   2.218  1.00  0.00    -0.744 OA
ENDBRANCH  91  94
ENDBRANCH  63  87
BRANCH  75  98
ATOM     98  C   UNL     1      -5.800 -13.872  11.717  1.00  0.00     0.023 A 
ATOM     99  C   UNL     1      -5.199 -15.129  11.915  1.00  0.00     0.012 A 
ATOM    100  C   UNL     1      -6.986 -13.546  12.399  1.00  0.00     0.148 A 
ATOM    101  C   UNL     1      -5.812 -16.077  12.730  1.00  0.00     0.002 A 
ATOM    102  C   UNL     1      -7.550 -14.466  13.266  1.00  0.00     0.091 A 
ATOM    103  F   UNL     1      -7.544 -12.346  12.181  1.00  0.00    -0.205 F 
ATOM    104  C   UNL     1      -6.979 -15.741  13.414  1.00  0.00     0.022 A 
BRANCH 102 105
ATOM    105  S   UNL     1      -8.981 -14.073  14.270  1.00  0.00     0.127 S 
ATOM    106  O   UNL     1     -10.017 -14.891  13.641  1.00  0.00    -0.237 OA
ATOM    107  O   UNL     1      -8.560 -14.531  15.595  1.00  0.00    -0.237 OA
ATOM    108  O   UNL     1      -9.170 -12.633  14.161  1.00  0.00    -0.744 OA
ENDBRANCH 102 105
ENDBRANCH  75  98
ENDBRANCH  49  50
ENDBRANCH  42  44
ENDBRANCH  41  42
ENDBRANCH  40  41
ENDBRANCH  39  40
ENDBRANCH  38  39
ENDBRANCH   1  38
TORSDOF 23
