REMARK SMILES Cc1cc(Br)cc([N+](=O)[O-])c1OCCC(=O)OCCOCCOCCOC(=O)c1ccc(-c2c3nc(c(-c4cccc(S(=O)(=O)[O-])c4F)c4ccc([nH]4)c(-c4cccc(S(=O)(=O)[O-])c4F)c4nc(c(-c5cccc(S(=O)(=O)[O-])c5F)c5ccc2[nH]5)C=C4)C=C3)cc1
REMARK SMILES IDX 21 1 20 2 19 3 18 4 17 5 15 6 16 7 14 8 13 9 12 10 11 11
REMARK SMILES IDX 1 12 2 13 3 14 4 15 7 16 5 17 6 18 8 19 9 20 10 21 22 22
REMARK SMILES IDX 23 23 24 24 25 25 26 26 27 27 28 28 29 29 30 30 91 31 31 32
REMARK SMILES IDX 90 33 32 34 33 35 34 36 84 37 35 38 89 39 83 40 85 41 36 42
REMARK SMILES IDX 88 43 82 44 81 45 37 47 69 48 49 49 68 50 50 51 53 52 67 53
REMARK SMILES IDX 86 54 51 55 52 56 66 58 87 59 54 60 38 61 39 62 47 63 40 64
REMARK SMILES IDX 42 65 48 66 41 67 43 68 44 69 45 70 46 71 70 72 71 73 79 74
REMARK SMILES IDX 72 75 74 76 80 77 73 78 75 79 76 80 77 81 78 82 55 83 56 84
REMARK SMILES IDX 64 85 57 86 59 87 65 88 58 89 60 90 61 91 62 92 63 93
REMARK H PARENT 85 46 53 57
REMARK Flexibility Score: inf
ROOT
ATOM      1  C   UNL     1      -1.865  -3.346   0.674  1.00  0.00     0.188 C 
ENDROOT
BRANCH   1   2
ATOM      2  O   UNL     1      -0.823  -3.433  -0.282  1.00  0.00    -0.376 OA
BRANCH   2   3
ATOM      3  C   UNL     1      -0.669  -2.531  -1.377  1.00  0.00     0.202 C 
BRANCH   3   4
ATOM      4  C   UNL     1      -1.795  -2.352  -2.436  1.00  0.00     0.261 C 
BRANCH   4   5
ATOM      5  O   UNL     1      -2.655  -1.172  -2.298  1.00  0.00    -0.463 OA
BRANCH   5   6
ATOM      6  C   UNL     1      -3.822  -1.210  -3.011  1.00  0.00     0.309 C 
ATOM      7  O   UNL     1      -4.134  -2.194  -3.681  1.00  0.00    -0.252 OA
BRANCH   6   8
ATOM      8  C   UNL     1      -4.656   0.089  -3.138  1.00  0.00     0.164 C 
BRANCH   8   9
ATOM      9  C   UNL     1      -5.331   0.993  -2.080  1.00  0.00     0.241 C 
BRANCH   9  10
ATOM     10  O   UNL     1      -4.628   2.071  -1.446  1.00  0.00    -0.486 OA
BRANCH  10  11
ATOM     11  C   UNL     1      -3.525   1.859  -0.683  1.00  0.00     0.200 A 
ATOM     12  C   UNL     1      -4.045  -0.506   0.142  1.00  0.00     0.049 C 
ATOM     13  C   UNL     1      -3.113   0.621  -0.240  1.00  0.00    -0.001 A 
ATOM     14  C   UNL     1      -1.725   0.473  -0.038  1.00  0.00     0.023 A 
ATOM     15  C   UNL     1      -0.815   1.518  -0.035  1.00  0.00     0.025 A 
ATOM     16  C   UNL     1      -2.656   2.954  -0.457  1.00  0.00     0.312 A 
ATOM     17  Br  UNL     1       1.026   1.174   0.197  1.00  0.00    -0.051 Br
ATOM     18  C   UNL     1      -1.296   2.794  -0.142  1.00  0.00     0.105 A 
BRANCH  16  19
ATOM     19  N   UNL     1      -3.175   4.314  -0.424  1.00  0.00     0.066 N 
ATOM     20  O   UNL     1      -2.398   5.225  -0.749  1.00  0.00    -0.258 OA
ATOM     21  O   UNL     1      -4.319   4.489   0.017  1.00  0.00    -0.258 OA
ENDBRANCH  16  19
ENDBRANCH  10  11
ENDBRANCH   9  10
ENDBRANCH   8   9
ENDBRANCH   6   8
ENDBRANCH   5   6
ENDBRANCH   4   5
ENDBRANCH   3   4
ENDBRANCH   2   3
ENDBRANCH   1   2
BRANCH   1  22
ATOM     22  C   UNL     1      -1.822  -2.237   1.736  1.00  0.00     0.188 C 
BRANCH  22  23
ATOM     23  O   UNL     1      -0.577  -1.749   2.188  1.00  0.00    -0.376 OA
BRANCH  23  24
ATOM     24  C   UNL     1       0.140  -2.599   3.073  1.00  0.00     0.202 C 
BRANCH  24  25
ATOM     25  C   UNL     1      -0.596  -2.965   4.372  1.00  0.00     0.261 C 
BRANCH  25  26
ATOM     26  O   UNL     1      -1.628  -3.948   4.130  1.00  0.00    -0.460 OA
BRANCH  26  27
ATOM     27  C   UNL     1      -2.898  -3.585   4.470  1.00  0.00     0.338 C 
ATOM     28  O   UNL     1      -3.242  -2.567   5.031  1.00  0.00    -0.246 OA
BRANCH  27  29
ATOM     29  C   UNL     1      -3.855  -4.513   3.819  1.00  0.00     0.060 A 
ATOM     30  C   UNL     1      -4.946  -3.984   3.106  1.00  0.00     0.016 A 
ATOM     31  C   UNL     1      -3.708  -5.889   3.964  1.00  0.00     0.016 A 
ATOM     32  C   UNL     1      -5.938  -4.835   2.608  1.00  0.00     0.010 A 
ATOM     33  C   UNL     1      -4.703  -6.735   3.476  1.00  0.00     0.010 A 
ATOM     34  C   UNL     1      -5.848  -6.211   2.845  1.00  0.00    -0.014 A 
BRANCH  34  35
ATOM     35  C   UNL     1      -7.011  -7.114   2.657  1.00  0.00     0.031 A 
ATOM     36  C   UNL     1      -7.793  -7.517   3.880  1.00  0.00     0.074 A 
ATOM     37  C   UNL     1      -7.297  -7.656   1.461  1.00  0.00     0.049 A 
ATOM     38  N   UNL     1      -8.698  -8.448   4.020  1.00  0.00    -0.248 NA
ATOM     39  C   UNL     1      -7.491  -6.778   5.118  1.00  0.00     0.031 C 
ATOM     40  C   UNL     1      -6.622  -7.343   0.205  1.00  0.00     0.029 A 
ATOM     41  N   UNL     1      -8.202  -8.635   1.127  1.00  0.00    -0.354 N 
ATOM     42  C   UNL     1      -9.034  -8.447   5.370  1.00  0.00     0.074 A 
ATOM     43  C   UNL     1      -8.235  -7.421   6.004  1.00  0.00     0.031 C 
ATOM     44  C   UNL     1      -7.100  -8.151  -0.757  1.00  0.00     0.029 A 
ATOM     45  C   UNL     1      -8.084  -9.063  -0.174  1.00  0.00     0.049 A 
ATOM     46  H   UNL     1      -8.868  -8.994   1.757  1.00  0.00     0.167 HD
ATOM     47  C   UNL     1      -9.927  -9.228   6.023  1.00  0.00     0.034 A 
ATOM     48  C   UNL     1      -8.669 -10.101  -0.808  1.00  0.00     0.034 A 
ATOM     49  C   UNL     1     -10.725 -10.239   5.385  1.00  0.00     0.049 A 
ATOM     50  C   UNL     1      -9.642 -10.975  -0.056  1.00  0.00     0.074 A 
ATOM     51  C   UNL     1     -11.700 -11.046   5.945  1.00  0.00     0.029 A 
ATOM     52  N   UNL     1     -10.628 -10.597   4.050  1.00  0.00    -0.354 N 
ATOM     53  N   UNL     1     -10.031 -10.896   1.194  1.00  0.00    -0.248 NA
ATOM     54  C   UNL     1     -10.277 -12.065  -0.812  1.00  0.00     0.031 C 
ATOM     55  C   UNL     1     -12.163 -11.920   4.956  1.00  0.00     0.029 A 
ATOM     56  C   UNL     1     -11.512 -11.624   3.769  1.00  0.00     0.049 A 
ATOM     57  H   UNL     1     -10.019 -10.182   3.397  1.00  0.00     0.167 HD
ATOM     58  C   UNL     1     -10.985 -11.896   1.363  1.00  0.00     0.074 A 
ATOM     59  C   UNL     1     -11.124 -12.558   0.082  1.00  0.00     0.031 C 
ATOM     60  C   UNL     1     -11.677 -12.242   2.477  1.00  0.00     0.034 A 
BRANCH  47  61
ATOM     61  C   UNL     1     -10.089  -9.014   7.506  1.00  0.00     0.023 A 
ATOM     62  C   UNL     1     -10.699  -7.835   7.985  1.00  0.00     0.012 A 
ATOM     63  C   UNL     1      -9.674  -9.997   8.426  1.00  0.00     0.148 A 
ATOM     64  C   UNL     1     -10.853  -7.620   9.354  1.00  0.00     0.002 A 
ATOM     65  C   UNL     1      -9.876  -9.797   9.787  1.00  0.00     0.091 A 
ATOM     66  F   UNL     1      -9.077 -11.101   7.956  1.00  0.00    -0.205 F 
ATOM     67  C   UNL     1     -10.452  -8.604  10.253  1.00  0.00     0.022 A 
BRANCH  65  68
ATOM     68  S   UNL     1      -9.469 -11.038  11.019  1.00  0.00     0.127 S 
ATOM     69  O   UNL     1      -8.333 -10.417  11.699  1.00  0.00    -0.237 OA
ATOM     70  O   UNL     1     -10.697 -11.096  11.813  1.00  0.00    -0.237 OA
ATOM     71  O   UNL     1      -9.165 -12.256  10.281  1.00  0.00    -0.744 OA
ENDBRANCH  65  68
ENDBRANCH  47  61
BRANCH  48  72
ATOM     72  C   UNL     1      -8.369 -10.360  -2.245  1.00  0.00     0.023 A 
ATOM     73  C   UNL     1      -9.371 -10.139  -3.210  1.00  0.00     0.012 A 
ATOM     74  C   UNL     1      -7.100 -10.807  -2.663  1.00  0.00     0.148 A 
ATOM     75  C   UNL     1      -9.125 -10.384  -4.561  1.00  0.00     0.002 A 
ATOM     76  C   UNL     1      -6.844 -10.997  -4.016  1.00  0.00     0.091 A 
ATOM     77  F   UNL     1      -6.165 -11.027  -1.727  1.00  0.00    -0.205 F 
ATOM     78  C   UNL     1      -7.860 -10.803  -4.965  1.00  0.00     0.022 A 
BRANCH  76  79
ATOM     79  S   UNL     1      -5.214 -11.416  -4.644  1.00  0.00     0.127 S 
ATOM     80  O   UNL     1      -5.436 -12.757  -5.179  1.00  0.00    -0.237 OA
ATOM     81  O   UNL     1      -5.006 -10.376  -5.651  1.00  0.00    -0.237 OA
ATOM     82  O   UNL     1      -4.317 -11.336  -3.499  1.00  0.00    -0.744 OA
ENDBRANCH  76  79
ENDBRANCH  48  72
BRANCH  60  83
ATOM     83  C   UNL     1     -12.693 -13.351   2.361  1.00  0.00     0.023 A 
ATOM     84  C   UNL     1     -12.271 -14.686   2.204  1.00  0.00     0.012 A 
ATOM     85  C   UNL     1     -14.069 -13.072   2.485  1.00  0.00     0.148 A 
ATOM     86  C   UNL     1     -13.205 -15.721   2.136  1.00  0.00     0.002 A 
ATOM     87  C   UNL     1     -14.989 -14.113   2.471  1.00  0.00     0.091 A 
ATOM     88  F   UNL     1     -14.453 -11.794   2.619  1.00  0.00    -0.205 F 
ATOM     89  C   UNL     1     -14.561 -15.437   2.282  1.00  0.00     0.022 A 
BRANCH  87  90
ATOM     90  S   UNL     1     -16.745 -13.853   2.751  1.00  0.00     0.127 S 
ATOM     91  O   UNL     1     -17.301 -14.123   1.425  1.00  0.00    -0.237 OA
ATOM     92  O   UNL     1     -17.051 -14.869   3.758  1.00  0.00    -0.237 OA
ATOM     93  O   UNL     1     -16.880 -12.479   3.216  1.00  0.00    -0.744 OA
ENDBRANCH  87  90
ENDBRANCH  60  83
ENDBRANCH  34  35
ENDBRANCH  27  29
ENDBRANCH  26  27
ENDBRANCH  25  26
ENDBRANCH  24  25
ENDBRANCH  23  24
ENDBRANCH  22  23
ENDBRANCH   1  22
TORSDOF 24
