REMARK SMILES O=C(OCCOCCOCCOC(=O)c1nnn(-c2ccc(C(F)(F)F)cc2)c1-c1cccc(Cl)c1)c1ccc(-c2c3nc(c(-c4cccc(S(=O)(=O)[O-])c4F)c4ccc([nH]4)c(-c4cccc(S(=O)(=O)[O-])c4F)c4nc(c(-c5cccc(S(=O)(=O)[O-])c5F)c5ccc2[nH]5)C=C4)C=C3)cc1
REMARK SMILES IDX 7 1 6 2 5 3 4 4 3 5 2 6 1 7 37 8 38 9 99 10 39 11 98 12
REMARK SMILES IDX 40 13 41 14 42 15 92 16 43 17 97 18 91 19 93 20 44 21 96 22
REMARK SMILES IDX 90 23 89 24 45 26 77 27 57 28 76 29 58 30 61 31 75 32 94 33
REMARK SMILES IDX 59 34 60 35 74 37 95 38 62 39 46 40 47 41 55 42 48 43 50 44
REMARK SMILES IDX 56 45 49 46 51 47 52 48 53 49 54 50 78 51 79 52 87 53 80 54
REMARK SMILES IDX 82 55 88 56 81 57 83 58 84 59 85 60 86 61 63 62 64 63 72 64
REMARK SMILES IDX 65 65 67 66 73 67 66 68 68 69 69 70 70 71 71 72 8 73 9 74
REMARK SMILES IDX 10 75 11 76 12 77 13 78 14 79 15 80 16 81 29 82 17 83 18 84
REMARK SMILES IDX 30 85 31 86 36 87 32 88 34 89 33 90 35 91 19 92 20 93 28 94
REMARK SMILES IDX 21 95 27 96 22 97 23 98 24 99 25 100 26 101
REMARK H PARENT 93 25 61 36
REMARK Flexibility Score: inf
ROOT
ATOM      1  C   UNL     1       3.394  -0.845  -1.583  1.00  0.00     0.188 C 
ENDROOT
BRANCH   1   2
ATOM      2  O   UNL     1       4.714  -1.156  -1.149  1.00  0.00    -0.376 OA
BRANCH   2   3
ATOM      3  C   UNL     1       5.249  -0.277  -0.171  1.00  0.00     0.202 C 
BRANCH   3   4
ATOM      4  C   UNL     1       4.860  -0.666   1.255  1.00  0.00     0.261 C 
BRANCH   4   5
ATOM      5  O   UNL     1       3.466  -0.959   1.466  1.00  0.00    -0.460 OA
BRANCH   5   6
ATOM      6  C   UNL     1       2.396  -0.170   1.681  1.00  0.00     0.338 C 
ATOM      7  O   UNL     1       1.369  -0.679   2.129  1.00  0.00    -0.246 OA
BRANCH   6   8
ATOM      8  C   UNL     1       2.343   1.254   1.268  1.00  0.00     0.060 A 
ATOM      9  C   UNL     1       3.434   2.123   1.270  1.00  0.00     0.016 A 
ATOM     10  C   UNL     1       1.066   1.761   0.948  1.00  0.00     0.016 A 
ATOM     11  C   UNL     1       3.254   3.475   1.012  1.00  0.00     0.010 A 
ATOM     12  C   UNL     1       0.876   3.118   0.718  1.00  0.00     0.010 A 
ATOM     13  C   UNL     1       1.969   3.977   0.807  1.00  0.00    -0.014 A 
BRANCH  13  14
ATOM     14  C   UNL     1       1.812   5.424   0.870  1.00  0.00     0.031 A 
ATOM     15  C   UNL     1       2.262   6.237  -0.287  1.00  0.00     0.074 A 
ATOM     16  C   UNL     1       1.240   6.005   1.943  1.00  0.00     0.049 A 
ATOM     17  N   UNL     1       3.168   7.163  -0.303  1.00  0.00    -0.248 NA
ATOM     18  C   UNL     1       1.651   5.966  -1.594  1.00  0.00     0.031 C 
ATOM     19  C   UNL     1       0.498   5.336   3.018  1.00  0.00     0.029 A 
ATOM     20  N   UNL     1       1.073   7.331   2.219  1.00  0.00    -0.354 N 
ATOM     21  C   UNL     1       3.100   7.737  -1.573  1.00  0.00     0.074 A 
ATOM     22  C   UNL     1       2.241   6.886  -2.359  1.00  0.00     0.031 C 
ATOM     23  C   UNL     1      -0.254   6.252   3.663  1.00  0.00     0.029 A 
ATOM     24  C   UNL     1       0.060   7.568   3.137  1.00  0.00     0.049 A 
ATOM     25  H   UNL     1       1.615   8.044   1.810  1.00  0.00     0.167 HD
ATOM     26  C   UNL     1       3.596   8.974  -1.845  1.00  0.00     0.034 A 
ATOM     27  C   UNL     1      -0.552   8.748   3.380  1.00  0.00     0.034 A 
ATOM     28  C   UNL     1       4.481   9.459  -0.823  1.00  0.00     0.049 A 
ATOM     29  C   UNL     1       0.332   9.835   2.909  1.00  0.00     0.074 A 
ATOM     30  C   UNL     1       5.678   9.052  -0.273  1.00  0.00     0.029 A 
ATOM     31  N   UNL     1       4.007  10.453  -0.004  1.00  0.00    -0.354 N 
ATOM     32  N   UNL     1       1.464  10.154   3.471  1.00  0.00    -0.248 NA
ATOM     33  C   UNL     1       0.119  10.382   1.579  1.00  0.00     0.031 C 
ATOM     34  C   UNL     1       5.646   9.511   1.075  1.00  0.00     0.029 A 
ATOM     35  C   UNL     1       4.428  10.168   1.266  1.00  0.00     0.049 A 
ATOM     36  H   UNL     1       3.464  11.227  -0.280  1.00  0.00     0.167 HD
ATOM     37  C   UNL     1       2.270  10.572   2.422  1.00  0.00     0.074 A 
ATOM     38  C   UNL     1       1.349  10.833   1.322  1.00  0.00     0.031 C 
ATOM     39  C   UNL     1       3.624  10.382   2.450  1.00  0.00     0.034 A 
BRANCH  26  40
ATOM     40  C   UNL     1       3.065   9.905  -2.908  1.00  0.00     0.023 A 
ATOM     41  C   UNL     1       3.861  11.014  -3.276  1.00  0.00     0.012 A 
ATOM     42  C   UNL     1       1.730   9.893  -3.364  1.00  0.00     0.148 A 
ATOM     43  C   UNL     1       3.344  12.069  -4.036  1.00  0.00     0.002 A 
ATOM     44  C   UNL     1       1.246  10.902  -4.190  1.00  0.00     0.091 A 
ATOM     45  F   UNL     1       0.874   8.976  -2.896  1.00  0.00    -0.205 F 
ATOM     46  C   UNL     1       2.039  12.007  -4.507  1.00  0.00     0.022 A 
BRANCH  44  47
ATOM     47  S   UNL     1      -0.407  10.806  -4.883  1.00  0.00     0.127 S 
ATOM     48  O   UNL     1      -1.178  11.582  -3.919  1.00  0.00    -0.237 OA
ATOM     49  O   UNL     1      -0.231  11.439  -6.192  1.00  0.00    -0.237 OA
ATOM     50  O   UNL     1      -0.691   9.377  -4.952  1.00  0.00    -0.744 OA
ENDBRANCH  44  47
ENDBRANCH  26  40
BRANCH  27  51
ATOM     51  C   UNL     1      -1.950   8.978   3.802  1.00  0.00     0.023 A 
ATOM     52  C   UNL     1      -2.295  10.170   4.464  1.00  0.00     0.012 A 
ATOM     53  C   UNL     1      -2.994   8.131   3.360  1.00  0.00     0.148 A 
ATOM     54  C   UNL     1      -3.636  10.513   4.671  1.00  0.00     0.002 A 
ATOM     55  C   UNL     1      -4.324   8.465   3.589  1.00  0.00     0.091 A 
ATOM     56  F   UNL     1      -2.687   7.047   2.635  1.00  0.00    -0.205 F 
ATOM     57  C   UNL     1      -4.650   9.662   4.235  1.00  0.00     0.022 A 
BRANCH  55  58
ATOM     58  S   UNL     1      -5.670   7.398   3.060  1.00  0.00     0.127 S 
ATOM     59  O   UNL     1      -6.587   7.471   4.199  1.00  0.00    -0.237 OA
ATOM     60  O   UNL     1      -6.138   8.075   1.854  1.00  0.00    -0.237 OA
ATOM     61  O   UNL     1      -5.072   6.083   2.865  1.00  0.00    -0.744 OA
ENDBRANCH  55  58
ENDBRANCH  27  51
BRANCH  39  62
ATOM     62  C   UNL     1       4.271  10.012   3.763  1.00  0.00     0.023 A 
ATOM     63  C   UNL     1       3.934   8.822   4.439  1.00  0.00     0.012 A 
ATOM     64  C   UNL     1       5.368  10.765   4.222  1.00  0.00     0.148 A 
ATOM     65  C   UNL     1       4.650   8.406   5.563  1.00  0.00     0.002 A 
ATOM     66  C   UNL     1       6.110  10.321   5.312  1.00  0.00     0.091 A 
ATOM     67  F   UNL     1       5.691  11.890   3.565  1.00  0.00    -0.205 F 
ATOM     68  C   UNL     1       5.747   9.149   5.992  1.00  0.00     0.022 A 
BRANCH  66  69
ATOM     69  S   UNL     1       7.621  11.151   5.817  1.00  0.00     0.127 S 
ATOM     70  O   UNL     1       7.165  11.967   6.940  1.00  0.00    -0.237 OA
ATOM     71  O   UNL     1       8.491  10.032   6.188  1.00  0.00    -0.237 OA
ATOM     72  O   UNL     1       8.076  11.885   4.642  1.00  0.00    -0.744 OA
ENDBRANCH  66  69
ENDBRANCH  39  62
ENDBRANCH  13  14
ENDBRANCH   6   8
ENDBRANCH   5   6
ENDBRANCH   4   5
ENDBRANCH   3   4
ENDBRANCH   2   3
ENDBRANCH   1   2
BRANCH   1  73
ATOM     73  C   UNL     1       2.328  -1.923  -1.285  1.00  0.00     0.188 C 
BRANCH  73  74
ATOM     74  O   UNL     1       2.577  -3.326  -1.361  1.00  0.00    -0.376 OA
BRANCH  74  75
ATOM     75  C   UNL     1       3.891  -3.819  -1.516  1.00  0.00     0.202 C 
BRANCH  75  76
ATOM     76  C   UNL     1       4.285  -3.974  -2.984  1.00  0.00     0.261 C 
BRANCH  76  77
ATOM     77  O   UNL     1       4.001  -2.820  -3.783  1.00  0.00    -0.458 OA
BRANCH  77  78
ATOM     78  C   UNL     1       2.750  -2.748  -4.324  1.00  0.00     0.361 C 
ATOM     79  O   UNL     1       1.877  -3.610  -4.213  1.00  0.00    -0.244 OA
BRANCH  78  80
ATOM     80  C   UNL     1       2.586  -1.568  -5.144  1.00  0.00     0.198 A 
ATOM     81  N   UNL     1       1.570  -0.653  -5.005  1.00  0.00    -0.122 NA
ATOM     82  C   UNL     1       3.419  -1.171  -6.176  1.00  0.00     0.109 A 
ATOM     83  N   UNL     1       1.732   0.289  -5.929  1.00  0.00    -0.061 NA
ATOM     84  N   UNL     1       2.715  -0.125  -6.754  1.00  0.00    -0.212 N 
BRANCH  82  85
ATOM     85  C   UNL     1       4.688  -1.705  -6.663  1.00  0.00     0.004 A 
ATOM     86  C   UNL     1       5.765  -0.843  -6.923  1.00  0.00     0.010 A 
ATOM     87  C   UNL     1       4.849  -3.080  -6.868  1.00  0.00     0.031 A 
ATOM     88  C   UNL     1       6.979  -1.347  -7.393  1.00  0.00     0.002 A 
ATOM     89  C   UNL     1       6.067  -3.578  -7.324  1.00  0.00     0.041 A 
ATOM     90  C   UNL     1       7.130  -2.718  -7.592  1.00  0.00     0.020 A 
ATOM     91  Cl  UNL     1       6.255  -5.272  -7.559  1.00  0.00    -0.084 Cl
ENDBRANCH  82  85
BRANCH  84  92
ATOM     92  C   UNL     1       2.827   0.321  -8.087  1.00  0.00     0.067 A 
ATOM     93  C   UNL     1       2.876   1.680  -8.390  1.00  0.00     0.029 A 
ATOM     94  C   UNL     1       2.969  -0.646  -9.092  1.00  0.00     0.029 A 
ATOM     95  C   UNL     1       3.196   2.061  -9.700  1.00  0.00     0.015 A 
ATOM     96  C   UNL     1       3.251  -0.260 -10.395  1.00  0.00     0.015 A 
ATOM     97  C   UNL     1       3.410   1.096 -10.705  1.00  0.00     0.056 A 
BRANCH  97  98
ATOM     98  C   UNL     1       3.850   1.502 -12.090  1.00  0.00     0.416 C 
ATOM     99  F   UNL     1       3.000   2.377 -12.689  1.00  0.00    -0.166 F 
ATOM    100  F   UNL     1       5.074   2.099 -12.088  1.00  0.00    -0.166 F 
ATOM    101  F   UNL     1       3.963   0.446 -12.949  1.00  0.00    -0.166 F 
ENDBRANCH  97  98
ENDBRANCH  84  92
ENDBRANCH  78  80
ENDBRANCH  77  78
ENDBRANCH  76  77
ENDBRANCH  75  76
ENDBRANCH  74  75
ENDBRANCH  73  74
ENDBRANCH   1  73
TORSDOF 23
