REMARK SMILES [NH3+][C@@H](CCC1=c2ccccc2=[NH+]C1)C(=O)OCCOCCOCCOC(=O)c1ccc(-c2c3nc(c(-c4cccc(S(=O)(=O)[O-])c4F)c4ccc([nH]4)c(-c4cccc(S(=O)(=O)[O-])c4F)c4nc(c(-c5cccc(S(=O)(=O)[O-])c5F)c5ccc2[nH]5)C=C4)C=C3)cc1
REMARK SMILES IDX 20 1 19 2 18 3 17 4 16 5 14 6 15 7 2 8 1 9 3 13 4 14 5 15
REMARK SMILES IDX 6 16 13 17 7 18 11 19 12 20 8 21 10 22 9 24 21 25 22 26
REMARK SMILES IDX 23 27 24 28 25 29 26 30 27 31 28 32 29 33 90 34 30 35 89 36
REMARK SMILES IDX 31 37 32 38 33 39 83 40 34 41 88 42 82 43 84 44 35 45 87 46
REMARK SMILES IDX 81 47 80 48 36 50 68 51 48 52 67 53 49 54 52 55 66 56 85 57
REMARK SMILES IDX 50 58 51 59 65 61 86 62 53 63 37 64 38 65 46 66 39 67 41 68
REMARK SMILES IDX 47 69 40 70 42 71 43 72 44 73 45 74 69 75 70 76 78 77 71 78
REMARK SMILES IDX 73 79 79 80 72 81 74 82 75 83 76 84 77 85 54 86 55 87 63 88
REMARK SMILES IDX 56 89 58 90 64 91 57 92 59 93 60 94 61 95 62 96
REMARK H PARENT 1 10 1 11 1 12 12 23 84 49 52 60
REMARK Flexibility Score: inf
ROOT
ATOM      1  C   UNL     1      -2.159   1.275   1.872  1.00  0.00     0.188 C 
ENDROOT
BRANCH   1   2
ATOM      2  O   UNL     1      -3.550   1.240   1.581  1.00  0.00    -0.376 OA
BRANCH   2   3
ATOM      3  C   UNL     1      -3.929   0.937   0.239  1.00  0.00     0.202 C 
BRANCH   3   4
ATOM      4  C   UNL     1      -3.129   1.575  -0.903  1.00  0.00     0.261 C 
BRANCH   4   5
ATOM      5  O   UNL     1      -1.770   1.091  -0.981  1.00  0.00    -0.459 OA
BRANCH   5   6
ATOM      6  C   UNL     1      -0.818   2.031  -1.238  1.00  0.00     0.364 C 
ATOM      7  O   UNL     1      -1.061   3.218  -1.436  1.00  0.00    -0.245 OA
BRANCH   6   8
ATOM      8  C   UNL     1       0.614   1.472  -1.344  1.00  0.00     0.292 C 
BRANCH   8   9
ATOM      9  N   UNL     1       0.845   0.190  -0.661  1.00  0.00    -0.346 N 
ATOM     10  H   UNL     1       1.817  -0.093  -0.789  1.00  0.00     0.345 HD
ATOM     11  H   UNL     1       0.229  -0.521  -1.056  1.00  0.00     0.345 HD
ATOM     12  H   UNL     1       0.650   0.294   0.334  1.00  0.00     0.345 HD
ENDBRANCH   8   9
BRANCH   8  13
ATOM     13  C   UNL     1       1.090   1.447  -2.801  1.00  0.00     0.082 C 
BRANCH  13  14
ATOM     14  C   UNL     1       0.677   0.228  -3.642  1.00  0.00     0.045 C 
BRANCH  14  15
ATOM     15  C   UNL     1      -0.793  -0.004  -3.783  1.00  0.00     0.008 C 
ATOM     16  C   UNL     1      -1.499  -1.072  -3.418  1.00  0.00     0.051 A 
ATOM     17  C   UNL     1      -1.684   1.020  -4.426  1.00  0.00     0.381 C 
ATOM     18  C   UNL     1      -1.209  -2.327  -2.800  1.00  0.00     0.015 A 
ATOM     19  C   UNL     1      -2.871  -0.705  -3.807  1.00  0.00     0.206 A 
ATOM     20  N   UNL     1      -3.049   0.438  -4.394  1.00  0.00    -0.237 N 
ATOM     21  C   UNL     1      -2.222  -3.174  -2.549  1.00  0.00     0.001 A 
ATOM     22  C   UNL     1      -3.934  -1.680  -3.480  1.00  0.00     0.079 A 
ATOM     23  H   UNL     1      -3.887   0.826  -4.736  1.00  0.00     0.446 HD
ATOM     24  C   UNL     1      -3.596  -2.835  -2.882  1.00  0.00     0.007 A 
ENDBRANCH  14  15
ENDBRANCH  13  14
ENDBRANCH   8  13
ENDBRANCH   6   8
ENDBRANCH   5   6
ENDBRANCH   4   5
ENDBRANCH   3   4
ENDBRANCH   2   3
ENDBRANCH   1   2
BRANCH   1  25
ATOM     25  C   UNL     1      -1.366  -0.036   1.731  1.00  0.00     0.188 C 
BRANCH  25  26
ATOM     26  O   UNL     1      -1.974  -1.054   0.969  1.00  0.00    -0.376 OA
BRANCH  26  27
ATOM     27  C   UNL     1      -2.736  -2.063   1.613  1.00  0.00     0.202 C 
BRANCH  27  28
ATOM     28  C   UNL     1      -3.234  -2.045   3.076  1.00  0.00     0.261 C 
BRANCH  28  29
ATOM     29  O   UNL     1      -2.905  -0.922   3.890  1.00  0.00    -0.460 OA
BRANCH  29  30
ATOM     30  C   UNL     1      -1.829  -1.065   4.713  1.00  0.00     0.338 C 
ATOM     31  O   UNL     1      -1.133  -2.049   4.839  1.00  0.00    -0.246 OA
BRANCH  30  32
ATOM     32  C   UNL     1      -1.498   0.287   5.223  1.00  0.00     0.060 A 
ATOM     33  C   UNL     1      -2.483   1.083   5.810  1.00  0.00     0.016 A 
ATOM     34  C   UNL     1      -0.205   0.793   5.015  1.00  0.00     0.016 A 
ATOM     35  C   UNL     1      -2.164   2.378   6.217  1.00  0.00     0.010 A 
ATOM     36  C   UNL     1       0.108   2.097   5.410  1.00  0.00     0.010 A 
ATOM     37  C   UNL     1      -0.863   2.887   6.039  1.00  0.00    -0.014 A 
BRANCH  37  38
ATOM     38  C   UNL     1      -0.486   4.130   6.752  1.00  0.00     0.031 A 
ATOM     39  C   UNL     1      -0.413   5.468   6.088  1.00  0.00     0.074 A 
ATOM     40  C   UNL     1      -0.230   4.014   8.070  1.00  0.00     0.049 A 
ATOM     41  N   UNL     1      -0.318   6.646   6.651  1.00  0.00    -0.248 NA
ATOM     42  C   UNL     1      -0.435   5.502   4.619  1.00  0.00     0.031 C 
ATOM     43  C   UNL     1      -0.197   2.745   8.803  1.00  0.00     0.029 A 
ATOM     44  N   UNL     1       0.024   4.961   9.026  1.00  0.00    -0.354 N 
ATOM     45  C   UNL     1      -0.267   7.565   5.612  1.00  0.00     0.074 A 
ATOM     46  C   UNL     1      -0.322   6.805   4.379  1.00  0.00     0.031 C 
ATOM     47  C   UNL     1       0.018   2.997  10.101  1.00  0.00     0.029 A 
ATOM     48  C   UNL     1       0.138   4.438  10.291  1.00  0.00     0.049 A 
ATOM     49  H   UNL     1       0.116   5.921   8.826  1.00  0.00     0.167 HD
ATOM     50  C   UNL     1      -0.201   8.916   5.691  1.00  0.00     0.034 A 
ATOM     51  C   UNL     1       0.282   5.048  11.482  1.00  0.00     0.034 A 
ATOM     52  C   UNL     1      -0.166   9.657   6.927  1.00  0.00     0.049 A 
ATOM     53  C   UNL     1       0.297   6.545  11.545  1.00  0.00     0.074 A 
ATOM     54  C   UNL     1      -0.200  11.030   7.104  1.00  0.00     0.029 A 
ATOM     55  N   UNL     1      -0.069   9.095   8.190  1.00  0.00    -0.354 N 
ATOM     56  N   UNL     1       0.158   7.405  10.567  1.00  0.00    -0.248 NA
ATOM     57  C   UNL     1       0.454   7.157  12.871  1.00  0.00     0.031 C 
ATOM     58  C   UNL     1      -0.101  11.299   8.472  1.00  0.00     0.029 A 
ATOM     59  C   UNL     1      -0.024  10.093   9.149  1.00  0.00     0.049 A 
ATOM     60  H   UNL     1      -0.037   8.129   8.378  1.00  0.00     0.167 HD
ATOM     61  C   UNL     1       0.187   8.661  11.159  1.00  0.00     0.074 A 
ATOM     62  C   UNL     1       0.348   8.449  12.584  1.00  0.00     0.031 C 
ATOM     63  C   UNL     1       0.096   9.875  10.568  1.00  0.00     0.034 A 
BRANCH  50  64
ATOM     64  C   UNL     1      -0.231   9.714   4.415  1.00  0.00     0.023 A 
ATOM     65  C   UNL     1      -1.464   9.908   3.762  1.00  0.00     0.012 A 
ATOM     66  C   UNL     1       0.915  10.389   3.950  1.00  0.00     0.148 A 
ATOM     67  C   UNL     1      -1.556  10.757   2.660  1.00  0.00     0.002 A 
ATOM     68  C   UNL     1       0.810  11.254   2.866  1.00  0.00     0.091 A 
ATOM     69  F   UNL     1       2.077  10.186   4.587  1.00  0.00    -0.205 F 
ATOM     70  C   UNL     1      -0.424  11.437   2.219  1.00  0.00     0.022 A 
BRANCH  68  71
ATOM     71  S   UNL     1       2.193  12.225   2.254  1.00  0.00     0.127 S 
ATOM     72  O   UNL     1       2.400  11.641   0.929  1.00  0.00    -0.237 OA
ATOM     73  O   UNL     1       1.639  13.578   2.244  1.00  0.00    -0.237 OA
ATOM     74  O   UNL     1       3.283  12.017   3.198  1.00  0.00    -0.744 OA
ENDBRANCH  68  71
ENDBRANCH  50  64
BRANCH  51  75
ATOM     75  C   UNL     1       0.302   4.216  12.713  1.00  0.00     0.023 A 
ATOM     76  C   UNL     1      -0.858   4.139  13.506  1.00  0.00     0.012 A 
ATOM     77  C   UNL     1       1.419   3.422  13.036  1.00  0.00     0.148 A 
ATOM     78  C   UNL     1      -0.905   3.288  14.609  1.00  0.00     0.002 A 
ATOM     79  C   UNL     1       1.353   2.549  14.113  1.00  0.00     0.091 A 
ATOM     80  F   UNL     1       2.504   3.510  12.253  1.00  0.00    -0.205 F 
ATOM     81  C   UNL     1       0.195   2.487  14.906  1.00  0.00     0.022 A 
BRANCH  79  82
ATOM     82  S   UNL     1       2.676   1.404  14.516  1.00  0.00     0.127 S 
ATOM     83  O   UNL     1       3.070   1.862  15.846  1.00  0.00    -0.237 OA
ATOM     84  O   UNL     1       1.977   0.120  14.488  1.00  0.00    -0.237 OA
ATOM     85  O   UNL     1       3.680   1.574  13.475  1.00  0.00    -0.744 OA
ENDBRANCH  79  82
ENDBRANCH  51  75
BRANCH  63  86
ATOM     86  C   UNL     1       0.163  11.097  11.443  1.00  0.00     0.023 A 
ATOM     87  C   UNL     1       1.414  11.547  11.905  1.00  0.00     0.012 A 
ATOM     88  C   UNL     1      -0.990  11.870  11.684  1.00  0.00     0.148 A 
ATOM     89  C   UNL     1       1.518  12.753  12.597  1.00  0.00     0.002 A 
ATOM     90  C   UNL     1      -0.874  13.087  12.345  1.00  0.00     0.091 A 
ATOM     91  F   UNL     1      -2.169  11.413  11.240  1.00  0.00    -0.205 F 
ATOM     92  C   UNL     1       0.378  13.528  12.805  1.00  0.00     0.022 A 
BRANCH  90  93
ATOM     93  S   UNL     1      -2.267  14.193  12.595  1.00  0.00     0.127 S 
ATOM     94  O   UNL     1      -2.374  14.213  14.054  1.00  0.00    -0.237 OA
ATOM     95  O   UNL     1      -1.781  15.439  12.002  1.00  0.00    -0.237 OA
ATOM     96  O   UNL     1      -3.397  13.587  11.903  1.00  0.00    -0.744 OA
ENDBRANCH  90  93
ENDBRANCH  63  86
ENDBRANCH  37  38
ENDBRANCH  30  32
ENDBRANCH  29  30
ENDBRANCH  28  29
ENDBRANCH  27  28
ENDBRANCH  26  27
ENDBRANCH  25  26
ENDBRANCH   1  25
TORSDOF 24
