REMARK SMILES CC[C@@H]1CC(=O)N(Cc2ccc(/C=C/C(=O)OCCOCCOCCOC(=O)c3ccc(-c4c5nc(c(-c6cccc(S(=O)(=O)[O-])c6F)c6ccc([nH]6)c(-c6cccc(S(=O)(=O)[O-])c6F)c6nc(c(-c7cccc(S(=O)(=O)[O-])c7F)c7ccc4[nH]7)C=C6)C=C5)cc3)cc2)C1
REMARK SMILES IDX 21 1 20 2 19 3 18 4 17 5 15 6 16 7 14 8 13 9 12 10 9 11
REMARK SMILES IDX 10 12 93 13 11 14 92 15 8 16 7 17 3 18 4 19 94 20 5 21 6 22
REMARK SMILES IDX 2 23 1 24 22 25 23 26 24 27 25 28 26 29 27 30 28 31 29 32
REMARK SMILES IDX 30 33 91 34 31 35 90 36 32 37 33 38 34 39 84 40 35 41 89 42
REMARK SMILES IDX 83 43 85 44 36 45 88 46 82 47 81 48 37 50 69 51 49 52 68 53
REMARK SMILES IDX 50 54 53 55 67 56 86 57 51 58 52 59 66 61 87 62 54 63 38 64
REMARK SMILES IDX 39 65 47 66 40 67 42 68 48 69 41 70 43 71 44 72 45 73 46 74
REMARK SMILES IDX 70 75 71 76 79 77 72 78 74 79 80 80 73 81 75 82 76 83 77 84
REMARK SMILES IDX 78 85 55 86 56 87 64 88 57 89 59 90 65 91 58 92 60 93 61 94
REMARK SMILES IDX 62 95 63 96
REMARK H PARENT 85 49 53 60
REMARK Flexibility Score: inf
ROOT
ATOM      1  C   UNL     1       6.193 -10.911   3.135  1.00  0.00     0.188 C 
ENDROOT
BRANCH   1   2
ATOM      2  O   UNL     1       7.495 -11.397   3.359  1.00  0.00    -0.376 OA
BRANCH   2   3
ATOM      3  C   UNL     1       8.609 -10.829   2.695  1.00  0.00     0.202 C 
BRANCH   3   4
ATOM      4  C   UNL     1       8.566  -9.709   1.636  1.00  0.00     0.261 C 
BRANCH   4   5
ATOM      5  O   UNL     1       7.357  -8.957   1.506  1.00  0.00    -0.460 OA
BRANCH   5   6
ATOM      6  C   UNL     1       6.679  -9.145   0.347  1.00  0.00     0.330 C 
ATOM      7  O   UNL     1       7.019  -9.862  -0.581  1.00  0.00    -0.247 OA
BRANCH   6   8
ATOM      8  C   UNL     1       5.374  -8.455   0.341  1.00  0.00     0.094 C 
ATOM      9  C   UNL     1       5.040  -7.404   1.106  1.00  0.00     0.015 C 
BRANCH   9  10
ATOM     10  C   UNL     1       3.737  -6.720   1.018  1.00  0.00    -0.025 A 
ATOM     11  C   UNL     1       1.353  -5.245   0.609  1.00  0.00    -0.029 A 
ATOM     12  C   UNL     1       1.401  -6.614   0.329  1.00  0.00     0.006 A 
ATOM     13  C   UNL     1       2.472  -4.657   1.218  1.00  0.00     0.006 A 
ATOM     14  C   UNL     1       2.573  -7.347   0.552  1.00  0.00     0.008 A 
ATOM     15  C   UNL     1       3.655  -5.379   1.401  1.00  0.00     0.008 A 
BRANCH  11  16
ATOM     16  C   UNL     1       0.141  -4.422   0.231  1.00  0.00     0.155 C 
BRANCH  16  17
ATOM     17  N   UNL     1       0.381  -3.508  -0.883  1.00  0.00    -0.338 N 
ATOM     18  C   UNL     1       1.058  -1.543  -1.962  1.00  0.00     0.017 C 
ATOM     19  C   UNL     1       0.226  -2.389  -2.936  1.00  0.00     0.105 C 
ATOM     20  C   UNL     1       1.469  -2.568  -0.915  1.00  0.00     0.124 C 
ATOM     21  C   UNL     1      -0.380  -3.452  -2.041  1.00  0.00     0.223 C 
ATOM     22  O   UNL     1      -1.347  -4.139  -2.322  1.00  0.00    -0.275 OA
BRANCH  18  23
ATOM     23  C   UNL     1       0.235  -0.356  -1.422  1.00  0.00     0.002 C 
ATOM     24  C   UNL     1       0.780   0.270  -0.145  1.00  0.00     0.004 C 
ENDBRANCH  18  23
ENDBRANCH  16  17
ENDBRANCH  11  16
ENDBRANCH   9  10
ENDBRANCH   6   8
ENDBRANCH   5   6
ENDBRANCH   4   5
ENDBRANCH   3   4
ENDBRANCH   2   3
ENDBRANCH   1   2
BRANCH   1  25
ATOM     25  C   UNL     1       5.793  -9.637   3.902  1.00  0.00     0.188 C 
BRANCH  25  26
ATOM     26  O   UNL     1       6.789  -8.848   4.522  1.00  0.00    -0.376 OA
BRANCH  26  27
ATOM     27  C   UNL     1       7.552  -9.383   5.593  1.00  0.00     0.202 C 
BRANCH  27  28
ATOM     28  C   UNL     1       7.074 -10.483   6.565  1.00  0.00     0.261 C 
BRANCH  28  29
ATOM     29  O   UNL     1       6.122 -11.433   6.083  1.00  0.00    -0.460 OA
BRANCH  29  30
ATOM     30  C   UNL     1       4.860 -11.279   6.559  1.00  0.00     0.338 C 
ATOM     31  O   UNL     1       4.457 -10.416   7.316  1.00  0.00    -0.246 OA
BRANCH  30  32
ATOM     32  C   UNL     1       3.973 -12.232   5.867  1.00  0.00     0.060 A 
ATOM     33  C   UNL     1       3.005 -11.732   4.985  1.00  0.00     0.016 A 
ATOM     34  C   UNL     1       4.064 -13.599   6.125  1.00  0.00     0.016 A 
ATOM     35  C   UNL     1       2.108 -12.602   4.368  1.00  0.00     0.010 A 
ATOM     36  C   UNL     1       3.149 -14.466   5.524  1.00  0.00     0.010 A 
ATOM     37  C   UNL     1       2.149 -13.969   4.667  1.00  0.00    -0.014 A 
BRANCH  37  38
ATOM     38  C   UNL     1       1.046 -14.854   4.228  1.00  0.00     0.031 A 
ATOM     39  C   UNL     1      -0.029 -15.207   5.219  1.00  0.00     0.074 A 
ATOM     40  C   UNL     1       1.006 -15.351   2.979  1.00  0.00     0.049 A 
ATOM     41  N   UNL     1      -1.045 -16.018   5.087  1.00  0.00    -0.248 NA
ATOM     42  C   UNL     1       0.060 -14.562   6.540  1.00  0.00     0.031 C 
ATOM     43  C   UNL     1       1.980 -15.070   1.926  1.00  0.00     0.029 A 
ATOM     44  N   UNL     1       0.122 -16.225   2.398  1.00  0.00    -0.354 N 
ATOM     45  C   UNL     1      -1.694 -16.012   6.315  1.00  0.00     0.074 A 
ATOM     46  C   UNL     1      -0.954 -15.122   7.182  1.00  0.00     0.031 C 
ATOM     47  C   UNL     1       1.659 -15.788   0.836  1.00  0.00     0.029 A 
ATOM     48  C   UNL     1       0.479 -16.601   1.125  1.00  0.00     0.049 A 
ATOM     49  H   UNL     1      -0.690 -16.552   2.850  1.00  0.00     0.167 HD
ATOM     50  C   UNL     1      -2.812 -16.680   6.686  1.00  0.00     0.034 A 
ATOM     51  C   UNL     1      -0.067 -17.519   0.303  1.00  0.00     0.034 A 
ATOM     52  C   UNL     1      -3.550 -17.556   5.819  1.00  0.00     0.049 A 
ATOM     53  C   UNL     1      -1.290 -18.278   0.751  1.00  0.00     0.074 A 
ATOM     54  C   UNL     1      -4.721 -18.244   6.086  1.00  0.00     0.029 A 
ATOM     55  N   UNL     1      -3.182 -17.882   4.522  1.00  0.00    -0.354 N 
ATOM     56  N   UNL     1      -1.957 -18.183   1.877  1.00  0.00    -0.248 NA
ATOM     57  C   UNL     1      -1.855 -19.249  -0.197  1.00  0.00     0.031 C 
ATOM     58  C   UNL     1      -5.038 -19.017   4.965  1.00  0.00     0.029 A 
ATOM     59  C   UNL     1      -4.092 -18.774   3.982  1.00  0.00     0.049 A 
ATOM     60  H   UNL     1      -2.390 -17.531   4.056  1.00  0.00     0.167 HD
ATOM     61  C   UNL     1      -3.041 -19.047   1.754  1.00  0.00     0.074 A 
ATOM     62  C   UNL     1      -2.949 -19.646   0.440  1.00  0.00     0.031 C 
ATOM     63  C   UNL     1      -4.020 -19.324   2.652  1.00  0.00     0.034 A 
BRANCH  50  64
ATOM     64  C   UNL     1      -3.306 -16.483   8.095  1.00  0.00     0.023 A 
ATOM     65  C   UNL     1      -3.879 -15.252   8.475  1.00  0.00     0.012 A 
ATOM     66  C   UNL     1      -3.244 -17.534   9.031  1.00  0.00     0.148 A 
ATOM     67  C   UNL     1      -4.347 -15.057   9.774  1.00  0.00     0.002 A 
ATOM     68  C   UNL     1      -3.757 -17.349  10.309  1.00  0.00     0.091 A 
ATOM     69  F   UNL     1      -2.675 -18.690   8.659  1.00  0.00    -0.205 F 
ATOM     70  C   UNL     1      -4.295 -16.108  10.686  1.00  0.00     0.022 A 
BRANCH  68  71
ATOM     71  S   UNL     1      -3.812 -18.664  11.531  1.00  0.00     0.127 S 
ATOM     72  O   UNL     1      -2.824 -18.203  12.505  1.00  0.00    -0.237 OA
ATOM     73  O   UNL     1      -5.199 -18.597  11.991  1.00  0.00    -0.237 OA
ATOM     74  O   UNL     1      -3.465 -19.887  10.822  1.00  0.00    -0.744 OA
ENDBRANCH  68  71
ENDBRANCH  50  64
BRANCH  51  75
ATOM     75  C   UNL     1       0.526 -17.762  -1.043  1.00  0.00     0.023 A 
ATOM     76  C   UNL     1      -0.189 -17.386  -2.197  1.00  0.00     0.012 A 
ATOM     77  C   UNL     1       1.794 -18.358  -1.185  1.00  0.00     0.148 A 
ATOM     78  C   UNL     1       0.332 -17.630  -3.468  1.00  0.00     0.002 A 
ATOM     79  C   UNL     1       2.333 -18.547  -2.453  1.00  0.00     0.091 A 
ATOM     80  F   UNL     1       2.453 -18.721  -0.075  1.00  0.00    -0.205 F 
ATOM     81  C   UNL     1       1.596 -18.200  -3.596  1.00  0.00     0.022 A 
BRANCH  79  82
ATOM     82  S   UNL     1       3.998 -19.166  -2.713  1.00  0.00     0.127 S 
ATOM     83  O   UNL     1       3.742 -20.460  -3.341  1.00  0.00    -0.237 OA
ATOM     84  O   UNL     1       4.559 -18.149  -3.604  1.00  0.00    -0.237 OA
ATOM     85  O   UNL     1       4.613 -19.217  -1.394  1.00  0.00    -0.744 OA
ENDBRANCH  79  82
ENDBRANCH  51  75
BRANCH  63  86
ATOM     86  C   UNL     1      -5.112 -20.276   2.234  1.00  0.00     0.023 A 
ATOM     87  C   UNL     1      -4.841 -21.652   2.101  1.00  0.00     0.012 A 
ATOM     88  C   UNL     1      -6.431 -19.812   2.053  1.00  0.00     0.148 A 
ATOM     89  C   UNL     1      -5.858 -22.545   1.761  1.00  0.00     0.002 A 
ATOM     90  C   UNL     1      -7.448 -20.714   1.768  1.00  0.00     0.091 A 
ATOM     91  F   UNL     1      -6.667 -18.497   2.169  1.00  0.00    -0.205 F 
ATOM     92  C   UNL     1      -7.161 -22.079   1.607  1.00  0.00     0.022 A 
BRANCH  90  93
ATOM     93  S   UNL     1      -9.172 -20.221   1.653  1.00  0.00     0.127 S 
ATOM     94  O   UNL     1      -9.433 -20.379   0.224  1.00  0.00    -0.237 OA
ATOM     95  O   UNL     1      -9.833 -21.208   2.507  1.00  0.00    -0.237 OA
ATOM     96  O   UNL     1      -9.234 -18.853   2.150  1.00  0.00    -0.744 OA
ENDBRANCH  90  93
ENDBRANCH  63  86
ENDBRANCH  37  38
ENDBRANCH  30  32
ENDBRANCH  29  30
ENDBRANCH  28  29
ENDBRANCH  27  28
ENDBRANCH  26  27
ENDBRANCH  25  26
ENDBRANCH   1  25
TORSDOF 24
