REMARK SMILES CC[C@@H]1CC[C@H]([C@@H](C)C(=O)OCCOCCOCCOC(=O)c2ccc(-c3c4nc(c(-c5cccc(S(=O)(=O)[O-])c5F)c5ccc([nH]5)c(-c5cccc(S(=O)(=O)[O-])c5F)c5nc(c(-c6cccc(S(=O)(=O)[O-])c6F)c6ccc3[nH]6)C=C5)C=C4)cc2)C1
REMARK SMILES IDX 16 1 15 2 14 3 13 4 12 5 11 6 9 7 10 8 7 9 8 10 6 11 3 12
REMARK SMILES IDX 4 13 86 14 5 15 2 16 1 17 17 18 18 19 19 20 20 21 21 22
REMARK SMILES IDX 22 23 23 24 24 25 85 26 25 27 84 28 26 29 27 30 28 31 78 32
REMARK SMILES IDX 29 33 83 34 77 35 79 36 30 37 82 38 76 39 75 40 31 42 63 43
REMARK SMILES IDX 43 44 62 45 44 46 47 47 61 48 80 49 45 50 46 51 60 53 81 54
REMARK SMILES IDX 48 55 32 56 33 57 41 58 34 59 36 60 42 61 35 62 37 63 38 64
REMARK SMILES IDX 39 65 40 66 64 67 65 68 73 69 66 70 68 71 74 72 67 73 69 74
REMARK SMILES IDX 70 75 71 76 72 77 49 78 50 79 58 80 51 81 53 82 59 83 52 84
REMARK SMILES IDX 54 85 55 86 56 87 57 88
REMARK H PARENT 79 41 47 52
REMARK Flexibility Score: inf
ROOT
ATOM      1  C   UNL     1      -1.350   1.510  -4.019  1.00  0.00     0.188 C 
ENDROOT
BRANCH   1   2
ATOM      2  C   UNL     1      -2.619   1.881  -4.783  1.00  0.00     0.188 C 
BRANCH   2   3
ATOM      3  O   UNL     1      -2.546   2.024  -6.192  1.00  0.00    -0.376 OA
BRANCH   3   4
ATOM      4  C   UNL     1      -1.376   2.572  -6.782  1.00  0.00     0.202 C 
BRANCH   4   5
ATOM      5  C   UNL     1      -0.910   3.969  -6.337  1.00  0.00     0.261 C 
BRANCH   5   6
ATOM      6  O   UNL     1      -0.362   4.113  -4.993  1.00  0.00    -0.463 OA
BRANCH   6   7
ATOM      7  C   UNL     1      -1.144   4.812  -4.129  1.00  0.00     0.309 C 
ATOM      8  O   UNL     1      -2.280   5.191  -4.413  1.00  0.00    -0.252 OA
BRANCH   7   9
ATOM      9  C   UNL     1      -0.512   5.258  -2.802  1.00  0.00     0.099 C 
ATOM     10  C   UNL     1      -0.158   6.739  -3.056  1.00  0.00     0.020 C 
BRANCH   9  11
ATOM     11  C   UNL     1       0.658   4.535  -2.065  1.00  0.00     0.003 C 
ATOM     12  C   UNL     1       1.300   2.963  -0.278  1.00  0.00    -0.011 C 
ATOM     13  C   UNL     1       1.066   4.304   0.388  1.00  0.00     0.004 C 
ATOM     14  C   UNL     1       0.429   3.098  -1.544  1.00  0.00     0.008 C 
ATOM     15  C   UNL     1       1.028   5.303  -0.759  1.00  0.00     0.005 C 
BRANCH  12  16
ATOM     16  C   UNL     1       0.931   1.817   0.675  1.00  0.00     0.000 C 
ATOM     17  C   UNL     1       1.685   0.529   0.386  1.00  0.00     0.004 C 
ENDBRANCH  12  16
ENDBRANCH   9  11
ENDBRANCH   7   9
ENDBRANCH   6   7
ENDBRANCH   5   6
ENDBRANCH   4   5
ENDBRANCH   3   4
ENDBRANCH   2   3
ENDBRANCH   1   2
BRANCH   1  18
ATOM     18  O   UNL     1      -0.325   0.978  -4.837  1.00  0.00    -0.376 OA
BRANCH  18  19
ATOM     19  C   UNL     1       0.476  -0.050  -4.279  1.00  0.00     0.202 C 
BRANCH  19  20
ATOM     20  C   UNL     1      -0.264  -1.393  -4.292  1.00  0.00     0.261 C 
BRANCH  20  21
ATOM     21  O   UNL     1      -1.396  -1.435  -3.403  1.00  0.00    -0.460 OA
BRANCH  21  22
ATOM     22  C   UNL     1      -1.103  -1.323  -2.087  1.00  0.00     0.338 C 
ATOM     23  O   UNL     1       0.009  -1.325  -1.586  1.00  0.00    -0.246 OA
BRANCH  22  24
ATOM     24  C   UNL     1      -2.335  -0.954  -1.364  1.00  0.00     0.060 A 
ATOM     25  C   UNL     1      -2.382   0.284  -0.710  1.00  0.00     0.016 A 
ATOM     26  C   UNL     1      -3.428  -1.812  -1.327  1.00  0.00     0.016 A 
ATOM     27  C   UNL     1      -3.501   0.653   0.031  1.00  0.00     0.010 A 
ATOM     28  C   UNL     1      -4.550  -1.447  -0.581  1.00  0.00     0.010 A 
ATOM     29  C   UNL     1      -4.578  -0.231   0.130  1.00  0.00    -0.014 A 
BRANCH  29  30
ATOM     30  C   UNL     1      -5.669   0.025   1.099  1.00  0.00     0.031 A 
ATOM     31  C   UNL     1      -5.691  -0.771   2.373  1.00  0.00     0.074 A 
ATOM     32  C   UNL     1      -6.628   0.932   0.848  1.00  0.00     0.049 A 
ATOM     33  N   UNL     1      -6.608  -0.829   3.301  1.00  0.00    -0.248 NA
ATOM     34  C   UNL     1      -4.518  -1.623   2.628  1.00  0.00     0.031 C 
ATOM     35  C   UNL     1      -6.684   1.805  -0.323  1.00  0.00     0.029 A 
ATOM     36  N   UNL     1      -7.758   1.249   1.560  1.00  0.00    -0.354 N 
ATOM     37  C   UNL     1      -6.149  -1.761   4.225  1.00  0.00     0.074 A 
ATOM     38  C   UNL     1      -4.874  -2.244   3.742  1.00  0.00     0.031 C 
ATOM     39  C   UNL     1      -7.804   2.546  -0.260  1.00  0.00     0.029 A 
ATOM     40  C   UNL     1      -8.565   2.164   0.927  1.00  0.00     0.049 A 
ATOM     41  H   UNL     1      -7.969   0.858   2.439  1.00  0.00     0.167 HD
ATOM     42  C   UNL     1      -6.733  -2.172   5.376  1.00  0.00     0.034 A 
ATOM     43  C   UNL     1      -9.792   2.614   1.256  1.00  0.00     0.034 A 
ATOM     44  C   UNL     1      -7.992  -1.672   5.858  1.00  0.00     0.049 A 
ATOM     45  C   UNL     1     -10.454   2.095   2.506  1.00  0.00     0.074 A 
ATOM     46  C   UNL     1      -8.663  -2.003   7.021  1.00  0.00     0.029 A 
ATOM     47  N   UNL     1      -8.777  -0.740   5.195  1.00  0.00    -0.354 N 
ATOM     48  N   UNL     1      -9.987   1.260   3.404  1.00  0.00    -0.248 NA
ATOM     49  C   UNL     1     -11.804   2.596   2.799  1.00  0.00     0.031 C 
ATOM     50  C   UNL     1      -9.869  -1.293   7.046  1.00  0.00     0.029 A 
ATOM     51  C   UNL     1      -9.932  -0.492   5.916  1.00  0.00     0.049 A 
ATOM     52  H   UNL     1      -8.546  -0.316   4.337  1.00  0.00     0.167 HD
ATOM     53  C   UNL     1     -10.968   1.166   4.386  1.00  0.00     0.074 A 
ATOM     54  C   UNL     1     -12.049   2.040   3.978  1.00  0.00     0.031 C 
ATOM     55  C   UNL     1     -10.977   0.418   5.519  1.00  0.00     0.034 A 
BRANCH  42  56
ATOM     56  C   UNL     1      -6.005  -3.217   6.181  1.00  0.00     0.023 A 
ATOM     57  C   UNL     1      -4.810  -2.884   6.851  1.00  0.00     0.012 A 
ATOM     58  C   UNL     1      -6.503  -4.531   6.273  1.00  0.00     0.148 A 
ATOM     59  C   UNL     1      -4.095  -3.853   7.555  1.00  0.00     0.002 A 
ATOM     60  C   UNL     1      -5.811  -5.480   7.018  1.00  0.00     0.091 A 
ATOM     61  F   UNL     1      -7.627  -4.839   5.609  1.00  0.00    -0.205 F 
ATOM     62  C   UNL     1      -4.600  -5.147   7.645  1.00  0.00     0.022 A 
BRANCH  60  63
ATOM     63  S   UNL     1      -6.424  -7.151   7.254  1.00  0.00     0.127 S 
ATOM     64  O   UNL     1      -5.549  -7.915   6.367  1.00  0.00    -0.237 OA
ATOM     65  O   UNL     1      -6.185  -7.370   8.681  1.00  0.00    -0.237 OA
ATOM     66  O   UNL     1      -7.830  -7.117   6.876  1.00  0.00    -0.744 OA
ENDBRANCH  60  63
ENDBRANCH  42  56
BRANCH  43  67
ATOM     67  C   UNL     1     -10.463   3.639   0.405  1.00  0.00     0.023 A 
ATOM     68  C   UNL     1     -10.633   4.943   0.908  1.00  0.00     0.012 A 
ATOM     69  C   UNL     1     -10.906   3.342  -0.898  1.00  0.00     0.148 A 
ATOM     70  C   UNL     1     -11.249   5.929   0.137  1.00  0.00     0.002 A 
ATOM     71  C   UNL     1     -11.473   4.341  -1.681  1.00  0.00     0.091 A 
ATOM     72  F   UNL     1     -10.749   2.090  -1.352  1.00  0.00    -0.205 F 
ATOM     73  C   UNL     1     -11.659   5.631  -1.160  1.00  0.00     0.022 A 
BRANCH  71  74
ATOM     74  S   UNL     1     -11.931   4.087  -3.399  1.00  0.00     0.127 S 
ATOM     75  O   UNL     1     -13.381   4.253  -3.350  1.00  0.00    -0.237 OA
ATOM     76  O   UNL     1     -11.208   5.172  -4.064  1.00  0.00    -0.237 OA
ATOM     77  O   UNL     1     -11.464   2.750  -3.740  1.00  0.00    -0.744 OA
ENDBRANCH  71  74
ENDBRANCH  43  67
BRANCH  55  78
ATOM     78  C   UNL     1     -12.173   0.543   6.429  1.00  0.00     0.023 A 
ATOM     79  C   UNL     1     -13.408  -0.021   6.053  1.00  0.00     0.012 A 
ATOM     80  C   UNL     1     -12.049   1.155   7.693  1.00  0.00     0.148 A 
ATOM     81  C   UNL     1     -14.510   0.052   6.906  1.00  0.00     0.002 A 
ATOM     82  C   UNL     1     -13.136   1.179   8.558  1.00  0.00     0.091 A 
ATOM     83  F   UNL     1     -10.871   1.702   8.026  1.00  0.00    -0.205 F 
ATOM     84  C   UNL     1     -14.371   0.640   8.161  1.00  0.00     0.022 A 
BRANCH  82  85
ATOM     85  S   UNL     1     -13.024   1.825  10.231  1.00  0.00     0.127 S 
ATOM     86  O   UNL     1     -13.795   3.062  10.126  1.00  0.00    -0.237 OA
ATOM     87  O   UNL     1     -13.667   0.769  11.014  1.00  0.00    -0.237 OA
ATOM     88  O   UNL     1     -11.602   1.996  10.501  1.00  0.00    -0.744 OA
ENDBRANCH  82  85
ENDBRANCH  55  78
ENDBRANCH  29  30
ENDBRANCH  22  24
ENDBRANCH  21  22
ENDBRANCH  20  21
ENDBRANCH  19  20
ENDBRANCH  18  19
ENDBRANCH   1  18
TORSDOF 22
