REMARK SMILES CCCC[C@H](CC)Cn1ccc(C(=O)OCCOCCOCCOC(=O)c2ccc(-c3c4nc(c(-c5cccc(S(=O)(=O)[O-])c5F)c5ccc([nH]5)c(-c5cccc(S(=O)(=O)[O-])c5F)c5nc(c(-c6cccc(S(=O)(=O)[O-])c6F)c6ccc3[nH]6)C=C5)C=C4)cc2)c1
REMARK SMILES IDX 19 1 18 2 17 3 16 4 15 5 13 6 14 7 12 8 9 9 10 10 90 11
REMARK SMILES IDX 11 12 8 13 5 14 4 15 3 16 2 17 1 18 6 19 7 20 20 21 21 22
REMARK SMILES IDX 22 23 23 24 24 25 25 26 26 27 27 28 28 29 89 30 29 31 88 32
REMARK SMILES IDX 30 33 31 34 32 35 82 36 33 37 87 38 81 39 83 40 34 41 86 42
REMARK SMILES IDX 80 43 79 44 35 46 67 47 47 48 66 49 48 50 51 51 65 52 84 53
REMARK SMILES IDX 49 54 50 55 64 57 85 58 52 59 36 60 37 61 45 62 38 63 40 64
REMARK SMILES IDX 46 65 39 66 41 67 42 68 43 69 44 70 68 71 69 72 77 73 70 74
REMARK SMILES IDX 72 75 78 76 71 77 73 78 74 79 75 80 76 81 53 82 54 83 62 84
REMARK SMILES IDX 55 85 57 86 63 87 56 88 58 89 59 90 60 91 61 92
REMARK H PARENT 83 45 51 56
REMARK Flexibility Score: inf
ROOT
ATOM      1  C   UNL     1       0.877  -7.194   1.379  1.00  0.00     0.188 C 
ENDROOT
BRANCH   1   2
ATOM      2  O   UNL     1       0.375  -8.274   2.157  1.00  0.00    -0.376 OA
BRANCH   2   3
ATOM      3  C   UNL     1      -0.590  -9.162   1.625  1.00  0.00     0.202 C 
BRANCH   3   4
ATOM      4  C   UNL     1      -1.961  -8.606   1.199  1.00  0.00     0.261 C 
BRANCH   4   5
ATOM      5  O   UNL     1      -1.935  -7.374   0.462  1.00  0.00    -0.460 OA
BRANCH   5   6
ATOM      6  C   UNL     1      -2.184  -6.239   1.187  1.00  0.00     0.339 C 
ATOM      7  O   UNL     1      -2.601  -6.219   2.324  1.00  0.00    -0.246 OA
BRANCH   6   8
ATOM      8  C   UNL     1      -1.765  -5.027   0.474  1.00  0.00     0.077 A 
ATOM      9  N   UNL     1      -1.303  -3.517  -1.122  1.00  0.00    -0.353 N 
ATOM     10  C   UNL     1      -0.859  -2.985   0.054  1.00  0.00     0.086 A 
ATOM     11  C   UNL     1      -1.795  -4.784  -0.887  1.00  0.00     0.101 A 
ATOM     12  C   UNL     1      -1.165  -3.874   1.061  1.00  0.00     0.035 A 
BRANCH   9  13
ATOM     13  C   UNL     1      -1.470  -2.849  -2.404  1.00  0.00     0.125 C 
BRANCH  13  14
ATOM     14  C   UNL     1      -0.899  -1.434  -2.620  1.00  0.00     0.008 C 
BRANCH  14  15
ATOM     15  C   UNL     1      -1.623  -0.671  -3.766  1.00  0.00     0.005 C 
BRANCH  15  16
ATOM     16  C   UNL     1      -2.156  -1.476  -4.969  1.00  0.00     0.000 C 
BRANCH  16  17
ATOM     17  C   UNL     1      -3.524  -2.170  -4.827  1.00  0.00    -0.003 C 
ATOM     18  C   UNL     1      -4.628  -1.302  -4.242  1.00  0.00     0.004 C 
ENDBRANCH  16  17
ENDBRANCH  15  16
ENDBRANCH  14  15
BRANCH  14  19
ATOM     19  C   UNL     1       0.652  -1.431  -2.697  1.00  0.00     0.002 C 
ATOM     20  C   UNL     1       1.295  -1.242  -4.063  1.00  0.00     0.004 C 
ENDBRANCH  14  19
ENDBRANCH  13  14
ENDBRANCH   9  13
ENDBRANCH   6   8
ENDBRANCH   5   6
ENDBRANCH   4   5
ENDBRANCH   3   4
ENDBRANCH   2   3
ENDBRANCH   1   2
BRANCH   1  21
ATOM     21  C   UNL     1       0.891  -7.222  -0.170  1.00  0.00     0.188 C 
BRANCH  21  22
ATOM     22  O   UNL     1       0.372  -8.395  -0.780  1.00  0.00    -0.376 OA
BRANCH  22  23
ATOM     23  C   UNL     1       1.285  -9.256  -1.449  1.00  0.00     0.202 C 
BRANCH  23  24
ATOM     24  C   UNL     1       2.340  -9.948  -0.585  1.00  0.00     0.261 C 
BRANCH  24  25
ATOM     25  O   UNL     1       2.997  -9.078   0.319  1.00  0.00    -0.460 OA
BRANCH  25  26
ATOM     26  C   UNL     1       3.773  -8.161  -0.288  1.00  0.00     0.338 C 
ATOM     27  O   UNL     1       3.814  -7.880  -1.475  1.00  0.00    -0.246 OA
BRANCH  26  28
ATOM     28  C   UNL     1       4.675  -7.594   0.700  1.00  0.00     0.060 A 
ATOM     29  C   UNL     1       5.205  -6.339   0.384  1.00  0.00     0.016 A 
ATOM     30  C   UNL     1       5.368  -8.571   1.411  1.00  0.00     0.016 A 
ATOM     31  C   UNL     1       6.556  -6.166   0.551  1.00  0.00     0.010 A 
ATOM     32  C   UNL     1       6.725  -8.441   1.459  1.00  0.00     0.010 A 
ATOM     33  C   UNL     1       7.308  -7.255   1.007  1.00  0.00    -0.014 A 
BRANCH  33  34
ATOM     34  C   UNL     1       8.740  -7.078   1.208  1.00  0.00     0.031 A 
ATOM     35  C   UNL     1       8.968  -6.510   2.622  1.00  0.00     0.074 A 
ATOM     36  C   UNL     1       9.526  -7.409   0.135  1.00  0.00     0.049 A 
ATOM     37  N   UNL     1       9.893  -5.710   3.052  1.00  0.00    -0.248 NA
ATOM     38  C   UNL     1       7.944  -6.739   3.691  1.00  0.00     0.031 C 
ATOM     39  C   UNL     1       9.044  -7.987  -1.149  1.00  0.00     0.029 A 
ATOM     40  N   UNL     1      10.879  -7.341  -0.109  1.00  0.00    -0.354 N 
ATOM     41  C   UNL     1       9.720  -5.604   4.453  1.00  0.00     0.074 A 
ATOM     42  C   UNL     1       8.416  -6.086   4.752  1.00  0.00     0.031 C 
ATOM     43  C   UNL     1      10.057  -8.120  -2.038  1.00  0.00     0.029 A 
ATOM     44  C   UNL     1      11.298  -7.692  -1.421  1.00  0.00     0.049 A 
ATOM     45  H   UNL     1      11.520  -7.064   0.585  1.00  0.00     0.167 HD
ATOM     46  C   UNL     1      10.751  -5.324   5.300  1.00  0.00     0.034 A 
ATOM     47  C   UNL     1      12.556  -7.606  -1.963  1.00  0.00     0.034 A 
ATOM     48  C   UNL     1      11.942  -5.169   4.532  1.00  0.00     0.049 A 
ATOM     49  C   UNL     1      13.430  -7.311  -0.822  1.00  0.00     0.074 A 
ATOM     50  C   UNL     1      12.352  -4.193   3.664  1.00  0.00     0.029 A 
ATOM     51  N   UNL     1      12.636  -6.335   4.298  1.00  0.00    -0.354 N 
ATOM     52  N   UNL     1      13.727  -8.165   0.110  1.00  0.00    -0.248 NA
ATOM     53  C   UNL     1      13.922  -5.941  -0.642  1.00  0.00     0.031 C 
ATOM     54  C   UNL     1      12.953  -4.932   2.628  1.00  0.00     0.029 A 
ATOM     55  C   UNL     1      13.120  -6.268   3.021  1.00  0.00     0.049 A 
ATOM     56  H   UNL     1      12.760  -7.079   4.931  1.00  0.00     0.167 HD
ATOM     57  C   UNL     1      14.082  -7.336   1.142  1.00  0.00     0.074 A 
ATOM     58  C   UNL     1      14.512  -6.091   0.540  1.00  0.00     0.031 C 
ATOM     59  C   UNL     1      13.480  -7.493   2.352  1.00  0.00     0.034 A 
BRANCH  46  60
ATOM     60  C   UNL     1      10.934  -5.439   6.789  1.00  0.00     0.023 A 
ATOM     61  C   UNL     1      12.071  -4.752   7.300  1.00  0.00     0.012 A 
ATOM     62  C   UNL     1      10.313  -6.380   7.626  1.00  0.00     0.148 A 
ATOM     63  C   UNL     1      12.659  -5.088   8.514  1.00  0.00     0.002 A 
ATOM     64  C   UNL     1      10.875  -6.671   8.873  1.00  0.00     0.091 A 
ATOM     65  F   UNL     1       9.245  -7.055   7.190  1.00  0.00    -0.205 F 
ATOM     66  C   UNL     1      12.067  -6.063   9.294  1.00  0.00     0.022 A 
BRANCH  64  67
ATOM     67  S   UNL     1      10.147  -7.844  10.022  1.00  0.00     0.127 S 
ATOM     68  O   UNL     1      11.057  -8.980   9.914  1.00  0.00    -0.237 OA
ATOM     69  O   UNL     1      10.237  -7.114  11.290  1.00  0.00    -0.237 OA
ATOM     70  O   UNL     1       8.783  -8.055   9.559  1.00  0.00    -0.744 OA
ENDBRANCH  64  67
ENDBRANCH  46  60
BRANCH  47  71
ATOM     71  C   UNL     1      13.230  -7.631  -3.320  1.00  0.00     0.023 A 
ATOM     72  C   UNL     1      12.590  -7.935  -4.527  1.00  0.00     0.012 A 
ATOM     73  C   UNL     1      14.579  -7.162  -3.436  1.00  0.00     0.148 A 
ATOM     74  C   UNL     1      13.217  -7.681  -5.768  1.00  0.00     0.002 A 
ATOM     75  C   UNL     1      15.131  -6.767  -4.647  1.00  0.00     0.091 A 
ATOM     76  F   UNL     1      15.361  -7.112  -2.352  1.00  0.00    -0.205 F 
ATOM     77  C   UNL     1      14.458  -7.044  -5.829  1.00  0.00     0.022 A 
BRANCH  75  78
ATOM     78  S   UNL     1      16.607  -5.727  -4.718  1.00  0.00     0.127 S 
ATOM     79  O   UNL     1      17.436  -6.424  -5.698  1.00  0.00    -0.237 OA
ATOM     80  O   UNL     1      16.044  -4.458  -5.180  1.00  0.00    -0.237 OA
ATOM     81  O   UNL     1      17.152  -5.689  -3.367  1.00  0.00    -0.744 OA
ENDBRANCH  75  78
ENDBRANCH  47  71
BRANCH  59  82
ATOM     82  C   UNL     1      13.007  -8.919   2.659  1.00  0.00     0.023 A 
ATOM     83  C   UNL     1      13.985  -9.934   2.576  1.00  0.00     0.012 A 
ATOM     84  C   UNL     1      11.676  -9.338   2.908  1.00  0.00     0.148 A 
ATOM     85  C   UNL     1      13.668 -11.290   2.696  1.00  0.00     0.002 A 
ATOM     86  C   UNL     1      11.355 -10.701   3.018  1.00  0.00     0.091 A 
ATOM     87  F   UNL     1      10.725  -8.413   3.030  1.00  0.00    -0.205 F 
ATOM     88  C   UNL     1      12.354 -11.675   2.913  1.00  0.00     0.022 A 
BRANCH  86  89
ATOM     89  S   UNL     1       9.683 -11.343   3.254  1.00  0.00     0.127 S 
ATOM     90  O   UNL     1       9.492 -12.175   2.063  1.00  0.00    -0.237 OA
ATOM     91  O   UNL     1       9.811 -12.102   4.496  1.00  0.00    -0.237 OA
ATOM     92  O   UNL     1       8.807 -10.183   3.325  1.00  0.00    -0.744 OA
ENDBRANCH  86  89
ENDBRANCH  59  82
ENDBRANCH  33  34
ENDBRANCH  26  28
ENDBRANCH  25  26
ENDBRANCH  24  25
ENDBRANCH  23  24
ENDBRANCH  22  23
ENDBRANCH  21  22
ENDBRANCH   1  21
TORSDOF 26
