REMARK SMILES CC(C)[C@H](NC(=O)[C@H](C)NC(=O)CNC(=O)OCc1ccccc1)C(=O)OCCOCCOCCOC(=O)c1ccc(-c2c3nc(c(-c4cccc(S(=O)(=O)[O-])c4F)c4ccc([nH]4)c(-c4cccc(S(=O)(=O)[O-])c4F)c4nc(c(-c5cccc(S(=O)(=O)[O-])c5F)c5ccc2[nH]5)C=C4)C=C3)cc1
REMARK SMILES IDX 29 1 28 2 27 3 25 4 26 5 4 6 2 7 1 8 3 9 5 10 6 11 7 13 8 14
REMARK SMILES IDX 9 15 10 16 11 17 12 19 13 20 14 21 15 22 16 24 17 25 18 26
REMARK SMILES IDX 19 27 20 28 24 29 21 30 23 31 22 32 30 33 31 34 32 35 33 36
REMARK SMILES IDX 34 37 35 38 36 39 37 40 38 41 39 42 40 43 101 44 41 45
REMARK SMILES IDX 100 46 42 47 43 48 44 49 94 50 45 51 99 52 93 53 95 54 46 55
REMARK SMILES IDX 98 56 92 57 91 58 47 60 79 61 59 62 78 63 60 64 63 65 77 66
REMARK SMILES IDX 96 67 61 68 62 69 76 71 97 72 64 73 48 74 49 75 57 76 50 77
REMARK SMILES IDX 52 78 58 79 51 80 53 81 54 82 55 83 56 84 80 85 81 86 89 87
REMARK SMILES IDX 82 88 84 89 90 90 83 91 85 92 86 93 87 94 88 95 65 96 66 97
REMARK SMILES IDX 74 98 67 99 69 100 75 101 68 102 70 103 71 104 72 105 73 106
REMARK H PARENT 5 12 10 18 14 23 95 59 63 70
REMARK Flexibility Score: inf
ROOT
ATOM      1  C   UNL     1       2.936   2.051  -0.333  1.00  0.00     0.202 C 
ENDROOT
BRANCH   1   2
ATOM      2  C   UNL     1       1.850   1.274  -1.078  1.00  0.00     0.261 C 
BRANCH   2   3
ATOM      3  O   UNL     1       0.592   1.306  -0.355  1.00  0.00    -0.462 OA
BRANCH   3   4
ATOM      4  C   UNL     1      -0.089   0.131  -0.309  1.00  0.00     0.328 C 
ATOM      5  O   UNL     1       0.312  -0.915  -0.808  1.00  0.00    -0.250 OA
BRANCH   4   6
ATOM      6  C   UNL     1      -1.513   0.261   0.280  1.00  0.00     0.194 C 
BRANCH   6   7
ATOM      7  C   UNL     1      -2.510   0.853  -0.783  1.00  0.00     0.017 C 
ATOM      8  C   UNL     1      -3.023   2.268  -0.497  1.00  0.00     0.010 C 
ATOM      9  C   UNL     1      -1.982   0.810  -2.227  1.00  0.00     0.010 C 
ENDBRANCH   6   7
BRANCH   6  10
ATOM     10  N   UNL     1      -1.666   0.857   1.635  1.00  0.00    -0.341 N 
ATOM     11  C   UNL     1      -1.845   0.250   2.860  1.00  0.00     0.242 C 
ATOM     12  H   UNL     1      -1.634   1.841   1.661  1.00  0.00     0.164 HD
ATOM     13  O   UNL     1      -2.637   0.809   3.628  1.00  0.00    -0.273 OA
BRANCH  11  14
ATOM     14  C   UNL     1      -0.911  -0.888   3.384  1.00  0.00     0.168 C 
ATOM     15  C   UNL     1      -0.477  -1.855   2.298  1.00  0.00     0.041 C 
BRANCH  14  16
ATOM     16  N   UNL     1      -1.444  -1.681   4.513  1.00  0.00    -0.343 N 
ATOM     17  C   UNL     1      -0.804  -2.592   5.334  1.00  0.00     0.240 C 
ATOM     18  H   UNL     1      -2.398  -1.539   4.709  1.00  0.00     0.164 HD
ATOM     19  O   UNL     1      -1.397  -3.665   5.505  1.00  0.00    -0.273 OA
BRANCH  17  20
ATOM     20  C   UNL     1       0.599  -2.232   6.282  1.00  0.00     0.219 C 
BRANCH  20  21
ATOM     21  N   UNL     1       2.673  -2.440   6.150  1.00  0.00    -0.312 N 
ATOM     22  C   UNL     1       4.013  -1.983   6.382  1.00  0.00     0.407 C 
ATOM     23  H   UNL     1       2.794  -3.300   5.687  1.00  0.00     0.167 HD
ATOM     24  O   UNL     1       4.907  -2.472   5.692  1.00  0.00    -0.225 OA
BRANCH  22  25
ATOM     25  O   UNL     1       4.258  -0.985   7.277  1.00  0.00    -0.445 OA
BRANCH  25  26
ATOM     26  C   UNL     1       5.027   0.107   6.773  1.00  0.00     0.270 C 
BRANCH  26  27
ATOM     27  C   UNL     1       6.197   0.515   7.619  1.00  0.00    -0.011 A 
ATOM     28  C   UNL     1       7.255  -0.365   7.843  1.00  0.00     0.007 A 
ATOM     29  C   UNL     1       6.283   1.834   8.104  1.00  0.00     0.007 A 
ATOM     30  C   UNL     1       8.385   0.068   8.535  1.00  0.00     0.000 A 
ATOM     31  C   UNL     1       7.413   2.264   8.795  1.00  0.00     0.000 A 
ATOM     32  C   UNL     1       8.466   1.379   9.007  1.00  0.00     0.000 A 
ENDBRANCH  26  27
ENDBRANCH  25  26
ENDBRANCH  22  25
ENDBRANCH  20  21
ENDBRANCH  17  20
ENDBRANCH  14  16
ENDBRANCH  11  14
ENDBRANCH   6  10
ENDBRANCH   4   6
ENDBRANCH   3   4
ENDBRANCH   2   3
ENDBRANCH   1   2
BRANCH   1  33
ATOM     33  O   UNL     1       3.568   1.313   0.711  1.00  0.00    -0.376 OA
BRANCH  33  34
ATOM     34  C   UNL     1       2.725   0.858   1.765  1.00  0.00     0.188 C 
BRANCH  34  35
ATOM     35  C   UNL     1       1.810   1.932   2.374  1.00  0.00     0.188 C 
BRANCH  35  36
ATOM     36  O   UNL     1       2.463   3.163   2.680  1.00  0.00    -0.376 OA
BRANCH  36  37
ATOM     37  C   UNL     1       3.537   3.067   3.614  1.00  0.00     0.202 C 
BRANCH  37  38
ATOM     38  C   UNL     1       3.044   2.689   5.004  1.00  0.00     0.261 C 
BRANCH  38  39
ATOM     39  O   UNL     1       2.728   1.284   5.028  1.00  0.00    -0.460 OA
BRANCH  39  40
ATOM     40  C   UNL     1       1.958   0.909   6.071  1.00  0.00     0.338 C 
ATOM     41  O   UNL     1       1.481   1.623   6.933  1.00  0.00    -0.246 OA
BRANCH  40  42
ATOM     42  C   UNL     1       1.892  -0.552   6.099  1.00  0.00     0.060 A 
ATOM     43  C   UNL     1       1.723  -1.565   4.611  1.00  0.00     0.016 A 
ATOM     44  C   UNL     1       1.896  -1.366   7.730  1.00  0.00     0.016 A 
ATOM     45  C   UNL     1       1.492  -3.366   4.746  1.00  0.00     0.010 A 
ATOM     46  C   UNL     1       1.834  -3.171   7.844  1.00  0.00     0.010 A 
ATOM     47  C   UNL     1       1.545  -4.194   6.369  1.00  0.00    -0.014 A 
BRANCH  47  48
ATOM     48  C   UNL     1       1.261  -5.695   6.515  1.00  0.00     0.031 A 
ATOM     49  C   UNL     1       0.726  -6.261   7.828  1.00  0.00     0.074 A 
ATOM     50  C   UNL     1       1.429  -6.609   5.527  1.00  0.00     0.049 A 
ATOM     51  N   UNL     1       0.779  -7.489   8.291  1.00  0.00    -0.248 NA
ATOM     52  C   UNL     1       0.133  -5.322   8.784  1.00  0.00     0.031 C 
ATOM     53  C   UNL     1       1.981  -6.372   4.199  1.00  0.00     0.029 A 
ATOM     54  N   UNL     1       1.112  -7.958   5.488  1.00  0.00    -0.354 N 
ATOM     55  C   UNL     1       0.441  -7.406   9.641  1.00  0.00     0.074 A 
ATOM     56  C   UNL     1       0.187  -6.011   9.915  1.00  0.00     0.031 C 
ATOM     57  C   UNL     1       1.810  -7.460   3.432  1.00  0.00     0.029 A 
ATOM     58  C   UNL     1       1.285  -8.545   4.250  1.00  0.00     0.049 A 
ATOM     59  H   UNL     1       0.792  -8.454   6.275  1.00  0.00     0.167 HD
ATOM     60  C   UNL     1       0.298  -8.390  10.565  1.00  0.00     0.034 A 
ATOM     61  C   UNL     1       1.092  -9.813   3.820  1.00  0.00     0.034 A 
ATOM     62  C   UNL     1       0.208  -9.787  10.236  1.00  0.00     0.049 A 
ATOM     63  C   UNL     1       0.703 -10.883   4.809  1.00  0.00     0.074 A 
ATOM     64  C   UNL     1      -0.046 -10.857  11.078  1.00  0.00     0.029 A 
ATOM     65  N   UNL     1       0.261 -10.296   8.950  1.00  0.00    -0.354 N 
ATOM     66  N   UNL     1       0.473 -10.776   6.094  1.00  0.00    -0.248 NA
ATOM     67  C   UNL     1       0.566 -12.256   4.292  1.00  0.00     0.031 C 
ATOM     68  C   UNL     1      -0.180 -12.008  10.295  1.00  0.00     0.029 A 
ATOM     69  C   UNL     1      -0.005 -11.653   8.967  1.00  0.00     0.049 A 
ATOM     70  H   UNL     1       0.459  -9.769   8.142  1.00  0.00     0.167 HD
ATOM     71  C   UNL     1       0.166 -12.059   6.536  1.00  0.00     0.074 A 
ATOM     72  C   UNL     1       0.189 -12.922   5.375  1.00  0.00     0.031 C 
ATOM     73  C   UNL     1      -0.069 -12.490   7.799  1.00  0.00     0.034 A 
BRANCH  60  74
ATOM     74  C   UNL     1       0.155  -7.990  12.016  1.00  0.00     0.023 A 
ATOM     75  C   UNL     1      -1.014  -7.355  12.478  1.00  0.00     0.012 A 
ATOM     76  C   UNL     1       1.188  -8.276  12.936  1.00  0.00     0.148 A 
ATOM     77  C   UNL     1      -1.120  -6.934  13.804  1.00  0.00     0.002 A 
ATOM     78  C   UNL     1       1.049  -7.909  14.270  1.00  0.00     0.091 A 
ATOM     79  F   UNL     1       2.294  -8.889  12.489  1.00  0.00    -0.205 F 
ATOM     80  C   UNL     1      -0.093  -7.216  14.700  1.00  0.00     0.022 A 
BRANCH  78  81
ATOM     81  S   UNL     1       2.269  -8.323  15.524  1.00  0.00     0.127 S 
ATOM     82  O   UNL     1       2.894  -7.025  15.771  1.00  0.00    -0.237 OA
ATOM     83  O   UNL     1       1.431  -8.812  16.620  1.00  0.00    -0.237 OA
ATOM     84  O   UNL     1       3.131  -9.334  14.927  1.00  0.00    -0.744 OA
ENDBRANCH  78  81
ENDBRANCH  60  74
BRANCH  61  85
ATOM     85  C   UNL     1       1.241 -10.156   2.368  1.00  0.00     0.023 A 
ATOM     86  C   UNL     1       0.105 -10.567   1.639  1.00  0.00     0.012 A 
ATOM     87  C   UNL     1       2.476 -10.068   1.698  1.00  0.00     0.148 A 
ATOM     88  C   UNL     1       0.201 -10.903   0.286  1.00  0.00     0.002 A 
ATOM     89  C   UNL     1       2.549 -10.326   0.332  1.00  0.00     0.091 A 
ATOM     90  F   UNL     1       3.562  -9.722   2.405  1.00  0.00    -0.205 F 
ATOM     91  C   UNL     1       1.419 -10.764  -0.372  1.00  0.00     0.022 A 
BRANCH  89  92
ATOM     92  S   UNL     1       4.038  -9.992  -0.617  1.00  0.00     0.127 S 
ATOM     93  O   UNL     1       4.587 -11.332  -0.799  1.00  0.00    -0.237 OA
ATOM     94  O   UNL     1       3.497  -9.377  -1.831  1.00  0.00    -0.237 OA
ATOM     95  O   UNL     1       4.821  -9.082   0.209  1.00  0.00    -0.744 OA
ENDBRANCH  89  92
ENDBRANCH  61  85
BRANCH  73  96
ATOM     96  C   UNL     1      -0.366 -13.951   8.008  1.00  0.00     0.023 A 
ATOM     97  C   UNL     1       0.686 -14.886   7.966  1.00  0.00     0.012 A 
ATOM     98  C   UNL     1      -1.663 -14.381   8.349  1.00  0.00     0.148 A 
ATOM     99  C   UNL     1       0.449 -16.232   8.245  1.00  0.00     0.002 A 
ATOM    100  C   UNL     1      -1.884 -15.716   8.665  1.00  0.00     0.091 A 
ATOM    101  F   UNL     1      -2.654 -13.477   8.361  1.00  0.00    -0.205 F 
ATOM    102  C   UNL     1      -0.832 -16.644   8.607  1.00  0.00     0.022 A 
BRANCH 100 103
ATOM    103  S   UNL     1      -3.480 -16.318   9.232  1.00  0.00     0.127 S 
ATOM    104  O   UNL     1      -3.961 -17.042   8.056  1.00  0.00    -0.237 OA
ATOM    105  O   UNL     1      -3.110 -17.169  10.363  1.00  0.00    -0.237 OA
ATOM    106  O   UNL     1      -4.247 -15.133   9.595  1.00  0.00    -0.744 OA
ENDBRANCH 100 103
ENDBRANCH  73  96
ENDBRANCH  47  48
ENDBRANCH  40  42
ENDBRANCH  39  40
ENDBRANCH  38  39
ENDBRANCH  37  38
ENDBRANCH  36  37
ENDBRANCH  35  36
ENDBRANCH  34  35
ENDBRANCH  33  34
ENDBRANCH   1  33
TORSDOF 29
