REMARK SMILES C[N@@H+](CC(=O)OCCOCCOCCOC(=O)c1ccc(-c2c3nc(c(-c4cccc(S(=O)(=O)[O-])c4F)c4ccc([nH]4)c(-c4cccc(S(=O)(=O)[O-])c4F)c4nc(c(-c5cccc(S(=O)(=O)[O-])c5F)c5ccc2[nH]5)C=C4)C=C3)cc1)Cc1noc(-c2ccccc2Cl)n1
REMARK SMILES IDX 10 1 9 2 8 3 7 4 6 5 4 6 5 7 3 8 2 9 1 10 81 12 82 13 83 14
REMARK SMILES IDX 93 15 84 16 85 17 86 18 87 19 91 20 88 21 90 22 92 23 89 24
REMARK SMILES IDX 11 25 12 26 13 27 14 28 15 29 16 30 17 31 18 32 19 33 80 34
REMARK SMILES IDX 20 35 79 36 21 37 22 38 23 39 73 40 24 41 78 42 72 43 74 44
REMARK SMILES IDX 25 45 77 46 71 47 70 48 26 50 58 51 38 52 57 53 39 54 42 55
REMARK SMILES IDX 56 56 75 57 40 58 41 59 55 61 76 62 43 63 27 64 28 65 36 66
REMARK SMILES IDX 29 67 31 68 37 69 30 70 32 71 33 72 34 73 35 74 59 75 60 76
REMARK SMILES IDX 68 77 61 78 63 79 69 80 62 81 64 82 65 83 66 84 67 85 44 86
REMARK SMILES IDX 45 87 53 88 46 89 48 90 54 91 47 92 49 93 50 94 51 95 52 96
REMARK H PARENT 2 11 74 49 42 60
REMARK Flexibility Score: inf
ROOT
ATOM      1  C   UNL     1      -2.127  -2.723   1.276  1.00  0.00     0.188 C 
ENDROOT
BRANCH   1   2
ATOM      2  O   UNL     1      -2.970  -3.331   0.338  1.00  0.00    -0.376 OA
BRANCH   2   3
ATOM      3  C   UNL     1      -3.652  -2.541  -0.622  1.00  0.00     0.202 C 
BRANCH   3   4
ATOM      4  C   UNL     1      -3.279  -1.111  -1.093  1.00  0.00     0.261 C 
BRANCH   4   5
ATOM      5  O   UNL     1      -2.103  -0.471  -0.582  1.00  0.00    -0.459 OA
BRANCH   5   6
ATOM      6  C   UNL     1      -2.274   0.440   0.404  1.00  0.00     0.361 C 
ATOM      7  O   UNL     1      -3.379   0.801   0.804  1.00  0.00    -0.245 OA
BRANCH   6   8
ATOM      8  C   UNL     1      -0.992   0.953   1.063  1.00  0.00     0.386 C 
BRANCH   8   9
ATOM      9  N   UNL     1       0.330   0.510   0.603  1.00  0.00    -0.322 N 
ATOM     10  C   UNL     1       0.655   0.691  -0.792  1.00  0.00     0.333 C 
ATOM     11  H   UNL     1       0.837   1.290   1.022  1.00  0.00     0.348 HD
BRANCH   9  12
ATOM     12  C   UNL     1       1.038  -0.552   1.328  1.00  0.00     0.345 C 
BRANCH  12  13
ATOM     13  C   UNL     1       0.737  -1.954   0.923  1.00  0.00     0.226 A 
ATOM     14  N   UNL     1       1.192  -3.344   1.826  1.00  0.00    -0.056 NA
ATOM     15  N   UNL     1      -0.383  -2.377  -0.406  1.00  0.00    -0.186 NA
ATOM     16  O   UNL     1       0.200  -4.802   0.824  1.00  0.00    -0.334 OA
ATOM     17  C   UNL     1      -0.652  -3.896  -0.558  1.00  0.00     0.259 A 
BRANCH  17  18
ATOM     18  C   UNL     1      -1.189  -4.634  -1.686  1.00  0.00     0.058 A 
ATOM     19  C   UNL     1      -2.106  -5.672  -1.479  1.00  0.00     0.015 A 
ATOM     20  C   UNL     1      -0.988  -4.156  -2.996  1.00  0.00     0.053 A 
ATOM     21  C   UNL     1      -2.882  -6.146  -2.543  1.00  0.00     0.001 A 
ATOM     22  C   UNL     1      -1.762  -4.638  -4.055  1.00  0.00     0.021 A 
ATOM     23  Cl  UNL     1       0.196  -2.954  -3.398  1.00  0.00    -0.083 Cl
ATOM     24  C   UNL     1      -2.727  -5.612  -3.822  1.00  0.00     0.002 A 
ENDBRANCH  17  18
ENDBRANCH  12  13
ENDBRANCH   9  12
ENDBRANCH   8   9
ENDBRANCH   6   8
ENDBRANCH   5   6
ENDBRANCH   4   5
ENDBRANCH   3   4
ENDBRANCH   2   3
ENDBRANCH   1   2
BRANCH   1  25
ATOM     25  C   UNL     1      -0.647  -3.373   1.450  1.00  0.00     0.188 C 
BRANCH  25  26
ATOM     26  O   UNL     1       0.975  -3.555   0.113  1.00  0.00    -0.376 OA
BRANCH  26  27
ATOM     27  C   UNL     1       2.260  -4.520   0.173  1.00  0.00     0.202 C 
BRANCH  27  28
ATOM     28  C   UNL     1       2.511  -5.723   1.191  1.00  0.00     0.261 C 
BRANCH  28  29
ATOM     29  O   UNL     1       1.840  -5.753   2.474  1.00  0.00    -0.460 OA
BRANCH  29  30
ATOM     30  C   UNL     1       2.393  -5.023   3.477  1.00  0.00     0.338 C 
ATOM     31  O   UNL     1       3.513  -4.537   3.484  1.00  0.00    -0.246 OA
BRANCH  30  32
ATOM     32  C   UNL     1       1.353  -4.714   4.506  1.00  0.00     0.060 A 
ATOM     33  C   UNL     1       1.139  -3.369   4.856  1.00  0.00     0.016 A 
ATOM     34  C   UNL     1       0.623  -5.713   5.150  1.00  0.00     0.016 A 
ATOM     35  C   UNL     1       0.245  -3.021   5.875  1.00  0.00     0.010 A 
ATOM     36  C   UNL     1      -0.246  -5.369   6.199  1.00  0.00     0.010 A 
ATOM     37  C   UNL     1      -0.401  -4.027   6.602  1.00  0.00    -0.014 A 
BRANCH  37  38
ATOM     38  C   UNL     1      -0.974  -3.715   7.942  1.00  0.00     0.031 A 
ATOM     39  C   UNL     1      -0.100  -3.970   9.146  1.00  0.00     0.074 A 
ATOM     40  C   UNL     1      -2.213  -3.221   8.117  1.00  0.00     0.049 A 
ATOM     41  N   UNL     1      -0.384  -3.886  10.420  1.00  0.00    -0.248 NA
ATOM     42  C   UNL     1       1.287  -4.384   8.868  1.00  0.00     0.031 C 
ATOM     43  C   UNL     1      -3.151  -2.877   7.052  1.00  0.00     0.029 A 
ATOM     44  N   UNL     1      -2.906  -2.953   9.276  1.00  0.00    -0.354 N 
ATOM     45  C   UNL     1       0.768  -4.280  11.091  1.00  0.00     0.074 A 
ATOM     46  C   UNL     1       1.756  -4.603  10.086  1.00  0.00     0.031 C 
ATOM     47  C   UNL     1      -4.312  -2.481   7.606  1.00  0.00     0.029 A 
ATOM     48  C   UNL     1      -4.213  -2.577   9.063  1.00  0.00     0.049 A 
ATOM     49  H   UNL     1      -2.505  -3.022  10.172  1.00  0.00     0.167 HD
ATOM     50  C   UNL     1       0.994  -4.363  12.424  1.00  0.00     0.034 A 
ATOM     51  C   UNL     1      -5.220  -2.373   9.940  1.00  0.00     0.034 A 
ATOM     52  C   UNL     1       0.022  -4.031  13.429  1.00  0.00     0.049 A 
ATOM     53  C   UNL     1      -4.963  -2.522  11.421  1.00  0.00     0.074 A 
ATOM     54  C   UNL     1       0.168  -4.054  14.805  1.00  0.00     0.029 A 
ATOM     55  N   UNL     1      -1.279  -3.634  13.171  1.00  0.00    -0.354 N 
ATOM     56  N   UNL     1      -3.847  -2.817  12.044  1.00  0.00    -0.248 NA
ATOM     57  C   UNL     1      -6.101  -2.283  12.324  1.00  0.00     0.031 C 
ATOM     58  C   UNL     1      -1.060  -3.712  15.379  1.00  0.00     0.029 A 
ATOM     59  C   UNL     1      -1.954  -3.424  14.361  1.00  0.00     0.049 A 
ATOM     60  H   UNL     1      -1.667  -3.517  12.273  1.00  0.00     0.167 HD
ATOM     61  C   UNL     1      -4.138  -2.758  13.405  1.00  0.00     0.074 A 
ATOM     62  C   UNL     1      -5.531  -2.383  13.517  1.00  0.00     0.031 C 
ATOM     63  C   UNL     1      -3.327  -3.000  14.466  1.00  0.00     0.034 A 
BRANCH  50  64
ATOM     64  C   UNL     1       2.351  -4.841  12.872  1.00  0.00     0.023 A 
ATOM     65  C   UNL     1       3.483  -4.018  12.701  1.00  0.00     0.012 A 
ATOM     66  C   UNL     1       2.497  -6.095  13.498  1.00  0.00     0.148 A 
ATOM     67  C   UNL     1       4.744  -4.452  13.109  1.00  0.00     0.002 A 
ATOM     68  C   UNL     1       3.747  -6.498  13.949  1.00  0.00     0.091 A 
ATOM     69  F   UNL     1       1.413  -6.872  13.632  1.00  0.00    -0.205 F 
ATOM     70  C   UNL     1       4.874  -5.685  13.742  1.00  0.00     0.022 A 
BRANCH  68  71
ATOM     71  S   UNL     1       4.005  -8.031  14.849  1.00  0.00     0.127 S 
ATOM     72  O   UNL     1       4.783  -8.811  13.886  1.00  0.00    -0.237 OA
ATOM     73  O   UNL     1       4.760  -7.576  16.016  1.00  0.00    -0.237 OA
ATOM     74  O   UNL     1       2.679  -8.553  15.146  1.00  0.00    -0.744 OA
ENDBRANCH  68  71
ENDBRANCH  50  64
BRANCH  51  75
ATOM     75  C   UNL     1      -6.580  -1.997   9.450  1.00  0.00     0.023 A 
ATOM     76  C   UNL     1      -7.099  -0.720   9.738  1.00  0.00     0.012 A 
ATOM     77  C   UNL     1      -7.367  -2.905   8.713  1.00  0.00     0.148 A 
ATOM     78  C   UNL     1      -8.387  -0.364   9.331  1.00  0.00     0.002 A 
ATOM     79  C   UNL     1      -8.625  -2.525   8.261  1.00  0.00     0.091 A 
ATOM     80  F   UNL     1      -6.866  -4.124   8.468  1.00  0.00    -0.205 F 
ATOM     81  C   UNL     1      -9.145  -1.262   8.585  1.00  0.00     0.022 A 
BRANCH  79  82
ATOM     82  S   UNL     1      -9.627  -3.569   7.197  1.00  0.00     0.127 S 
ATOM     83  O   UNL     1     -10.762  -3.880   8.063  1.00  0.00    -0.237 OA
ATOM     84  O   UNL     1      -9.928  -2.663   6.088  1.00  0.00    -0.237 OA
ATOM     85  O   UNL     1      -8.781  -4.699   6.840  1.00  0.00    -0.744 OA
ENDBRANCH  79  82
ENDBRANCH  51  75
BRANCH  63  86
ATOM     86  C   UNL     1      -3.894  -2.812  15.852  1.00  0.00     0.023 A 
ATOM     87  C   UNL     1      -4.843  -3.721  16.361  1.00  0.00     0.012 A 
ATOM     88  C   UNL     1      -3.421  -1.774  16.680  1.00  0.00     0.148 A 
ATOM     89  C   UNL     1      -5.339  -3.576  17.657  1.00  0.00     0.002 A 
ATOM     90  C   UNL     1      -3.880  -1.668  17.988  1.00  0.00     0.091 A 
ATOM     91  F   UNL     1      -2.528  -0.910  16.175  1.00  0.00    -0.205 F 
ATOM     92  C   UNL     1      -4.849  -2.559  18.474  1.00  0.00     0.022 A 
BRANCH  90  93
ATOM     93  S   UNL     1      -3.233  -0.453  19.143  1.00  0.00     0.127 S 
ATOM     94  O   UNL     1      -4.375   0.447  19.299  1.00  0.00    -0.237 OA
ATOM     95  O   UNL     1      -2.938  -1.272  20.320  1.00  0.00    -0.237 OA
ATOM     96  O   UNL     1      -2.063   0.131  18.503  1.00  0.00    -0.744 OA
ENDBRANCH  90  93
ENDBRANCH  63  86
ENDBRANCH  37  38
ENDBRANCH  30  32
ENDBRANCH  29  30
ENDBRANCH  28  29
ENDBRANCH  27  28
ENDBRANCH  26  27
ENDBRANCH  25  26
ENDBRANCH   1  25
TORSDOF 24
