REMARK SMILES COc1c(C(=O)OCCOCCOCCOC(=O)c2ccc(-c3c4nc(c(-c5cccc(S(=O)(=O)[O-])c5F)c5ccc([nH]5)c(-c5cccc(S(=O)(=O)[O-])c5F)c5nc(c(-c6cccc(S(=O)(=O)[O-])c6F)c6ccc3[nH]6)C=C5)C=C4)cc2)cccc1-c1cc(C)ccc1C
REMARK SMILES IDX 12 1 11 2 10 3 9 4 8 5 7 6 5 7 6 8 4 9 3 10 85 11 82 12
REMARK SMILES IDX 84 13 83 14 2 15 1 16 86 17 87 18 92 19 88 20 91 21 93 22
REMARK SMILES IDX 89 23 90 24 13 25 14 26 15 27 16 28 17 29 18 30 19 31 20 32
REMARK SMILES IDX 81 33 21 34 80 35 22 36 23 37 24 38 74 39 25 40 79 41 73 42
REMARK SMILES IDX 75 43 26 44 78 45 72 46 71 47 27 49 59 50 39 51 58 52 40 53
REMARK SMILES IDX 43 54 57 55 76 56 41 57 42 58 56 60 77 61 44 62 28 63 29 64
REMARK SMILES IDX 37 65 30 66 32 67 38 68 31 69 33 70 34 71 35 72 36 73 60 74
REMARK SMILES IDX 61 75 69 76 62 77 64 78 70 79 63 80 65 81 66 82 67 83 68 84
REMARK SMILES IDX 45 85 46 86 54 87 47 88 49 89 55 90 48 91 50 92 51 93 52 94
REMARK SMILES IDX 53 95
REMARK H PARENT 75 48 43 59
REMARK Flexibility Score: inf
ROOT
ATOM      1  C   UNL     1      -1.974  -2.516  -1.757  1.00  0.00     0.188 C 
ENDROOT
BRANCH   1   2
ATOM      2  C   UNL     1      -3.031  -3.387  -1.044  1.00  0.00     0.188 C 
BRANCH   2   3
ATOM      3  O   UNL     1      -4.274  -2.803  -0.723  1.00  0.00    -0.376 OA
BRANCH   3   4
ATOM      4  C   UNL     1      -4.390  -1.904   0.370  1.00  0.00     0.202 C 
BRANCH   4   5
ATOM      5  C   UNL     1      -3.353  -1.764   1.496  1.00  0.00     0.261 C 
BRANCH   5   6
ATOM      6  O   UNL     1      -1.992  -1.946   1.103  1.00  0.00    -0.460 OA
BRANCH   6   7
ATOM      7  C   UNL     1      -1.308  -2.891   1.796  1.00  0.00     0.342 C 
ATOM      8  O   UNL     1      -1.713  -3.534   2.754  1.00  0.00    -0.246 OA
BRANCH   7   9
ATOM      9  C   UNL     1      -0.053  -3.226   1.096  1.00  0.00     0.102 A 
ATOM     10  C   UNL     1       0.914  -2.261   0.778  1.00  0.00     0.141 A 
ATOM     11  C   UNL     1       2.152  -2.666   0.225  1.00  0.00     0.025 A 
ATOM     12  C   UNL     1       0.132  -4.569   0.736  1.00  0.00     0.019 A 
ATOM     13  C   UNL     1       2.291  -4.015  -0.170  1.00  0.00     0.012 A 
ATOM     14  C   UNL     1       1.284  -4.954   0.063  1.00  0.00     0.002 A 
BRANCH  10  15
ATOM     15  O   UNL     1       0.651  -0.956   1.123  1.00  0.00    -0.495 OA
ATOM     16  C   UNL     1       0.668  -0.077  -0.005  1.00  0.00     0.278 C 
ENDBRANCH  10  15
BRANCH  11  17
ATOM     17  C   UNL     1       3.334  -1.775   0.151  1.00  0.00    -0.011 A 
ATOM     18  C   UNL     1       4.021  -1.619  -1.073  1.00  0.00     0.012 A 
ATOM     19  C   UNL     1       3.839  -1.096   1.288  1.00  0.00    -0.043 A 
ATOM     20  C   UNL     1       5.154  -0.799  -1.188  1.00  0.00    -0.050 A 
ATOM     21  C   UNL     1       4.935  -0.230   1.150  1.00  0.00     0.004 A 
ATOM     22  C   UNL     1       3.237  -1.229   2.665  1.00  0.00     0.045 C 
ATOM     23  C   UNL     1       5.897  -0.713  -2.488  1.00  0.00     0.044 C 
ATOM     24  C   UNL     1       5.589  -0.087  -0.071  1.00  0.00     0.004 A 
ENDBRANCH  11  17
ENDBRANCH   7   9
ENDBRANCH   6   7
ENDBRANCH   5   6
ENDBRANCH   4   5
ENDBRANCH   3   4
ENDBRANCH   2   3
ENDBRANCH   1   2
BRANCH   1  25
ATOM     25  O   UNL     1      -2.166  -1.126  -1.925  1.00  0.00    -0.376 OA
BRANCH  25  26
ATOM     26  C   UNL     1      -3.300  -0.660  -2.635  1.00  0.00     0.202 C 
BRANCH  26  27
ATOM     27  C   UNL     1      -3.880  -1.369  -3.872  1.00  0.00     0.261 C 
BRANCH  27  28
ATOM     28  O   UNL     1      -3.841  -2.801  -3.884  1.00  0.00    -0.460 OA
BRANCH  28  29
ATOM     29  C   UNL     1      -2.945  -3.351  -4.738  1.00  0.00     0.338 C 
ATOM     30  O   UNL     1      -2.171  -2.758  -5.481  1.00  0.00    -0.246 OA
BRANCH  29  31
ATOM     31  C   UNL     1      -2.889  -4.807  -4.517  1.00  0.00     0.060 A 
ATOM     32  C   UNL     1      -1.710  -5.369  -4.006  1.00  0.00     0.016 A 
ATOM     33  C   UNL     1      -3.974  -5.617  -4.850  1.00  0.00     0.016 A 
ATOM     34  C   UNL     1      -1.607  -6.749  -3.839  1.00  0.00     0.010 A 
ATOM     35  C   UNL     1      -3.860  -7.002  -4.706  1.00  0.00     0.010 A 
ATOM     36  C   UNL     1      -2.668  -7.576  -4.225  1.00  0.00    -0.014 A 
BRANCH  36  37
ATOM     37  C   UNL     1      -2.485  -9.047  -4.273  1.00  0.00     0.031 A 
ATOM     38  C   UNL     1      -2.204  -9.697  -5.600  1.00  0.00     0.074 A 
ATOM     39  C   UNL     1      -2.592  -9.796  -3.161  1.00  0.00     0.049 A 
ATOM     40  N   UNL     1      -2.094 -10.965  -5.894  1.00  0.00    -0.248 NA
ATOM     41  C   UNL     1      -2.028  -8.793  -6.749  1.00  0.00     0.031 C 
ATOM     42  C   UNL     1      -2.849  -9.283  -1.817  1.00  0.00     0.029 A 
ATOM     43  N   UNL     1      -2.533 -11.158  -2.998  1.00  0.00    -0.354 N 
ATOM     44  C   UNL     1      -1.873 -11.017  -7.265  1.00  0.00     0.074 A 
ATOM     45  C   UNL     1      -1.867  -9.652  -7.745  1.00  0.00     0.031 C 
ATOM     46  C   UNL     1      -2.965 -10.321  -0.970  1.00  0.00     0.029 A 
ATOM     47  C   UNL     1      -2.824 -11.569  -1.718  1.00  0.00     0.049 A 
ATOM     48  H   UNL     1      -2.305 -11.780  -3.726  1.00  0.00     0.167 HD
ATOM     49  C   UNL     1      -1.685 -12.102  -8.052  1.00  0.00     0.034 A 
ATOM     50  C   UNL     1      -2.992 -12.810  -1.218  1.00  0.00     0.034 A 
ATOM     51  C   UNL     1      -1.682 -13.457  -7.571  1.00  0.00     0.049 A 
ATOM     52  C   UNL     1      -2.815 -14.003  -2.125  1.00  0.00     0.074 A 
ATOM     53  C   UNL     1      -1.454 -14.621  -8.284  1.00  0.00     0.029 A 
ATOM     54  N   UNL     1      -1.937 -13.834  -6.262  1.00  0.00    -0.354 N 
ATOM     55  N   UNL     1      -2.496 -14.036  -3.396  1.00  0.00    -0.248 NA
ATOM     56  C   UNL     1      -2.992 -15.331  -1.519  1.00  0.00     0.031 C 
ATOM     57  C   UNL     1      -1.609 -15.704  -7.413  1.00  0.00     0.029 A 
ATOM     58  C   UNL     1      -1.888 -15.212  -6.148  1.00  0.00     0.049 A 
ATOM     59  H   UNL     1      -2.125 -13.212  -5.522  1.00  0.00     0.167 HD
ATOM     60  C   UNL     1      -2.393 -15.383  -3.730  1.00  0.00     0.074 A 
ATOM     61  C   UNL     1      -2.667 -16.134  -2.523  1.00  0.00     0.031 C 
ATOM     62  C   UNL     1      -2.109 -15.948  -4.930  1.00  0.00     0.034 A 
BRANCH  49  63
ATOM     63  C   UNL     1      -1.457 -11.870  -9.523  1.00  0.00     0.023 A 
ATOM     64  C   UNL     1      -0.236 -11.324  -9.966  1.00  0.00     0.012 A 
ATOM     65  C   UNL     1      -2.429 -12.252 -10.469  1.00  0.00     0.148 A 
ATOM     66  C   UNL     1       0.003 -11.133 -11.327  1.00  0.00     0.002 A 
ATOM     67  C   UNL     1      -2.164 -12.103 -11.825  1.00  0.00     0.091 A 
ATOM     68  F   UNL     1      -3.592 -12.750 -10.026  1.00  0.00    -0.205 F 
ATOM     69  C   UNL     1      -0.955 -11.533 -12.255  1.00  0.00     0.022 A 
BRANCH  67  70
ATOM     70  S   UNL     1      -3.298 -12.662 -13.101  1.00  0.00     0.127 S 
ATOM     71  O   UNL     1      -3.739 -11.393 -13.679  1.00  0.00    -0.237 OA
ATOM     72  O   UNL     1      -2.420 -13.452 -13.965  1.00  0.00    -0.237 OA
ATOM     73  O   UNL     1      -4.330 -13.427 -12.417  1.00  0.00    -0.744 OA
ENDBRANCH  67  70
ENDBRANCH  49  63
BRANCH  50  74
ATOM     74  C   UNL     1      -3.337 -12.999   0.220  1.00  0.00     0.023 A 
ATOM     75  C   UNL     1      -2.401 -13.593   1.089  1.00  0.00     0.012 A 
ATOM     76  C   UNL     1      -4.588 -12.600   0.729  1.00  0.00     0.148 A 
ATOM     77  C   UNL     1      -2.718 -13.820   2.429  1.00  0.00     0.002 A 
ATOM     78  C   UNL     1      -4.877 -12.777   2.076  1.00  0.00     0.091 A 
ATOM     79  F   UNL     1      -5.472 -12.052  -0.118  1.00  0.00    -0.205 F 
ATOM     80  C   UNL     1      -3.950 -13.403   2.924  1.00  0.00     0.022 A 
BRANCH  78  81
ATOM     81  S   UNL     1      -6.389 -12.166   2.828  1.00  0.00     0.127 S 
ATOM     82  O   UNL     1      -7.085 -13.409   3.150  1.00  0.00    -0.237 OA
ATOM     83  O   UNL     1      -5.873 -11.430   3.983  1.00  0.00    -0.237 OA
ATOM     84  O   UNL     1      -7.022 -11.331   1.816  1.00  0.00    -0.744 OA
ENDBRANCH  78  81
ENDBRANCH  50  74
BRANCH  62  85
ATOM     85  C   UNL     1      -2.020 -17.453  -4.998  1.00  0.00     0.023 A 
ATOM     86  C   UNL     1      -3.187 -18.236  -4.898  1.00  0.00     0.012 A 
ATOM     87  C   UNL     1      -0.783 -18.084  -5.238  1.00  0.00     0.148 A 
ATOM     88  C   UNL     1      -3.118 -19.626  -4.999  1.00  0.00     0.002 A 
ATOM     89  C   UNL     1      -0.730 -19.464  -5.391  1.00  0.00     0.091 A 
ATOM     90  F   UNL     1       0.319 -17.323  -5.315  1.00  0.00    -0.205 F 
ATOM     91  C   UNL     1      -1.893 -20.238  -5.258  1.00  0.00     0.022 A 
BRANCH  89  92
ATOM     92  S   UNL     1       0.784 -20.329  -5.824  1.00  0.00     0.127 S 
ATOM     93  O   UNL     1       1.087 -21.039  -4.582  1.00  0.00    -0.237 OA
ATOM     94  O   UNL     1       0.346 -21.187  -6.925  1.00  0.00    -0.237 OA
ATOM     95  O   UNL     1       1.743 -19.300  -6.203  1.00  0.00    -0.744 OA
ENDBRANCH  89  92
ENDBRANCH  62  85
ENDBRANCH  36  37
ENDBRANCH  29  31
ENDBRANCH  28  29
ENDBRANCH  27  28
ENDBRANCH  26  27
ENDBRANCH  25  26
ENDBRANCH   1  25
TORSDOF 22
