REMARK SMILES CC(C)c1ccc(NC(=O)c2nccnc2C(=O)OCCOCCOCCOC(=O)c2ccc(-c3c4nc(c(-c5cccc(S(=O)(=O)[O-])c5F)c5ccc([nH]5)c(-c5cccc(S(=O)(=O)[O-])c5F)c5nc(c(-c6cccc(S(=O)(=O)[O-])c6F)c6ccc3[nH]6)C=C5)C=C4)cc2)cc1
REMARK SMILES IDX 23 1 22 2 21 3 20 4 19 5 17 6 18 7 16 8 11 9 12 10 13 11
REMARK SMILES IDX 15 12 14 13 9 14 8 15 10 17 7 18 4 19 5 20 95 21 6 22 94 23
REMARK SMILES IDX 2 24 1 25 3 26 24 27 25 28 26 29 27 30 28 31 29 32 30 33
REMARK SMILES IDX 31 34 32 35 93 36 33 37 92 38 34 39 35 40 36 41 86 42 37 43
REMARK SMILES IDX 91 44 85 45 87 46 38 47 90 48 84 49 83 50 39 52 71 53 51 54
REMARK SMILES IDX 70 55 52 56 55 57 69 58 88 59 53 60 54 61 68 63 89 64 56 65
REMARK SMILES IDX 40 66 41 67 49 68 42 69 44 70 50 71 43 72 45 73 46 74 47 75
REMARK SMILES IDX 48 76 72 77 73 78 81 79 74 80 76 81 82 82 75 83 77 84 78 85
REMARK SMILES IDX 79 86 80 87 57 88 58 89 66 90 59 91 61 92 67 93 60 94 62 95
REMARK SMILES IDX 63 96 64 97 65 98
REMARK H PARENT 8 16 87 51 55 62
REMARK Flexibility Score: inf
ROOT
ATOM      1  C   UNL     1      -6.699   4.718   3.401  1.00  0.00     0.188 C 
ENDROOT
BRANCH   1   2
ATOM      2  O   UNL     1      -7.850   4.239   4.059  1.00  0.00    -0.376 OA
BRANCH   2   3
ATOM      3  C   UNL     1      -8.942   3.725   3.313  1.00  0.00     0.202 C 
BRANCH   3   4
ATOM      4  C   UNL     1      -9.010   3.654   1.776  1.00  0.00     0.261 C 
BRANCH   4   5
ATOM      5  O   UNL     1      -7.765   3.749   1.081  1.00  0.00    -0.458 OA
BRANCH   5   6
ATOM      6  C   UNL     1      -7.698   4.724   0.140  1.00  0.00     0.359 C 
ATOM      7  O   UNL     1      -8.602   5.480  -0.183  1.00  0.00    -0.244 OA
BRANCH   6   8
ATOM      8  C   UNL     1      -6.311   4.899  -0.348  1.00  0.00     0.179 A 
ATOM      9  C   UNL     1      -5.564   3.900  -0.953  1.00  0.00     0.161 A 
ATOM     10  N   UNL     1      -4.383   4.186  -1.586  1.00  0.00    -0.247 NA
ATOM     11  C   UNL     1      -3.916   5.449  -1.449  1.00  0.00     0.132 A 
ATOM     12  N   UNL     1      -5.815   6.170  -0.198  1.00  0.00    -0.245 NA
ATOM     13  C   UNL     1      -4.599   6.410  -0.733  1.00  0.00     0.132 A 
BRANCH   9  14
ATOM     14  C   UNL     1      -5.979   2.478  -0.922  1.00  0.00     0.276 C 
ATOM     15  N   UNL     1      -5.092   1.435  -0.699  1.00  0.00    -0.321 N 
ATOM     16  H   UNL     1      -5.522   0.550  -0.729  1.00  0.00     0.170 HD
ATOM     17  O   UNL     1      -7.156   2.201  -1.166  1.00  0.00    -0.267 OA
BRANCH  15  18
ATOM     18  C   UNL     1      -3.706   1.368  -0.439  1.00  0.00     0.041 A 
ATOM     19  C   UNL     1      -0.876   1.160  -0.405  1.00  0.00    -0.045 A 
ATOM     20  C   UNL     1      -1.521   2.328   0.017  1.00  0.00     0.006 A 
ATOM     21  C   UNL     1      -1.671   0.055  -0.727  1.00  0.00     0.006 A 
ATOM     22  C   UNL     1      -2.920   2.412   0.037  1.00  0.00     0.026 A 
ATOM     23  C   UNL     1      -3.070   0.157  -0.732  1.00  0.00     0.026 A 
BRANCH  19  24
ATOM     24  C   UNL     1       0.635   1.153  -0.553  1.00  0.00     0.013 C 
ATOM     25  C   UNL     1       1.299  -0.068   0.085  1.00  0.00     0.012 C 
ATOM     26  C   UNL     1       1.027   1.268  -2.031  1.00  0.00     0.012 C 
ENDBRANCH  19  24
ENDBRANCH  15  18
ENDBRANCH   9  14
ENDBRANCH   6   8
ENDBRANCH   5   6
ENDBRANCH   4   5
ENDBRANCH   3   4
ENDBRANCH   2   3
ENDBRANCH   1   2
BRANCH   1  27
ATOM     27  C   UNL     1      -5.654   3.656   2.996  1.00  0.00     0.188 C 
BRANCH  27  28
ATOM     28  O   UNL     1      -6.001   2.287   2.973  1.00  0.00    -0.376 OA
BRANCH  28  29
ATOM     29  C   UNL     1      -6.410   1.634   4.166  1.00  0.00     0.202 C 
BRANCH  29  30
ATOM     30  C   UNL     1      -5.934   2.010   5.586  1.00  0.00     0.261 C 
BRANCH  30  31
ATOM     31  O   UNL     1      -5.574   3.372   5.828  1.00  0.00    -0.460 OA
BRANCH  31  32
ATOM     32  C   UNL     1      -4.246   3.614   5.915  1.00  0.00     0.338 C 
ATOM     33  O   UNL     1      -3.336   2.804   5.796  1.00  0.00    -0.246 OA
BRANCH  32  34
ATOM     34  C   UNL     1      -4.026   5.069   5.979  1.00  0.00     0.060 A 
ATOM     35  C   UNL     1      -3.366   5.694   4.911  1.00  0.00     0.016 A 
ATOM     36  C   UNL     1      -4.424   5.802   7.097  1.00  0.00     0.016 A 
ATOM     37  C   UNL     1      -3.076   7.054   4.969  1.00  0.00     0.010 A 
ATOM     38  C   UNL     1      -4.108   7.161   7.165  1.00  0.00     0.010 A 
ATOM     39  C   UNL     1      -3.401   7.782   6.119  1.00  0.00    -0.014 A 
BRANCH  39  40
ATOM     40  C   UNL     1      -2.819   9.130   6.313  1.00  0.00     0.031 A 
ATOM     41  C   UNL     1      -1.592   9.259   7.173  1.00  0.00     0.074 A 
ATOM     42  C   UNL     1      -3.360  10.216   5.733  1.00  0.00     0.049 A 
ATOM     43  N   UNL     1      -0.929  10.331   7.519  1.00  0.00    -0.248 NA
ATOM     44  C   UNL     1      -1.041   8.008   7.720  1.00  0.00     0.031 C 
ATOM     45  C   UNL     1      -4.532  10.216   4.861  1.00  0.00     0.029 A 
ATOM     46  N   UNL     1      -2.998  11.537   5.815  1.00  0.00    -0.354 N 
ATOM     47  C   UNL     1       0.095   9.890   8.348  1.00  0.00     0.074 A 
ATOM     48  C   UNL     1      -0.043   8.455   8.465  1.00  0.00     0.031 C 
ATOM     49  C   UNL     1      -4.812  11.483   4.509  1.00  0.00     0.029 A 
ATOM     50  C   UNL     1      -3.856  12.383   5.153  1.00  0.00     0.049 A 
ATOM     51  H   UNL     1      -2.201  11.849   6.301  1.00  0.00     0.167 HD
ATOM     52  C   UNL     1       1.071  10.611   8.949  1.00  0.00     0.034 A 
ATOM     53  C   UNL     1      -3.877  13.729   5.095  1.00  0.00     0.034 A 
ATOM     54  C   UNL     1       1.207  12.036   8.827  1.00  0.00     0.049 A 
ATOM     55  C   UNL     1      -2.807  14.515   5.811  1.00  0.00     0.074 A 
ATOM     56  C   UNL     1       2.179  12.857   9.370  1.00  0.00     0.029 A 
ATOM     57  N   UNL     1       0.334  12.856   8.128  1.00  0.00    -0.354 N 
ATOM     58  N   UNL     1      -1.787  14.079   6.510  1.00  0.00    -0.248 NA
ATOM     59  C   UNL     1      -2.873  15.980   5.700  1.00  0.00     0.031 C 
ATOM     60  C   UNL     1       1.873  14.179   9.028  1.00  0.00     0.029 A 
ATOM     61  C   UNL     1       0.737  14.176   8.233  1.00  0.00     0.049 A 
ATOM     62  H   UNL     1      -0.456  12.546   7.630  1.00  0.00     0.167 HD
ATOM     63  C   UNL     1      -1.065  15.209   6.881  1.00  0.00     0.074 A 
ATOM     64  C   UNL     1      -1.760  16.349   6.320  1.00  0.00     0.031 C 
ATOM     65  C   UNL     1       0.067  15.297   7.624  1.00  0.00     0.034 A 
BRANCH  52  66
ATOM     66  C   UNL     1       2.070   9.858   9.789  1.00  0.00     0.023 A 
ATOM     67  C   UNL     1       3.010   9.008   9.170  1.00  0.00     0.012 A 
ATOM     68  C   UNL     1       2.096  10.012  11.189  1.00  0.00     0.148 A 
ATOM     69  C   UNL     1       3.929   8.289   9.933  1.00  0.00     0.002 A 
ATOM     70  C   UNL     1       3.048   9.331  11.938  1.00  0.00     0.091 A 
ATOM     71  F   UNL     1       1.181  10.806  11.762  1.00  0.00    -0.205 F 
ATOM     72  C   UNL     1       3.954   8.458  11.314  1.00  0.00     0.022 A 
BRANCH  70  73
ATOM     73  S   UNL     1       3.215   9.544  13.713  1.00  0.00     0.127 S 
ATOM     74  O   UNL     1       2.735   8.255  14.211  1.00  0.00    -0.237 OA
ATOM     75  O   UNL     1       4.655   9.757  13.862  1.00  0.00    -0.237 OA
ATOM     76  O   UNL     1       2.392  10.694  14.059  1.00  0.00    -0.744 OA
ENDBRANCH  70  73
ENDBRANCH  52  66
BRANCH  53  77
ATOM     77  C   UNL     1      -4.928  14.427   4.301  1.00  0.00     0.023 A 
ATOM     78  C   UNL     1      -4.567  15.111   3.124  1.00  0.00     0.012 A 
ATOM     79  C   UNL     1      -6.278  14.412   4.700  1.00  0.00     0.148 A 
ATOM     80  C   UNL     1      -5.526  15.794   2.376  1.00  0.00     0.002 A 
ATOM     81  C   UNL     1      -7.237  15.050   3.923  1.00  0.00     0.091 A 
ATOM     82  F   UNL     1      -6.598  13.766   5.831  1.00  0.00    -0.205 F 
ATOM     83  C   UNL     1      -6.861  15.756   2.769  1.00  0.00     0.022 A 
BRANCH  81  84
ATOM     84  S   UNL     1      -8.993  14.965   4.287  1.00  0.00     0.127 S 
ATOM     85  O   UNL     1      -9.299  16.356   4.612  1.00  0.00    -0.237 OA
ATOM     86  O   UNL     1      -9.539  14.495   3.013  1.00  0.00    -0.237 OA
ATOM     87  O   UNL     1      -9.124  14.020   5.387  1.00  0.00    -0.744 OA
ENDBRANCH  81  84
ENDBRANCH  53  77
BRANCH  65  88
ATOM     88  C   UNL     1       0.673  16.663   7.827  1.00  0.00     0.023 A 
ATOM     89  C   UNL     1       0.043  17.604   8.665  1.00  0.00     0.012 A 
ATOM     90  C   UNL     1       1.915  16.984   7.240  1.00  0.00     0.148 A 
ATOM     91  C   UNL     1       0.621  18.854   8.887  1.00  0.00     0.002 A 
ATOM     92  C   UNL     1       2.510  18.210   7.509  1.00  0.00     0.091 A 
ATOM     93  F   UNL     1       2.491  16.082   6.432  1.00  0.00    -0.205 F 
ATOM     94  C   UNL     1       1.858  19.152   8.320  1.00  0.00     0.022 A 
BRANCH  92  95
ATOM     95  S   UNL     1       4.147  18.638   6.906  1.00  0.00     0.127 S 
ATOM     96  O   UNL     1       3.838  19.653   5.901  1.00  0.00    -0.237 OA
ATOM     97  O   UNL     1       4.796  19.153   8.113  1.00  0.00    -0.237 OA
ATOM     98  O   UNL     1       4.723  17.404   6.390  1.00  0.00    -0.744 OA
ENDBRANCH  92  95
ENDBRANCH  65  88
ENDBRANCH  39  40
ENDBRANCH  32  34
ENDBRANCH  31  32
ENDBRANCH  30  31
ENDBRANCH  29  30
ENDBRANCH  28  29
ENDBRANCH  27  28
ENDBRANCH   1  27
TORSDOF 23
