REMARK SMILES COc1cc(NC(=O)C2CCN(S(=O)(=O)c3cccs3)CC2)c(Cl)cc1C(=O)OCCOCCOCCOC(=O)c1ccc(-c2c3nc(c(-c4cccc(S(=O)(=O)[O-])c4F)c4ccc([nH]4)c(-c4cccc(S(=O)(=O)[O-])c4F)c4nc(c(-c5cccc(S(=O)(=O)[O-])c5F)c5ccc2[nH]5)C=C4)C=C3)cc1
REMARK SMILES IDX 33 1 32 2 31 3 30 4 29 5 27 6 28 7 26 8 3 9 4 10 5 11 25 12
REMARK SMILES IDX 23 13 24 14 2 15 1 16 6 17 7 18 8 20 9 21 10 22 22 23 11 24
REMARK SMILES IDX 21 25 12 26 13 27 14 28 15 29 16 30 17 31 20 32 18 33 19 34
REMARK SMILES IDX 34 35 35 36 36 37 37 38 38 39 39 40 40 41 41 42 42 43 103 44
REMARK SMILES IDX 43 45 102 46 44 47 45 48 46 49 96 50 47 51 101 52 95 53
REMARK SMILES IDX 97 54 48 55 100 56 94 57 93 58 49 60 81 61 61 62 80 63 62 64
REMARK SMILES IDX 65 65 79 66 98 67 63 68 64 69 78 71 99 72 66 73 50 74 51 75
REMARK SMILES IDX 59 76 52 77 54 78 60 79 53 80 55 81 56 82 57 83 58 84 82 85
REMARK SMILES IDX 83 86 91 87 84 88 86 89 92 90 85 91 87 92 88 93 89 94 90 95
REMARK SMILES IDX 67 96 68 97 76 98 69 99 71 100 77 101 70 102 72 103 73 104
REMARK SMILES IDX 74 105 75 106
REMARK H PARENT 6 19 97 59 65 70
REMARK Flexibility Score: inf
ROOT
ATOM      1  C   UNL     1      -3.118  -1.670  -3.151  1.00  0.00     0.188 C 
ENDROOT
BRANCH   1   2
ATOM      2  O   UNL     1      -4.329  -1.753  -2.438  1.00  0.00    -0.376 OA
BRANCH   2   3
ATOM      3  C   UNL     1      -4.386  -2.369  -1.166  1.00  0.00     0.202 C 
BRANCH   3   4
ATOM      4  C   UNL     1      -3.198  -2.961  -0.385  1.00  0.00     0.261 C 
BRANCH   4   5
ATOM      5  O   UNL     1      -1.879  -2.714  -0.869  1.00  0.00    -0.460 OA
BRANCH   5   6
ATOM      6  C   UNL     1      -1.264  -3.763  -1.467  1.00  0.00     0.342 C 
ATOM      7  O   UNL     1      -1.747  -4.853  -1.717  1.00  0.00    -0.246 OA
BRANCH   6   8
ATOM      8  C   UNL     1       0.071  -3.355  -1.939  1.00  0.00     0.103 A 
ATOM      9  C   UNL     1       1.048  -2.883  -1.065  1.00  0.00     0.135 A 
ATOM     10  C   UNL     1       2.354  -2.688  -1.520  1.00  0.00     0.075 A 
ATOM     11  C   UNL     1       2.628  -2.643  -2.878  1.00  0.00     0.063 A 
ATOM     12  C   UNL     1       0.374  -3.498  -3.297  1.00  0.00     0.042 A 
ATOM     13  C   UNL     1       1.631  -3.100  -3.765  1.00  0.00     0.065 A 
ATOM     14  Cl  UNL     1       1.907  -3.132  -5.472  1.00  0.00    -0.082 Cl
BRANCH   9  15
ATOM     15  O   UNL     1       0.771  -2.591   0.245  1.00  0.00    -0.496 OA
ATOM     16  C   UNL     1       0.411  -1.201   0.372  1.00  0.00     0.278 C 
ENDBRANCH   9  15
BRANCH  11  17
ATOM     17  N   UNL     1       3.836  -2.146  -3.402  1.00  0.00    -0.324 N 
ATOM     18  C   UNL     1       4.814  -1.292  -3.004  1.00  0.00     0.227 C 
ATOM     19  H   UNL     1       4.022  -2.517  -4.295  1.00  0.00     0.169 HD
ATOM     20  O   UNL     1       5.773  -1.213  -3.790  1.00  0.00    -0.274 OA
BRANCH  18  21
ATOM     21  C   UNL     1       4.867  -0.423  -1.722  1.00  0.00     0.081 C 
ATOM     22  C   UNL     1       3.615   0.032  -0.993  1.00  0.00     0.030 C 
ATOM     23  C   UNL     1       5.567   0.920  -2.066  1.00  0.00     0.030 C 
ATOM     24  C   UNL     1       2.670   0.712  -1.954  1.00  0.00     0.103 C 
ATOM     25  C   UNL     1       4.671   1.848  -2.912  1.00  0.00     0.103 C 
ATOM     26  N   UNL     1       3.285   1.991  -2.359  1.00  0.00    -0.197 NA
BRANCH  26  27
ATOM     27  S   UNL     1       2.194   2.911  -3.328  1.00  0.00     0.252 S 
ATOM     28  O   UNL     1       2.468   2.598  -4.715  1.00  0.00    -0.206 OA
ATOM     29  O   UNL     1       0.872   2.759  -2.763  1.00  0.00    -0.206 OA
BRANCH  27  30
ATOM     30  C   UNL     1       2.657   4.615  -3.123  1.00  0.00     0.135 A 
ATOM     31  C   UNL     1       3.800   5.302  -3.484  1.00  0.00     0.033 A 
ATOM     32  S   UNL     1       1.540   5.639  -2.329  1.00  0.00    -0.131 S 
ATOM     33  C   UNL     1       3.772   6.662  -3.067  1.00  0.00     0.013 A 
ATOM     34  C   UNL     1       2.590   6.981  -2.439  1.00  0.00     0.066 A 
ENDBRANCH  27  30
ENDBRANCH  26  27
ENDBRANCH  18  21
ENDBRANCH  11  17
ENDBRANCH   6   8
ENDBRANCH   5   6
ENDBRANCH   4   5
ENDBRANCH   3   4
ENDBRANCH   2   3
ENDBRANCH   1   2
BRANCH   1  35
ATOM     35  C   UNL     1      -2.188  -0.503  -2.763  1.00  0.00     0.188 C 
BRANCH  35  36
ATOM     36  O   UNL     1      -2.506   0.275  -1.625  1.00  0.00    -0.376 OA
BRANCH  36  37
ATOM     37  C   UNL     1      -3.722   1.011  -1.598  1.00  0.00     0.202 C 
BRANCH  37  38
ATOM     38  C   UNL     1      -4.460   1.546  -2.846  1.00  0.00     0.261 C 
BRANCH  38  39
ATOM     39  O   UNL     1      -4.331   0.807  -4.065  1.00  0.00    -0.460 OA
BRANCH  39  40
ATOM     40  C   UNL     1      -3.606   1.399  -5.048  1.00  0.00     0.338 C 
ATOM     41  O   UNL     1      -3.062   2.488  -5.011  1.00  0.00    -0.246 OA
BRANCH  40  42
ATOM     42  C   UNL     1      -3.429   0.432  -6.150  1.00  0.00     0.060 A 
ATOM     43  C   UNL     1      -2.157  -0.116  -6.378  1.00  0.00     0.016 A 
ATOM     44  C   UNL     1      -4.508   0.078  -6.959  1.00  0.00     0.016 A 
ATOM     45  C   UNL     1      -1.963  -1.025  -7.421  1.00  0.00     0.010 A 
ATOM     46  C   UNL     1      -4.304  -0.810  -8.019  1.00  0.00     0.010 A 
ATOM     47  C   UNL     1      -3.029  -1.352  -8.268  1.00  0.00    -0.014 A 
BRANCH  47  48
ATOM     48  C   UNL     1      -2.798  -2.140  -9.505  1.00  0.00     0.031 A 
ATOM     49  C   UNL     1      -2.678  -1.408 -10.814  1.00  0.00     0.074 A 
ATOM     50  C   UNL     1      -2.748  -3.484  -9.477  1.00  0.00     0.049 A 
ATOM     51  N   UNL     1      -2.585  -1.887 -12.026  1.00  0.00    -0.248 NA
ATOM     52  C   UNL     1      -2.669   0.063 -10.745  1.00  0.00     0.031 C 
ATOM     53  C   UNL     1      -2.835  -4.310  -8.274  1.00  0.00     0.029 A 
ATOM     54  N   UNL     1      -2.649  -4.392 -10.503  1.00  0.00    -0.354 N 
ATOM     55  C   UNL     1      -2.553  -0.782 -12.868  1.00  0.00     0.074 A 
ATOM     56  C   UNL     1      -2.629   0.393 -12.027  1.00  0.00     0.031 C 
ATOM     57  C   UNL     1      -2.821  -5.606  -8.635  1.00  0.00     0.029 A 
ATOM     58  C   UNL     1      -2.761  -5.700 -10.093  1.00  0.00     0.049 A 
ATOM     59  H   UNL     1      -2.510  -4.131 -11.443  1.00  0.00     0.167 HD
ATOM     60  C   UNL     1      -2.467  -0.749 -14.219  1.00  0.00     0.034 A 
ATOM     61  C   UNL     1      -2.842  -6.837 -10.813  1.00  0.00     0.034 A 
ATOM     62  C   UNL     1      -2.375  -1.916 -15.053  1.00  0.00     0.049 A 
ATOM     63  C   UNL     1      -2.784  -6.766 -12.320  1.00  0.00     0.074 A 
ATOM     64  C   UNL     1      -2.219  -1.979 -16.426  1.00  0.00     0.029 A 
ATOM     65  N   UNL     1      -2.455  -3.223 -14.600  1.00  0.00    -0.354 N 
ATOM     66  N   UNL     1      -2.628  -5.721 -13.095  1.00  0.00    -0.248 NA
ATOM     67  C   UNL     1      -2.889  -8.040 -13.050  1.00  0.00     0.031 C 
ATOM     68  C   UNL     1      -2.251  -3.323 -16.809  1.00  0.00     0.029 A 
ATOM     69  C   UNL     1      -2.378  -4.100 -15.668  1.00  0.00     0.049 A 
ATOM     70  H   UNL     1      -2.551  -3.489 -13.657  1.00  0.00     0.167 HD
ATOM     71  C   UNL     1      -2.573  -6.213 -14.396  1.00  0.00     0.074 A 
ATOM     72  C   UNL     1      -2.693  -7.653 -14.303  1.00  0.00     0.031 C 
ATOM     73  C   UNL     1      -2.444  -5.535 -15.564  1.00  0.00     0.034 A 
BRANCH  60  74
ATOM     74  C   UNL     1      -2.471   0.599 -14.891  1.00  0.00     0.023 A 
ATOM     75  C   UNL     1      -1.341   1.435 -14.802  1.00  0.00     0.012 A 
ATOM     76  C   UNL     1      -3.572   1.003 -15.671  1.00  0.00     0.148 A 
ATOM     77  C   UNL     1      -1.317   2.666 -15.457  1.00  0.00     0.002 A 
ATOM     78  C   UNL     1      -3.522   2.209 -16.360  1.00  0.00     0.091 A 
ATOM     79  F   UNL     1      -4.646   0.202 -15.725  1.00  0.00    -0.205 F 
ATOM     80  C   UNL     1      -2.401   3.047 -16.244  1.00  0.00     0.022 A 
BRANCH  78  81
ATOM     81  S   UNL     1      -4.831   2.748 -17.465  1.00  0.00     0.127 S 
ATOM     82  O   UNL     1      -5.369   3.902 -16.745  1.00  0.00    -0.237 OA
ATOM     83  O   UNL     1      -4.086   3.082 -18.680  1.00  0.00    -0.237 OA
ATOM     84  O   UNL     1      -5.740   1.619 -17.598  1.00  0.00    -0.744 OA
ENDBRANCH  78  81
ENDBRANCH  60  74
BRANCH  61  85
ATOM     85  C   UNL     1      -2.972  -8.157 -10.130  1.00  0.00     0.023 A 
ATOM     86  C   UNL     1      -1.915  -9.086 -10.214  1.00  0.00     0.012 A 
ATOM     87  C   UNL     1      -4.137  -8.507  -9.420  1.00  0.00     0.148 A 
ATOM     88  C   UNL     1      -2.032 -10.352  -9.638  1.00  0.00     0.002 A 
ATOM     89  C   UNL     1      -4.224  -9.749  -8.800  1.00  0.00     0.091 A 
ATOM     90  F   UNL     1      -5.139  -7.618  -9.366  1.00  0.00    -0.205 F 
ATOM     91  C   UNL     1      -3.181 -10.680  -8.925  1.00  0.00     0.022 A 
BRANCH  89  92
ATOM     92  S   UNL     1      -5.616 -10.219  -7.767  1.00  0.00     0.127 S 
ATOM     93  O   UNL     1      -6.239 -11.272  -8.565  1.00  0.00    -0.237 OA
ATOM     94  O   UNL     1      -4.944 -10.683  -6.553  1.00  0.00    -0.237 OA
ATOM     95  O   UNL     1      -6.406  -9.008  -7.594  1.00  0.00    -0.744 OA
ENDBRANCH  89  92
ENDBRANCH  61  85
BRANCH  73  96
ATOM     96  C   UNL     1      -2.373  -6.333 -16.842  1.00  0.00     0.023 A 
ATOM     97  C   UNL     1      -3.521  -6.986 -17.334  1.00  0.00     0.012 A 
ATOM     98  C   UNL     1      -1.183  -6.370 -17.597  1.00  0.00     0.148 A 
ATOM     99  C   UNL     1      -3.475  -7.693 -18.536  1.00  0.00     0.002 A 
ATOM    100  C   UNL     1      -1.159  -7.031 -18.819  1.00  0.00     0.091 A 
ATOM    101  F   UNL     1      -0.096  -5.755 -17.108  1.00  0.00    -0.205 F 
ATOM    102  C   UNL     1      -2.299  -7.706 -19.283  1.00  0.00     0.022 A 
BRANCH 100 103
ATOM    103  S   UNL     1       0.278  -7.017 -19.898  1.00  0.00     0.127 S 
ATOM    104  O   UNL     1       0.730  -8.405 -19.810  1.00  0.00    -0.237 OA
ATOM    105  O   UNL     1      -0.307  -6.647 -21.187  1.00  0.00    -0.237 OA
ATOM    106  O   UNL     1       1.191  -6.028 -19.342  1.00  0.00    -0.744 OA
ENDBRANCH 100 103
ENDBRANCH  73  96
ENDBRANCH  47  48
ENDBRANCH  40  42
ENDBRANCH  39  40
ENDBRANCH  38  39
ENDBRANCH  37  38
ENDBRANCH  36  37
ENDBRANCH  35  36
ENDBRANCH   1  35
TORSDOF 25
