REMARK SMILES CC(C)(C)N(CC(=O)OCCOCCOCCOC(=O)c1ccc(-c2c3nc(c(-c4cccc(S(=O)(=O)[O-])c4F)c4ccc([nH]4)c(-c4cccc(S(=O)(=O)[O-])c4F)c4nc(c(-c5cccc(S(=O)(=O)[O-])c5F)c5ccc2[nH]5)C=C4)C=C3)cc1)C(=O)N1CC[C@H](C[NH3+])C1
REMARK SMILES IDX 13 1 12 2 11 3 10 4 9 5 7 6 8 7 6 8 5 9 2 10 1 11 3 12 4 13
REMARK SMILES IDX 84 14 85 15 86 16 87 17 92 18 88 19 89 20 90 21 91 22 14 26
REMARK SMILES IDX 15 27 16 28 17 29 18 30 19 31 20 32 21 33 22 34 83 35 23 36
REMARK SMILES IDX 82 37 24 38 25 39 26 40 76 41 27 42 81 43 75 44 77 45 28 46
REMARK SMILES IDX 80 47 74 48 73 49 29 51 61 52 41 53 60 54 42 55 45 56 59 57
REMARK SMILES IDX 78 58 43 59 44 60 58 62 79 63 46 64 30 65 31 66 39 67 32 68
REMARK SMILES IDX 34 69 40 70 33 71 35 72 36 73 37 74 38 75 62 76 63 77 71 78
REMARK SMILES IDX 64 79 66 80 72 81 65 82 67 83 68 84 69 85 70 86 47 87 48 88
REMARK SMILES IDX 56 89 49 90 51 91 57 92 50 93 52 94 53 95 54 96 55 97
REMARK H PARENT 91 23 91 24 91 25 77 50 45 61
REMARK Flexibility Score: inf
ROOT
ATOM      1  C   UNL     1       4.761   0.886   5.118  1.00  0.00     0.188 C 
ENDROOT
BRANCH   1   2
ATOM      2  O   UNL     1       6.034   1.260   4.617  1.00  0.00    -0.376 OA
BRANCH   2   3
ATOM      3  C   UNL     1       6.165   1.400   3.205  1.00  0.00     0.202 C 
BRANCH   3   4
ATOM      4  C   UNL     1       5.705   0.240   2.293  1.00  0.00     0.261 C 
BRANCH   4   5
ATOM      5  O   UNL     1       4.273   0.207   2.037  1.00  0.00    -0.462 OA
BRANCH   5   6
ATOM      6  C   UNL     1       3.872  -0.817   1.224  1.00  0.00     0.325 C 
ATOM      7  O   UNL     1       4.669  -1.587   0.687  1.00  0.00    -0.250 OA
BRANCH   6   8
ATOM      8  C   UNL     1       2.338  -1.072   1.140  1.00  0.00     0.244 C 
BRANCH   8   9
ATOM      9  N   UNL     1       1.315  -0.129   1.650  1.00  0.00    -0.309 N 
BRANCH   9  10
ATOM     10  C   UNL     1       0.702   0.866   0.686  1.00  0.00     0.037 C 
ATOM     11  C   UNL     1       1.053   0.563  -0.791  1.00  0.00     0.034 C 
ATOM     12  C   UNL     1       1.208   2.284   1.004  1.00  0.00     0.034 C 
ATOM     13  C   UNL     1      -0.854   0.856   0.729  1.00  0.00     0.034 C 
ENDBRANCH   9  10
BRANCH   9  14
ATOM     14  C   UNL     1       0.780  -0.208   2.943  1.00  0.00     0.320 C 
ATOM     15  O   UNL     1      -0.120   0.538   3.329  1.00  0.00    -0.248 OA
BRANCH  14  16
ATOM     16  N   UNL     1       1.243  -1.194   3.790  1.00  0.00    -0.324 N 
ATOM     17  C   UNL     1       2.629  -1.481   4.017  1.00  0.00     0.122 C 
ATOM     18  C   UNL     1       0.529  -1.492   5.031  1.00  0.00     0.130 C 
ATOM     19  C   UNL     1       2.698  -2.530   5.062  1.00  0.00     0.033 C 
ATOM     20  C   UNL     1       1.630  -2.009   5.977  1.00  0.00     0.065 C 
BRANCH  20  21
ATOM     21  C   UNL     1       1.217  -3.119   6.872  1.00  0.00     0.264 C 
BRANCH  21  22
ATOM     22  N   UNL     1       2.237  -3.461   7.854  1.00  0.00    -0.357 N 
ATOM     23  H   UNL     1       3.081  -3.774   7.374  1.00  0.00     0.344 HD
ATOM     24  H   UNL     1       1.892  -4.207   8.457  1.00  0.00     0.344 HD
ATOM     25  H   UNL     1       2.454  -2.640   8.420  1.00  0.00     0.344 HD
ENDBRANCH  21  22
ENDBRANCH  20  21
ENDBRANCH  14  16
ENDBRANCH   9  14
ENDBRANCH   8   9
ENDBRANCH   6   8
ENDBRANCH   5   6
ENDBRANCH   4   5
ENDBRANCH   3   4
ENDBRANCH   2   3
ENDBRANCH   1   2
BRANCH   1  26
ATOM     26  C   UNL     1       3.539   1.714   4.642  1.00  0.00     0.188 C 
BRANCH  26  27
ATOM     27  O   UNL     1       3.627   3.126   4.750  1.00  0.00    -0.376 OA
BRANCH  27  28
ATOM     28  C   UNL     1       4.136   3.607   5.977  1.00  0.00     0.202 C 
BRANCH  28  29
ATOM     29  C   UNL     1       3.321   3.369   7.266  1.00  0.00     0.261 C 
BRANCH  29  30
ATOM     30  O   UNL     1       2.686   2.084   7.474  1.00  0.00    -0.460 OA
BRANCH  30  31
ATOM     31  C   UNL     1       1.320   2.123   7.604  1.00  0.00     0.338 C 
ATOM     32  O   UNL     1       0.618   3.077   7.333  1.00  0.00    -0.246 OA
BRANCH  31  33
ATOM     33  C   UNL     1       0.738   0.846   8.147  1.00  0.00     0.060 A 
ATOM     34  C   UNL     1      -0.572   0.488   7.784  1.00  0.00     0.016 A 
ATOM     35  C   UNL     1       1.409   0.033   9.064  1.00  0.00     0.016 A 
ATOM     36  C   UNL     1      -1.180  -0.693   8.272  1.00  0.00     0.010 A 
ATOM     37  C   UNL     1       0.788  -1.135   9.576  1.00  0.00     0.010 A 
ATOM     38  C   UNL     1      -0.508  -1.537   9.170  1.00  0.00    -0.014 A 
BRANCH  38  39
ATOM     39  C   UNL     1      -1.212  -2.679   9.867  1.00  0.00     0.031 A 
ATOM     40  C   UNL     1      -2.073  -2.267  11.016  1.00  0.00     0.074 A 
ATOM     41  C   UNL     1      -1.212  -4.005   9.563  1.00  0.00     0.049 A 
ATOM     42  N   UNL     1      -3.008  -2.964  11.594  1.00  0.00    -0.248 NA
ATOM     43  C   UNL     1      -1.983  -0.866  11.455  1.00  0.00     0.031 C 
ATOM     44  C   UNL     1      -0.783  -4.620   8.323  1.00  0.00     0.029 A 
ATOM     45  N   UNL     1      -1.575  -5.120  10.295  1.00  0.00    -0.354 N 
ATOM     46  C   UNL     1      -3.703  -2.057  12.367  1.00  0.00     0.074 A 
ATOM     47  C   UNL     1      -3.039  -0.778  12.246  1.00  0.00     0.031 C 
ATOM     48  C   UNL     1      -0.579  -5.937   8.465  1.00  0.00     0.029 A 
ATOM     49  C   UNL     1      -1.155  -6.319   9.739  1.00  0.00     0.049 A 
ATOM     50  H   UNL     1      -2.085  -5.067  11.135  1.00  0.00     0.167 HD
ATOM     51  C   UNL     1      -4.828  -2.274  13.078  1.00  0.00     0.034 A 
ATOM     52  C   UNL     1      -1.345  -7.609  10.087  1.00  0.00     0.034 A 
ATOM     53  C   UNL     1      -5.360  -3.581  13.333  1.00  0.00     0.049 A 
ATOM     54  C   UNL     1      -2.438  -7.859  11.079  1.00  0.00     0.074 A 
ATOM     55  C   UNL     1      -6.405  -3.934  14.162  1.00  0.00     0.029 A 
ATOM     56  N   UNL     1      -4.829  -4.761  12.825  1.00  0.00    -0.354 N 
ATOM     57  N   UNL     1      -3.180  -6.974  11.698  1.00  0.00    -0.248 NA
ATOM     58  C   UNL     1      -2.834  -9.254  11.305  1.00  0.00     0.031 C 
ATOM     59  C   UNL     1      -6.455  -5.332  14.219  1.00  0.00     0.029 A 
ATOM     60  C   UNL     1      -5.489  -5.848  13.368  1.00  0.00     0.049 A 
ATOM     61  H   UNL     1      -4.091  -4.815  12.174  1.00  0.00     0.167 HD
ATOM     62  C   UNL     1      -4.183  -7.693  12.322  1.00  0.00     0.074 A 
ATOM     63  C   UNL     1      -3.945  -9.092  12.013  1.00  0.00     0.031 C 
ATOM     64  C   UNL     1      -5.220  -7.232  13.062  1.00  0.00     0.034 A 
BRANCH  51  65
ATOM     65  C   UNL     1      -5.454  -1.053  13.673  1.00  0.00     0.023 A 
ATOM     66  C   UNL     1      -6.107  -0.121  12.836  1.00  0.00     0.012 A 
ATOM     67  C   UNL     1      -5.286  -0.768  15.036  1.00  0.00     0.148 A 
ATOM     68  C   UNL     1      -6.543   1.100  13.346  1.00  0.00     0.002 A 
ATOM     69  C   UNL     1      -5.755   0.433  15.544  1.00  0.00     0.091 A 
ATOM     70  F   UNL     1      -4.619  -1.651  15.793  1.00  0.00    -0.205 F 
ATOM     71  C   UNL     1      -6.369   1.376  14.700  1.00  0.00     0.022 A 
BRANCH  69  72
ATOM     72  S   UNL     1      -5.599   0.865  17.276  1.00  0.00     0.127 S 
ATOM     73  O   UNL     1      -4.663   1.988  17.216  1.00  0.00    -0.237 OA
ATOM     74  O   UNL     1      -6.972   1.230  17.622  1.00  0.00    -0.237 OA
ATOM     75  O   UNL     1      -5.096  -0.326  17.946  1.00  0.00    -0.744 OA
ENDBRANCH  69  72
ENDBRANCH  51  65
BRANCH  52  76
ATOM     76  C   UNL     1      -0.716  -8.727   9.308  1.00  0.00     0.023 A 
ATOM     77  C   UNL     1      -1.486  -9.482   8.399  1.00  0.00     0.012 A 
ATOM     78  C   UNL     1       0.657  -9.025   9.441  1.00  0.00     0.148 A 
ATOM     79  C   UNL     1      -0.915 -10.528   7.668  1.00  0.00     0.002 A 
ATOM     80  C   UNL     1       1.227 -10.051   8.687  1.00  0.00     0.091 A 
ATOM     81  F   UNL     1       1.380  -8.303  10.309  1.00  0.00    -0.205 F 
ATOM     82  C   UNL     1       0.440 -10.811   7.808  1.00  0.00     0.022 A 
BRANCH  80  83
ATOM     83  S   UNL     1       2.985 -10.436   8.731  1.00  0.00     0.127 S 
ATOM     84  O   UNL     1       2.990 -11.741   9.388  1.00  0.00    -0.237 OA
ATOM     85  O   UNL     1       3.324 -10.463   7.308  1.00  0.00    -0.237 OA
ATOM     86  O   UNL     1       3.606  -9.351   9.478  1.00  0.00    -0.744 OA
ENDBRANCH  80  83
ENDBRANCH  52  76
BRANCH  64  87
ATOM     87  C   UNL     1      -6.167  -8.258  13.611  1.00  0.00     0.023 A 
ATOM     88  C   UNL     1      -5.739  -9.140  14.623  1.00  0.00     0.012 A 
ATOM     89  C   UNL     1      -7.501  -8.298  13.167  1.00  0.00     0.148 A 
ATOM     90  C   UNL     1      -6.619 -10.077  15.158  1.00  0.00     0.002 A 
ATOM     91  C   UNL     1      -8.388  -9.190  13.750  1.00  0.00     0.091 A 
ATOM     92  F   UNL     1      -7.875  -7.467  12.183  1.00  0.00    -0.205 F 
ATOM     93  C   UNL     1      -7.946 -10.092  14.732  1.00  0.00     0.022 A 
BRANCH  91  94
ATOM     94  S   UNL     1     -10.137  -9.197  13.350  1.00  0.00     0.127 S 
ATOM     95  O   UNL     1     -10.261 -10.438  12.588  1.00  0.00    -0.237 OA
ATOM     96  O   UNL     1     -10.755  -9.227  14.676  1.00  0.00    -0.237 OA
ATOM     97  O   UNL     1     -10.382  -7.974  12.597  1.00  0.00    -0.744 OA
ENDBRANCH  91  94
ENDBRANCH  64  87
ENDBRANCH  38  39
ENDBRANCH  31  33
ENDBRANCH  30  31
ENDBRANCH  29  30
ENDBRANCH  28  29
ENDBRANCH  27  28
ENDBRANCH  26  27
ENDBRANCH   1  26
TORSDOF 26
