REMARK SMILES C[NH2+][C@@]1(C(=O)OCCOCCOCCOC(=O)c2ccc(-c3c4nc(c(-c5cccc(S(=O)(=O)[O-])c5F)c5ccc([nH]5)c(-c5cccc(S(=O)(=O)[O-])c5F)c5nc(c(-c6cccc(S(=O)(=O)[O-])c6F)c6ccc3[nH]6)C=C5)C=C4)cc2)CCC[C@H]1CCSc1nccc(=O)[nH]1
REMARK SMILES IDX 10 1 9 2 8 3 7 4 6 5 4 6 5 7 3 8 81 9 84 10 82 11 83 12 2 13
REMARK SMILES IDX 1 14 85 17 86 18 87 19 88 20 89 21 94 22 90 23 92 24 91 26
REMARK SMILES IDX 93 27 11 28 12 29 13 30 14 31 15 32 16 33 17 34 18 35 19 36
REMARK SMILES IDX 80 37 20 38 79 39 21 40 22 41 23 42 73 43 24 44 78 45 72 46
REMARK SMILES IDX 74 47 25 48 77 49 71 50 70 51 26 53 58 54 38 55 57 56 39 57
REMARK SMILES IDX 42 58 56 59 75 60 40 61 41 62 55 64 76 65 43 66 27 67 28 68
REMARK SMILES IDX 36 69 29 70 31 71 37 72 30 73 32 74 33 75 34 76 35 77 59 78
REMARK SMILES IDX 60 79 68 80 61 81 63 82 69 83 62 84 64 85 65 86 66 87 67 88
REMARK SMILES IDX 44 89 45 90 53 91 46 92 48 93 54 94 47 95 49 96 50 97 51 98
REMARK SMILES IDX 52 99
REMARK H PARENT 2 15 2 16 94 25 74 52 42 63
REMARK Flexibility Score: inf
ROOT
ATOM      1  C   UNL     1      -1.164  -3.125   0.886  1.00  0.00     0.188 C 
ENDROOT
BRANCH   1   2
ATOM      2  O   UNL     1      -1.237  -1.581   0.932  1.00  0.00    -0.376 OA
BRANCH   2   3
ATOM      3  C   UNL     1      -1.638  -0.821   2.101  1.00  0.00     0.202 C 
BRANCH   3   4
ATOM      4  C   UNL     1      -2.553   0.321   1.597  1.00  0.00     0.261 C 
BRANCH   4   5
ATOM      5  O   UNL     1      -2.599   0.296   0.146  1.00  0.00    -0.459 OA
BRANCH   5   6
ATOM      6  C   UNL     1      -1.567   0.974  -0.417  1.00  0.00     0.368 C 
ATOM      7  O   UNL     1      -1.033   1.920   0.165  1.00  0.00    -0.245 OA
BRANCH   6   8
ATOM      8  C   UNL     1      -1.125   0.524  -1.869  1.00  0.00     0.197 C 
ATOM      9  C   UNL     1      -1.664   1.648  -2.772  1.00  0.00     0.081 C 
ATOM     10  C   UNL     1      -1.781  -0.702  -2.575  1.00  0.00     0.063 C 
ATOM     11  C   UNL     1      -3.127   1.265  -2.998  1.00  0.00     0.008 C 
ATOM     12  C   UNL     1      -3.083  -0.226  -3.245  1.00  0.00     0.011 C 
BRANCH   8  13
ATOM     13  N   UNL     1       0.359   0.391  -1.959  1.00  0.00    -0.334 N 
ATOM     14  C   UNL     1       1.120   0.336  -0.714  1.00  0.00     0.331 C 
ATOM     15  H   UNL     1       0.556  -0.468  -2.473  1.00  0.00     0.347 HD
ATOM     16  H   UNL     1       0.665   1.254  -2.407  1.00  0.00     0.347 HD
ENDBRANCH   8  13
BRANCH  10  17
ATOM     17  C   UNL     1      -0.934  -1.486  -3.616  1.00  0.00     0.022 C 
BRANCH  17  18
ATOM     18  C   UNL     1       0.064  -2.486  -3.027  1.00  0.00     0.079 C 
BRANCH  18  19
ATOM     19  S   UNL     1      -0.754  -4.071  -2.669  1.00  0.00    -0.088 SA
BRANCH  19  20
ATOM     20  C   UNL     1      -1.448  -3.816  -1.101  1.00  0.00     0.168 A 
ATOM     21  N   UNL     1      -2.548  -2.934  -0.719  1.00  0.00    -0.233 NA
ATOM     22  N   UNL     1      -0.706  -4.864  -0.009  1.00  0.00    -0.301 N 
ATOM     23  C   UNL     1      -3.202  -2.761   0.903  1.00  0.00     0.120 A 
ATOM     24  C   UNL     1      -1.200  -5.015   1.637  1.00  0.00     0.251 A 
ATOM     25  H   UNL     1       0.045  -5.416  -0.325  1.00  0.00     0.172 HD
ATOM     26  C   UNL     1      -2.597  -3.618   2.101  1.00  0.00     0.091 A 
ATOM     27  O   UNL     1      -0.958  -6.135   2.092  1.00  0.00    -0.269 OA
ENDBRANCH  19  20
ENDBRANCH  18  19
ENDBRANCH  17  18
ENDBRANCH  10  17
ENDBRANCH   6   8
ENDBRANCH   5   6
ENDBRANCH   4   5
ENDBRANCH   3   4
ENDBRANCH   2   3
ENDBRANCH   1   2
BRANCH   1  28
ATOM     28  C   UNL     1      -2.683  -4.651   0.433  1.00  0.00     0.188 C 
BRANCH  28  29
ATOM     29  O   UNL     1      -3.336  -5.763   1.530  1.00  0.00    -0.376 OA
BRANCH  29  30
ATOM     30  C   UNL     1      -3.586  -5.627   2.985  1.00  0.00     0.202 C 
BRANCH  30  31
ATOM     31  C   UNL     1      -2.388  -5.662   4.171  1.00  0.00     0.261 C 
BRANCH  31  32
ATOM     32  O   UNL     1      -1.077  -4.889   4.057  1.00  0.00    -0.460 OA
BRANCH  32  33
ATOM     33  C   UNL     1       0.105  -5.605   4.299  1.00  0.00     0.338 C 
ATOM     34  O   UNL     1       0.094  -6.608   5.009  1.00  0.00    -0.246 OA
BRANCH  33  35
ATOM     35  C   UNL     1       1.428  -5.243   3.529  1.00  0.00     0.060 A 
ATOM     36  C   UNL     1       1.646  -4.238   2.576  1.00  0.00     0.016 A 
ATOM     37  C   UNL     1       2.541  -6.076   3.724  1.00  0.00     0.016 A 
ATOM     38  C   UNL     1       2.813  -4.163   1.754  1.00  0.00     0.010 A 
ATOM     39  C   UNL     1       3.773  -5.902   3.026  1.00  0.00     0.010 A 
ATOM     40  C   UNL     1       3.937  -4.954   2.003  1.00  0.00    -0.014 A 
BRANCH  40  41
ATOM     41  C   UNL     1       5.281  -4.774   1.315  1.00  0.00     0.031 A 
ATOM     42  C   UNL     1       6.055  -5.984   0.818  1.00  0.00     0.074 A 
ATOM     43  C   UNL     1       5.895  -3.568   1.231  1.00  0.00     0.049 A 
ATOM     44  N   UNL     1       7.338  -6.130   0.594  1.00  0.00    -0.248 NA
ATOM     45  C   UNL     1       5.265  -7.194   0.544  1.00  0.00     0.031 C 
ATOM     46  C   UNL     1       5.297  -2.275   1.566  1.00  0.00     0.029 A 
ATOM     47  N   UNL     1       7.196  -3.234   0.891  1.00  0.00    -0.354 N 
ATOM     48  C   UNL     1       7.525  -7.472   0.261  1.00  0.00     0.074 A 
ATOM     49  C   UNL     1       6.212  -8.083   0.267  1.00  0.00     0.031 C 
ATOM     50  C   UNL     1       6.218  -1.307   1.456  1.00  0.00     0.029 A 
ATOM     51  C   UNL     1       7.506  -1.911   1.147  1.00  0.00     0.049 A 
ATOM     52  H   UNL     1       7.836  -3.875   0.505  1.00  0.00     0.167 HD
ATOM     53  C   UNL     1       8.680  -8.138  -0.003  1.00  0.00     0.034 A 
ATOM     54  C   UNL     1       8.687  -1.258   1.220  1.00  0.00     0.034 A 
ATOM     55  C   UNL     1       9.979  -7.513  -0.053  1.00  0.00     0.049 A 
ATOM     56  C   UNL     1       9.964  -2.018   0.983  1.00  0.00     0.074 A 
ATOM     57  C   UNL     1      11.208  -8.092  -0.327  1.00  0.00     0.029 A 
ATOM     58  N   UNL     1      10.220  -6.167   0.176  1.00  0.00    -0.354 N 
ATOM     59  N   UNL     1      10.126  -3.284   0.685  1.00  0.00    -0.248 NA
ATOM     60  C   UNL     1      11.221  -1.260   1.080  1.00  0.00     0.031 C 
ATOM     61  C   UNL     1      12.194  -7.104  -0.220  1.00  0.00     0.029 A 
ATOM     62  C   UNL     1      11.574  -5.899   0.065  1.00  0.00     0.049 A 
ATOM     63  H   UNL     1       9.528  -5.500   0.388  1.00  0.00     0.167 HD
ATOM     64  C   UNL     1      11.495  -3.465   0.522  1.00  0.00     0.074 A 
ATOM     65  C   UNL     1      12.117  -2.175   0.737  1.00  0.00     0.031 C 
ATOM     66  C   UNL     1      12.176  -4.600   0.230  1.00  0.00     0.034 A 
BRANCH  53  67
ATOM     67  C   UNL     1       8.606  -9.633  -0.223  1.00  0.00     0.023 A 
ATOM     68  C   UNL     1       8.026 -10.159  -1.395  1.00  0.00     0.012 A 
ATOM     69  C   UNL     1       9.156 -10.523   0.726  1.00  0.00     0.148 A 
ATOM     70  C   UNL     1       7.945 -11.539  -1.593  1.00  0.00     0.002 A 
ATOM     71  C   UNL     1       9.116 -11.895   0.499  1.00  0.00     0.091 A 
ATOM     72  F   UNL     1       9.702 -10.012   1.839  1.00  0.00    -0.205 F 
ATOM     73  C   UNL     1       8.494 -12.405  -0.651  1.00  0.00     0.022 A 
BRANCH  71  74
ATOM     74  S   UNL     1       9.866 -13.091   1.612  1.00  0.00     0.127 S 
ATOM     75  O   UNL     1       8.690 -13.785   2.136  1.00  0.00    -0.237 OA
ATOM     76  O   UNL     1      10.685 -13.888   0.698  1.00  0.00    -0.237 OA
ATOM     77  O   UNL     1      10.619 -12.318   2.589  1.00  0.00    -0.744 OA
ENDBRANCH  71  74
ENDBRANCH  53  67
BRANCH  54  78
ATOM     78  C   UNL     1       8.729   0.199   1.573  1.00  0.00     0.023 A 
ATOM     79  C   UNL     1       9.161   1.136   0.613  1.00  0.00     0.012 A 
ATOM     80  C   UNL     1       8.338   0.662   2.847  1.00  0.00     0.148 A 
ATOM     81  C   UNL     1       9.226   2.497   0.920  1.00  0.00     0.002 A 
ATOM     82  C   UNL     1       8.346   2.026   3.126  1.00  0.00     0.091 A 
ATOM     83  F   UNL     1       7.950  -0.240   3.759  1.00  0.00    -0.205 F 
ATOM     84  C   UNL     1       8.807   2.943   2.171  1.00  0.00     0.022 A 
BRANCH  82  85
ATOM     85  S   UNL     1       7.701   2.705   4.660  1.00  0.00     0.127 S 
ATOM     86  O   UNL     1       8.912   3.225   5.290  1.00  0.00    -0.237 OA
ATOM     87  O   UNL     1       6.775   3.727   4.169  1.00  0.00    -0.237 OA
ATOM     88  O   UNL     1       7.059   1.593   5.347  1.00  0.00    -0.744 OA
ENDBRANCH  82  85
ENDBRANCH  54  78
BRANCH  66  89
ATOM     89  C   UNL     1      13.669  -4.494   0.052  1.00  0.00     0.023 A 
ATOM     90  C   UNL     1      14.507  -4.281   1.163  1.00  0.00     0.012 A 
ATOM     91  C   UNL     1      14.242  -4.674  -1.223  1.00  0.00     0.148 A 
ATOM     92  C   UNL     1      15.892  -4.215   1.003  1.00  0.00     0.002 A 
ATOM     93  C   UNL     1      15.624  -4.663  -1.366  1.00  0.00     0.091 A 
ATOM     94  F   UNL     1      13.425  -4.853  -2.271  1.00  0.00    -0.205 F 
ATOM     95  C   UNL     1      16.450  -4.419  -0.257  1.00  0.00     0.022 A 
BRANCH  93  96
ATOM     96  S   UNL     1      16.432  -5.019  -2.930  1.00  0.00     0.127 S 
ATOM     97  O   UNL     1      16.990  -3.713  -3.280  1.00  0.00    -0.237 OA
ATOM     98  O   UNL     1      17.424  -6.022  -2.542  1.00  0.00    -0.237 OA
ATOM     99  O   UNL     1      15.390  -5.510  -3.821  1.00  0.00    -0.744 OA
ENDBRANCH  93  96
ENDBRANCH  66  89
ENDBRANCH  40  41
ENDBRANCH  33  35
ENDBRANCH  32  33
ENDBRANCH  31  32
ENDBRANCH  30  31
ENDBRANCH  29  30
ENDBRANCH  28  29
ENDBRANCH   1  28
TORSDOF 25
