REMARK SMILES O=C(OCCOCCOCCOC(=O)c1ccc(-c2c3nc(c(-c4cccc(S(=O)(=O)[O-])c4F)c4ccc([nH]4)c(-c4cccc(S(=O)(=O)[O-])c4F)c4nc(c(-c5cccc(S(=O)(=O)[O-])c5F)c5ccc2[nH]5)C=C4)C=C3)cc1)C1=Cc2cc(Cl)c(Cl)c(Cl)c2O[C@@H]1C(F)(F)F
REMARK SMILES IDX 8 1 7 2 6 3 5 4 4 5 3 6 2 7 1 8 78 9 79 10 90 11 80 12 89 13
REMARK SMILES IDX 81 14 88 15 82 16 86 17 83 18 84 19 87 20 85 21 91 22 92 23
REMARK SMILES IDX 93 24 94 25 9 26 10 27 11 28 12 29 13 30 14 31 15 32 16 33
REMARK SMILES IDX 77 34 17 35 76 36 18 37 19 38 20 39 70 40 21 41 75 42 69 43
REMARK SMILES IDX 71 44 22 45 74 46 68 47 67 48 23 50 55 51 35 52 54 53 36 54
REMARK SMILES IDX 39 55 53 56 72 57 37 58 38 59 52 61 73 62 40 63 24 64 25 65
REMARK SMILES IDX 33 66 26 67 28 68 34 69 27 70 29 71 30 72 31 73 32 74 56 75
REMARK SMILES IDX 57 76 65 77 58 78 60 79 66 80 59 81 61 82 62 83 63 84 64 85
REMARK SMILES IDX 41 86 42 87 50 88 43 89 45 90 51 91 44 92 46 93 47 94 48 95
REMARK SMILES IDX 49 96
REMARK H PARENT 71 49 39 60
REMARK Flexibility Score: inf
ROOT
ATOM      1  C   UNL     1       2.116  -1.858   2.820  1.00  0.00     0.188 C 
ENDROOT
BRANCH   1   2
ATOM      2  C   UNL     1       2.445  -1.765   1.320  1.00  0.00     0.188 C 
BRANCH   2   3
ATOM      3  O   UNL     1       3.842  -1.727   0.825  1.00  0.00    -0.376 OA
BRANCH   3   4
ATOM      4  C   UNL     1       4.539  -0.647  -0.306  1.00  0.00     0.202 C 
BRANCH   4   5
ATOM      5  C   UNL     1       3.892   1.402  -0.632  1.00  0.00     0.261 C 
BRANCH   5   6
ATOM      6  O   UNL     1       2.935   1.886  -1.701  1.00  0.00    -0.460 OA
BRANCH   6   7
ATOM      7  C   UNL     1       3.092   1.211  -2.850  1.00  0.00     0.338 C 
ATOM      8  O   UNL     1       2.362   1.230  -3.810  1.00  0.00    -0.246 OA
BRANCH   7   9
ATOM      9  C   UNL     1       3.969   0.170  -2.325  1.00  0.00     0.087 C 
ATOM     10  C   UNL     1       5.365   0.537  -2.104  1.00  0.00     0.027 C 
ATOM     11  C   UNL     1       2.729  -0.284  -0.935  1.00  0.00     0.316 C 
ATOM     12  C   UNL     1       6.067   0.927  -0.492  1.00  0.00     0.020 A 
ATOM     13  O   UNL     1       3.388   0.309   0.802  1.00  0.00    -0.474 OA
ATOM     14  C   UNL     1       7.374   1.314  -0.409  1.00  0.00     0.034 A 
ATOM     15  C   UNL     1       5.121   0.896   0.958  1.00  0.00     0.148 A 
ATOM     16  C   UNL     1       7.831   1.627   0.889  1.00  0.00     0.062 A 
ATOM     17  C   UNL     1       5.628   1.269   2.179  1.00  0.00     0.103 A 
ATOM     18  Cl  UNL     1       9.520   2.075   0.945  1.00  0.00    -0.083 Cl
ATOM     19  C   UNL     1       7.013   1.613   2.119  1.00  0.00     0.082 A 
ATOM     20  Cl  UNL     1       4.671   1.413   3.584  1.00  0.00    -0.079 Cl
ATOM     21  Cl  UNL     1       7.820   2.062   3.611  1.00  0.00    -0.081 Cl
BRANCH  11  22
ATOM     22  C   UNL     1       2.441  -1.823  -1.563  1.00  0.00     0.430 C 
ATOM     23  F   UNL     1       2.684  -2.916  -0.838  1.00  0.00    -0.167 F 
ATOM     24  F   UNL     1       1.156  -1.898  -1.986  1.00  0.00    -0.167 F 
ATOM     25  F   UNL     1       3.196  -2.033  -2.686  1.00  0.00    -0.167 F 
ENDBRANCH  11  22
ENDBRANCH   7   9
ENDBRANCH   6   7
ENDBRANCH   5   6
ENDBRANCH   4   5
ENDBRANCH   3   4
ENDBRANCH   2   3
ENDBRANCH   1   2
BRANCH   1  26
ATOM     26  O   UNL     1       3.056  -1.429   3.771  1.00  0.00    -0.376 OA
BRANCH  26  27
ATOM     27  C   UNL     1       4.360  -1.980   3.661  1.00  0.00     0.202 C 
BRANCH  27  28
ATOM     28  C   UNL     1       4.499  -3.507   3.655  1.00  0.00     0.261 C 
BRANCH  28  29
ATOM     29  O   UNL     1       4.034  -4.134   2.445  1.00  0.00    -0.460 OA
BRANCH  29  30
ATOM     30  C   UNL     1       2.960  -4.956   2.538  1.00  0.00     0.338 C 
ATOM     31  O   UNL     1       2.289  -5.195   3.527  1.00  0.00    -0.246 OA
BRANCH  30  32
ATOM     32  C   UNL     1       2.631  -5.448   1.188  1.00  0.00     0.060 A 
ATOM     33  C   UNL     1       1.387  -5.152   0.607  1.00  0.00     0.016 A 
ATOM     34  C   UNL     1       3.564  -6.232   0.512  1.00  0.00     0.016 A 
ATOM     35  C   UNL     1       1.089  -5.613  -0.678  1.00  0.00     0.010 A 
ATOM     36  C   UNL     1       3.247  -6.733  -0.746  1.00  0.00     0.010 A 
ATOM     37  C   UNL     1       2.004  -6.441  -1.338  1.00  0.00    -0.014 A 
BRANCH  37  38
ATOM     38  C   UNL     1       1.590  -7.247  -2.507  1.00  0.00     0.031 A 
ATOM     39  C   UNL     1       1.061  -8.623  -2.231  1.00  0.00     0.074 A 
ATOM     40  C   UNL     1       1.798  -6.829  -3.766  1.00  0.00     0.049 A 
ATOM     41  N   UNL     1       0.813  -9.600  -3.058  1.00  0.00    -0.248 NA
ATOM     42  C   UNL     1       0.807  -8.944  -0.816  1.00  0.00     0.031 C 
ATOM     43  C   UNL     1       2.306  -5.515  -4.146  1.00  0.00     0.029 A 
ATOM     44  N   UNL     1       1.659  -7.502  -4.955  1.00  0.00    -0.354 N 
ATOM     45  C   UNL     1       0.425 -10.669  -2.262  1.00  0.00     0.074 A 
ATOM     46  C   UNL     1       0.469 -10.220  -0.889  1.00  0.00     0.031 C 
ATOM     47  C   UNL     1       2.489  -5.493  -5.478  1.00  0.00     0.029 A 
ATOM     48  C   UNL     1       2.154  -6.806  -6.032  1.00  0.00     0.049 A 
ATOM     49  H   UNL     1       1.246  -8.393  -5.029  1.00  0.00     0.167 HD
ATOM     50  C   UNL     1       0.077 -11.921  -2.640  1.00  0.00     0.034 A 
ATOM     51  C   UNL     1       2.364  -7.203  -7.303  1.00  0.00     0.034 A 
ATOM     52  C   UNL     1       0.076 -12.365  -4.004  1.00  0.00     0.049 A 
ATOM     53  C   UNL     1       2.001  -8.609  -7.707  1.00  0.00     0.074 A 
ATOM     54  C   UNL     1      -0.310 -13.592  -4.508  1.00  0.00     0.029 A 
ATOM     55  N   UNL     1       0.527 -11.611  -5.078  1.00  0.00    -0.354 N 
ATOM     56  N   UNL     1       1.531  -9.584  -6.966  1.00  0.00    -0.248 NA
ATOM     57  C   UNL     1       2.172  -8.965  -9.124  1.00  0.00     0.031 C 
ATOM     58  C   UNL     1      -0.023 -13.607  -5.876  1.00  0.00     0.029 A 
ATOM     59  C   UNL     1       0.458 -12.358  -6.240  1.00  0.00     0.049 A 
ATOM     60  H   UNL     1       0.849 -10.683  -5.022  1.00  0.00     0.167 HD
ATOM     61  C   UNL     1       1.309 -10.652  -7.830  1.00  0.00     0.074 A 
ATOM     62  C   UNL     1       1.700 -10.205  -9.151  1.00  0.00     0.031 C 
ATOM     63  C   UNL     1       0.820 -11.887  -7.554  1.00  0.00     0.034 A 
BRANCH  50  64
ATOM     64  C   UNL     1      -0.272 -12.896  -1.548  1.00  0.00     0.023 A 
ATOM     65  C   UNL     1      -1.419 -12.698  -0.751  1.00  0.00     0.012 A 
ATOM     66  C   UNL     1       0.557 -14.007  -1.298  1.00  0.00     0.148 A 
ATOM     67  C   UNL     1      -1.697 -13.550   0.317  1.00  0.00     0.002 A 
ATOM     68  C   UNL     1       0.239 -14.886  -0.273  1.00  0.00     0.091 A 
ATOM     69  F   UNL     1       1.656 -14.168  -2.049  1.00  0.00    -0.205 F 
ATOM     70  C   UNL     1      -0.874 -14.648   0.551  1.00  0.00     0.022 A 
BRANCH  68  71
ATOM     71  S   UNL     1       1.188 -16.375   0.049  1.00  0.00     0.127 S 
ATOM     72  O   UNL     1       1.822 -16.051   1.326  1.00  0.00    -0.237 OA
ATOM     73  O   UNL     1       0.140 -17.393   0.130  1.00  0.00    -0.237 OA
ATOM     74  O   UNL     1       2.097 -16.526  -1.079  1.00  0.00    -0.744 OA
ENDBRANCH  68  71
ENDBRANCH  50  64
BRANCH  51  75
ATOM     75  C   UNL     1       2.959  -6.248  -8.280  1.00  0.00     0.023 A 
ATOM     76  C   UNL     1       2.168  -5.713  -9.313  1.00  0.00     0.012 A 
ATOM     77  C   UNL     1       4.297  -5.826  -8.147  1.00  0.00     0.148 A 
ATOM     78  C   UNL     1       2.703  -4.783 -10.207  1.00  0.00     0.002 A 
ATOM     79  C   UNL     1       4.806  -4.858  -9.003  1.00  0.00     0.091 A 
ATOM     80  F   UNL     1       5.034  -6.360  -7.163  1.00  0.00    -0.205 F 
ATOM     81  C   UNL     1       4.016  -4.346 -10.044  1.00  0.00     0.022 A 
BRANCH  79  82
ATOM     82  S   UNL     1       6.440  -4.142  -8.790  1.00  0.00     0.127 S 
ATOM     83  O   UNL     1       7.095  -4.511 -10.043  1.00  0.00    -0.237 OA
ATOM     84  O   UNL     1       6.127  -2.720  -8.653  1.00  0.00    -0.237 OA
ATOM     85  O   UNL     1       6.994  -4.758  -7.592  1.00  0.00    -0.744 OA
ENDBRANCH  79  82
ENDBRANCH  51  75
BRANCH  63  86
ATOM     86  C   UNL     1       0.595 -12.838  -8.701  1.00  0.00     0.023 A 
ATOM     87  C   UNL     1       1.681 -13.449  -9.356  1.00  0.00     0.012 A 
ATOM     88  C   UNL     1      -0.721 -13.211  -9.046  1.00  0.00     0.148 A 
ATOM     89  C   UNL     1       1.459 -14.401 -10.352  1.00  0.00     0.002 A 
ATOM     90  C   UNL     1      -0.933 -14.200  -9.995  1.00  0.00     0.091 A 
ATOM     91  F   UNL     1      -1.739 -12.606  -8.418  1.00  0.00    -0.205 F 
ATOM     92  C   UNL     1       0.155 -14.788 -10.660  1.00  0.00     0.022 A 
BRANCH  90  93
ATOM     93  S   UNL     1      -2.569 -14.835 -10.377  1.00  0.00     0.127 S 
ATOM     94  O   UNL     1      -2.740 -14.400 -11.762  1.00  0.00    -0.237 OA
ATOM     95  O   UNL     1      -2.387 -16.276 -10.207  1.00  0.00    -0.237 OA
ATOM     96  O   UNL     1      -3.478 -14.219  -9.419  1.00  0.00    -0.744 OA
ENDBRANCH  90  93
ENDBRANCH  63  86
ENDBRANCH  37  38
ENDBRANCH  30  32
ENDBRANCH  29  30
ENDBRANCH  28  29
ENDBRANCH  27  28
ENDBRANCH  26  27
ENDBRANCH   1  26
TORSDOF 21
