REMARK SMILES C[C@@H](c1ccccc1)[C@@H]1[NH2+][C@@H](C(=O)OCCOCCOCCOC(=O)c2ccc(-c3c4nc(c(-c5cccc(S(=O)(=O)[O-])c5F)c5ccc([nH]5)c(-c5cccc(S(=O)(=O)[O-])c5F)c5nc(c(-c6cccc(S(=O)(=O)[O-])c6F)c6ccc3[nH]6)C=C5)C=C4)cc2)CS1
REMARK SMILES IDX 19 1 18 2 17 3 16 4 15 5 14 6 12 7 13 8 11 9 9 10 10 11
REMARK SMILES IDX 90 12 89 15 2 16 1 17 3 18 4 19 8 20 5 21 7 22 6 23 20 24
REMARK SMILES IDX 21 25 22 26 23 27 24 28 25 29 26 30 27 31 88 32 28 33 87 34
REMARK SMILES IDX 29 35 30 36 31 37 81 38 32 39 86 40 80 41 82 42 33 43 85 44
REMARK SMILES IDX 79 45 78 46 34 48 66 49 46 50 65 51 47 52 50 53 64 54 83 55
REMARK SMILES IDX 48 56 49 57 63 59 84 60 51 61 35 62 36 63 44 64 37 65 39 66
REMARK SMILES IDX 45 67 38 68 40 69 41 70 42 71 43 72 67 73 68 74 76 75 69 76
REMARK SMILES IDX 71 77 77 78 70 79 72 80 73 81 74 82 75 83 52 84 53 85 61 86
REMARK SMILES IDX 54 87 56 88 62 89 55 90 57 91 58 92 59 93 60 94
REMARK H PARENT 10 13 10 14 82 47 50 58
REMARK Flexibility Score: inf
ROOT
ATOM      1  C   UNL     1      -2.280  -2.890   1.289  1.00  0.00     0.188 C 
ENDROOT
BRANCH   1   2
ATOM      2  C   UNL     1      -3.739  -2.444   1.041  1.00  0.00     0.188 C 
BRANCH   2   3
ATOM      3  O   UNL     1      -4.653  -3.524   1.004  1.00  0.00    -0.376 OA
BRANCH   3   4
ATOM      4  C   UNL     1      -5.173  -3.868  -0.268  1.00  0.00     0.202 C 
BRANCH   4   5
ATOM      5  C   UNL     1      -4.174  -4.279  -1.362  1.00  0.00     0.261 C 
BRANCH   5   6
ATOM      6  O   UNL     1      -3.034  -3.423  -1.558  1.00  0.00    -0.459 OA
BRANCH   6   7
ATOM      7  C   UNL     1      -3.227  -2.237  -2.200  1.00  0.00     0.365 C 
ATOM      8  O   UNL     1      -4.314  -1.847  -2.603  1.00  0.00    -0.245 OA
BRANCH   7   9
ATOM      9  C   UNL     1      -1.910  -1.432  -2.258  1.00  0.00     0.304 C 
ATOM     10  C   UNL     1      -1.010   0.679  -1.486  1.00  0.00     0.249 C 
ATOM     11  N   UNL     1      -1.810  -0.494  -1.094  1.00  0.00    -0.322 N 
ATOM     12  S   UNL     1      -1.577   1.057  -3.171  1.00  0.00    -0.092 SA
ATOM     13  H   UNL     1      -2.745  -0.194  -0.817  1.00  0.00     0.348 HD
ATOM     14  H   UNL     1      -1.364  -0.968  -0.308  1.00  0.00     0.348 HD
ATOM     15  C   UNL     1      -1.814  -0.689  -3.591  1.00  0.00     0.153 C 
BRANCH  10  16
ATOM     16  C   UNL     1       0.551   0.619  -1.290  1.00  0.00     0.085 C 
ATOM     17  C   UNL     1       0.940   0.099   0.103  1.00  0.00     0.020 C 
BRANCH  16  18
ATOM     18  C   UNL     1       1.335  -0.051  -2.414  1.00  0.00    -0.038 A 
ATOM     19  C   UNL     1       1.515  -1.437  -2.492  1.00  0.00     0.004 A 
ATOM     20  C   UNL     1       1.813   0.746  -3.471  1.00  0.00     0.004 A 
ATOM     21  C   UNL     1       2.060  -2.016  -3.641  1.00  0.00     0.000 A 
ATOM     22  C   UNL     1       2.365   0.168  -4.613  1.00  0.00     0.000 A 
ATOM     23  C   UNL     1       2.466  -1.216  -4.707  1.00  0.00     0.000 A 
ENDBRANCH  16  18
ENDBRANCH  10  16
ENDBRANCH   7   9
ENDBRANCH   6   7
ENDBRANCH   5   6
ENDBRANCH   4   5
ENDBRANCH   3   4
ENDBRANCH   2   3
ENDBRANCH   1   2
BRANCH   1  24
ATOM     24  O   UNL     1      -1.986  -4.245   1.611  1.00  0.00    -0.376 OA
BRANCH  24  25
ATOM     25  C   UNL     1      -2.853  -4.963   2.475  1.00  0.00     0.202 C 
BRANCH  25  26
ATOM     26  C   UNL     1      -3.248  -4.384   3.846  1.00  0.00     0.261 C 
BRANCH  26  27
ATOM     27  O   UNL     1      -3.601  -2.992   3.882  1.00  0.00    -0.460 OA
BRANCH  27  28
ATOM     28  C   UNL     1      -2.687  -2.160   4.434  1.00  0.00     0.338 C 
ATOM     29  O   UNL     1      -1.603  -2.472   4.915  1.00  0.00    -0.246 OA
BRANCH  28  30
ATOM     30  C   UNL     1      -3.098  -0.755   4.234  1.00  0.00     0.060 A 
ATOM     31  C   UNL     1      -2.281   0.082   3.459  1.00  0.00     0.016 A 
ATOM     32  C   UNL     1      -4.245  -0.246   4.845  1.00  0.00     0.016 A 
ATOM     33  C   UNL     1      -2.591   1.435   3.316  1.00  0.00     0.010 A 
ATOM     34  C   UNL     1      -4.543   1.116   4.719  1.00  0.00     0.010 A 
ATOM     35  C   UNL     1      -3.700   1.970   3.982  1.00  0.00    -0.014 A 
BRANCH  35  36
ATOM     36  C   UNL     1      -3.880   3.442   4.059  1.00  0.00     0.031 A 
ATOM     37  C   UNL     1      -3.449   4.158   5.311  1.00  0.00     0.074 A 
ATOM     38  C   UNL     1      -4.426   4.136   3.045  1.00  0.00     0.049 A 
ATOM     39  N   UNL     1      -3.546   5.425   5.620  1.00  0.00    -0.248 NA
ATOM     40  C   UNL     1      -2.830   3.328   6.357  1.00  0.00     0.031 C 
ATOM     41  C   UNL     1      -4.866   3.569   1.773  1.00  0.00     0.029 A 
ATOM     42  N   UNL     1      -4.724   5.473   2.942  1.00  0.00    -0.354 N 
ATOM     43  C   UNL     1      -3.042   5.539   6.910  1.00  0.00     0.074 A 
ATOM     44  C   UNL     1      -2.647   4.211   7.327  1.00  0.00     0.031 C 
ATOM     45  C   UNL     1      -5.400   4.549   1.023  1.00  0.00     0.029 A 
ATOM     46  C   UNL     1      -5.368   5.803   1.773  1.00  0.00     0.049 A 
ATOM     47  H   UNL     1      -4.499   6.131   3.639  1.00  0.00     0.167 HD
ATOM     48  C   UNL     1      -2.911   6.647   7.678  1.00  0.00     0.034 A 
ATOM     49  C   UNL     1      -5.889   6.978   1.367  1.00  0.00     0.034 A 
ATOM     50  C   UNL     1      -3.298   7.968   7.261  1.00  0.00     0.049 A 
ATOM     51  C   UNL     1      -5.774   8.191   2.256  1.00  0.00     0.074 A 
ATOM     52  C   UNL     1      -3.153   9.163   7.944  1.00  0.00     0.029 A 
ATOM     53  N   UNL     1      -3.933   8.267   6.065  1.00  0.00    -0.354 N 
ATOM     54  N   UNL     1      -5.190   8.308   3.424  1.00  0.00    -0.248 NA
ATOM     55  C   UNL     1      -6.366   9.440   1.755  1.00  0.00     0.031 C 
ATOM     56  C   UNL     1      -3.744  10.177   7.181  1.00  0.00     0.029 A 
ATOM     57  C   UNL     1      -4.210   9.622   6.000  1.00  0.00     0.049 A 
ATOM     58  H   UNL     1      -4.154   7.612   5.365  1.00  0.00     0.167 HD
ATOM     59  C   UNL     1      -5.306   9.650   3.778  1.00  0.00     0.074 A 
ATOM     60  C   UNL     1      -6.007  10.306   2.694  1.00  0.00     0.031 C 
ATOM     61  C   UNL     1      -4.872  10.278   4.899  1.00  0.00     0.034 A 
BRANCH  48  62
ATOM     62  C   UNL     1      -2.331   6.468   9.059  1.00  0.00     0.023 A 
ATOM     63  C   UNL     1      -0.972   6.124   9.216  1.00  0.00     0.012 A 
ATOM     64  C   UNL     1      -3.131   6.652  10.203  1.00  0.00     0.148 A 
ATOM     65  C   UNL     1      -0.434   5.913  10.486  1.00  0.00     0.002 A 
ATOM     66  C   UNL     1      -2.575   6.492  11.466  1.00  0.00     0.091 A 
ATOM     67  F   UNL     1      -4.426   6.958  10.036  1.00  0.00    -0.205 F 
ATOM     68  C   UNL     1      -1.233   6.105  11.610  1.00  0.00     0.022 A 
BRANCH  66  69
ATOM     69  S   UNL     1      -3.502   6.799  12.973  1.00  0.00     0.127 S 
ATOM     70  O   UNL     1      -3.720   5.441  13.468  1.00  0.00    -0.237 OA
ATOM     71  O   UNL     1      -2.556   7.590  13.761  1.00  0.00    -0.237 OA
ATOM     72  O   UNL     1      -4.701   7.519  12.566  1.00  0.00    -0.744 OA
ENDBRANCH  66  69
ENDBRANCH  48  62
BRANCH  49  73
ATOM     73  C   UNL     1      -6.533   7.079   0.026  1.00  0.00     0.023 A 
ATOM     74  C   UNL     1      -5.894   7.816  -0.991  1.00  0.00     0.012 A 
ATOM     75  C   UNL     1      -7.753   6.434  -0.255  1.00  0.00     0.148 A 
ATOM     76  C   UNL     1      -6.470   7.928  -2.257  1.00  0.00     0.002 A 
ATOM     77  C   UNL     1      -8.295   6.507  -1.532  1.00  0.00     0.091 A 
ATOM     78  F   UNL     1      -8.348   5.748   0.731  1.00  0.00    -0.205 F 
ATOM     79  C   UNL     1      -7.664   7.265  -2.530  1.00  0.00     0.022 A 
BRANCH  77  80
ATOM     80  S   UNL     1      -9.770   5.600  -2.014  1.00  0.00     0.127 S 
ATOM     81  O   UNL     1     -10.693   6.684  -2.343  1.00  0.00    -0.237 OA
ATOM     82  O   UNL     1      -9.285   4.834  -3.162  1.00  0.00    -0.237 OA
ATOM     83  O   UNL     1     -10.137   4.795  -0.857  1.00  0.00    -0.744 OA
ENDBRANCH  77  80
ENDBRANCH  49  73
BRANCH  61  84
ATOM     84  C   UNL     1      -5.095  11.768   5.006  1.00  0.00     0.023 A 
ATOM     85  C   UNL     1      -6.392  12.280   5.206  1.00  0.00     0.012 A 
ATOM     86  C   UNL     1      -4.000  12.656   4.984  1.00  0.00     0.148 A 
ATOM     87  C   UNL     1      -6.600  13.653   5.346  1.00  0.00     0.002 A 
ATOM     88  C   UNL     1      -4.208  14.017   5.179  1.00  0.00     0.091 A 
ATOM     89  F   UNL     1      -2.774  12.154   4.777  1.00  0.00    -0.205 F 
ATOM     90  C   UNL     1      -5.508  14.518   5.345  1.00  0.00     0.022 A 
BRANCH  88  91
ATOM     91  S   UNL     1      -2.856  15.194   5.295  1.00  0.00     0.127 S 
ATOM     92  O   UNL     1      -3.010  15.948   4.051  1.00  0.00    -0.237 OA
ATOM     93  O   UNL     1      -3.198  15.940   6.506  1.00  0.00    -0.237 OA
ATOM     94  O   UNL     1      -1.638  14.401   5.396  1.00  0.00    -0.744 OA
ENDBRANCH  88  91
ENDBRANCH  61  84
ENDBRANCH  35  36
ENDBRANCH  28  30
ENDBRANCH  27  28
ENDBRANCH  26  27
ENDBRANCH  25  26
ENDBRANCH  24  25
ENDBRANCH   1  24
TORSDOF 22
