REMARK SMILES CO[C@@H]1C[C@H](C(=O)OCCOCCOCCOC(=O)c2ccc(-c3c4nc(c(-c5cccc(S(=O)(=O)[O-])c5F)c5ccc([nH]5)c(-c5cccc(S(=O)(=O)[O-])c5F)c5nc(c(-c6cccc(S(=O)(=O)[O-])c6F)c6ccc3[nH]6)C=C5)C=C4)cc2)N(C(=O)c2ccn(C)c(=O)c2)C1
REMARK SMILES IDX 13 1 12 2 11 3 10 4 9 5 8 6 6 7 7 8 5 9 3 10 4 11 94 12
REMARK SMILES IDX 83 13 2 14 1 15 84 16 85 17 86 18 87 19 93 20 88 21 91 22
REMARK SMILES IDX 89 23 92 24 90 25 14 26 15 27 16 28 17 29 18 30 19 31 20 32
REMARK SMILES IDX 21 33 82 34 22 35 81 36 23 37 24 38 25 39 75 40 26 41 80 42
REMARK SMILES IDX 74 43 76 44 27 45 79 46 73 47 72 48 28 50 60 51 40 52 59 53
REMARK SMILES IDX 41 54 44 55 58 56 77 57 42 58 43 59 57 61 78 62 45 63 29 64
REMARK SMILES IDX 30 65 38 66 31 67 33 68 39 69 32 70 34 71 35 72 36 73 37 74
REMARK SMILES IDX 61 75 62 76 70 77 63 78 65 79 71 80 64 81 66 82 67 83 68 84
REMARK SMILES IDX 69 85 46 86 47 87 55 88 48 89 50 90 56 91 49 92 51 93 52 94
REMARK SMILES IDX 53 95 54 96
REMARK H PARENT 76 49 44 60
REMARK Flexibility Score: inf
ROOT
ATOM      1  C   UNL     1      -2.802   3.693  -1.665  1.00  0.00     0.188 C 
ENDROOT
BRANCH   1   2
ATOM      2  C   UNL     1      -2.662   4.140  -3.126  1.00  0.00     0.188 C 
BRANCH   2   3
ATOM      3  O   UNL     1      -3.273   3.297  -4.097  1.00  0.00    -0.376 OA
BRANCH   3   4
ATOM      4  C   UNL     1      -2.788   1.955  -4.199  1.00  0.00     0.202 C 
BRANCH   4   5
ATOM      5  C   UNL     1      -1.264   1.758  -4.246  1.00  0.00     0.261 C 
BRANCH   5   6
ATOM      6  O   UNL     1      -0.603   2.219  -3.049  1.00  0.00    -0.462 OA
BRANCH   6   7
ATOM      7  C   UNL     1       0.518   2.957  -3.238  1.00  0.00     0.329 C 
ATOM      8  O   UNL     1       1.049   3.122  -4.334  1.00  0.00    -0.250 OA
BRANCH   7   9
ATOM      9  C   UNL     1       0.979   3.710  -1.967  1.00  0.00     0.198 C 
ATOM     10  C   UNL     1       1.771   2.022  -0.441  1.00  0.00     0.140 C 
ATOM     11  C   UNL     1       0.691   3.092  -0.602  1.00  0.00     0.071 C 
ATOM     12  C   UNL     1       2.941   2.529  -1.297  1.00  0.00     0.152 C 
ATOM     13  N   UNL     1       2.440   3.704  -1.990  1.00  0.00    -0.322 N 
BRANCH  10  14
ATOM     14  O   UNL     1       1.254   0.799  -0.967  1.00  0.00    -0.380 OA
ATOM     15  C   UNL     1       1.203  -0.232   0.009  1.00  0.00     0.195 C 
ENDBRANCH  10  14
BRANCH  13  16
ATOM     16  C   UNL     1       3.276   4.521  -2.712  1.00  0.00     0.254 C 
ATOM     17  O   UNL     1       4.470   4.269  -2.866  1.00  0.00    -0.269 OA
BRANCH  16  18
ATOM     18  C   UNL     1       2.709   5.780  -3.270  1.00  0.00     0.046 A 
ATOM     19  C   UNL     1       2.694   6.028  -4.691  1.00  0.00     0.032 A 
ATOM     20  C   UNL     1       2.346   6.738  -2.405  1.00  0.00     0.085 A 
ATOM     21  C   UNL     1       2.345   7.236  -5.151  1.00  0.00     0.089 A 
ATOM     22  C   UNL     1       1.921   8.070  -2.907  1.00  0.00     0.251 A 
ATOM     23  N   UNL     1       1.979   8.254  -4.286  1.00  0.00    -0.319 N 
ATOM     24  O   UNL     1       1.574   8.915  -2.086  1.00  0.00    -0.269 OA
ATOM     25  C   UNL     1       1.663   9.562  -4.846  1.00  0.00     0.153 C 
ENDBRANCH  16  18
ENDBRANCH  13  16
ENDBRANCH   7   9
ENDBRANCH   6   7
ENDBRANCH   5   6
ENDBRANCH   4   5
ENDBRANCH   3   4
ENDBRANCH   2   3
ENDBRANCH   1   2
BRANCH   1  26
ATOM     26  O   UNL     1      -2.795   2.291  -1.496  1.00  0.00    -0.376 OA
BRANCH  26  27
ATOM     27  C   UNL     1      -3.712   1.646  -0.623  1.00  0.00     0.202 C 
BRANCH  27  28
ATOM     28  C   UNL     1      -5.199   2.061  -0.539  1.00  0.00     0.261 C 
BRANCH  28  29
ATOM     29  O   UNL     1      -5.506   3.456  -0.393  1.00  0.00    -0.460 OA
BRANCH  29  30
ATOM     30  C   UNL     1      -4.982   4.115   0.667  1.00  0.00     0.338 C 
ATOM     31  O   UNL     1      -4.419   3.609   1.626  1.00  0.00    -0.246 OA
BRANCH  30  32
ATOM     32  C   UNL     1      -4.932   5.561   0.311  1.00  0.00     0.060 A 
ATOM     33  C   UNL     1      -3.723   6.250   0.501  1.00  0.00     0.016 A 
ATOM     34  C   UNL     1      -6.005   6.203  -0.315  1.00  0.00     0.016 A 
ATOM     35  C   UNL     1      -3.598   7.585   0.105  1.00  0.00     0.010 A 
ATOM     36  C   UNL     1      -5.885   7.545  -0.695  1.00  0.00     0.010 A 
ATOM     37  C   UNL     1      -4.693   8.254  -0.457  1.00  0.00    -0.014 A 
BRANCH  37  38
ATOM     38  C   UNL     1      -4.680   9.733  -0.599  1.00  0.00     0.031 A 
ATOM     39  C   UNL     1      -5.364  10.548   0.468  1.00  0.00     0.074 A 
ATOM     40  C   UNL     1      -4.107  10.351  -1.648  1.00  0.00     0.049 A 
ATOM     41  N   UNL     1      -5.566  11.837   0.530  1.00  0.00    -0.248 NA
ATOM     42  C   UNL     1      -5.900   9.799   1.617  1.00  0.00     0.031 C 
ATOM     43  C   UNL     1      -3.397   9.690  -2.740  1.00  0.00     0.029 A 
ATOM     44  N   UNL     1      -4.065  11.686  -1.978  1.00  0.00    -0.354 N 
ATOM     45  C   UNL     1      -6.281  12.051   1.702  1.00  0.00     0.074 A 
ATOM     46  C   UNL     1      -6.488  10.757   2.316  1.00  0.00     0.031 C 
ATOM     47  C   UNL     1      -3.018  10.618  -3.638  1.00  0.00     0.029 A 
ATOM     48  C   UNL     1      -3.485  11.934  -3.200  1.00  0.00     0.049 A 
ATOM     49  H   UNL     1      -4.416  12.396  -1.394  1.00  0.00     0.167 HD
ATOM     50  C   UNL     1      -6.720  13.217   2.231  1.00  0.00     0.034 A 
ATOM     51  C   UNL     1      -3.370  13.084  -3.897  1.00  0.00     0.034 A 
ATOM     52  C   UNL     1      -6.504  14.505   1.633  1.00  0.00     0.049 A 
ATOM     53  C   UNL     1      -3.900  14.368  -3.305  1.00  0.00     0.074 A 
ATOM     54  C   UNL     1      -6.874  15.748   2.116  1.00  0.00     0.029 A 
ATOM     55  N   UNL     1      -5.878  14.718   0.415  1.00  0.00    -0.354 N 
ATOM     56  N   UNL     1      -4.484  14.569  -2.148  1.00  0.00    -0.248 NA
ATOM     57  C   UNL     1      -3.728  15.593  -4.104  1.00  0.00     0.031 C 
ATOM     58  C   UNL     1      -6.505  16.710   1.171  1.00  0.00     0.029 A 
ATOM     59  C   UNL     1      -5.864  16.071   0.122  1.00  0.00     0.049 A 
ATOM     60  H   UNL     1      -5.500  14.012  -0.157  1.00  0.00     0.167 HD
ATOM     61  C   UNL     1      -4.704  15.941  -2.060  1.00  0.00     0.074 A 
ATOM     62  C   UNL     1      -4.182  16.526  -3.277  1.00  0.00     0.031 C 
ATOM     63  C   UNL     1      -5.290  16.651  -1.065  1.00  0.00     0.034 A 
BRANCH  50  64
ATOM     64  C   UNL     1      -7.474  13.152   3.532  1.00  0.00     0.023 A 
ATOM     65  C   UNL     1      -6.791  12.843   4.726  1.00  0.00     0.012 A 
ATOM     66  C   UNL     1      -8.851  13.447   3.579  1.00  0.00     0.148 A 
ATOM     67  C   UNL     1      -7.473  12.794   5.941  1.00  0.00     0.002 A 
ATOM     68  C   UNL     1      -9.513  13.445   4.800  1.00  0.00     0.091 A 
ATOM     69  F   UNL     1      -9.486  13.716   2.430  1.00  0.00    -0.205 F 
ATOM     70  C   UNL     1      -8.829  13.106   5.980  1.00  0.00     0.022 A 
BRANCH  68  71
ATOM     71  S   UNL     1     -11.239  13.912   4.966  1.00  0.00     0.127 S 
ATOM     72  O   UNL     1     -11.858  12.632   5.308  1.00  0.00    -0.237 OA
ATOM     73  O   UNL     1     -11.190  14.878   6.064  1.00  0.00    -0.237 OA
ATOM     74  O   UNL     1     -11.631  14.471   3.680  1.00  0.00    -0.744 OA
ENDBRANCH  68  71
ENDBRANCH  50  64
BRANCH  51  75
ATOM     75  C   UNL     1      -2.707  13.089  -5.233  1.00  0.00     0.023 A 
ATOM     76  C   UNL     1      -1.472  13.748  -5.397  1.00  0.00     0.012 A 
ATOM     77  C   UNL     1      -3.296  12.452  -6.343  1.00  0.00     0.148 A 
ATOM     78  C   UNL     1      -0.854  13.803  -6.647  1.00  0.00     0.002 A 
ATOM     79  C   UNL     1      -2.646  12.460  -7.572  1.00  0.00     0.091 A 
ATOM     80  F   UNL     1      -4.479  11.846  -6.173  1.00  0.00    -0.205 F 
ATOM     81  C   UNL     1      -1.435  13.152  -7.731  1.00  0.00     0.022 A 
BRANCH  79  82
ATOM     82  S   UNL     1      -3.251  11.542  -8.992  1.00  0.00     0.127 S 
ATOM     83  O   UNL     1      -3.610  12.617  -9.913  1.00  0.00    -0.237 OA
ATOM     84  O   UNL     1      -2.066  10.773  -9.374  1.00  0.00    -0.237 OA
ATOM     85  O   UNL     1      -4.359  10.737  -8.500  1.00  0.00    -0.744 OA
ENDBRANCH  79  82
ENDBRANCH  51  75
BRANCH  63  86
ATOM     86  C   UNL     1      -5.353  18.152  -1.203  1.00  0.00     0.023 A 
ATOM     87  C   UNL     1      -6.230  18.744  -2.132  1.00  0.00     0.012 A 
ATOM     88  C   UNL     1      -4.601  18.977  -0.341  1.00  0.00     0.148 A 
ATOM     89  C   UNL     1      -6.333  20.132  -2.225  1.00  0.00     0.002 A 
ATOM     90  C   UNL     1      -4.748  20.358  -0.403  1.00  0.00     0.091 A 
ATOM     91  F   UNL     1      -3.760  18.397   0.528  1.00  0.00    -0.205 F 
ATOM     92  C   UNL     1      -5.603  20.938  -1.353  1.00  0.00     0.022 A 
BRANCH  90  93
ATOM     93  S   UNL     1      -3.927  21.469   0.746  1.00  0.00     0.127 S 
ATOM     94  O   UNL     1      -2.949  22.124  -0.122  1.00  0.00    -0.237 OA
ATOM     95  O   UNL     1      -5.026  22.330   1.183  1.00  0.00    -0.237 OA
ATOM     96  O   UNL     1      -3.365  20.626   1.792  1.00  0.00    -0.744 OA
ENDBRANCH  90  93
ENDBRANCH  63  86
ENDBRANCH  37  38
ENDBRANCH  30  32
ENDBRANCH  29  30
ENDBRANCH  28  29
ENDBRANCH  27  28
ENDBRANCH  26  27
ENDBRANCH   1  26
TORSDOF 23
