REMARK SMILES Cc1cc2nc(C(F)(F)F)c(=O)n([C@H](C)C(=O)OCCOCCOCCOC(=O)c3ccc(-c4c5nc(c(-c6cccc(S(=O)(=O)[O-])c6F)c6ccc([nH]6)c(-c6cccc(S(=O)(=O)[O-])c6F)c6nc(c(-c7cccc(S(=O)(=O)[O-])c7F)c7ccc4[nH]7)C=C6)C=C5)cc3)c2cc1C
REMARK SMILES IDX 23 1 22 2 21 3 20 4 19 5 18 6 16 7 17 8 14 9 15 10 13 11
REMARK SMILES IDX 1 12 2 13 3 14 95 15 4 16 94 17 96 18 5 19 93 20 6 21 11 22
REMARK SMILES IDX 12 23 7 24 8 25 9 26 10 27 24 28 25 29 26 30 27 31 28 32
REMARK SMILES IDX 29 33 30 34 31 35 92 36 32 37 91 38 33 39 34 40 35 41 85 42
REMARK SMILES IDX 36 43 90 44 84 45 86 46 37 47 89 48 83 49 82 50 38 52 70 53
REMARK SMILES IDX 50 54 69 55 51 56 54 57 68 58 87 59 52 60 53 61 67 63 88 64
REMARK SMILES IDX 55 65 39 66 40 67 48 68 41 69 43 70 49 71 42 72 44 73 45 74
REMARK SMILES IDX 46 75 47 76 71 77 72 78 80 79 73 80 75 81 81 82 74 83 76 84
REMARK SMILES IDX 77 85 78 86 79 87 56 88 57 89 65 90 58 91 60 92 66 93 59 94
REMARK SMILES IDX 61 95 62 96 63 97 64 98
REMARK H PARENT 86 51 54 62
REMARK Flexibility Score: inf
ROOT
ATOM      1  C   UNL     1      -3.618  -1.991   5.356  1.00  0.00     0.188 C 
ENDROOT
BRANCH   1   2
ATOM      2  C   UNL     1      -3.543  -1.150   6.630  1.00  0.00     0.188 C 
BRANCH   2   3
ATOM      3  O   UNL     1      -4.306   0.050   6.635  1.00  0.00    -0.376 OA
BRANCH   3   4
ATOM      4  C   UNL     1      -4.121   0.936   5.533  1.00  0.00     0.202 C 
BRANCH   4   5
ATOM      5  C   UNL     1      -2.697   1.469   5.299  1.00  0.00     0.261 C 
BRANCH   5   6
ATOM      6  O   UNL     1      -1.666   0.457   5.350  1.00  0.00    -0.462 OA
BRANCH   6   7
ATOM      7  C   UNL     1      -0.783   0.595   6.374  1.00  0.00     0.329 C 
ATOM      8  O   UNL     1      -0.714   1.599   7.079  1.00  0.00    -0.250 OA
BRANCH   7   9
ATOM      9  C   UNL     1       0.166  -0.601   6.573  1.00  0.00     0.197 C 
ATOM     10  C   UNL     1      -0.098  -1.967   5.938  1.00  0.00     0.044 C 
BRANCH   9  11
ATOM     11  N   UNL     1       1.512  -0.047   6.413  1.00  0.00    -0.291 N 
ATOM     12  C   UNL     1       4.933  -0.654   1.858  1.00  0.00     0.044 C 
ATOM     13  C   UNL     1       3.964  -0.436   2.986  1.00  0.00    -0.046 A 
ATOM     14  C   UNL     1       4.393   0.269   4.121  1.00  0.00     0.034 A 
ATOM     15  C   UNL     1       2.626  -0.848   2.911  1.00  0.00    -0.046 A 
ATOM     16  C   UNL     1       3.551   0.474   5.218  1.00  0.00     0.088 A 
ATOM     17  C   UNL     1       1.771  -0.591   3.997  1.00  0.00     0.032 A 
ATOM     18  C   UNL     1       2.083  -1.593   1.720  1.00  0.00     0.044 C 
ATOM     19  N   UNL     1       4.032   1.264   6.276  1.00  0.00    -0.236 NA
ATOM     20  C   UNL     1       2.245  -0.038   5.192  1.00  0.00     0.071 A 
ATOM     21  C   UNL     1       3.304   1.345   7.357  1.00  0.00     0.210 A 
ATOM     22  C   UNL     1       2.085   0.500   7.565  1.00  0.00     0.282 A 
ATOM     23  O   UNL     1       1.672   0.331   8.703  1.00  0.00    -0.267 OA
BRANCH  21  24
ATOM     24  C   UNL     1       3.622   2.272   8.497  1.00  0.00     0.438 C 
ATOM     25  F   UNL     1       4.480   1.716   9.394  1.00  0.00    -0.164 F 
ATOM     26  F   UNL     1       4.236   3.414   8.058  1.00  0.00    -0.164 F 
ATOM     27  F   UNL     1       2.539   2.707   9.197  1.00  0.00    -0.164 F 
ENDBRANCH  21  24
ENDBRANCH   9  11
ENDBRANCH   7   9
ENDBRANCH   6   7
ENDBRANCH   5   6
ENDBRANCH   4   5
ENDBRANCH   3   4
ENDBRANCH   2   3
ENDBRANCH   1   2
BRANCH   1  28
ATOM     28  O   UNL     1      -3.537  -1.308   4.118  1.00  0.00    -0.376 OA
BRANCH  28  29
ATOM     29  C   UNL     1      -3.996  -2.010   2.960  1.00  0.00     0.202 C 
BRANCH  29  30
ATOM     30  C   UNL     1      -5.299  -2.851   3.018  1.00  0.00     0.261 C 
BRANCH  30  31
ATOM     31  O   UNL     1      -5.475  -3.795   4.099  1.00  0.00    -0.460 OA
BRANCH  31  32
ATOM     32  C   UNL     1      -4.489  -4.684   4.374  1.00  0.00     0.338 C 
ATOM     33  O   UNL     1      -3.551  -4.947   3.635  1.00  0.00    -0.246 OA
BRANCH  32  34
ATOM     34  C   UNL     1      -4.556  -5.041   5.834  1.00  0.00     0.060 A 
ATOM     35  C   UNL     1      -5.761  -5.074   6.545  1.00  0.00     0.016 A 
ATOM     36  C   UNL     1      -3.353  -5.218   6.540  1.00  0.00     0.016 A 
ATOM     37  C   UNL     1      -5.759  -5.316   7.930  1.00  0.00     0.010 A 
ATOM     38  C   UNL     1      -3.352  -5.454   7.927  1.00  0.00     0.010 A 
ATOM     39  C   UNL     1      -4.558  -5.531   8.636  1.00  0.00    -0.014 A 
BRANCH  39  40
ATOM     40  C   UNL     1      -4.607  -6.046  10.040  1.00  0.00     0.031 A 
ATOM     41  C   UNL     1      -4.280  -5.208  11.249  1.00  0.00     0.074 A 
ATOM     42  C   UNL     1      -4.972  -7.334  10.217  1.00  0.00     0.049 A 
ATOM     43  N   UNL     1      -4.449  -5.503  12.515  1.00  0.00    -0.248 NA
ATOM     44  C   UNL     1      -3.684  -3.885  11.020  1.00  0.00     0.031 C 
ATOM     45  C   UNL     1      -5.243  -8.279   9.131  1.00  0.00     0.029 A 
ATOM     46  N   UNL     1      -5.193  -8.068  11.357  1.00  0.00    -0.354 N 
ATOM     47  C   UNL     1      -4.003  -4.400  13.238  1.00  0.00     0.074 A 
ATOM     48  C   UNL     1      -3.512  -3.445  12.264  1.00  0.00     0.031 C 
ATOM     49  C   UNL     1      -5.636  -9.449   9.655  1.00  0.00     0.029 A 
ATOM     50  C   UNL     1      -5.628  -9.351  11.111  1.00  0.00     0.049 A 
ATOM     51  H   UNL     1      -5.054  -7.710  12.264  1.00  0.00     0.167 HD
ATOM     52  C   UNL     1      -4.033  -4.192  14.580  1.00  0.00     0.034 A 
ATOM     53  C   UNL     1      -6.002 -10.336  11.954  1.00  0.00     0.034 A 
ATOM     54  C   UNL     1      -4.525  -5.146  15.546  1.00  0.00     0.049 A 
ATOM     55  C   UNL     1      -6.012 -10.076  13.437  1.00  0.00     0.074 A 
ATOM     56  C   UNL     1      -4.647  -4.990  16.918  1.00  0.00     0.029 A 
ATOM     57  N   UNL     1      -4.962  -6.428  15.256  1.00  0.00    -0.354 N 
ATOM     58  N   UNL     1      -5.764  -8.963  14.080  1.00  0.00    -0.248 NA
ATOM     59  C   UNL     1      -6.386 -11.201  14.309  1.00  0.00     0.031 C 
ATOM     60  C   UNL     1      -5.129  -6.184  17.459  1.00  0.00     0.029 A 
ATOM     61  C   UNL     1      -5.338  -7.077  16.422  1.00  0.00     0.049 A 
ATOM     62  H   UNL     1      -5.001  -6.821  14.354  1.00  0.00     0.167 HD
ATOM     63  C   UNL     1      -5.983  -9.243  15.425  1.00  0.00     0.074 A 
ATOM     64  C   UNL     1      -6.412 -10.623  15.502  1.00  0.00     0.031 C 
ATOM     65  C   UNL     1      -5.822  -8.432  16.498  1.00  0.00     0.034 A 
BRANCH  52  66
ATOM     66  C   UNL     1      -3.615  -2.840  15.115  1.00  0.00     0.023 A 
ATOM     67  C   UNL     1      -4.478  -1.743  14.920  1.00  0.00     0.012 A 
ATOM     68  C   UNL     1      -2.487  -2.688  15.950  1.00  0.00     0.148 A 
ATOM     69  C   UNL     1      -4.223  -0.515  15.531  1.00  0.00     0.002 A 
ATOM     70  C   UNL     1      -2.262  -1.472  16.590  1.00  0.00     0.091 A 
ATOM     71  F   UNL     1      -1.681  -3.743  16.132  1.00  0.00    -0.205 F 
ATOM     72  C   UNL     1      -3.123  -0.384  16.375  1.00  0.00     0.022 A 
BRANCH  70  73
ATOM     73  S   UNL     1      -0.933  -1.218  17.776  1.00  0.00     0.127 S 
ATOM     74  O   UNL     1      -0.123  -0.205  17.100  1.00  0.00    -0.237 OA
ATOM     75  O   UNL     1      -1.659  -0.732  18.950  1.00  0.00    -0.237 OA
ATOM     76  O   UNL     1      -0.289  -2.513  17.946  1.00  0.00    -0.744 OA
ENDBRANCH  70  73
ENDBRANCH  52  66
BRANCH  53  77
ATOM     77  C   UNL     1      -6.491 -11.637  11.412  1.00  0.00     0.023 A 
ATOM     78  C   UNL     1      -7.842 -11.995  11.596  1.00  0.00     0.012 A 
ATOM     79  C   UNL     1      -5.641 -12.512  10.707  1.00  0.00     0.148 A 
ATOM     80  C   UNL     1      -8.327 -13.214  11.122  1.00  0.00     0.002 A 
ATOM     81  C   UNL     1      -6.146 -13.697  10.184  1.00  0.00     0.091 A 
ATOM     82  F   UNL     1      -4.357 -12.161  10.552  1.00  0.00    -0.205 F 
ATOM     83  C   UNL     1      -7.483 -14.060  10.408  1.00  0.00     0.022 A 
BRANCH  81  84
ATOM     84  S   UNL     1      -5.171 -14.780   9.136  1.00  0.00     0.127 S 
ATOM     85  O   UNL     1      -4.987 -15.944   9.998  1.00  0.00    -0.237 OA
ATOM     86  O   UNL     1      -6.070 -14.989   8.000  1.00  0.00    -0.237 OA
ATOM     87  O   UNL     1      -3.962 -14.033   8.815  1.00  0.00    -0.744 OA
ENDBRANCH  81  84
ENDBRANCH  53  77
BRANCH  65  88
ATOM     88  C   UNL     1      -6.113  -8.989  17.870  1.00  0.00     0.023 A 
ATOM     89  C   UNL     1      -5.225  -9.920  18.444  1.00  0.00     0.012 A 
ATOM     90  C   UNL     1      -7.187  -8.495  18.640  1.00  0.00     0.148 A 
ATOM     91  C   UNL     1      -5.406 -10.361  19.755  1.00  0.00     0.002 A 
ATOM     92  C   UNL     1      -7.331  -8.900  19.963  1.00  0.00     0.091 A 
ATOM     93  F   UNL     1      -8.030  -7.620  18.073  1.00  0.00    -0.205 F 
ATOM     94  C   UNL     1      -6.448  -9.840  20.518  1.00  0.00     0.022 A 
BRANCH  92  95
ATOM     95  S   UNL     1      -8.577  -8.213  21.062  1.00  0.00     0.127 S 
ATOM     96  O   UNL     1      -9.397  -9.388  21.355  1.00  0.00    -0.237 OA
ATOM     97  O   UNL     1      -7.767  -7.739  22.184  1.00  0.00    -0.237 OA
ATOM     98  O   UNL     1      -9.250  -7.165  20.308  1.00  0.00    -0.744 OA
ENDBRANCH  92  95
ENDBRANCH  65  88
ENDBRANCH  39  40
ENDBRANCH  32  34
ENDBRANCH  31  32
ENDBRANCH  30  31
ENDBRANCH  29  30
ENDBRANCH  28  29
ENDBRANCH   1  28
TORSDOF 22
