REMARK SMILES C[C@@H](C(=O)OCCOCCOCCOC(=O)c1ccc(-c2c3nc(c(-c4cccc(S(=O)(=O)[O-])c4F)c4ccc([nH]4)c(-c4cccc(S(=O)(=O)[O-])c4F)c4nc(c(-c5cccc(S(=O)(=O)[O-])c5F)c5ccc2[nH]5)C=C4)C=C3)cc1)c1ccc(-c2cccc(OC(=O)Nc3ccccc3)c2)c(F)c1
REMARK SMILES IDX 9 1 8 2 7 3 6 4 5 5 3 6 4 7 2 8 1 9 80 10 81 11 102 12 82 13
REMARK SMILES IDX 100 14 83 15 101 16 84 17 85 18 99 19 86 20 88 21 87 22
REMARK SMILES IDX 89 23 90 24 91 25 92 26 93 28 94 29 98 30 95 31 97 32 96 33
REMARK SMILES IDX 10 34 11 35 12 36 13 37 14 38 15 39 16 40 17 41 18 42 79 43
REMARK SMILES IDX 19 44 78 45 20 46 21 47 22 48 72 49 23 50 77 51 71 52 73 53
REMARK SMILES IDX 24 54 76 55 70 56 69 57 25 59 57 60 37 61 56 62 38 63 41 64
REMARK SMILES IDX 55 65 74 66 39 67 40 68 54 70 75 71 42 72 26 73 27 74 35 75
REMARK SMILES IDX 28 76 30 77 36 78 29 79 31 80 32 81 33 82 34 83 58 84 59 85
REMARK SMILES IDX 67 86 60 87 62 88 68 89 61 90 63 91 64 92 65 93 66 94 43 95
REMARK SMILES IDX 44 96 52 97 45 98 47 99 53 100 46 101 48 102 49 103 50 104
REMARK SMILES IDX 51 105
REMARK H PARENT 92 27 73 58 41 69
REMARK Flexibility Score: inf
ROOT
ATOM      1  C   UNL     1       0.573  -2.799  -2.845  1.00  0.00     0.188 C 
ENDROOT
BRANCH   1   2
ATOM      2  O   UNL     1       1.448  -3.088  -3.931  1.00  0.00    -0.376 OA
BRANCH   2   3
ATOM      3  C   UNL     1       2.592  -2.257  -4.111  1.00  0.00     0.202 C 
BRANCH   3   4
ATOM      4  C   UNL     1       2.368  -0.740  -4.168  1.00  0.00     0.261 C 
BRANCH   4   5
ATOM      5  O   UNL     1       1.938  -0.162  -2.914  1.00  0.00    -0.463 OA
BRANCH   5   6
ATOM      6  C   UNL     1       1.086   0.897  -3.013  1.00  0.00     0.313 C 
ATOM      7  O   UNL     1       0.727   1.379  -4.083  1.00  0.00    -0.252 OA
BRANCH   6   8
ATOM      8  C   UNL     1       0.612   1.465  -1.664  1.00  0.00     0.126 C 
ATOM      9  C   UNL     1       1.312   0.969  -0.394  1.00  0.00     0.025 C 
BRANCH   8  10
ATOM     10  C   UNL     1      -0.901   1.375  -1.512  1.00  0.00    -0.031 A 
ATOM     11  C   UNL     1      -1.693   2.522  -1.367  1.00  0.00     0.005 A 
ATOM     12  C   UNL     1      -1.543   0.136  -1.508  1.00  0.00     0.044 A 
ATOM     13  C   UNL     1      -3.090   2.424  -1.241  1.00  0.00     0.012 A 
ATOM     14  C   UNL     1      -2.925   0.048  -1.392  1.00  0.00     0.131 A 
ATOM     15  C   UNL     1      -3.732   1.177  -1.253  1.00  0.00     0.018 A 
ATOM     16  F   UNL     1      -3.465  -1.175  -1.409  1.00  0.00    -0.206 F 
BRANCH  15  17
ATOM     17  C   UNL     1      -5.185   1.039  -1.088  1.00  0.00    -0.012 A 
ATOM     18  C   UNL     1      -6.087   1.622  -1.992  1.00  0.00     0.009 A 
ATOM     19  C   UNL     1      -5.700   0.277  -0.024  1.00  0.00     0.056 A 
ATOM     20  C   UNL     1      -7.465   1.446  -1.838  1.00  0.00     0.004 A 
ATOM     21  C   UNL     1      -7.070   0.095   0.117  1.00  0.00     0.133 A 
ATOM     22  C   UNL     1      -7.959   0.677  -0.786  1.00  0.00     0.047 A 
BRANCH  21  23
ATOM     23  O   UNL     1      -7.669  -0.627   1.178  1.00  0.00    -0.410 OA
BRANCH  23  24
ATOM     24  C   UNL     1      -7.041  -1.350   2.193  1.00  0.00     0.417 C 
ATOM     25  O   UNL     1      -5.830  -1.549   2.282  1.00  0.00    -0.224 OA
ATOM     26  N   UNL     1      -7.872  -1.727   3.219  1.00  0.00    -0.291 N 
ATOM     27  H   UNL     1      -7.418  -2.082   4.017  1.00  0.00     0.173 HD
BRANCH  26  28
ATOM     28  C   UNL     1      -9.274  -1.681   3.300  1.00  0.00     0.044 A 
ATOM     29  C   UNL     1      -9.851  -1.726   4.577  1.00  0.00     0.026 A 
ATOM     30  C   UNL     1     -10.105  -1.630   2.184  1.00  0.00     0.026 A 
ATOM     31  C   UNL     1     -11.239  -1.681   4.732  1.00  0.00     0.002 A 
ATOM     32  C   UNL     1     -11.488  -1.579   2.343  1.00  0.00     0.002 A 
ATOM     33  C   UNL     1     -12.059  -1.608   3.611  1.00  0.00     0.000 A 
ENDBRANCH  26  28
ENDBRANCH  23  24
ENDBRANCH  21  23
ENDBRANCH  15  17
ENDBRANCH   8  10
ENDBRANCH   6   8
ENDBRANCH   5   6
ENDBRANCH   4   5
ENDBRANCH   3   4
ENDBRANCH   2   3
ENDBRANCH   1   2
BRANCH   1  34
ATOM     34  C   UNL     1       1.214  -2.598  -1.462  1.00  0.00     0.188 C 
BRANCH  34  35
ATOM     35  O   UNL     1       2.560  -3.025  -1.395  1.00  0.00    -0.376 OA
BRANCH  35  36
ATOM     36  C   UNL     1       2.842  -4.221  -0.693  1.00  0.00     0.202 C 
BRANCH  36  37
ATOM     37  C   UNL     1       2.072  -5.488  -1.089  1.00  0.00     0.261 C 
BRANCH  37  38
ATOM     38  O   UNL     1       0.638  -5.404  -1.042  1.00  0.00    -0.460 OA
BRANCH  38  39
ATOM     39  C   UNL     1       0.052  -5.212   0.163  1.00  0.00     0.338 C 
ATOM     40  O   UNL     1       0.617  -5.109   1.238  1.00  0.00    -0.246 OA
BRANCH  39  41
ATOM     41  C   UNL     1      -1.387  -4.940  -0.078  1.00  0.00     0.060 A 
ATOM     42  C   UNL     1      -1.978  -3.819   0.518  1.00  0.00     0.016 A 
ATOM     43  C   UNL     1      -2.145  -5.771  -0.909  1.00  0.00     0.016 A 
ATOM     44  C   UNL     1      -3.331  -3.542   0.296  1.00  0.00     0.010 A 
ATOM     45  C   UNL     1      -3.502  -5.498  -1.119  1.00  0.00     0.010 A 
ATOM     46  C   UNL     1      -4.110  -4.391  -0.506  1.00  0.00    -0.014 A 
BRANCH  46  47
ATOM     47  C   UNL     1      -5.586  -4.225  -0.557  1.00  0.00     0.031 A 
ATOM     48  C   UNL     1      -6.417  -4.891   0.503  1.00  0.00     0.074 A 
ATOM     49  C   UNL     1      -6.198  -3.532  -1.535  1.00  0.00     0.049 A 
ATOM     50  N   UNL     1      -7.716  -4.915   0.648  1.00  0.00    -0.248 NA
ATOM     51  C   UNL     1      -5.679  -5.655   1.522  1.00  0.00     0.031 C 
ATOM     52  C   UNL     1      -5.525  -2.854  -2.637  1.00  0.00     0.029 A 
ATOM     53  N   UNL     1      -7.535  -3.294  -1.760  1.00  0.00    -0.354 N 
ATOM     54  C   UNL     1      -7.956  -5.723   1.752  1.00  0.00     0.074 A 
ATOM     55  C   UNL     1      -6.667  -6.162   2.243  1.00  0.00     0.031 C 
ATOM     56  C   UNL     1      -6.447  -2.256  -3.411  1.00  0.00     0.029 A 
ATOM     57  C   UNL     1      -7.782  -2.547  -2.889  1.00  0.00     0.049 A 
ATOM     58  H   UNL     1      -8.248  -3.627  -1.168  1.00  0.00     0.167 HD
ATOM     59  C   UNL     1      -9.138  -6.080   2.306  1.00  0.00     0.034 A 
ATOM     60  C   UNL     1      -8.947  -2.155  -3.444  1.00  0.00     0.034 A 
ATOM     61  C   UNL     1     -10.426  -5.673   1.815  1.00  0.00     0.049 A 
ATOM     62  C   UNL     1     -10.253  -2.544  -2.790  1.00  0.00     0.074 A 
ATOM     63  C   UNL     1     -11.674  -5.969   2.333  1.00  0.00     0.029 A 
ATOM     64  N   UNL     1     -10.637  -4.901   0.684  1.00  0.00    -0.354 N 
ATOM     65  N   UNL     1     -10.463  -3.220  -1.685  1.00  0.00    -0.248 NA
ATOM     66  C   UNL     1     -11.488  -2.098  -3.455  1.00  0.00     0.031 C 
ATOM     67  C   UNL     1     -12.642  -5.396   1.501  1.00  0.00     0.029 A 
ATOM     68  C   UNL     1     -11.995  -4.707   0.488  1.00  0.00     0.049 A 
ATOM     69  H   UNL     1      -9.926  -4.542   0.105  1.00  0.00     0.167 HD
ATOM     70  C   UNL     1     -11.846  -3.279  -1.525  1.00  0.00     0.074 A 
ATOM     71  C   UNL     1     -12.423  -2.521  -2.614  1.00  0.00     0.031 C 
ATOM     72  C   UNL     1     -12.572  -3.926  -0.578  1.00  0.00     0.034 A 
BRANCH  59  73
ATOM     73  C   UNL     1      -9.084  -6.969   3.518  1.00  0.00     0.023 A 
ATOM     74  C   UNL     1      -8.649  -6.441   4.751  1.00  0.00     0.012 A 
ATOM     75  C   UNL     1      -9.489  -8.316   3.445  1.00  0.00     0.148 A 
ATOM     76  C   UNL     1      -8.583  -7.249   5.884  1.00  0.00     0.002 A 
ATOM     77  C   UNL     1      -9.465  -9.102   4.590  1.00  0.00     0.091 A 
ATOM     78  F   UNL     1      -9.871  -8.806   2.257  1.00  0.00    -0.205 F 
ATOM     79  C   UNL     1      -9.001  -8.575   5.806  1.00  0.00     0.022 A 
BRANCH  77  80
ATOM     80  S   UNL     1     -10.059 -10.797   4.609  1.00  0.00     0.127 S 
ATOM     81  O   UNL     1      -8.809 -11.546   4.738  1.00  0.00    -0.237 OA
ATOM     82  O   UNL     1     -10.904 -10.813   5.803  1.00  0.00    -0.237 OA
ATOM     83  O   UNL     1     -10.776 -10.986   3.356  1.00  0.00    -0.744 OA
ENDBRANCH  77  80
ENDBRANCH  59  73
BRANCH  60  84
ATOM     84  C   UNL     1      -8.944  -1.315  -4.681  1.00  0.00     0.023 A 
ATOM     85  C   UNL     1      -9.422   0.009  -4.621  1.00  0.00     0.012 A 
ATOM     86  C   UNL     1      -8.470  -1.811  -5.911  1.00  0.00     0.148 A 
ATOM     87  C   UNL     1      -9.443   0.818  -5.758  1.00  0.00     0.002 A 
ATOM     88  C   UNL     1      -8.444  -0.985  -7.029  1.00  0.00     0.091 A 
ATOM     89  F   UNL     1      -8.054  -3.084  -5.965  1.00  0.00    -0.205 F 
ATOM     90  C   UNL     1      -8.942   0.326  -6.959  1.00  0.00     0.022 A 
BRANCH  88  91
ATOM     91  S   UNL     1      -7.717  -1.498  -8.590  1.00  0.00     0.127 S 
ATOM     92  O   UNL     1      -8.900  -1.657  -9.432  1.00  0.00    -0.237 OA
ATOM     93  O   UNL     1      -6.875  -0.348  -8.924  1.00  0.00    -0.237 OA
ATOM     94  O   UNL     1      -6.979  -2.719  -8.297  1.00  0.00    -0.744 OA
ENDBRANCH  88  91
ENDBRANCH  60  84
BRANCH  72  95
ATOM     95  C   UNL     1     -14.080  -3.827  -0.647  1.00  0.00     0.023 A 
ATOM     96  C   UNL     1     -14.787  -4.479  -1.675  1.00  0.00     0.012 A 
ATOM     97  C   UNL     1     -14.807  -3.136   0.344  1.00  0.00     0.148 A 
ATOM     98  C   UNL     1     -16.181  -4.409  -1.737  1.00  0.00     0.002 A 
ATOM     99  C   UNL     1     -16.195  -3.098   0.299  1.00  0.00     0.091 A 
ATOM    100  F   UNL     1     -14.135  -2.529   1.326  1.00  0.00    -0.205 F 
ATOM    101  C   UNL     1     -16.885  -3.724  -0.748  1.00  0.00     0.022 A 
BRANCH  99 102
ATOM    102  S   UNL     1     -17.175  -2.288   1.571  1.00  0.00     0.127 S 
ATOM    103  O   UNL     1     -17.757  -1.171   0.829  1.00  0.00    -0.237 OA
ATOM    104  O   UNL     1     -18.125  -3.337   1.942  1.00  0.00    -0.237 OA
ATOM    105  O   UNL     1     -16.242  -1.911   2.624  1.00  0.00    -0.744 OA
ENDBRANCH  99 102
ENDBRANCH  72  95
ENDBRANCH  46  47
ENDBRANCH  39  41
ENDBRANCH  38  39
ENDBRANCH  37  38
ENDBRANCH  36  37
ENDBRANCH  35  36
ENDBRANCH  34  35
ENDBRANCH   1  34
TORSDOF 25
