REMARK SMILES O=C(OCCOCCOCCOC(=O)c1ccc2c(c1)NC1=[NH+]S(=O)(=O)[NH+]=C1N2)c1ccc(-c2c3nc(c(-c4cccc(S(=O)(=O)[O-])c4F)c4ccc([nH]4)c(-c4cccc(S(=O)(=O)[O-])c4F)c4nc(c(-c5cccc(S(=O)(=O)[O-])c5F)c5ccc2[nH]5)C=C4)C=C3)cc1
REMARK SMILES IDX 6 1 5 2 4 3 3 4 2 5 1 6 30 7 31 8 92 9 32 10 91 11 33 12
REMARK SMILES IDX 34 13 35 14 85 15 36 16 90 17 84 18 86 19 37 20 89 21 83 22
REMARK SMILES IDX 82 23 38 25 70 26 50 27 69 28 51 29 54 30 68 31 87 32 52 33
REMARK SMILES IDX 53 34 67 36 88 37 55 38 39 39 40 40 48 41 41 42 43 43 49 44
REMARK SMILES IDX 42 45 44 46 45 47 46 48 47 49 71 50 72 51 80 52 73 53 75 54
REMARK SMILES IDX 81 55 74 56 76 57 77 58 78 59 79 60 56 61 57 62 65 63 58 64
REMARK SMILES IDX 60 65 66 66 59 67 61 68 62 69 63 70 64 71 7 72 8 73 9 74
REMARK SMILES IDX 10 75 11 76 12 77 13 78 14 79 15 80 16 81 20 82 17 83 19 84
REMARK SMILES IDX 18 85 21 86 29 87 22 88 28 90 23 92 27 93 24 94 25 97 26 98
REMARK H PARENT 86 24 54 35 21 89 29 91 23 95 27 96
REMARK Flexibility Score: inf
ROOT
ATOM      1  O   UNL     1       3.101  -1.251  -0.345  1.00  0.00    -0.376 OA
ENDROOT
BRANCH   1   2
ATOM      2  C   UNL     1       4.069  -1.542   0.655  1.00  0.00     0.202 C 
BRANCH   2   3
ATOM      3  C   UNL     1       4.246  -0.472   1.744  1.00  0.00     0.261 C 
BRANCH   3   4
ATOM      4  O   UNL     1       3.590   0.813   1.592  1.00  0.00    -0.460 OA
BRANCH   4   5
ATOM      5  C   UNL     1       3.645   1.690   0.560  1.00  0.00     0.338 C 
ATOM      6  O   UNL     1       2.975   2.717   0.567  1.00  0.00    -0.246 OA
BRANCH   5   7
ATOM      7  C   UNL     1       4.389   1.305  -0.649  1.00  0.00     0.060 A 
ATOM      8  C   UNL     1       3.694   1.387  -1.855  1.00  0.00     0.016 A 
ATOM      9  C   UNL     1       5.680   0.768  -0.601  1.00  0.00     0.016 A 
ATOM     10  C   UNL     1       4.237   0.787  -2.976  1.00  0.00     0.010 A 
ATOM     11  C   UNL     1       6.191   0.107  -1.714  1.00  0.00     0.010 A 
ATOM     12  C   UNL     1       5.449   0.088  -2.894  1.00  0.00    -0.014 A 
BRANCH  12  13
ATOM     13  C   UNL     1       6.039  -0.330  -4.166  1.00  0.00     0.031 A 
ATOM     14  C   UNL     1       6.441   0.849  -4.970  1.00  0.00     0.074 A 
ATOM     15  C   UNL     1       6.277  -1.587  -4.588  1.00  0.00     0.049 A 
ATOM     16  N   UNL     1       5.950   1.247  -6.099  1.00  0.00    -0.248 NA
ATOM     17  C   UNL     1       7.377   1.794  -4.335  1.00  0.00     0.031 C 
ATOM     18  C   UNL     1       6.165  -2.812  -3.798  1.00  0.00     0.029 A 
ATOM     19  N   UNL     1       6.769  -2.031  -5.793  1.00  0.00    -0.354 N 
ATOM     20  C   UNL     1       6.710   2.364  -6.422  1.00  0.00     0.074 A 
ATOM     21  C   UNL     1       7.405   2.777  -5.229  1.00  0.00     0.031 C 
ATOM     22  C   UNL     1       6.712  -3.837  -4.481  1.00  0.00     0.029 A 
ATOM     23  C   UNL     1       7.201  -3.354  -5.759  1.00  0.00     0.049 A 
ATOM     24  H   UNL     1       6.811  -1.469  -6.600  1.00  0.00     0.167 HD
ATOM     25  C   UNL     1       7.012   2.671  -7.708  1.00  0.00     0.034 A 
ATOM     26  C   UNL     1       7.992  -3.993  -6.657  1.00  0.00     0.034 A 
ATOM     27  C   UNL     1       6.202   2.002  -8.675  1.00  0.00     0.049 A 
ATOM     28  C   UNL     1       7.826  -3.322  -7.969  1.00  0.00     0.074 A 
ATOM     29  C   UNL     1       5.021   2.229  -9.341  1.00  0.00     0.029 A 
ATOM     30  N   UNL     1       6.550   0.697  -8.882  1.00  0.00    -0.354 N 
ATOM     31  N   UNL     1       6.709  -3.330  -8.646  1.00  0.00    -0.248 NA
ATOM     32  C   UNL     1       8.839  -2.384  -8.447  1.00  0.00     0.031 C 
ATOM     33  C   UNL     1       4.624   0.978  -9.899  1.00  0.00     0.029 A 
ATOM     34  C   UNL     1       5.578   0.021  -9.568  1.00  0.00     0.049 A 
ATOM     35  H   UNL     1       7.394   0.294  -8.575  1.00  0.00     0.167 HD
ATOM     36  C   UNL     1       6.728  -2.137  -9.341  1.00  0.00     0.074 A 
ATOM     37  C   UNL     1       8.111  -1.686  -9.322  1.00  0.00     0.031 C 
ATOM     38  C   UNL     1       5.592  -1.425  -9.577  1.00  0.00     0.034 A 
BRANCH  25  39
ATOM     39  C   UNL     1       8.365   3.210  -8.062  1.00  0.00     0.023 A 
ATOM     40  C   UNL     1       8.516   4.012  -9.201  1.00  0.00     0.012 A 
ATOM     41  C   UNL     1       9.537   2.761  -7.408  1.00  0.00     0.148 A 
ATOM     42  C   UNL     1       9.789   4.400  -9.635  1.00  0.00     0.002 A 
ATOM     43  C   UNL     1      10.786   3.229  -7.780  1.00  0.00     0.091 A 
ATOM     44  F   UNL     1       9.449   1.785  -6.492  1.00  0.00    -0.205 F 
ATOM     45  C   UNL     1      10.921   4.038  -8.907  1.00  0.00     0.022 A 
BRANCH  43  46
ATOM     46  S   UNL     1      12.233   2.853  -6.788  1.00  0.00     0.127 S 
ATOM     47  O   UNL     1      12.809   1.729  -7.517  1.00  0.00    -0.237 OA
ATOM     48  O   UNL     1      12.991   4.102  -6.866  1.00  0.00    -0.237 OA
ATOM     49  O   UNL     1      11.704   2.565  -5.459  1.00  0.00    -0.744 OA
ENDBRANCH  43  46
ENDBRANCH  25  39
BRANCH  26  50
ATOM     50  C   UNL     1       8.981  -5.083  -6.423  1.00  0.00     0.023 A 
ATOM     51  C   UNL     1       9.540  -5.774  -7.518  1.00  0.00     0.012 A 
ATOM     52  C   UNL     1       9.559  -5.316  -5.152  1.00  0.00     0.148 A 
ATOM     53  C   UNL     1      10.639  -6.632  -7.357  1.00  0.00     0.002 A 
ATOM     54  C   UNL     1      10.625  -6.197  -4.990  1.00  0.00     0.091 A 
ATOM     55  F   UNL     1       9.143  -4.608  -4.095  1.00  0.00    -0.205 F 
ATOM     56  C   UNL     1      11.181  -6.846  -6.093  1.00  0.00     0.022 A 
BRANCH  54  57
ATOM     57  S   UNL     1      11.317  -6.504  -3.358  1.00  0.00     0.127 S 
ATOM     58  O   UNL     1      11.801  -7.881  -3.469  1.00  0.00    -0.237 OA
ATOM     59  O   UNL     1      12.365  -5.493  -3.272  1.00  0.00    -0.237 OA
ATOM     60  O   UNL     1      10.193  -6.348  -2.440  1.00  0.00    -0.744 OA
ENDBRANCH  54  57
ENDBRANCH  26  50
BRANCH  38  61
ATOM     61  C   UNL     1       4.280  -2.142  -9.621  1.00  0.00     0.023 A 
ATOM     62  C   UNL     1       3.687  -2.707  -8.479  1.00  0.00     0.012 A 
ATOM     63  C   UNL     1       3.562  -2.125 -10.830  1.00  0.00     0.148 A 
ATOM     64  C   UNL     1       2.396  -3.242  -8.547  1.00  0.00     0.002 A 
ATOM     65  C   UNL     1       2.263  -2.612 -10.879  1.00  0.00     0.091 A 
ATOM     66  F   UNL     1       4.158  -1.597 -11.910  1.00  0.00    -0.205 F 
ATOM     67  C   UNL     1       1.676  -3.175  -9.738  1.00  0.00     0.022 A 
BRANCH  65  68
ATOM     68  S   UNL     1       1.248  -2.449 -12.350  1.00  0.00     0.127 S 
ATOM     69  O   UNL     1       1.149  -3.832 -12.811  1.00  0.00    -0.237 OA
ATOM     70  O   UNL     1       0.007  -1.890 -11.812  1.00  0.00    -0.237 OA
ATOM     71  O   UNL     1       1.971  -1.545 -13.237  1.00  0.00    -0.744 OA
ENDBRANCH  65  68
ENDBRANCH  38  61
ENDBRANCH  12  13
ENDBRANCH   5   7
ENDBRANCH   4   5
ENDBRANCH   3   4
ENDBRANCH   2   3
ENDBRANCH   1   2
BRANCH   1  72
ATOM     72  C   UNL     1       1.763  -1.299   0.117  1.00  0.00     0.188 C 
BRANCH  72  73
ATOM     73  C   UNL     1       0.873  -2.230  -0.713  1.00  0.00     0.188 C 
BRANCH  73  74
ATOM     74  O   UNL     1       1.368  -3.522  -1.030  1.00  0.00    -0.376 OA
BRANCH  74  75
ATOM     75  C   UNL     1       2.560  -3.616  -1.801  1.00  0.00     0.202 C 
BRANCH  75  76
ATOM     76  C   UNL     1       2.752  -2.805  -3.095  1.00  0.00     0.261 C 
BRANCH  76  77
ATOM     77  O   UNL     1       1.868  -1.715  -3.371  1.00  0.00    -0.460 OA
BRANCH  77  78
ATOM     78  C   UNL     1       1.603  -1.556  -4.692  1.00  0.00     0.338 C 
ATOM     79  O   UNL     1       1.646  -2.424  -5.545  1.00  0.00    -0.246 OA
BRANCH  78  80
ATOM     80  C   UNL     1       1.424  -0.119  -5.006  1.00  0.00     0.064 A 
ATOM     81  C   UNL     1       2.019   0.369  -6.178  1.00  0.00     0.020 A 
ATOM     82  C   UNL     1       0.754   0.754  -4.141  1.00  0.00     0.072 A 
ATOM     83  C   UNL     1       1.949   1.727  -6.494  1.00  0.00     0.057 A 
ATOM     84  C   UNL     1       0.676   2.119  -4.451  1.00  0.00     0.173 A 
ATOM     85  C   UNL     1       1.272   2.609  -5.649  1.00  0.00     0.172 A 
ATOM     86  N   UNL     1       0.013   3.010  -3.583  1.00  0.00    -0.229 N 
ATOM     87  N   UNL     1       1.185   3.977  -5.974  1.00  0.00    -0.229 N 
ATOM     88  C   UNL     1      -0.093   4.342  -3.878  1.00  0.00     0.383 C 
ATOM     89  H   UNL     1      -0.382   2.668  -2.749  1.00  0.00     0.313 HD
ATOM     90  C   UNL     1       0.530   4.861  -5.164  1.00  0.00     0.383 C 
ATOM     91  H   UNL     1       1.606   4.303  -6.802  1.00  0.00     0.313 HD
ATOM     92  N   UNL     1      -0.675   5.267  -3.200  1.00  0.00    -0.122 N 
ATOM     93  N   UNL     1       0.346   6.123  -5.328  1.00  0.00    -0.122 N 
ATOM     94  S   UNL     1      -0.502   6.661  -4.039  1.00  0.00     0.469 S 
ATOM     95  H   UNL     1      -1.138   5.157  -2.338  1.00  0.00     0.331 HD
ATOM     96  H   UNL     1       0.659   6.665  -6.088  1.00  0.00     0.331 HD
ATOM     97  O   UNL     1      -1.810   7.085  -4.489  1.00  0.00    -0.143 OA
ATOM     98  O   UNL     1       0.338   7.558  -3.272  1.00  0.00    -0.143 OA
ENDBRANCH  78  80
ENDBRANCH  77  78
ENDBRANCH  76  77
ENDBRANCH  75  76
ENDBRANCH  74  75
ENDBRANCH  73  74
ENDBRANCH  72  73
ENDBRANCH   1  72
TORSDOF 20
