REMARK SMILES CC(C)(C)OC(=O)N1CC[N@H+](Cc2ccc(Cl)nc2)[C@H](C(=O)OCCOCCOCCOC(=O)c2ccc(-c3c4nc(c(-c5cccc(S(=O)(=O)[O-])c5F)c5ccc([nH]5)c(-c5cccc(S(=O)(=O)[O-])c5F)c5nc(c(-c6cccc(S(=O)(=O)[O-])c6F)c6ccc3[nH]6)C=C5)C=C4)cc2)C1
REMARK SMILES IDX 27 1 26 2 25 3 24 4 23 5 21 6 22 7 20 8 8 9 9 10 98 11 10 12
REMARK SMILES IDX 11 13 6 15 7 16 5 17 2 18 1 19 3 20 4 21 12 22 13 23 14 24
REMARK SMILES IDX 19 25 15 26 18 27 16 28 17 29 28 30 29 31 30 32 31 33 32 34
REMARK SMILES IDX 33 35 34 36 35 37 36 38 97 39 37 40 96 41 38 42 39 43 40 44
REMARK SMILES IDX 90 45 41 46 95 47 89 48 91 49 42 50 94 51 88 52 87 53 43 55
REMARK SMILES IDX 75 56 55 57 74 58 56 59 59 60 73 61 92 62 57 63 58 64 72 66
REMARK SMILES IDX 93 67 60 68 44 69 45 70 53 71 46 72 48 73 54 74 47 75 49 76
REMARK SMILES IDX 50 77 51 78 52 79 76 80 77 81 85 82 78 83 80 84 86 85 79 86
REMARK SMILES IDX 81 87 82 88 83 89 84 90 61 91 62 92 70 93 63 94 65 95 71 96
REMARK SMILES IDX 64 97 66 98 67 99 68 100 69 101
REMARK H PARENT 11 14 91 54 59 65
REMARK Flexibility Score: inf
ROOT
ATOM      1  C   UNL     1       5.428  -7.502  -3.121  1.00  0.00     0.188 C 
ENDROOT
BRANCH   1   2
ATOM      2  O   UNL     1       6.338  -6.832  -3.981  1.00  0.00    -0.376 OA
BRANCH   2   3
ATOM      3  C   UNL     1       6.678  -5.483  -3.718  1.00  0.00     0.202 C 
BRANCH   3   4
ATOM      4  C   UNL     1       5.566  -4.428  -3.808  1.00  0.00     0.261 C 
BRANCH   4   5
ATOM      5  O   UNL     1       4.429  -4.571  -2.917  1.00  0.00    -0.459 OA
BRANCH   5   6
ATOM      6  C   UNL     1       3.283  -5.040  -3.491  1.00  0.00     0.366 C 
ATOM      7  O   UNL     1       3.228  -5.435  -4.652  1.00  0.00    -0.245 OA
BRANCH   6   8
ATOM      8  C   UNL     1       2.028  -4.936  -2.605  1.00  0.00     0.315 C 
ATOM      9  N   UNL     1       0.725  -4.080  -0.673  1.00  0.00    -0.296 N 
ATOM     10  C   UNL     1      -0.388  -4.945  -1.069  1.00  0.00     0.184 C 
ATOM     11  C   UNL     1       2.080  -4.235  -1.253  1.00  0.00     0.200 C 
ATOM     12  C   UNL     1      -0.187  -5.791  -2.332  1.00  0.00     0.285 C 
ATOM     13  N   UNL     1       1.203  -6.182  -2.572  1.00  0.00    -0.316 N 
ATOM     14  H   UNL     1       1.346  -6.600  -3.491  1.00  0.00     0.349 HD
BRANCH   9  15
ATOM     15  C   UNL     1       0.466  -3.258   0.399  1.00  0.00     0.410 C 
ATOM     16  O   UNL     1      -0.362  -3.513   1.256  1.00  0.00    -0.224 OA
BRANCH  15  17
ATOM     17  O   UNL     1       1.079  -2.061   0.234  1.00  0.00    -0.444 OA
BRANCH  17  18
ATOM     18  C   UNL     1       0.499  -0.907   0.886  1.00  0.00     0.106 C 
ATOM     19  C   UNL     1       1.093   0.289   0.131  1.00  0.00     0.056 C 
ATOM     20  C   UNL     1       0.935  -0.875   2.349  1.00  0.00     0.056 C 
ATOM     21  C   UNL     1      -1.034  -0.829   0.736  1.00  0.00     0.056 C 
ENDBRANCH  17  18
ENDBRANCH  15  17
ENDBRANCH   9  15
BRANCH  13  22
ATOM     22  C   UNL     1       1.633  -7.349  -1.787  1.00  0.00     0.301 C 
BRANCH  22  23
ATOM     23  C   UNL     1       1.484  -7.396  -0.272  1.00  0.00     0.025 A 
ATOM     24  C   UNL     1       0.281  -7.750   0.356  1.00  0.00     0.014 A 
ATOM     25  C   UNL     1       2.550  -7.147   0.590  1.00  0.00     0.122 A 
ATOM     26  C   UNL     1       0.172  -7.716   1.751  1.00  0.00     0.041 A 
ATOM     27  N   UNL     1       2.496  -7.140   1.941  1.00  0.00    -0.244 NA
ATOM     28  C   UNL     1       1.298  -7.401   2.486  1.00  0.00     0.129 A 
ATOM     29  Cl  UNL     1       1.254  -7.294   4.196  1.00  0.00    -0.062 Cl
ENDBRANCH  22  23
ENDBRANCH  13  22
ENDBRANCH   6   8
ENDBRANCH   5   6
ENDBRANCH   4   5
ENDBRANCH   3   4
ENDBRANCH   2   3
ENDBRANCH   1   2
BRANCH   1  30
ATOM     30  C   UNL     1       5.370  -7.084  -1.648  1.00  0.00     0.188 C 
BRANCH  30  31
ATOM     31  O   UNL     1       6.610  -6.625  -1.143  1.00  0.00    -0.376 OA
BRANCH  31  32
ATOM     32  C   UNL     1       7.044  -7.246   0.055  1.00  0.00     0.202 C 
BRANCH  32  33
ATOM     33  C   UNL     1       7.530  -8.685  -0.160  1.00  0.00     0.261 C 
BRANCH  33  34
ATOM     34  O   UNL     1       6.580  -9.530  -0.847  1.00  0.00    -0.460 OA
BRANCH  34  35
ATOM     35  C   UNL     1       5.775 -10.306  -0.086  1.00  0.00     0.338 C 
ATOM     36  O   UNL     1       5.769 -10.374   1.130  1.00  0.00    -0.246 OA
BRANCH  35  37
ATOM     37  C   UNL     1       4.791 -10.992  -0.955  1.00  0.00     0.060 A 
ATOM     38  C   UNL     1       3.581 -10.354  -1.237  1.00  0.00     0.016 A 
ATOM     39  C   UNL     1       4.995 -12.297  -1.394  1.00  0.00     0.016 A 
ATOM     40  C   UNL     1       2.571 -11.001  -1.951  1.00  0.00     0.010 A 
ATOM     41  C   UNL     1       3.978 -12.953  -2.109  1.00  0.00     0.010 A 
ATOM     42  C   UNL     1       2.748 -12.319  -2.377  1.00  0.00    -0.014 A 
BRANCH  42  43
ATOM     43  C   UNL     1       1.606 -13.077  -2.961  1.00  0.00     0.031 A 
ATOM     44  C   UNL     1       0.981 -14.185  -2.157  1.00  0.00     0.074 A 
ATOM     45  C   UNL     1       1.105 -12.788  -4.177  1.00  0.00     0.049 A 
ATOM     46  N   UNL     1       0.121 -15.098  -2.525  1.00  0.00    -0.248 NA
ATOM     47  C   UNL     1       1.382 -14.268  -0.744  1.00  0.00     0.031 C 
ATOM     48  C   UNL     1       1.536 -11.685  -5.033  1.00  0.00     0.029 A 
ATOM     49  N   UNL     1       0.136 -13.429  -4.917  1.00  0.00    -0.354 N 
ATOM     50  C   UNL     1      -0.062 -15.914  -1.415  1.00  0.00     0.074 A 
ATOM     51  C   UNL     1       0.755 -15.367  -0.352  1.00  0.00     0.031 C 
ATOM     52  C   UNL     1       0.867 -11.748  -6.196  1.00  0.00     0.029 A 
ATOM     53  C   UNL     1       0.013 -12.934  -6.195  1.00  0.00     0.049 A 
ATOM     54  H   UNL     1      -0.413 -14.166  -4.566  1.00  0.00     0.167 HD
ATOM     55  C   UNL     1      -0.832 -17.022  -1.293  1.00  0.00     0.034 A 
ATOM     56  C   UNL     1      -0.655 -13.416  -7.264  1.00  0.00     0.034 A 
ATOM     57  C   UNL     1      -1.670 -17.545  -2.339  1.00  0.00     0.049 A 
ATOM     58  C   UNL     1      -1.455 -14.687  -7.131  1.00  0.00     0.074 A 
ATOM     59  C   UNL     1      -2.503 -18.649  -2.302  1.00  0.00     0.029 A 
ATOM     60  N   UNL     1      -1.772 -17.011  -3.614  1.00  0.00    -0.354 N 
ATOM     61  N   UNL     1      -1.644 -15.437  -6.073  1.00  0.00    -0.248 NA
ATOM     62  C   UNL     1      -2.145 -15.169  -8.338  1.00  0.00     0.031 C 
ATOM     63  C   UNL     1      -3.076 -18.807  -3.569  1.00  0.00     0.029 A 
ATOM     64  C   UNL     1      -2.639 -17.772  -4.380  1.00  0.00     0.049 A 
ATOM     65  H   UNL     1      -1.298 -16.208  -3.929  1.00  0.00     0.167 HD
ATOM     66  C   UNL     1      -2.497 -16.461  -6.476  1.00  0.00     0.074 A 
ATOM     67  C   UNL     1      -2.802 -16.224  -7.872  1.00  0.00     0.031 C 
ATOM     68  C   UNL     1      -2.975 -17.506  -5.757  1.00  0.00     0.034 A 
BRANCH  55  69
ATOM     69  C   UNL     1      -0.764 -17.769   0.014  1.00  0.00     0.023 A 
ATOM     70  C   UNL     1      -1.336 -17.224   1.181  1.00  0.00     0.012 A 
ATOM     71  C   UNL     1      -0.134 -19.028   0.078  1.00  0.00     0.148 A 
ATOM     72  C   UNL     1      -1.236 -17.895   2.400  1.00  0.00     0.002 A 
ATOM     73  C   UNL     1      -0.083 -19.714   1.284  1.00  0.00     0.091 A 
ATOM     74  F   UNL     1       0.423 -19.521  -1.037  1.00  0.00    -0.205 F 
ATOM     75  C   UNL     1      -0.617 -19.142   2.450  1.00  0.00     0.022 A 
BRANCH  73  76
ATOM     76  S   UNL     1       0.619 -21.360   1.427  1.00  0.00     0.127 S 
ATOM     77  O   UNL     1       1.864 -21.089   2.145  1.00  0.00    -0.237 OA
ATOM     78  O   UNL     1      -0.397 -22.061   2.213  1.00  0.00    -0.237 OA
ATOM     79  O   UNL     1       0.775 -21.850   0.065  1.00  0.00    -0.744 OA
ENDBRANCH  73  76
ENDBRANCH  55  69
BRANCH  56  80
ATOM     80  C   UNL     1      -0.569 -12.705  -8.573  1.00  0.00     0.023 A 
ATOM     81  C   UNL     1      -1.705 -12.061  -9.098  1.00  0.00     0.012 A 
ATOM     82  C   UNL     1       0.645 -12.647  -9.288  1.00  0.00     0.148 A 
ATOM     83  C   UNL     1      -1.639 -11.387 -10.318  1.00  0.00     0.002 A 
ATOM     84  C   UNL     1       0.718 -11.925 -10.472  1.00  0.00     0.091 A 
ATOM     85  F   UNL     1       1.709 -13.285  -8.781  1.00  0.00    -0.205 F 
ATOM     86  C   UNL     1      -0.427 -11.308 -10.998  1.00  0.00     0.022 A 
BRANCH  84  87
ATOM     87  S   UNL     1       2.261 -11.666 -11.354  1.00  0.00     0.127 S 
ATOM     88  O   UNL     1       2.005 -12.357 -12.616  1.00  0.00    -0.237 OA
ATOM     89  O   UNL     1       2.307 -10.207 -11.449  1.00  0.00    -0.237 OA
ATOM     90  O   UNL     1       3.300 -12.252 -10.519  1.00  0.00    -0.744 OA
ENDBRANCH  84  87
ENDBRANCH  56  80
BRANCH  68  91
ATOM     91  C   UNL     1      -3.925 -18.459  -6.439  1.00  0.00     0.023 A 
ATOM     92  C   UNL     1      -3.452 -19.355  -7.418  1.00  0.00     0.012 A 
ATOM     93  C   UNL     1      -5.279 -18.519  -6.048  1.00  0.00     0.148 A 
ATOM     94  C   UNL     1      -4.315 -20.273  -8.018  1.00  0.00     0.002 A 
ATOM     95  C   UNL     1      -6.121 -19.471  -6.611  1.00  0.00     0.091 A 
ATOM     96  F   UNL     1      -5.716 -17.647  -5.128  1.00  0.00    -0.205 F 
ATOM     97  C   UNL     1      -5.644 -20.339  -7.606  1.00  0.00     0.022 A 
BRANCH  95  98
ATOM     98  S   UNL     1      -7.819 -19.696  -6.071  1.00  0.00     0.127 S 
ATOM     99  O   UNL     1      -8.567 -19.202  -7.226  1.00  0.00    -0.237 OA
ATOM    100  O   UNL     1      -7.891 -21.144  -5.871  1.00  0.00    -0.237 OA
ATOM    101  O   UNL     1      -7.963 -18.910  -4.853  1.00  0.00    -0.744 OA
ENDBRANCH  95  98
ENDBRANCH  68  91
ENDBRANCH  42  43
ENDBRANCH  35  37
ENDBRANCH  34  35
ENDBRANCH  33  34
ENDBRANCH  32  33
ENDBRANCH  31  32
ENDBRANCH  30  31
ENDBRANCH   1  30
TORSDOF 25
