REMARK SMILES CC(C)n1c(CCC(=O)OCCOCCOCCOC(=O)c2ccc(-c3c4nc(c(-c5cccc(S(=O)(=O)[O-])c5F)c5ccc([nH]5)c(-c5cccc(S(=O)(=O)[O-])c5F)c5nc(c(-c6cccc(S(=O)(=O)[O-])c6F)c6ccc3[nH]6)C=C5)C=C4)cc2)ccc1-c1ccc(F)cc1
REMARK SMILES IDX 14 1 13 2 12 3 11 4 10 5 8 6 9 7 7 8 6 9 5 10 4 11 87 12
REMARK SMILES IDX 85 13 86 14 2 15 1 16 3 17 88 18 89 19 94 20 90 21 93 22
REMARK SMILES IDX 91 23 92 24 15 25 16 26 17 27 18 28 19 29 20 30 21 31 22 32
REMARK SMILES IDX 23 33 84 34 24 35 83 36 25 37 26 38 27 39 77 40 28 41 82 42
REMARK SMILES IDX 76 43 78 44 29 45 81 46 75 47 74 48 30 50 62 51 42 52 61 53
REMARK SMILES IDX 43 54 46 55 60 56 79 57 44 58 45 59 59 61 80 62 47 63 31 64
REMARK SMILES IDX 32 65 40 66 33 67 35 68 41 69 34 70 36 71 37 72 38 73 39 74
REMARK SMILES IDX 63 75 64 76 72 77 65 78 67 79 73 80 66 81 68 82 69 83 70 84
REMARK SMILES IDX 71 85 48 86 49 87 57 88 50 89 52 90 58 91 51 92 53 93 54 94
REMARK SMILES IDX 55 95 56 96
REMARK H PARENT 78 49 46 60
REMARK Flexibility Score: inf
ROOT
ATOM      1  C   UNL     1       3.245  -3.571  -0.654  1.00  0.00     0.188 C 
ENDROOT
BRANCH   1   2
ATOM      2  O   UNL     1       3.970  -2.695  -1.516  1.00  0.00    -0.376 OA
BRANCH   2   3
ATOM      3  C   UNL     1       3.246  -1.563  -1.994  1.00  0.00     0.202 C 
BRANCH   3   4
ATOM      4  C   UNL     1       2.316  -1.884  -3.175  1.00  0.00     0.261 C 
BRANCH   4   5
ATOM      5  O   UNL     1       0.945  -2.154  -2.786  1.00  0.00    -0.463 OA
BRANCH   5   6
ATOM      6  C   UNL     1       0.428  -3.383  -3.025  1.00  0.00     0.306 C 
ATOM      7  O   UNL     1       1.087  -4.338  -3.421  1.00  0.00    -0.252 OA
BRANCH   6   8
ATOM      8  C   UNL     1      -1.095  -3.419  -2.938  1.00  0.00     0.129 C 
BRANCH   8   9
ATOM      9  C   UNL     1      -1.828  -3.178  -1.614  1.00  0.00     0.066 C 
BRANCH   9  10
ATOM     10  C   UNL     1      -2.429  -1.797  -1.378  1.00  0.00     0.019 A 
ATOM     11  N   UNL     1      -1.782  -0.592  -1.073  1.00  0.00    -0.342 N 
ATOM     12  C   UNL     1      -2.715   0.445  -1.141  1.00  0.00     0.048 A 
ATOM     13  C   UNL     1      -3.788  -1.527  -1.282  1.00  0.00     0.024 A 
ATOM     14  C   UNL     1      -3.964  -0.140  -1.120  1.00  0.00     0.029 A 
BRANCH  11  15
ATOM     15  C   UNL     1      -0.360  -0.423  -0.774  1.00  0.00     0.081 C 
ATOM     16  C   UNL     1       0.135   0.820   0.001  1.00  0.00     0.031 C 
ATOM     17  C   UNL     1       0.175  -1.562   0.062  1.00  0.00     0.031 C 
ENDBRANCH  11  15
BRANCH  12  18
ATOM     18  C   UNL     1      -2.370   1.865  -1.143  1.00  0.00    -0.002 A 
ATOM     19  C   UNL     1      -2.502   2.626   0.029  1.00  0.00     0.013 A 
ATOM     20  C   UNL     1      -1.715   2.413  -2.259  1.00  0.00     0.013 A 
ATOM     21  C   UNL     1      -1.885   3.877   0.119  1.00  0.00     0.040 A 
ATOM     22  C   UNL     1      -1.104   3.666  -2.166  1.00  0.00     0.040 A 
ATOM     23  C   UNL     1      -1.174   4.373  -0.970  1.00  0.00     0.123 A 
ATOM     24  F   UNL     1      -0.507   5.529  -0.851  1.00  0.00    -0.207 F 
ENDBRANCH  12  18
ENDBRANCH   9  10
ENDBRANCH   8   9
ENDBRANCH   6   8
ENDBRANCH   5   6
ENDBRANCH   4   5
ENDBRANCH   3   4
ENDBRANCH   2   3
ENDBRANCH   1   2
BRANCH   1  25
ATOM     25  C   UNL     1       3.505  -3.272   0.825  1.00  0.00     0.188 C 
BRANCH  25  26
ATOM     26  O   UNL     1       2.729  -2.158   1.232  1.00  0.00    -0.376 OA
BRANCH  26  27
ATOM     27  C   UNL     1       3.384  -0.995   1.721  1.00  0.00     0.202 C 
BRANCH  27  28
ATOM     28  C   UNL     1       2.818  -0.606   3.090  1.00  0.00     0.261 C 
BRANCH  28  29
ATOM     29  O   UNL     1       2.808  -1.743   3.929  1.00  0.00    -0.460 OA
BRANCH  29  30
ATOM     30  C   UNL     1       1.870  -2.686   3.703  1.00  0.00     0.338 C 
ATOM     31  O   UNL     1       0.741  -2.532   3.226  1.00  0.00    -0.246 OA
BRANCH  30  32
ATOM     32  C   UNL     1       2.423  -3.940   4.214  1.00  0.00     0.060 A 
ATOM     33  C   UNL     1       1.580  -5.024   4.481  1.00  0.00     0.016 A 
ATOM     34  C   UNL     1       3.725  -3.879   4.705  1.00  0.00     0.016 A 
ATOM     35  C   UNL     1       1.974  -5.925   5.451  1.00  0.00     0.010 A 
ATOM     36  C   UNL     1       3.988  -4.601   5.821  1.00  0.00     0.010 A 
ATOM     37  C   UNL     1       3.134  -5.637   6.176  1.00  0.00    -0.014 A 
BRANCH  37  38
ATOM     38  C   UNL     1       3.575  -6.465   7.292  1.00  0.00     0.031 A 
ATOM     39  C   UNL     1       4.659  -7.442   6.802  1.00  0.00     0.074 A 
ATOM     40  C   UNL     1       2.959  -6.189   8.483  1.00  0.00     0.049 A 
ATOM     41  N   UNL     1       4.787  -8.711   7.045  1.00  0.00    -0.248 NA
ATOM     42  C   UNL     1       5.621  -7.023   5.734  1.00  0.00     0.031 C 
ATOM     43  C   UNL     1       1.957  -5.112   8.701  1.00  0.00     0.029 A 
ATOM     44  N   UNL     1       3.045  -6.719   9.749  1.00  0.00    -0.354 N 
ATOM     45  C   UNL     1       5.974  -9.114   6.392  1.00  0.00     0.074 A 
ATOM     46  C   UNL     1       6.248  -8.145   5.389  1.00  0.00     0.031 C 
ATOM     47  C   UNL     1       1.474  -5.140   9.963  1.00  0.00     0.029 A 
ATOM     48  C   UNL     1       2.141  -6.192  10.706  1.00  0.00     0.049 A 
ATOM     49  H   UNL     1       3.696  -7.422   9.977  1.00  0.00     0.167 HD
ATOM     50  C   UNL     1       6.846 -10.016   6.926  1.00  0.00     0.034 A 
ATOM     51  C   UNL     1       1.929  -6.605  11.995  1.00  0.00     0.034 A 
ATOM     52  C   UNL     1       6.364 -10.399   8.214  1.00  0.00     0.049 A 
ATOM     53  C   UNL     1       2.994  -7.582  12.263  1.00  0.00     0.074 A 
ATOM     54  C   UNL     1       5.264 -11.113   8.610  1.00  0.00     0.029 A 
ATOM     55  N   UNL     1       6.817  -9.614   9.255  1.00  0.00    -0.354 N 
ATOM     56  N   UNL     1       4.247  -7.276  12.434  1.00  0.00    -0.248 NA
ATOM     57  C   UNL     1       2.678  -9.013  12.179  1.00  0.00     0.031 C 
ATOM     58  C   UNL     1       4.824 -10.410   9.748  1.00  0.00     0.029 A 
ATOM     59  C   UNL     1       5.796  -9.486  10.157  1.00  0.00     0.049 A 
ATOM     60  H   UNL     1       7.715  -9.217   9.334  1.00  0.00     0.167 HD
ATOM     61  C   UNL     1       4.871  -8.446  12.078  1.00  0.00     0.074 A 
ATOM     62  C   UNL     1       3.908  -9.505  12.291  1.00  0.00     0.031 C 
ATOM     63  C   UNL     1       5.846  -8.416  11.127  1.00  0.00     0.034 A 
BRANCH  50  64
ATOM     64  C   UNL     1       8.279 -10.369   6.615  1.00  0.00     0.023 A 
ATOM     65  C   UNL     1       8.727 -11.575   7.220  1.00  0.00     0.012 A 
ATOM     66  C   UNL     1       9.257  -9.528   6.054  1.00  0.00     0.148 A 
ATOM     67  C   UNL     1      10.078 -11.870   7.383  1.00  0.00     0.002 A 
ATOM     68  C   UNL     1      10.608  -9.864   6.159  1.00  0.00     0.091 A 
ATOM     69  F   UNL     1       8.907  -8.363   5.506  1.00  0.00    -0.205 F 
ATOM     70  C   UNL     1      11.021 -11.005   6.859  1.00  0.00     0.022 A 
BRANCH  68  71
ATOM     71  S   UNL     1      11.912  -8.871   5.419  1.00  0.00     0.127 S 
ATOM     72  O   UNL     1      12.488  -8.209   6.585  1.00  0.00    -0.237 OA
ATOM     73  O   UNL     1      12.768  -9.899   4.820  1.00  0.00    -0.237 OA
ATOM     74  O   UNL     1      11.250  -8.015   4.444  1.00  0.00    -0.744 OA
ENDBRANCH  68  71
ENDBRANCH  50  64
BRANCH  51  75
ATOM     75  C   UNL     1       0.889  -6.405  13.073  1.00  0.00     0.023 A 
ATOM     76  C   UNL     1      -0.036  -5.354  13.107  1.00  0.00     0.012 A 
ATOM     77  C   UNL     1       0.749  -7.384  14.104  1.00  0.00     0.148 A 
ATOM     78  C   UNL     1      -1.092  -5.340  14.045  1.00  0.00     0.002 A 
ATOM     79  C   UNL     1      -0.360  -7.443  14.936  1.00  0.00     0.091 A 
ATOM     80  F   UNL     1       1.730  -8.264  14.325  1.00  0.00    -0.205 F 
ATOM     81  C   UNL     1      -1.285  -6.407  14.924  1.00  0.00     0.022 A 
BRANCH  79  82
ATOM     82  S   UNL     1      -0.721  -8.912  15.921  1.00  0.00     0.127 S 
ATOM     83  O   UNL     1      -0.817  -8.366  17.273  1.00  0.00    -0.237 OA
ATOM     84  O   UNL     1      -1.992  -9.348  15.340  1.00  0.00    -0.237 OA
ATOM     85  O   UNL     1       0.385  -9.836  15.702  1.00  0.00    -0.744 OA
ENDBRANCH  79  82
ENDBRANCH  51  75
BRANCH  63  86
ATOM     86  C   UNL     1       6.634  -7.106  11.059  1.00  0.00     0.023 A 
ATOM     87  C   UNL     1       7.245  -6.682  12.261  1.00  0.00     0.012 A 
ATOM     88  C   UNL     1       6.717  -6.223   9.955  1.00  0.00     0.148 A 
ATOM     89  C   UNL     1       7.869  -5.438  12.383  1.00  0.00     0.002 A 
ATOM     90  C   UNL     1       7.337  -4.968  10.080  1.00  0.00     0.091 A 
ATOM     91  F   UNL     1       6.184  -6.601   8.792  1.00  0.00    -0.205 F 
ATOM     92  C   UNL     1       7.911  -4.579  11.296  1.00  0.00     0.022 A 
BRANCH  90  93
ATOM     93  S   UNL     1       7.427  -3.733   8.767  1.00  0.00     0.127 S 
ATOM     94  O   UNL     1       6.734  -2.587   9.360  1.00  0.00    -0.237 OA
ATOM     95  O   UNL     1       8.867  -3.543   8.611  1.00  0.00    -0.237 OA
ATOM     96  O   UNL     1       6.755  -4.316   7.616  1.00  0.00    -0.744 OA
ENDBRANCH  90  93
ENDBRANCH  63  86
ENDBRANCH  37  38
ENDBRANCH  30  32
ENDBRANCH  29  30
ENDBRANCH  28  29
ENDBRANCH  27  28
ENDBRANCH  26  27
ENDBRANCH  25  26
ENDBRANCH   1  25
TORSDOF 24
