REMARK SMILES COc1cccc([C@H](CC(=O)OCCOCCOCCOC(=O)c2ccc(-c3c4nc(c(-c5cccc(S(=O)(=O)[O-])c5F)c5ccc([nH]5)c(-c5cccc(S(=O)(=O)[O-])c5F)c5nc(c(-c6cccc(S(=O)(=O)[O-])c6F)c6ccc3[nH]6)C=C5)C=C4)cc2)NS(=O)(=O)c2ccc3c(c2)C[C@@H](C)N3C(C)=O)c1
REMARK SMILES IDX 16 1 15 2 14 3 13 4 12 5 10 6 11 7 9 8 8 9 7 10 3 11 4 12
REMARK SMILES IDX 104 13 5 14 6 15 2 16 1 17 87 18 88 20 89 21 90 22 91 23
REMARK SMILES IDX 92 24 96 25 93 26 95 27 94 28 97 29 100 30 98 31 99 32
REMARK SMILES IDX 101 33 102 34 103 35 17 36 18 37 19 38 20 39 21 40 22 41
REMARK SMILES IDX 23 42 24 43 25 44 86 45 26 46 85 47 27 48 28 49 29 50 79 51
REMARK SMILES IDX 30 52 84 53 78 54 80 55 31 56 83 57 77 58 76 59 32 61 64 62
REMARK SMILES IDX 44 63 63 64 45 65 48 66 62 67 81 68 46 69 47 70 61 72 82 73
REMARK SMILES IDX 49 74 33 75 34 76 42 77 35 78 37 79 43 80 36 81 38 82 39 83
REMARK SMILES IDX 40 84 41 85 65 86 66 87 74 88 67 89 69 90 75 91 68 92 70 93
REMARK SMILES IDX 71 94 72 95 73 96 50 97 51 98 59 99 52 100 54 101 60 102
REMARK SMILES IDX 53 103 55 104 56 105 57 106 58 107
REMARK H PARENT 87 19 80 60 48 71
REMARK Flexibility Score: inf
ROOT
ATOM      1  C   UNL     1       0.840  -0.393  -6.576  1.00  0.00     0.188 C 
ENDROOT
BRANCH   1   2
ATOM      2  O   UNL     1      -0.137   0.638  -6.590  1.00  0.00    -0.376 OA
BRANCH   2   3
ATOM      3  C   UNL     1       0.306   1.929  -6.191  1.00  0.00     0.202 C 
BRANCH   3   4
ATOM      4  C   UNL     1       0.846   2.032  -4.758  1.00  0.00     0.261 C 
BRANCH   4   5
ATOM      5  O   UNL     1       2.006   1.193  -4.517  1.00  0.00    -0.463 OA
BRANCH   5   6
ATOM      6  C   UNL     1       1.990   0.511  -3.344  1.00  0.00     0.307 C 
ATOM      7  O   UNL     1       1.155   0.706  -2.462  1.00  0.00    -0.252 OA
BRANCH   6   8
ATOM      8  C   UNL     1       2.945  -0.663  -3.242  1.00  0.00     0.147 C 
BRANCH   8   9
ATOM      9  C   UNL     1       4.350  -0.779  -3.885  1.00  0.00     0.111 C 
BRANCH   9  10
ATOM     10  C   UNL     1       4.705  -2.241  -4.200  1.00  0.00    -0.026 A 
ATOM     11  C   UNL     1       6.476  -3.910  -4.503  1.00  0.00     0.119 A 
ATOM     12  C   UNL     1       5.596  -4.721  -5.202  1.00  0.00     0.046 A 
ATOM     13  C   UNL     1       6.010  -2.716  -3.944  1.00  0.00     0.051 A 
ATOM     14  C   UNL     1       4.260  -4.359  -5.304  1.00  0.00     0.004 A 
ATOM     15  C   UNL     1       3.826  -3.105  -4.866  1.00  0.00     0.005 A 
BRANCH  11  16
ATOM     16  O   UNL     1       7.773  -4.339  -4.512  1.00  0.00    -0.497 OA
ATOM     17  C   UNL     1       8.573  -3.951  -3.409  1.00  0.00     0.278 C 
ENDBRANCH  11  16
ENDBRANCH   9  10
BRANCH   9  18
ATOM     18  N   UNL     1       4.611   0.103  -5.032  1.00  0.00    -0.203 NA
ATOM     19  H   UNL     1       4.230   1.014  -4.775  1.00  0.00     0.142 HD
BRANCH  18  20
ATOM     20  S   UNL     1       6.159   0.407  -5.649  1.00  0.00     0.241 S 
ATOM     21  O   UNL     1       6.903  -0.813  -5.852  1.00  0.00    -0.207 OA
ATOM     22  O   UNL     1       6.025   1.390  -6.699  1.00  0.00    -0.207 OA
BRANCH  20  23
ATOM     23  C   UNL     1       6.913   1.256  -4.279  1.00  0.00     0.082 A 
ATOM     24  C   UNL     1       7.720   0.570  -3.343  1.00  0.00     0.024 A 
ATOM     25  C   UNL     1       6.579   2.597  -4.118  1.00  0.00     0.027 A 
ATOM     26  C   UNL     1       8.056   1.174  -2.129  1.00  0.00     0.028 A 
ATOM     27  C   UNL     1       6.900   3.167  -2.914  1.00  0.00    -0.021 A 
ATOM     28  C   UNL     1       7.567   2.445  -1.913  1.00  0.00     0.047 A 
ATOM     29  C   UNL     1       6.595   4.557  -2.449  1.00  0.00     0.063 C 
ATOM     30  N   UNL     1       7.605   3.234  -0.748  1.00  0.00    -0.309 N 
ATOM     31  C   UNL     1       6.577   4.293  -0.938  1.00  0.00     0.092 C 
ATOM     32  C   UNL     1       5.185   3.762  -0.525  1.00  0.00     0.032 C 
BRANCH  30  33
ATOM     33  C   UNL     1       8.769   3.315  -0.010  1.00  0.00     0.224 C 
ATOM     34  C   UNL     1       9.459   4.656  -0.120  1.00  0.00     0.115 C 
ATOM     35  O   UNL     1       9.309   2.363   0.546  1.00  0.00    -0.275 OA
ENDBRANCH  30  33
ENDBRANCH  20  23
ENDBRANCH  18  20
ENDBRANCH   9  18
ENDBRANCH   8   9
ENDBRANCH   6   8
ENDBRANCH   5   6
ENDBRANCH   4   5
ENDBRANCH   3   4
ENDBRANCH   2   3
ENDBRANCH   1   2
BRANCH   1  36
ATOM     36  C   UNL     1       2.046  -0.161  -7.486  1.00  0.00     0.188 C 
BRANCH  36  37
ATOM     37  O   UNL     1       2.929   0.916  -7.184  1.00  0.00    -0.376 OA
BRANCH  37  38
ATOM     38  C   UNL     1       3.251   1.787  -8.279  1.00  0.00     0.202 C 
BRANCH  38  39
ATOM     39  C   UNL     1       3.718   1.256  -9.658  1.00  0.00     0.261 C 
BRANCH  39  40
ATOM     40  O   UNL     1       3.265  -0.052 -10.027  1.00  0.00    -0.460 OA
BRANCH  40  41
ATOM     41  C   UNL     1       4.132  -1.053  -9.735  1.00  0.00     0.338 C 
ATOM     42  O   UNL     1       5.268  -0.931  -9.313  1.00  0.00    -0.246 OA
BRANCH  41  43
ATOM     43  C   UNL     1       3.407  -2.342  -9.756  1.00  0.00     0.060 A 
ATOM     44  C   UNL     1       3.390  -3.067  -8.563  1.00  0.00     0.016 A 
ATOM     45  C   UNL     1       2.754  -2.843 -10.883  1.00  0.00     0.016 A 
ATOM     46  C   UNL     1       2.695  -4.266  -8.479  1.00  0.00     0.010 A 
ATOM     47  C   UNL     1       2.124  -4.098 -10.813  1.00  0.00     0.010 A 
ATOM     48  C   UNL     1       2.109  -4.828  -9.611  1.00  0.00    -0.014 A 
BRANCH  48  49
ATOM     49  C   UNL     1       1.735  -6.266  -9.543  1.00  0.00     0.031 A 
ATOM     50  C   UNL     1       2.639  -7.264 -10.213  1.00  0.00     0.074 A 
ATOM     51  C   UNL     1       0.710  -6.713  -8.790  1.00  0.00     0.049 A 
ATOM     52  N   UNL     1       2.467  -8.545 -10.403  1.00  0.00    -0.248 NA
ATOM     53  C   UNL     1       3.918  -6.745 -10.729  1.00  0.00     0.031 C 
ATOM     54  C   UNL     1      -0.166  -5.881  -7.966  1.00  0.00     0.029 A 
ATOM     55  N   UNL     1       0.235  -7.989  -8.602  1.00  0.00    -0.354 N 
ATOM     56  C   UNL     1       3.571  -8.968 -11.133  1.00  0.00     0.074 A 
ATOM     57  C   UNL     1       4.423  -7.815 -11.325  1.00  0.00     0.031 C 
ATOM     58  C   UNL     1      -1.089  -6.665  -7.383  1.00  0.00     0.029 A 
ATOM     59  C   UNL     1      -0.913  -8.041  -7.845  1.00  0.00     0.049 A 
ATOM     60  H   UNL     1       0.673  -8.789  -8.973  1.00  0.00     0.167 HD
ATOM     61  C   UNL     1       3.849 -10.205 -11.605  1.00  0.00     0.034 A 
ATOM     62  C   UNL     1      -1.759  -9.065  -7.603  1.00  0.00     0.034 A 
ATOM     63  C   UNL     1       3.037 -11.364 -11.358  1.00  0.00     0.049 A 
ATOM     64  C   UNL     1      -1.465 -10.423  -8.188  1.00  0.00     0.074 A 
ATOM     65  C   UNL     1       3.239 -12.662 -11.795  1.00  0.00     0.029 A 
ATOM     66  N   UNL     1       1.876 -11.372 -10.603  1.00  0.00    -0.354 N 
ATOM     67  N   UNL     1      -0.433 -10.811  -8.898  1.00  0.00    -0.248 NA
ATOM     68  C   UNL     1      -2.446 -11.489  -7.930  1.00  0.00     0.031 C 
ATOM     69  C   UNL     1       2.181 -13.448 -11.329  1.00  0.00     0.029 A 
ATOM     70  C   UNL     1       1.344 -12.649 -10.567  1.00  0.00     0.049 A 
ATOM     71  H   UNL     1       1.486 -10.585 -10.158  1.00  0.00     0.167 HD
ATOM     72  C   UNL     1      -0.627 -12.166  -9.149  1.00  0.00     0.074 A 
ATOM     73  C   UNL     1      -1.863 -12.539  -8.494  1.00  0.00     0.031 C 
ATOM     74  C   UNL     1       0.140 -13.021  -9.870  1.00  0.00     0.034 A 
BRANCH  61  75
ATOM     75  C   UNL     1       5.072 -10.365 -12.467  1.00  0.00     0.023 A 
ATOM     76  C   UNL     1       6.358 -10.337 -11.896  1.00  0.00     0.012 A 
ATOM     77  C   UNL     1       4.931 -10.596 -13.850  1.00  0.00     0.148 A 
ATOM     78  C   UNL     1       7.489 -10.510 -12.694  1.00  0.00     0.002 A 
ATOM     79  C   UNL     1       6.058 -10.816 -14.630  1.00  0.00     0.091 A 
ATOM     80  F   UNL     1       3.697 -10.591 -14.376  1.00  0.00    -0.205 F 
ATOM     81  C   UNL     1       7.338 -10.762 -14.056  1.00  0.00     0.022 A 
BRANCH  79  82
ATOM     82  S   UNL     1       5.960 -11.231 -16.374  1.00  0.00     0.127 S 
ATOM     83  O   UNL     1       6.524 -10.034 -16.995  1.00  0.00    -0.237 OA
ATOM     84  O   UNL     1       6.811 -12.419 -16.454  1.00  0.00    -0.237 OA
ATOM     85  O   UNL     1       4.551 -11.472 -16.654  1.00  0.00    -0.744 OA
ENDBRANCH  79  82
ENDBRANCH  61  75
BRANCH  62  86
ATOM     86  C   UNL     1      -3.000  -8.835  -6.806  1.00  0.00     0.023 A 
ATOM     87  C   UNL     1      -3.163  -9.458  -5.554  1.00  0.00     0.012 A 
ATOM     88  C   UNL     1      -4.020  -7.992  -7.290  1.00  0.00     0.148 A 
ATOM     89  C   UNL     1      -4.329  -9.262  -4.810  1.00  0.00     0.002 A 
ATOM     90  C   UNL     1      -5.147  -7.749  -6.516  1.00  0.00     0.091 A 
ATOM     91  F   UNL     1      -3.862  -7.434  -8.499  1.00  0.00    -0.205 F 
ATOM     92  C   UNL     1      -5.313  -8.398  -5.283  1.00  0.00     0.022 A 
BRANCH  90  93
ATOM     93  S   UNL     1      -6.394  -6.545  -6.985  1.00  0.00     0.127 S 
ATOM     94  O   UNL     1      -7.544  -7.399  -7.271  1.00  0.00    -0.237 OA
ATOM     95  O   UNL     1      -6.509  -5.744  -5.766  1.00  0.00    -0.237 OA
ATOM     96  O   UNL     1      -5.840  -5.827  -8.125  1.00  0.00    -0.744 OA
ENDBRANCH  90  93
ENDBRANCH  62  86
BRANCH  74  97
ATOM     97  C   UNL     1      -0.298 -14.461  -9.958  1.00  0.00     0.023 A 
ATOM     98  C   UNL     1      -1.410 -14.813 -10.747  1.00  0.00     0.012 A 
ATOM     99  C   UNL     1       0.447 -15.475  -9.323  1.00  0.00     0.148 A 
ATOM    100  C   UNL     1      -1.794 -16.148 -10.876  1.00  0.00     0.002 A 
ATOM    101  C   UNL     1       0.089 -16.807  -9.496  1.00  0.00     0.091 A 
ATOM    102  F   UNL     1       1.495 -15.119  -8.565  1.00  0.00    -0.205 F 
ATOM    103  C   UNL     1      -1.039 -17.144 -10.261  1.00  0.00     0.022 A 
BRANCH 101 104
ATOM    104  S   UNL     1       1.058 -18.162  -8.823  1.00  0.00     0.127 S 
ATOM    105  O   UNL     1       0.180 -18.657  -7.764  1.00  0.00    -0.237 OA
ATOM    106  O   UNL     1       1.185 -19.054  -9.976  1.00  0.00    -0.237 OA
ATOM    107  O   UNL     1       2.312 -17.575  -8.370  1.00  0.00    -0.744 OA
ENDBRANCH 101 104
ENDBRANCH  74  97
ENDBRANCH  48  49
ENDBRANCH  41  43
ENDBRANCH  40  41
ENDBRANCH  39  40
ENDBRANCH  38  39
ENDBRANCH  37  38
ENDBRANCH  36  37
ENDBRANCH   1  36
TORSDOF 27
