REMARK SMILES NS(=O)(=O)c1ccc(C#Cc2cc(Cl)cc3c2O[C@H](C(F)(F)F)C(C(=O)OCCOCCOCCOC(=O)c2ccc(-c4c5nc(c(-c6cccc(S(=O)(=O)[O-])c6F)c6ccc([nH]6)c(-c6cccc(S(=O)(=O)[O-])c6F)c6nc(c(-c7cccc(S(=O)(=O)[O-])c7F)c7ccc4[nH]7)C=C6)C=C5)cc2)=C3)cc1
REMARK SMILES IDX 31 1 30 2 29 3 28 4 27 5 25 6 26 7 24 8 11 9 12 10 17 11
REMARK SMILES IDX 13 12 16 13 18 14 14 15 15 16 102 17 19 18 10 19 9 20 8 21
REMARK SMILES IDX 5 22 6 23 104 24 7 25 103 26 2 27 3 28 4 29 1 30 20 33 21 34
REMARK SMILES IDX 22 35 23 36 32 37 33 38 34 39 35 40 36 41 37 42 38 43 39 44
REMARK SMILES IDX 40 45 101 46 41 47 100 48 42 49 43 50 44 51 94 52 45 53
REMARK SMILES IDX 99 54 93 55 95 56 46 57 98 58 92 59 91 60 47 62 79 63 59 64
REMARK SMILES IDX 78 65 60 66 63 67 77 68 96 69 61 70 62 71 76 73 97 74 64 75
REMARK SMILES IDX 48 76 49 77 57 78 50 79 52 80 58 81 51 82 53 83 54 84 55 85
REMARK SMILES IDX 56 86 80 87 81 88 89 89 82 90 84 91 90 92 83 93 85 94 86 95
REMARK SMILES IDX 87 96 88 97 65 98 66 99 74 100 67 101 69 102 75 103 68 104
REMARK SMILES IDX 70 105 71 106 72 107 73 108
REMARK H PARENT 1 31 1 32 95 61 63 72
REMARK Flexibility Score: inf
ROOT
ATOM      1  C   UNL     1      -0.164  15.477   0.918  1.00  0.00     0.188 C 
ENDROOT
BRANCH   1   2
ATOM      2  O   UNL     1      -1.199  16.372   0.588  1.00  0.00    -0.376 OA
BRANCH   2   3
ATOM      3  C   UNL     1      -1.999  16.164  -0.562  1.00  0.00     0.202 C 
BRANCH   3   4
ATOM      4  C   UNL     1      -1.802  15.056  -1.617  1.00  0.00     0.261 C 
BRANCH   4   5
ATOM      5  O   UNL     1      -1.016  13.916  -1.256  1.00  0.00    -0.460 OA
BRANCH   5   6
ATOM      6  C   UNL     1       0.217  13.854  -1.817  1.00  0.00     0.338 C 
ATOM      7  O   UNL     1       0.702  14.657  -2.595  1.00  0.00    -0.246 OA
BRANCH   6   8
ATOM      8  C   UNL     1       0.970  12.725  -1.228  1.00  0.00     0.087 C 
ATOM      9  C   UNL     1       3.247   9.475   0.097  1.00  0.00     0.069 A 
ATOM     10  C   UNL     1       4.595   9.671   0.414  1.00  0.00     0.041 A 
ATOM     11  C   UNL     1       2.443  10.574  -0.257  1.00  0.00     0.143 A 
ATOM     12  C   UNL     1       5.130  10.957   0.404  1.00  0.00     0.043 A 
ATOM     13  C   UNL     1       3.002  11.857  -0.308  1.00  0.00     0.020 A 
ATOM     14  O   UNL     1       1.128  10.329  -0.546  1.00  0.00    -0.474 OA
ATOM     15  Cl  UNL     1       6.789  11.188   0.791  1.00  0.00    -0.084 Cl
ATOM     16  C   UNL     1       4.342  12.051   0.051  1.00  0.00     0.032 A 
ATOM     17  C   UNL     1       2.218  12.975  -0.810  1.00  0.00     0.027 C 
ATOM     18  C   UNL     1       0.308  11.380  -1.119  1.00  0.00     0.316 C 
BRANCH   9  19
ATOM     19  C   UNL     1       2.739   8.134   0.075  1.00  0.00    -0.058 C 
ATOM     20  C   UNL     1       2.345   6.998  -0.004  1.00  0.00    -0.062 C 
BRANCH  20  21
ATOM     21  C   UNL     1       1.899   5.651  -0.187  1.00  0.00     0.025 A 
ATOM     22  C   UNL     1       1.091   3.038  -0.742  1.00  0.00     0.082 A 
ATOM     23  C   UNL     1       0.205   4.098  -0.959  1.00  0.00     0.023 A 
ATOM     24  C   UNL     1       2.361   3.270  -0.205  1.00  0.00     0.023 A 
ATOM     25  C   UNL     1       0.616   5.406  -0.685  1.00  0.00     0.018 A 
ATOM     26  C   UNL     1       2.763   4.581   0.071  1.00  0.00     0.018 A 
BRANCH  22  27
ATOM     27  S   UNL     1       0.610   1.405  -1.217  1.00  0.00     0.238 S 
ATOM     28  O   UNL     1       1.295   1.062  -2.440  1.00  0.00    -0.207 OA
ATOM     29  O   UNL     1      -0.820   1.267  -1.060  1.00  0.00    -0.207 OA
BRANCH  27  30
ATOM     30  N   UNL     1       1.272   0.417  -0.028  1.00  0.00    -0.225 NA
ATOM     31  H   UNL     1       1.040  -0.556  -0.227  1.00  0.00     0.137 HD
ATOM     32  H   UNL     1       0.892   0.679   0.881  1.00  0.00     0.137 HD
ENDBRANCH  27  30
ENDBRANCH  22  27
ENDBRANCH  20  21
ENDBRANCH   9  19
BRANCH  18  33
ATOM     33  C   UNL     1      -0.224  10.893  -2.473  1.00  0.00     0.430 C 
ATOM     34  F   UNL     1      -0.753   9.649  -2.377  1.00  0.00    -0.167 F 
ATOM     35  F   UNL     1      -1.210  11.694  -2.943  1.00  0.00    -0.167 F 
ATOM     36  F   UNL     1       0.746  10.850  -3.413  1.00  0.00    -0.167 F 
ENDBRANCH  18  33
ENDBRANCH   6   8
ENDBRANCH   5   6
ENDBRANCH   4   5
ENDBRANCH   3   4
ENDBRANCH   2   3
ENDBRANCH   1   2
BRANCH   1  37
ATOM     37  C   UNL     1      -0.575  14.148   1.585  1.00  0.00     0.188 C 
BRANCH  37  38
ATOM     38  O   UNL     1      -1.936  13.775   1.588  1.00  0.00    -0.376 OA
BRANCH  38  39
ATOM     39  C   UNL     1      -2.873  14.550   2.320  1.00  0.00     0.202 C 
BRANCH  39  40
ATOM     40  C   UNL     1      -2.535  15.451   3.530  1.00  0.00     0.261 C 
BRANCH  40  41
ATOM     41  O   UNL     1      -1.224  16.021   3.607  1.00  0.00    -0.460 OA
BRANCH  41  42
ATOM     42  C   UNL     1      -0.369  15.442   4.491  1.00  0.00     0.338 C 
ATOM     43  O   UNL     1      -0.592  14.481   5.205  1.00  0.00    -0.246 OA
BRANCH  42  44
ATOM     44  C   UNL     1       0.969  16.041   4.287  1.00  0.00     0.060 A 
ATOM     45  C   UNL     1       1.173  17.395   4.547  1.00  0.00     0.016 A 
ATOM     46  C   UNL     1       2.016  15.249   3.789  1.00  0.00     0.016 A 
ATOM     47  C   UNL     1       2.431  17.954   4.313  1.00  0.00     0.010 A 
ATOM     48  C   UNL     1       3.268  15.817   3.536  1.00  0.00     0.010 A 
ATOM     49  C   UNL     1       3.491  17.172   3.814  1.00  0.00    -0.014 A 
BRANCH  49  50
ATOM     50  C   UNL     1       4.860  17.746   3.766  1.00  0.00     0.031 A 
ATOM     51  C   UNL     1       5.524  18.148   2.482  1.00  0.00     0.074 A 
ATOM     52  C   UNL     1       5.511  17.909   4.934  1.00  0.00     0.049 A 
ATOM     53  N   UNL     1       6.664  18.768   2.316  1.00  0.00    -0.248 NA
ATOM     54  C   UNL     1       4.832  17.817   1.227  1.00  0.00     0.031 C 
ATOM     55  C   UNL     1       4.992  17.503   6.242  1.00  0.00     0.029 A 
ATOM     56  N   UNL     1       6.734  18.461   5.216  1.00  0.00    -0.354 N 
ATOM     57  C   UNL     1       6.835  18.902   0.945  1.00  0.00     0.074 A 
ATOM     58  C   UNL     1       5.686  18.280   0.319  1.00  0.00     0.031 C 
ATOM     59  C   UNL     1       5.876  17.847   7.190  1.00  0.00     0.029 A 
ATOM     60  C   UNL     1       7.033  18.473   6.558  1.00  0.00     0.049 A 
ATOM     61  H   UNL     1       7.340  18.814   4.525  1.00  0.00     0.167 HD
ATOM     62  C   UNL     1       7.846  19.507   0.276  1.00  0.00     0.034 A 
ATOM     63  C   UNL     1       8.112  18.940   7.216  1.00  0.00     0.034 A 
ATOM     64  C   UNL     1       8.982  20.133   0.903  1.00  0.00     0.049 A 
ATOM     65  C   UNL     1       9.217  19.604   6.450  1.00  0.00     0.074 A 
ATOM     66  C   UNL     1      10.018  20.826   0.298  1.00  0.00     0.029 A 
ATOM     67  N   UNL     1       9.248  20.127   2.263  1.00  0.00    -0.354 N 
ATOM     68  N   UNL     1       9.295  19.838   5.164  1.00  0.00    -0.248 NA
ATOM     69  C   UNL     1      10.369  20.092   7.222  1.00  0.00     0.031 C 
ATOM     70  C   UNL     1      10.927  21.209   1.288  1.00  0.00     0.029 A 
ATOM     71  C   UNL     1      10.439  20.788   2.513  1.00  0.00     0.049 A 
ATOM     72  H   UNL     1       8.676  19.714   2.949  1.00  0.00     0.167 HD
ATOM     73  C   UNL     1      10.491  20.518   4.973  1.00  0.00     0.074 A 
ATOM     74  C   UNL     1      11.101  20.669   6.277  1.00  0.00     0.031 C 
ATOM     75  C   UNL     1      11.030  20.968   3.815  1.00  0.00     0.034 A 
BRANCH  62  76
ATOM     76  C   UNL     1       7.771  19.581  -1.226  1.00  0.00     0.023 A 
ATOM     77  C   UNL     1       6.918  20.529  -1.826  1.00  0.00     0.012 A 
ATOM     78  C   UNL     1       8.643  18.823  -2.032  1.00  0.00     0.148 A 
ATOM     79  C   UNL     1       6.931  20.718  -3.207  1.00  0.00     0.002 A 
ATOM     80  C   UNL     1       8.667  19.035  -3.406  1.00  0.00     0.091 A 
ATOM     81  F   UNL     1       9.445  17.930  -1.437  1.00  0.00    -0.205 F 
ATOM     82  C   UNL     1       7.812  19.981  -3.994  1.00  0.00     0.022 A 
BRANCH  80  83
ATOM     83  S   UNL     1       9.791  18.168  -4.507  1.00  0.00     0.127 S 
ATOM     84  O   UNL     1       8.858  17.406  -5.336  1.00  0.00    -0.237 OA
ATOM     85  O   UNL     1      10.459  19.271  -5.196  1.00  0.00    -0.237 OA
ATOM     86  O   UNL     1      10.654  17.364  -3.654  1.00  0.00    -0.744 OA
ENDBRANCH  80  83
ENDBRANCH  62  76
BRANCH  63  87
ATOM     87  C   UNL     1       8.149  18.837   8.698  1.00  0.00     0.023 A 
ATOM     88  C   UNL     1       7.913  19.984   9.478  1.00  0.00     0.012 A 
ATOM     89  C   UNL     1       8.330  17.592   9.330  1.00  0.00     0.148 A 
ATOM     90  C   UNL     1       7.856  19.892  10.869  1.00  0.00     0.002 A 
ATOM     91  C   UNL     1       8.239  17.501  10.712  1.00  0.00     0.091 A 
ATOM     92  F   UNL     1       8.545  16.517   8.558  1.00  0.00    -0.205 F 
ATOM     93  C   UNL     1       8.008  18.651  11.485  1.00  0.00     0.022 A 
BRANCH  91  94
ATOM     94  S   UNL     1       8.343  15.939  11.590  1.00  0.00     0.127 S 
ATOM     95  O   UNL     1       9.521  16.147  12.429  1.00  0.00    -0.237 OA
ATOM     96  O   UNL     1       7.070  15.917  12.309  1.00  0.00    -0.237 OA
ATOM     97  O   UNL     1       8.482  14.914  10.565  1.00  0.00    -0.744 OA
ENDBRANCH  91  94
ENDBRANCH  63  87
BRANCH  75  98
ATOM     98  C   UNL     1      12.349  21.690   3.873  1.00  0.00     0.023 A 
ATOM     99  C   UNL     1      13.539  20.954   4.028  1.00  0.00     0.012 A 
ATOM    100  C   UNL     1      12.414  23.078   3.638  1.00  0.00     0.148 A 
ATOM    101  C   UNL     1      14.778  21.590   3.946  1.00  0.00     0.002 A 
ATOM    102  C   UNL     1      13.652  23.699   3.527  1.00  0.00     0.091 A 
ATOM    103  F   UNL     1      11.265  23.754   3.497  1.00  0.00    -0.205 F 
ATOM    104  C   UNL     1      14.835  22.957   3.683  1.00  0.00     0.022 A 
BRANCH 102 105
ATOM    105  S   UNL     1      13.831  25.444   3.137  1.00  0.00     0.127 S 
ATOM    106  O   UNL     1      14.466  25.956   4.350  1.00  0.00    -0.237 OA
ATOM    107  O   UNL     1      14.700  25.409   1.961  1.00  0.00    -0.237 OA
ATOM    108  O   UNL     1      12.486  25.945   2.889  1.00  0.00    -0.744 OA
ENDBRANCH 102 105
ENDBRANCH  75  98
ENDBRANCH  49  50
ENDBRANCH  42  44
ENDBRANCH  41  42
ENDBRANCH  40  41
ENDBRANCH  39  40
ENDBRANCH  38  39
ENDBRANCH  37  38
ENDBRANCH   1  37
TORSDOF 25
