REMARK SMILES CC1(C)CC[C@@]2(C(=O)OCCOCCOCCOC(=O)c3ccc(-c4c5nc(c(-c6cccc(S(=O)(=O)[O-])c6F)c6ccc([nH]6)c(-c6cccc(S(=O)(=O)[O-])c6F)c6nc(c(-c7cccc(S(=O)(=O)[O-])c7F)c7ccc4[nH]7)C=C6)C=C5)cc3)CC[C@@]3(C)C(=CC[C@H]4[C@@]5(C)CC[C@H](O)C(C)(C)[C@@H]5CC[C@]43C)[C@@H]2C1
REMARK SMILES IDX 14 1 13 2 12 3 11 4 10 5 9 6 7 7 8 8 6 9 1 10 2 11 3 12 4 13
REMARK SMILES IDX 107 14 5 15 106 16 88 17 84 18 86 19 89 20 85 21 87 22
REMARK SMILES IDX 104 23 90 24 91 25 103 26 105 27 92 28 102 29 93 30 94 31
REMARK SMILES IDX 101 32 95 33 98 34 96 35 99 36 100 37 97 38 15 40 16 41
REMARK SMILES IDX 17 42 18 43 19 44 20 45 21 46 22 47 83 48 23 49 82 50 24 51
REMARK SMILES IDX 25 52 26 53 76 54 27 55 81 56 75 57 77 58 28 59 80 60 74 61
REMARK SMILES IDX 73 62 29 64 61 65 41 66 60 67 42 68 45 69 59 70 78 71 43 72
REMARK SMILES IDX 44 73 58 75 79 76 46 77 30 78 31 79 39 80 32 81 34 82 40 83
REMARK SMILES IDX 33 84 35 85 36 86 37 87 38 88 62 89 63 90 71 91 64 92 66 93
REMARK SMILES IDX 72 94 65 95 67 96 68 97 69 98 70 99 47 100 48 101 56 102
REMARK SMILES IDX 49 103 51 104 57 105 50 106 52 107 53 108 54 109 55 110
REMARK H PARENT 97 39 77 63 45 74
REMARK Flexibility Score: inf
ROOT
ATOM      1  C   UNL     1      -3.452  -2.364  -4.147  1.00  0.00     0.188 C 
ENDROOT
BRANCH   1   2
ATOM      2  C   UNL     1      -2.940  -1.525  -2.983  1.00  0.00     0.188 C 
BRANCH   2   3
ATOM      3  O   UNL     1      -2.456  -0.363  -3.594  1.00  0.00    -0.376 OA
BRANCH   3   4
ATOM      4  C   UNL     1      -1.278   0.319  -3.696  1.00  0.00     0.202 C 
BRANCH   4   5
ATOM      5  C   UNL     1      -0.257   0.125  -2.682  1.00  0.00     0.261 C 
BRANCH   5   6
ATOM      6  O   UNL     1      -0.836   0.007  -1.429  1.00  0.00    -0.463 OA
BRANCH   6   7
ATOM      7  C   UNL     1      -1.955   0.667  -1.139  1.00  0.00     0.312 C 
ATOM      8  O   UNL     1      -3.041   0.602  -1.704  1.00  0.00    -0.252 OA
BRANCH   7   9
ATOM      9  C   UNL     1      -1.821   1.427   0.091  1.00  0.00     0.075 C 
ATOM     10  C   UNL     1       1.784  -0.169   1.893  1.00  0.00     0.011 C 
ATOM     11  C   UNL     1       0.942   0.078   0.613  1.00  0.00    -0.035 C 
ATOM     12  C   UNL     1       1.871  -0.608  -0.458  1.00  0.00     0.011 C 
ATOM     13  C   UNL     1      -0.395  -0.683   0.876  1.00  0.00     0.007 C 
ATOM     14  C   UNL     1       0.770   1.655   0.289  1.00  0.00     0.015 C 
ATOM     15  C   UNL     1      -1.643   0.248   1.119  1.00  0.00     0.020 C 
ATOM     16  C   UNL     1      -0.644   2.392  -0.063  1.00  0.00     0.033 C 
ATOM     17  C   UNL     1      -0.755   3.221  -1.466  1.00  0.00    -0.063 C 
ATOM     18  C   UNL     1      -3.156   2.256   0.043  1.00  0.00     0.020 C 
ATOM     19  C   UNL     1      -2.118   3.729  -2.120  1.00  0.00    -0.006 C 
ATOM     20  C   UNL     1       0.358   3.747  -2.003  1.00  0.00    -0.027 C 
ATOM     21  C   UNL     1      -3.414   3.038  -1.407  1.00  0.00     0.013 C 
ATOM     22  C   UNL     1      -2.338   5.129  -1.361  1.00  0.00     0.017 C 
ATOM     23  C   UNL     1      -1.888   4.042  -3.958  1.00  0.00    -0.020 C 
ATOM     24  C   UNL     1       0.691   4.010  -3.438  1.00  0.00     0.032 C 
ATOM     25  C   UNL     1      -0.360   3.700  -4.516  1.00  0.00     0.006 C 
ATOM     26  C   UNL     1      -2.844   3.557  -5.184  1.00  0.00     0.008 C 
ATOM     27  C   UNL     1      -2.010   5.650  -4.090  1.00  0.00     0.012 C 
ATOM     28  C   UNL     1       0.091   2.556  -5.757  1.00  0.00    -0.025 C 
ATOM     29  C   UNL     1      -2.179   3.071  -6.625  1.00  0.00     0.005 C 
ATOM     30  C   UNL     1       0.912   3.391  -6.801  1.00  0.00     0.012 C 
ATOM     31  C   UNL     1       1.142   1.467  -5.369  1.00  0.00     0.010 C 
ATOM     32  C   UNL     1      -1.160   1.911  -6.468  1.00  0.00     0.003 C 
ATOM     33  C   UNL     1       1.305   0.218  -6.265  1.00  0.00     0.033 C 
ATOM     34  C   UNL     1      -0.871   0.659  -7.562  1.00  0.00    -0.006 C 
ATOM     35  C   UNL     1       0.028  -0.406  -6.835  1.00  0.00     0.120 C 
ATOM     36  C   UNL     1      -0.185   0.982  -8.908  1.00  0.00     0.014 C 
ATOM     37  C   UNL     1      -2.140  -0.121  -8.030  1.00  0.00     0.014 C 
BRANCH  35  38
ATOM     38  O   UNL     1       0.340  -1.532  -7.667  1.00  0.00    -0.393 OA
ATOM     39  H   UNL     1       0.873  -1.239  -8.422  1.00  0.00     0.210 HD
ENDBRANCH  35  38
ENDBRANCH   7   9
ENDBRANCH   6   7
ENDBRANCH   5   6
ENDBRANCH   4   5
ENDBRANCH   3   4
ENDBRANCH   2   3
ENDBRANCH   1   2
BRANCH   1  40
ATOM     40  O   UNL     1      -4.401  -1.672  -5.052  1.00  0.00    -0.376 OA
BRANCH  40  41
ATOM     41  C   UNL     1      -4.073  -0.286  -5.185  1.00  0.00     0.202 C 
BRANCH  41  42
ATOM     42  C   UNL     1      -4.614   0.762  -6.126  1.00  0.00     0.261 C 
BRANCH  42  43
ATOM     43  O   UNL     1      -5.246   0.287  -7.284  1.00  0.00    -0.460 OA
BRANCH  43  44
ATOM     44  C   UNL     1      -6.401  -0.352  -7.013  1.00  0.00     0.338 C 
ATOM     45  O   UNL     1      -6.806  -1.313  -7.639  1.00  0.00    -0.246 OA
BRANCH  44  46
ATOM     46  C   UNL     1      -7.125   0.279  -5.893  1.00  0.00     0.060 A 
ATOM     47  C   UNL     1      -7.111  -0.362  -4.646  1.00  0.00     0.016 A 
ATOM     48  C   UNL     1      -7.643   1.574  -6.052  1.00  0.00     0.016 A 
ATOM     49  C   UNL     1      -7.738   0.230  -3.570  1.00  0.00     0.010 A 
ATOM     50  C   UNL     1      -8.333   2.140  -4.995  1.00  0.00     0.010 A 
ATOM     51  C   UNL     1      -8.475   1.392  -3.813  1.00  0.00    -0.014 A 
BRANCH  51  52
ATOM     52  C   UNL     1      -9.776   1.463  -3.136  1.00  0.00     0.031 A 
ATOM     53  C   UNL     1     -10.901   0.710  -3.803  1.00  0.00     0.074 A 
ATOM     54  C   UNL     1      -9.919   2.172  -2.011  1.00  0.00     0.049 A 
ATOM     55  N   UNL     1     -12.165   0.666  -3.496  1.00  0.00    -0.248 NA
ATOM     56  C   UNL     1     -10.563  -0.100  -4.994  1.00  0.00     0.031 C 
ATOM     57  C   UNL     1      -8.854   2.899  -1.321  1.00  0.00     0.029 A 
ATOM     58  N   UNL     1     -11.043   2.427  -1.281  1.00  0.00    -0.354 N 
ATOM     59  C   UNL     1     -12.758  -0.125  -4.476  1.00  0.00     0.074 A 
ATOM     60  C   UNL     1     -11.737  -0.556  -5.385  1.00  0.00     0.031 C 
ATOM     61  C   UNL     1      -9.395   3.579  -0.294  1.00  0.00     0.029 A 
ATOM     62  C   UNL     1     -10.837   3.347  -0.285  1.00  0.00     0.049 A 
ATOM     63  H   UNL     1     -11.911   1.996  -1.452  1.00  0.00     0.167 HD
ATOM     64  C   UNL     1     -14.057  -0.458  -4.606  1.00  0.00     0.034 A 
ATOM     65  C   UNL     1     -11.743   3.956   0.499  1.00  0.00     0.034 A 
ATOM     66  C   UNL     1     -15.051  -0.012  -3.682  1.00  0.00     0.049 A 
ATOM     67  C   UNL     1     -13.189   3.567   0.330  1.00  0.00     0.074 A 
ATOM     68  C   UNL     1     -16.396  -0.311  -3.655  1.00  0.00     0.029 A 
ATOM     69  N   UNL     1     -14.795   0.855  -2.631  1.00  0.00    -0.354 N 
ATOM     70  N   UNL     1     -13.725   2.722  -0.521  1.00  0.00    -0.248 NA
ATOM     71  C   UNL     1     -14.151   4.184   1.250  1.00  0.00     0.031 C 
ATOM     72  C   UNL     1     -16.966   0.415  -2.607  1.00  0.00     0.029 A 
ATOM     73  C   UNL     1     -15.964   1.121  -1.954  1.00  0.00     0.049 A 
ATOM     74  H   UNL     1     -13.912   1.224  -2.403  1.00  0.00     0.167 HD
ATOM     75  C   UNL     1     -15.078   2.673  -0.212  1.00  0.00     0.074 A 
ATOM     76  C   UNL     1     -15.273   3.561   0.918  1.00  0.00     0.031 C 
ATOM     77  C   UNL     1     -16.080   1.974  -0.801  1.00  0.00     0.034 A 
BRANCH  64  78
ATOM     78  C   UNL     1     -14.465  -1.308  -5.775  1.00  0.00     0.023 A 
ATOM     79  C   UNL     1     -14.131  -2.677  -5.814  1.00  0.00     0.012 A 
ATOM     80  C   UNL     1     -15.237  -0.753  -6.813  1.00  0.00     0.148 A 
ATOM     81  C   UNL     1     -14.558  -3.480  -6.871  1.00  0.00     0.002 A 
ATOM     82  C   UNL     1     -15.702  -1.569  -7.835  1.00  0.00     0.091 A 
ATOM     83  F   UNL     1     -15.502   0.560  -6.777  1.00  0.00    -0.205 F 
ATOM     84  C   UNL     1     -15.357  -2.930  -7.871  1.00  0.00     0.022 A 
BRANCH  82  85
ATOM     85  S   UNL     1     -16.804  -0.975  -9.121  1.00  0.00     0.127 S 
ATOM     86  O   UNL     1     -16.001  -1.188 -10.325  1.00  0.00    -0.237 OA
ATOM     87  O   UNL     1     -17.946  -1.878  -8.982  1.00  0.00    -0.237 OA
ATOM     88  O   UNL     1     -17.083   0.420  -8.806  1.00  0.00    -0.744 OA
ENDBRANCH  82  85
ENDBRANCH  64  78
BRANCH  65  89
ATOM     89  C   UNL     1     -11.315   4.973   1.496  1.00  0.00     0.023 A 
ATOM     90  C   UNL     1     -11.449   4.703   2.871  1.00  0.00     0.012 A 
ATOM     91  C   UNL     1     -10.771   6.207   1.089  1.00  0.00     0.148 A 
ATOM     92  C   UNL     1     -11.098   5.663   3.821  1.00  0.00     0.002 A 
ATOM     93  C   UNL     1     -10.369   7.136   2.041  1.00  0.00     0.091 A 
ATOM     94  F   UNL     1     -10.656   6.451  -0.224  1.00  0.00    -0.205 F 
ATOM     95  C   UNL     1     -10.551   6.875   3.407  1.00  0.00     0.022 A 
BRANCH  93  96
ATOM     96  S   UNL     1      -9.536   8.664   1.597  1.00  0.00     0.127 S 
ATOM     97  O   UNL     1     -10.589   9.652   1.814  1.00  0.00    -0.237 OA
ATOM     98  O   UNL     1      -8.441   8.707   2.566  1.00  0.00    -0.237 OA
ATOM     99  O   UNL     1      -9.103   8.486   0.217  1.00  0.00    -0.744 OA
ENDBRANCH  93  96
ENDBRANCH  65  89
BRANCH  77 100
ATOM    100  C   UNL     1     -17.450   2.096  -0.199  1.00  0.00     0.023 A 
ATOM    101  C   UNL     1     -18.188   3.283  -0.361  1.00  0.00     0.012 A 
ATOM    102  C   UNL     1     -18.032   0.989   0.447  1.00  0.00     0.148 A 
ATOM    103  C   UNL     1     -19.478   3.380   0.152  1.00  0.00     0.002 A 
ATOM    104  C   UNL     1     -19.339   1.073   0.900  1.00  0.00     0.091 A 
ATOM    105  F   UNL     1     -17.300  -0.126   0.594  1.00  0.00    -0.205 F 
ATOM    106  C   UNL     1     -20.057   2.273   0.770  1.00  0.00     0.022 A 
BRANCH 104 107
ATOM    107  S   UNL     1     -20.200  -0.335   1.602  1.00  0.00     0.127 S 
ATOM    108  O   UNL     1     -20.290   0.044   3.011  1.00  0.00    -0.237 OA
ATOM    109  O   UNL     1     -21.473  -0.309   0.880  1.00  0.00    -0.237 OA
ATOM    110  O   UNL     1     -19.370  -1.499   1.322  1.00  0.00    -0.744 OA
ENDBRANCH 104 107
ENDBRANCH  77 100
ENDBRANCH  51  52
ENDBRANCH  44  46
ENDBRANCH  43  44
ENDBRANCH  42  43
ENDBRANCH  41  42
ENDBRANCH  40  41
ENDBRANCH   1  40
TORSDOF 21
