REMARK SMILES COc1ccc([C@H]2[C@H](C(=O)OCCOCCOCCOC(=O)c3ccc(-c4c5nc(c(-c6cccc(S(=O)(=O)[O-])c6F)c6ccc([nH]6)c(-c6cccc(S(=O)(=O)[O-])c6F)c6nc(c(-c7cccc(S(=O)(=O)[O-])c7F)c7ccc4[nH]7)C=C6)C=C5)cc3)CCN2c2ccc(F)cc2)cc1
REMARK SMILES IDX 16 1 15 2 14 3 13 4 12 5 11 6 9 7 10 8 8 9 7 10 88 11 86 12
REMARK SMILES IDX 87 13 6 14 3 15 4 16 97 17 5 18 96 19 2 20 1 21 89 22 90 23
REMARK SMILES IDX 95 24 91 25 94 26 92 27 93 28 17 29 18 30 19 31 20 32 21 33
REMARK SMILES IDX 22 34 23 35 24 36 85 37 25 38 84 39 26 40 27 41 28 42 78 43
REMARK SMILES IDX 29 44 83 45 77 46 79 47 30 48 82 49 76 50 75 51 31 53 63 54
REMARK SMILES IDX 43 55 62 56 44 57 47 58 61 59 80 60 45 61 46 62 60 64 81 65
REMARK SMILES IDX 48 66 32 67 33 68 41 69 34 70 36 71 42 72 35 73 37 74 38 75
REMARK SMILES IDX 39 76 40 77 64 78 65 79 73 80 66 81 68 82 74 83 67 84 69 85
REMARK SMILES IDX 70 86 71 87 72 88 49 89 50 90 58 91 51 92 53 93 59 94 52 95
REMARK SMILES IDX 54 96 55 97 56 98 57 99
REMARK H PARENT 79 52 47 63
REMARK Flexibility Score: inf
ROOT
ATOM      1  C   UNL     1       3.872  -2.587   2.986  1.00  0.00     0.188 C 
ENDROOT
BRANCH   1   2
ATOM      2  C   UNL     1       4.871  -3.205   3.971  1.00  0.00     0.188 C 
BRANCH   2   3
ATOM      3  O   UNL     1       6.245  -3.034   3.637  1.00  0.00    -0.376 OA
BRANCH   3   4
ATOM      4  C   UNL     1       6.683  -3.602   2.403  1.00  0.00     0.202 C 
BRANCH   4   5
ATOM      5  C   UNL     1       6.464  -5.112   2.227  1.00  0.00     0.261 C 
BRANCH   5   6
ATOM      6  O   UNL     1       5.081  -5.543   2.305  1.00  0.00    -0.463 OA
BRANCH   6   7
ATOM      7  C   UNL     1       4.842  -6.564   3.168  1.00  0.00     0.311 C 
ATOM      8  O   UNL     1       5.720  -7.109   3.836  1.00  0.00    -0.252 OA
BRANCH   7   9
ATOM      9  C   UNL     1       3.394  -7.008   3.300  1.00  0.00     0.128 C 
ATOM     10  C   UNL     1       2.358  -6.477   2.289  1.00  0.00     0.127 C 
ATOM     11  N   UNL     1       2.608  -7.339   1.121  1.00  0.00    -0.364 N 
ATOM     12  C   UNL     1       3.363  -8.518   3.018  1.00  0.00     0.039 C 
ATOM     13  C   UNL     1       3.278  -8.582   1.490  1.00  0.00     0.118 C 
BRANCH  10  14
ATOM     14  C   UNL     1       0.917  -6.709   2.821  1.00  0.00    -0.024 A 
ATOM     15  C   UNL     1      -1.604  -7.349   3.977  1.00  0.00     0.118 A 
ATOM     16  C   UNL     1      -0.788  -6.366   4.540  1.00  0.00     0.047 A 
ATOM     17  C   UNL     1      -1.202  -7.960   2.797  1.00  0.00     0.047 A 
ATOM     18  C   UNL     1       0.459  -6.049   3.974  1.00  0.00     0.010 A 
ATOM     19  C   UNL     1       0.037  -7.639   2.231  1.00  0.00     0.010 A 
BRANCH  15  20
ATOM     20  O   UNL     1      -2.779  -7.614   4.626  1.00  0.00    -0.497 OA
ATOM     21  C   UNL     1      -3.239  -8.960   4.524  1.00  0.00     0.278 C 
ENDBRANCH  15  20
ENDBRANCH  10  14
BRANCH  11  22
ATOM     22  C   UNL     1       2.467  -6.944  -0.184  1.00  0.00     0.037 A 
ATOM     23  C   UNL     1       1.794  -7.758  -1.109  1.00  0.00     0.029 A 
ATOM     24  C   UNL     1       2.974  -5.722  -0.644  1.00  0.00     0.029 A 
ATOM     25  C   UNL     1       1.591  -7.348  -2.429  1.00  0.00     0.041 A 
ATOM     26  C   UNL     1       2.806  -5.318  -1.972  1.00  0.00     0.041 A 
ATOM     27  C   UNL     1       2.105  -6.131  -2.849  1.00  0.00     0.123 A 
ATOM     28  F   UNL     1       1.925  -5.740  -4.118  1.00  0.00    -0.207 F 
ENDBRANCH  11  22
ENDBRANCH   7   9
ENDBRANCH   6   7
ENDBRANCH   5   6
ENDBRANCH   4   5
ENDBRANCH   3   4
ENDBRANCH   2   3
ENDBRANCH   1   2
BRANCH   1  29
ATOM     29  O   UNL     1       4.166  -2.859   1.622  1.00  0.00    -0.376 OA
BRANCH  29  30
ATOM     30  C   UNL     1       3.436  -2.141   0.628  1.00  0.00     0.202 C 
BRANCH  30  31
ATOM     31  C   UNL     1       3.402  -0.608   0.771  1.00  0.00     0.261 C 
BRANCH  31  32
ATOM     32  O   UNL     1       2.698  -0.126   1.930  1.00  0.00    -0.460 OA
BRANCH  32  33
ATOM     33  C   UNL     1       1.456  -0.616   2.152  1.00  0.00     0.338 C 
ATOM     34  O   UNL     1       0.745  -1.185   1.343  1.00  0.00    -0.246 OA
BRANCH  33  35
ATOM     35  C   UNL     1       1.212  -0.591   3.615  1.00  0.00     0.060 A 
ATOM     36  C   UNL     1       0.562  -1.688   4.197  1.00  0.00     0.016 A 
ATOM     37  C   UNL     1       1.682   0.454   4.419  1.00  0.00     0.016 A 
ATOM     38  C   UNL     1       0.337  -1.720   5.575  1.00  0.00     0.010 A 
ATOM     39  C   UNL     1       1.451   0.424   5.797  1.00  0.00     0.010 A 
ATOM     40  C   UNL     1       0.743  -0.643   6.375  1.00  0.00    -0.014 A 
BRANCH  40  41
ATOM     41  C   UNL     1       0.227  -0.518   7.759  1.00  0.00     0.031 A 
ATOM     42  C   UNL     1      -0.991   0.341   7.980  1.00  0.00     0.074 A 
ATOM     43  C   UNL     1       0.811  -1.142   8.798  1.00  0.00     0.049 A 
ATOM     44  N   UNL     1      -1.625   0.614   9.089  1.00  0.00    -0.248 NA
ATOM     45  C   UNL     1      -1.569   0.980   6.784  1.00  0.00     0.031 C 
ATOM     46  C   UNL     1       1.993  -1.998   8.721  1.00  0.00     0.029 A 
ATOM     47  N   UNL     1       0.489  -1.130  10.133  1.00  0.00    -0.354 N 
ATOM     48  C   UNL     1      -2.662   1.465   8.730  1.00  0.00     0.074 A 
ATOM     49  C   UNL     1      -2.560   1.685   7.305  1.00  0.00     0.031 C 
ATOM     50  C   UNL     1       2.310  -2.414   9.961  1.00  0.00     0.029 A 
ATOM     51  C   UNL     1       1.365  -1.841  10.920  1.00  0.00     0.049 A 
ATOM     52  H   UNL     1      -0.295  -0.657  10.494  1.00  0.00     0.167 HD
ATOM     53  C   UNL     1      -3.631   2.000   9.508  1.00  0.00     0.034 A 
ATOM     54  C   UNL     1       1.403  -1.997  12.259  1.00  0.00     0.034 A 
ATOM     55  C   UNL     1      -3.745   1.777  10.922  1.00  0.00     0.049 A 
ATOM     56  C   UNL     1       0.332  -1.358  13.110  1.00  0.00     0.074 A 
ATOM     57  C   UNL     1      -4.708   2.255  11.793  1.00  0.00     0.029 A 
ATOM     58  N   UNL     1      -2.861   1.022  11.676  1.00  0.00    -0.354 N 
ATOM     59  N   UNL     1      -0.713  -0.656  12.740  1.00  0.00    -0.248 NA
ATOM     60  C   UNL     1       0.426  -1.563  14.564  1.00  0.00     0.031 C 
ATOM     61  C   UNL     1      -4.394   1.804  13.079  1.00  0.00     0.029 A 
ATOM     62  C   UNL     1      -3.251   1.024  13.004  1.00  0.00     0.049 A 
ATOM     63  H   UNL     1      -2.072   0.553  11.320  1.00  0.00     0.167 HD
ATOM     64  C   UNL     1      -1.419  -0.375  13.906  1.00  0.00     0.074 A 
ATOM     65  C   UNL     1      -0.694  -0.998  14.993  1.00  0.00     0.031 C 
ATOM     66  C   UNL     1      -2.557   0.345  14.066  1.00  0.00     0.034 A 
BRANCH  53  67
ATOM     67  C   UNL     1      -4.668   2.854   8.832  1.00  0.00     0.023 A 
ATOM     68  C   UNL     1      -5.646   2.244   8.020  1.00  0.00     0.012 A 
ATOM     69  C   UNL     1      -4.702   4.247   9.031  1.00  0.00     0.148 A 
ATOM     70  C   UNL     1      -6.625   3.012   7.391  1.00  0.00     0.002 A 
ATOM     71  C   UNL     1      -5.708   5.000   8.437  1.00  0.00     0.091 A 
ATOM     72  F   UNL     1      -3.747   4.809   9.785  1.00  0.00    -0.205 F 
ATOM     73  C   UNL     1      -6.662   4.387   7.609  1.00  0.00     0.022 A 
BRANCH  71  74
ATOM     74  S   UNL     1      -5.886   6.766   8.713  1.00  0.00     0.127 S 
ATOM     75  O   UNL     1      -5.512   7.307   7.407  1.00  0.00    -0.237 OA
ATOM     76  O   UNL     1      -7.308   6.883   9.038  1.00  0.00    -0.237 OA
ATOM     77  O   UNL     1      -4.983   7.095   9.807  1.00  0.00    -0.744 OA
ENDBRANCH  71  74
ENDBRANCH  53  67
BRANCH  54  78
ATOM     78  C   UNL     1       2.469  -2.826  12.894  1.00  0.00     0.023 A 
ATOM     79  C   UNL     1       2.124  -4.041  13.518  1.00  0.00     0.012 A 
ATOM     80  C   UNL     1       3.814  -2.409  12.904  1.00  0.00     0.148 A 
ATOM     81  C   UNL     1       3.090  -4.806  14.172  1.00  0.00     0.002 A 
ATOM     82  C   UNL     1       4.781  -3.203  13.512  1.00  0.00     0.091 A 
ATOM     83  F   UNL     1       4.121  -1.240  12.326  1.00  0.00    -0.205 F 
ATOM     84  C   UNL     1       4.419  -4.392  14.162  1.00  0.00     0.022 A 
BRANCH  82  85
ATOM     85  S   UNL     1       6.532  -2.805  13.449  1.00  0.00     0.127 S 
ATOM     86  O   UNL     1       6.796  -2.401  14.827  1.00  0.00    -0.237 OA
ATOM     87  O   UNL     1       7.118  -4.088  13.059  1.00  0.00    -0.237 OA
ATOM     88  O   UNL     1       6.658  -1.757  12.445  1.00  0.00    -0.744 OA
ENDBRANCH  82  85
ENDBRANCH  54  78
BRANCH  66  89
ATOM     89  C   UNL     1      -3.127   0.467  15.457  1.00  0.00     0.023 A 
ATOM     90  C   UNL     1      -2.485   1.280  16.412  1.00  0.00     0.012 A 
ATOM     91  C   UNL     1      -4.344  -0.162  15.792  1.00  0.00     0.148 A 
ATOM     92  C   UNL     1      -3.027   1.439  17.687  1.00  0.00     0.002 A 
ATOM     93  C   UNL     1      -4.903   0.041  17.048  1.00  0.00     0.091 A 
ATOM     94  F   UNL     1      -4.932  -0.945  14.876  1.00  0.00    -0.205 F 
ATOM     95  C   UNL     1      -4.240   0.830  18.001  1.00  0.00     0.022 A 
BRANCH  93  96
ATOM     96  S   UNL     1      -6.509  -0.624  17.505  1.00  0.00     0.127 S 
ATOM     97  O   UNL     1      -6.136  -1.708  18.412  1.00  0.00    -0.237 OA
ATOM     98  O   UNL     1      -7.147   0.522  18.155  1.00  0.00    -0.237 OA
ATOM     99  O   UNL     1      -7.139  -1.038  16.259  1.00  0.00    -0.744 OA
ENDBRANCH  93  96
ENDBRANCH  66  89
ENDBRANCH  40  41
ENDBRANCH  33  35
ENDBRANCH  32  33
ENDBRANCH  31  32
ENDBRANCH  30  31
ENDBRANCH  29  30
ENDBRANCH   1  29
TORSDOF 23
