REMARK SMILES COc1ccc(-c2cccc(/C=C\C(=O)OCCOCCOCCOC(=O)c3ccc(-c4c5nc(c(-c6cccc(S(=O)(=O)[O-])c6F)c6ccc([nH]6)c(-c6cccc(S(=O)(=O)[O-])c6F)c6nc(c(-c7cccc(S(=O)(=O)[O-])c7F)c7ccc4[nH]7)C=C6)C=C5)cc3)c2)c(Cl)c1OC
REMARK SMILES IDX 20 1 19 2 18 3 17 4 16 5 14 6 15 7 13 8 12 9 11 10 7 11 8 12
REMARK SMILES IDX 91 13 9 14 10 15 6 16 3 17 4 18 94 19 5 20 92 21 93 22 2 23
REMARK SMILES IDX 1 24 95 25 96 26 21 27 22 28 23 29 24 30 25 31 26 32 27 33
REMARK SMILES IDX 28 34 29 35 90 36 30 37 89 38 31 39 32 40 33 41 83 42 34 43
REMARK SMILES IDX 88 44 82 45 84 46 35 47 87 48 81 49 80 50 36 52 68 53 48 54
REMARK SMILES IDX 67 55 49 56 52 57 66 58 85 59 50 60 51 61 65 63 86 64 53 65
REMARK SMILES IDX 37 66 38 67 46 68 39 69 41 70 47 71 40 72 42 73 43 74 44 75
REMARK SMILES IDX 45 76 69 77 70 78 78 79 71 80 73 81 79 82 72 83 74 84 75 85
REMARK SMILES IDX 76 86 77 87 54 88 55 89 63 90 56 91 58 92 64 93 57 94 59 95
REMARK SMILES IDX 60 96 61 97 62 98
REMARK H PARENT 84 51 52 62
REMARK Flexibility Score: inf
ROOT
ATOM      1  C   UNL     1       3.159 -10.516   6.429  1.00  0.00     0.188 C 
ENDROOT
BRANCH   1   2
ATOM      2  O   UNL     1       4.338  -9.736   6.610  1.00  0.00    -0.376 OA
BRANCH   2   3
ATOM      3  C   UNL     1       5.516 -10.341   6.077  1.00  0.00     0.202 C 
BRANCH   3   4
ATOM      4  C   UNL     1       6.104  -9.398   5.020  1.00  0.00     0.261 C 
BRANCH   4   5
ATOM      5  O   UNL     1       5.098  -8.921   4.106  1.00  0.00    -0.460 OA
BRANCH   5   6
ATOM      6  C   UNL     1       4.545  -9.837   3.297  1.00  0.00     0.330 C 
ATOM      7  O   UNL     1       5.016 -10.938   3.051  1.00  0.00    -0.247 OA
BRANCH   6   8
ATOM      8  C   UNL     1       3.199  -9.448   2.818  1.00  0.00     0.094 C 
ATOM      9  C   UNL     1       2.434  -8.351   2.964  1.00  0.00     0.015 C 
BRANCH   9  10
ATOM     10  C   UNL     1       2.659  -7.061   3.639  1.00  0.00    -0.025 A 
ATOM     11  C   UNL     1       2.279  -4.643   3.640  1.00  0.00    -0.016 A 
ATOM     12  C   UNL     1       2.958  -4.537   4.861  1.00  0.00     0.009 A 
ATOM     13  C   UNL     1       2.145  -5.906   3.035  1.00  0.00     0.017 A 
ATOM     14  C   UNL     1       3.433  -5.674   5.492  1.00  0.00     0.001 A 
ATOM     15  C   UNL     1       3.256  -6.920   4.893  1.00  0.00     0.008 A 
BRANCH  11  16
ATOM     16  C   UNL     1       1.716  -3.442   3.013  1.00  0.00     0.004 A 
ATOM     17  C   UNL     1       0.804  -1.089   1.826  1.00  0.00     0.162 A 
ATOM     18  C   UNL     1       2.152  -1.438   1.727  1.00  0.00     0.051 A 
ATOM     19  C   UNL     1      -0.122  -1.885   2.543  1.00  0.00     0.180 A 
ATOM     20  C   UNL     1       2.600  -2.614   2.306  1.00  0.00     0.014 A 
ATOM     21  C   UNL     1       0.347  -3.073   3.138  1.00  0.00     0.094 A 
ATOM     22  Cl  UNL     1      -0.667  -4.136   4.076  1.00  0.00    -0.079 Cl
BRANCH  17  23
ATOM     23  O   UNL     1       0.355   0.095   1.282  1.00  0.00    -0.493 OA
ATOM     24  C   UNL     1       0.721   0.252  -0.086  1.00  0.00     0.278 C 
ENDBRANCH  17  23
BRANCH  19  25
ATOM     25  O   UNL     1      -1.381  -1.342   2.540  1.00  0.00    -0.491 OA
ATOM     26  C   UNL     1      -2.488  -1.996   3.130  1.00  0.00     0.278 C 
ENDBRANCH  19  25
ENDBRANCH  11  16
ENDBRANCH   9  10
ENDBRANCH   6   8
ENDBRANCH   5   6
ENDBRANCH   4   5
ENDBRANCH   3   4
ENDBRANCH   2   3
ENDBRANCH   1   2
BRANCH   1  27
ATOM     27  C   UNL     1       1.880  -9.669   6.569  1.00  0.00     0.188 C 
BRANCH  27  28
ATOM     28  O   UNL     1       1.812  -8.613   7.522  1.00  0.00    -0.376 OA
BRANCH  28  29
ATOM     29  C   UNL     1       2.532  -8.731   8.738  1.00  0.00     0.202 C 
BRANCH  29  30
ATOM     30  C   UNL     1       2.013  -9.754   9.751  1.00  0.00     0.261 C 
BRANCH  30  31
ATOM     31  O   UNL     1       1.896 -11.084   9.220  1.00  0.00    -0.460 OA
BRANCH  31  32
ATOM     32  C   UNL     1       0.630 -11.503   8.992  1.00  0.00     0.338 C 
ATOM     33  O   UNL     1      -0.407 -10.886   9.211  1.00  0.00    -0.246 OA
BRANCH  32  34
ATOM     34  C   UNL     1       0.649 -12.792   8.281  1.00  0.00     0.060 A 
ATOM     35  C   UNL     1       0.015 -12.874   7.034  1.00  0.00     0.016 A 
ATOM     36  C   UNL     1       1.203 -13.930   8.871  1.00  0.00     0.016 A 
ATOM     37  C   UNL     1      -0.092 -14.100   6.382  1.00  0.00     0.010 A 
ATOM     38  C   UNL     1       1.070 -15.164   8.229  1.00  0.00     0.010 A 
ATOM     39  C   UNL     1       0.395 -15.259   6.998  1.00  0.00    -0.014 A 
BRANCH  39  40
ATOM     40  C   UNL     1       0.044 -16.584   6.439  1.00  0.00     0.031 A 
ATOM     41  C   UNL     1      -1.141 -17.317   7.006  1.00  0.00     0.074 A 
ATOM     42  C   UNL     1       0.767 -17.128   5.444  1.00  0.00     0.049 A 
ATOM     43  N   UNL     1      -1.607 -18.498   6.700  1.00  0.00    -0.248 NA
ATOM     44  C   UNL     1      -1.901 -16.623   8.060  1.00  0.00     0.031 C 
ATOM     45  C   UNL     1       1.927 -16.509   4.806  1.00  0.00     0.029 A 
ATOM     46  N   UNL     1       0.643 -18.343   4.817  1.00  0.00    -0.354 N 
ATOM     47  C   UNL     1      -2.695 -18.705   7.540  1.00  0.00     0.074 A 
ATOM     48  C   UNL     1      -2.818 -17.528   8.372  1.00  0.00     0.031 C 
ATOM     49  C   UNL     1       2.434 -17.366   3.902  1.00  0.00     0.029 A 
ATOM     50  C   UNL     1       1.648 -18.598   3.914  1.00  0.00     0.049 A 
ATOM     51  H   UNL     1      -0.093 -18.971   4.997  1.00  0.00     0.167 HD
ATOM     52  C   UNL     1      -3.524 -19.773   7.605  1.00  0.00     0.034 A 
ATOM     53  C   UNL     1       1.913 -19.710   3.200  1.00  0.00     0.034 A 
ATOM     54  C   UNL     1      -3.411 -20.934   6.766  1.00  0.00     0.049 A 
ATOM     55  C   UNL     1       0.988 -20.895   3.309  1.00  0.00     0.074 A 
ATOM     56  C   UNL     1      -4.230 -22.048   6.725  1.00  0.00     0.029 A 
ATOM     57  N   UNL     1      -2.411 -21.138   5.828  1.00  0.00    -0.354 N 
ATOM     58  N   UNL     1      -0.107 -21.027   4.018  1.00  0.00    -0.248 NA
ATOM     59  C   UNL     1       1.318 -22.075   2.494  1.00  0.00     0.031 C 
ATOM     60  C   UNL     1      -3.710 -22.937   5.779  1.00  0.00     0.029 A 
ATOM     61  C   UNL     1      -2.583 -22.365   5.212  1.00  0.00     0.049 A 
ATOM     62  H   UNL     1      -1.685 -20.503   5.630  1.00  0.00     0.167 HD
ATOM     63  C   UNL     1      -0.616 -22.284   3.708  1.00  0.00     0.074 A 
ATOM     64  C   UNL     1       0.280 -22.867   2.731  1.00  0.00     0.031 C 
ATOM     65  C   UNL     1      -1.716 -22.907   4.198  1.00  0.00     0.034 A 
BRANCH  52  66
ATOM     66  C   UNL     1      -4.646 -19.726   8.607  1.00  0.00     0.023 A 
ATOM     67  C   UNL     1      -5.764 -18.905   8.362  1.00  0.00     0.012 A 
ATOM     68  C   UNL     1      -4.621 -20.540   9.756  1.00  0.00     0.148 A 
ATOM     69  C   UNL     1      -6.831 -18.874   9.259  1.00  0.00     0.002 A 
ATOM     70  C   UNL     1      -5.706 -20.535  10.625  1.00  0.00     0.091 A 
ATOM     71  F   UNL     1      -3.536 -21.294   9.982  1.00  0.00    -0.205 F 
ATOM     72  C   UNL     1      -6.807 -19.696  10.383  1.00  0.00     0.022 A 
BRANCH  70  73
ATOM     73  S   UNL     1      -5.802 -21.611  12.060  1.00  0.00     0.127 S 
ATOM     74  O   UNL     1      -5.653 -20.654  13.156  1.00  0.00    -0.237 OA
ATOM     75  O   UNL     1      -7.142 -22.182  11.927  1.00  0.00    -0.237 OA
ATOM     76  O   UNL     1      -4.716 -22.570  11.916  1.00  0.00    -0.744 OA
ENDBRANCH  70  73
ENDBRANCH  52  66
BRANCH  53  77
ATOM     77  C   UNL     1       3.096 -19.750   2.293  1.00  0.00     0.023 A 
ATOM     78  C   UNL     1       2.902 -19.789   0.899  1.00  0.00     0.012 A 
ATOM     79  C   UNL     1       4.408 -19.748   2.805  1.00  0.00     0.148 A 
ATOM     80  C   UNL     1       3.993 -19.857   0.032  1.00  0.00     0.002 A 
ATOM     81  C   UNL     1       5.491 -19.763   1.934  1.00  0.00     0.091 A 
ATOM     82  F   UNL     1       4.572 -19.734   4.135  1.00  0.00    -0.205 F 
ATOM     83  C   UNL     1       5.287 -19.834   0.548  1.00  0.00     0.022 A 
BRANCH  81  84
ATOM     84  S   UNL     1       7.187 -19.613   2.509  1.00  0.00     0.127 S 
ATOM     85  O   UNL     1       7.689 -20.971   2.314  1.00  0.00    -0.237 OA
ATOM     86  O   UNL     1       7.733 -18.616   1.587  1.00  0.00    -0.237 OA
ATOM     87  O   UNL     1       7.092 -19.162   3.890  1.00  0.00    -0.744 OA
ENDBRANCH  81  84
ENDBRANCH  53  77
BRANCH  65  88
ATOM     88  C   UNL     1      -2.045 -24.277   3.663  1.00  0.00     0.023 A 
ATOM     89  C   UNL     1      -1.265 -25.385   4.048  1.00  0.00     0.012 A 
ATOM     90  C   UNL     1      -3.175 -24.479   2.846  1.00  0.00     0.148 A 
ATOM     91  C   UNL     1      -1.586 -26.667   3.603  1.00  0.00     0.002 A 
ATOM     92  C   UNL     1      -3.517 -25.765   2.446  1.00  0.00     0.091 A 
ATOM     93  F   UNL     1      -3.896 -23.410   2.475  1.00  0.00    -0.205 F 
ATOM     94  C   UNL     1      -2.717 -26.859   2.813  1.00  0.00     0.022 A 
BRANCH  92  95
ATOM     95  S   UNL     1      -5.010 -26.115   1.509  1.00  0.00     0.127 S 
ATOM     96  O   UNL     1      -4.471 -26.382   0.177  1.00  0.00    -0.237 OA
ATOM     97  O   UNL     1      -5.543 -27.292   2.198  1.00  0.00    -0.237 OA
ATOM     98  O   UNL     1      -5.841 -24.924   1.622  1.00  0.00    -0.744 OA
ENDBRANCH  92  95
ENDBRANCH  65  88
ENDBRANCH  39  40
ENDBRANCH  32  34
ENDBRANCH  31  32
ENDBRANCH  30  31
ENDBRANCH  29  30
ENDBRANCH  28  29
ENDBRANCH  27  28
ENDBRANCH   1  27
TORSDOF 24
