REMARK SMILES CC1(C)CSC[C@H](Nc2cc(C(=O)OCCOCCOCCOC(=O)c3ccc(-c4c5nc(c(-c6cccc(S(=O)(=O)[O-])c6F)c6ccc([nH]6)c(-c6cccc(S(=O)(=O)[O-])c6F)c6nc(c(-c7cccc(S(=O)(=O)[O-])c7F)c7ccc4[nH]7)C=C6)C=C5)cc3)ccc2F)C1
REMARK SMILES IDX 19 1 18 2 17 3 16 4 15 5 14 6 12 7 13 8 11 9 9 10 10 11
REMARK SMILES IDX 91 12 90 13 92 14 89 15 8 16 7 18 1 19 2 20 3 21 4 22 93 23
REMARK SMILES IDX 5 24 6 25 20 26 21 27 22 28 23 29 24 30 25 31 26 32 27 33
REMARK SMILES IDX 88 34 28 35 87 36 29 37 30 38 31 39 81 40 32 41 86 42 80 43
REMARK SMILES IDX 82 44 33 45 85 46 79 47 78 48 34 50 66 51 46 52 65 53 47 54
REMARK SMILES IDX 50 55 64 56 83 57 48 58 49 59 63 61 84 62 51 63 35 64 36 65
REMARK SMILES IDX 44 66 37 67 39 68 45 69 38 70 40 71 41 72 42 73 43 74 67 75
REMARK SMILES IDX 68 76 76 77 69 78 71 79 77 80 70 81 72 82 73 83 74 84 75 85
REMARK SMILES IDX 52 86 53 87 61 88 54 89 56 90 62 91 55 92 57 93 58 94 59 95
REMARK SMILES IDX 60 96
REMARK H PARENT 8 17 82 49 50 60
REMARK Flexibility Score: inf
ROOT
ATOM      1  C   UNL     1      -6.736   5.016  -3.182  1.00  0.00     0.188 C 
ENDROOT
BRANCH   1   2
ATOM      2  C   UNL     1      -6.473   6.054  -2.073  1.00  0.00     0.188 C 
BRANCH   2   3
ATOM      3  O   UNL     1      -7.008   7.349  -2.226  1.00  0.00    -0.376 OA
BRANCH   3   4
ATOM      4  C   UNL     1      -6.477   8.251  -3.180  1.00  0.00     0.202 C 
BRANCH   4   5
ATOM      5  C   UNL     1      -5.098   8.129  -3.855  1.00  0.00     0.261 C 
BRANCH   5   6
ATOM      6  O   UNL     1      -4.576   6.810  -4.035  1.00  0.00    -0.460 OA
BRANCH   6   7
ATOM      7  C   UNL     1      -3.466   6.526  -3.312  1.00  0.00     0.338 C 
ATOM      8  O   UNL     1      -2.849   7.284  -2.577  1.00  0.00    -0.246 OA
BRANCH   7   9
ATOM      9  C   UNL     1      -3.189   5.079  -3.376  1.00  0.00     0.062 A 
ATOM     10  C   UNL     1      -2.709   3.031  -2.146  1.00  0.00     0.071 A 
ATOM     11  C   UNL     1      -3.007   4.398  -2.163  1.00  0.00     0.044 A 
ATOM     12  C   UNL     1      -2.585   2.374  -3.381  1.00  0.00     0.146 A 
ATOM     13  C   UNL     1      -2.809   3.037  -4.590  1.00  0.00     0.042 A 
ATOM     14  F   UNL     1      -2.249   1.076  -3.423  1.00  0.00    -0.205 F 
ATOM     15  C   UNL     1      -3.116   4.398  -4.593  1.00  0.00     0.019 A 
BRANCH  10  16
ATOM     16  N   UNL     1      -2.384   2.428  -0.925  1.00  0.00    -0.379 N 
ATOM     17  H   UNL     1      -3.072   2.223  -0.251  1.00  0.00     0.160 HD
BRANCH  16  18
ATOM     18  C   UNL     1      -0.959   2.115  -0.696  1.00  0.00     0.089 C 
ATOM     19  C   UNL     1       1.229  -0.069   0.068  1.00  0.00     0.012 C 
ATOM     20  C   UNL     1       0.604   0.945   1.049  1.00  0.00    -0.024 C 
ATOM     21  C   UNL     1       0.550   0.272   2.438  1.00  0.00     0.012 C 
ATOM     22  C   UNL     1       1.483   2.206   1.184  1.00  0.00     0.076 C 
ATOM     23  C   UNL     1      -0.843   1.308   0.616  1.00  0.00     0.033 C 
ATOM     24  S   UNL     1       1.627   3.159  -0.350  1.00  0.00    -0.159 SA
ATOM     25  C   UNL     1      -0.142   3.423  -0.635  1.00  0.00     0.094 C 
ENDBRANCH  16  18
ENDBRANCH  10  16
ENDBRANCH   7   9
ENDBRANCH   6   7
ENDBRANCH   5   6
ENDBRANCH   4   5
ENDBRANCH   3   4
ENDBRANCH   2   3
ENDBRANCH   1   2
BRANCH   1  26
ATOM     26  O   UNL     1      -7.350   5.413  -4.389  1.00  0.00    -0.376 OA
BRANCH  26  27
ATOM     27  C   UNL     1      -8.676   5.913  -4.378  1.00  0.00     0.202 C 
BRANCH  27  28
ATOM     28  C   UNL     1      -9.753   5.536  -3.342  1.00  0.00     0.261 C 
BRANCH  28  29
ATOM     29  O   UNL     1      -9.319   5.195  -2.023  1.00  0.00    -0.460 OA
BRANCH  29  30
ATOM     30  C   UNL     1      -9.400   3.878  -1.707  1.00  0.00     0.338 C 
ATOM     31  O   UNL     1      -9.777   2.969  -2.429  1.00  0.00    -0.246 OA
BRANCH  30  32
ATOM     32  C   UNL     1      -8.783   3.660  -0.387  1.00  0.00     0.060 A 
ATOM     33  C   UNL     1      -7.593   2.923  -0.312  1.00  0.00     0.016 A 
ATOM     34  C   UNL     1      -9.396   4.141   0.770  1.00  0.00     0.016 A 
ATOM     35  C   UNL     1      -7.020   2.645   0.928  1.00  0.00     0.010 A 
ATOM     36  C   UNL     1      -8.832   3.842   2.014  1.00  0.00     0.010 A 
ATOM     37  C   UNL     1      -7.660   3.068   2.100  1.00  0.00    -0.014 A 
BRANCH  37  38
ATOM     38  C   UNL     1      -7.198   2.568   3.416  1.00  0.00     0.031 A 
ATOM     39  C   UNL     1      -7.941   1.428   4.056  1.00  0.00     0.074 A 
ATOM     40  C   UNL     1      -6.140   3.119   4.037  1.00  0.00     0.049 A 
ATOM     41  N   UNL     1      -7.755   0.870   5.223  1.00  0.00    -0.248 NA
ATOM     42  C   UNL     1      -9.045   0.840   3.277  1.00  0.00     0.031 C 
ATOM     43  C   UNL     1      -5.331   4.217   3.513  1.00  0.00     0.029 A 
ATOM     44  N   UNL     1      -5.585   2.844   5.263  1.00  0.00    -0.354 N 
ATOM     45  C   UNL     1      -8.732  -0.111   5.333  1.00  0.00     0.074 A 
ATOM     46  C   UNL     1      -9.518  -0.067   4.119  1.00  0.00     0.031 C 
ATOM     47  C   UNL     1      -4.398   4.542   4.424  1.00  0.00     0.029 A 
ATOM     48  C   UNL     1      -4.564   3.698   5.607  1.00  0.00     0.049 A 
ATOM     49  H   UNL     1      -5.888   2.105   5.839  1.00  0.00     0.167 HD
ATOM     50  C   UNL     1      -8.947  -0.979   6.348  1.00  0.00     0.034 A 
ATOM     51  C   UNL     1      -3.865   3.806   6.755  1.00  0.00     0.034 A 
ATOM     52  C   UNL     1      -8.154  -1.032   7.545  1.00  0.00     0.049 A 
ATOM     53  C   UNL     1      -4.149   2.854   7.890  1.00  0.00     0.074 A 
ATOM     54  C   UNL     1      -8.268  -1.909   8.609  1.00  0.00     0.029 A 
ATOM     55  N   UNL     1      -7.113  -0.169   7.847  1.00  0.00    -0.354 N 
ATOM     56  N   UNL     1      -5.010   1.867   7.941  1.00  0.00    -0.248 NA
ATOM     57  C   UNL     1      -3.348   3.012   9.114  1.00  0.00     0.031 C 
ATOM     58  C   UNL     1      -7.322  -1.550   9.572  1.00  0.00     0.029 A 
ATOM     59  C   UNL     1      -6.586  -0.481   9.088  1.00  0.00     0.049 A 
ATOM     60  H   UNL     1      -6.795   0.559   7.264  1.00  0.00     0.167 HD
ATOM     61  C   UNL     1      -4.831   1.265   9.183  1.00  0.00     0.074 A 
ATOM     62  C   UNL     1      -3.770   1.990   9.849  1.00  0.00     0.031 C 
ATOM     63  C   UNL     1      -5.494   0.213   9.723  1.00  0.00     0.034 A 
BRANCH  50  64
ATOM     64  C   UNL     1     -10.074  -1.968   6.206  1.00  0.00     0.023 A 
ATOM     65  C   UNL     1      -9.950  -3.045   5.306  1.00  0.00     0.012 A 
ATOM     66  C   UNL     1     -11.213  -1.883   7.030  1.00  0.00     0.148 A 
ATOM     67  C   UNL     1     -10.951  -4.011   5.212  1.00  0.00     0.002 A 
ATOM     68  C   UNL     1     -12.184  -2.876   6.967  1.00  0.00     0.091 A 
ATOM     69  F   UNL     1     -11.322  -0.839   7.864  1.00  0.00    -0.205 F 
ATOM     70  C   UNL     1     -12.059  -3.933   6.052  1.00  0.00     0.022 A 
BRANCH  68  71
ATOM     71  S   UNL     1     -13.603  -2.917   8.067  1.00  0.00     0.127 S 
ATOM     72  O   UNL     1     -14.705  -2.678   7.136  1.00  0.00    -0.237 OA
ATOM     73  O   UNL     1     -13.538  -4.279   8.598  1.00  0.00    -0.237 OA
ATOM     74  O   UNL     1     -13.382  -1.867   9.051  1.00  0.00    -0.744 OA
ENDBRANCH  68  71
ENDBRANCH  50  64
BRANCH  51  75
ATOM     75  C   UNL     1      -2.798   4.840   6.872  1.00  0.00     0.023 A 
ATOM     76  C   UNL     1      -1.447   4.443   6.913  1.00  0.00     0.012 A 
ATOM     77  C   UNL     1      -3.112   6.213   6.891  1.00  0.00     0.148 A 
ATOM     78  C   UNL     1      -0.429   5.394   6.985  1.00  0.00     0.002 A 
ATOM     79  C   UNL     1      -2.091   7.156   6.905  1.00  0.00     0.091 A 
ATOM     80  F   UNL     1      -4.404   6.568   6.867  1.00  0.00    -0.205 F 
ATOM     81  C   UNL     1      -0.750   6.749   6.967  1.00  0.00     0.022 A 
BRANCH  79  82
ATOM     82  S   UNL     1      -2.400   8.919   6.751  1.00  0.00     0.127 S 
ATOM     83  O   UNL     1      -1.923   9.420   8.037  1.00  0.00    -0.237 OA
ATOM     84  O   UNL     1      -1.561   9.266   5.604  1.00  0.00    -0.237 OA
ATOM     85  O   UNL     1      -3.831   9.052   6.517  1.00  0.00    -0.744 OA
ENDBRANCH  79  82
ENDBRANCH  51  75
BRANCH  63  86
ATOM     86  C   UNL     1      -5.085  -0.267  11.094  1.00  0.00     0.023 A 
ATOM     87  C   UNL     1      -5.419   0.491  12.233  1.00  0.00     0.012 A 
ATOM     88  C   UNL     1      -4.491  -1.536  11.257  1.00  0.00     0.148 A 
ATOM     89  C   UNL     1      -5.152   0.002  13.512  1.00  0.00     0.002 A 
ATOM     90  C   UNL     1      -4.278  -2.039  12.534  1.00  0.00     0.091 A 
ATOM     91  F   UNL     1      -4.170  -2.236  10.159  1.00  0.00    -0.205 F 
ATOM     92  C   UNL     1      -4.597  -1.268  13.663  1.00  0.00     0.022 A 
BRANCH  90  93
ATOM     93  S   UNL     1      -3.671  -3.705  12.829  1.00  0.00     0.127 S 
ATOM     94  O   UNL     1      -2.351  -3.443  13.403  1.00  0.00    -0.237 OA
ATOM     95  O   UNL     1      -4.655  -4.229  13.777  1.00  0.00    -0.237 OA
ATOM     96  O   UNL     1      -3.661  -4.368  11.533  1.00  0.00    -0.744 OA
ENDBRANCH  90  93
ENDBRANCH  63  86
ENDBRANCH  37  38
ENDBRANCH  30  32
ENDBRANCH  29  30
ENDBRANCH  28  29
ENDBRANCH  27  28
ENDBRANCH  26  27
ENDBRANCH   1  26
TORSDOF 22
