REMARK SMILES O=C(OCCOCCOCCOC(=O)[C@H]1CCCN(C(=O)C2CCN(S(=O)(=O)c3ccccc3)CC2)C1)c1ccc(-c2c3nc(c(-c4cccc(S(=O)(=O)[O-])c4F)c4ccc([nH]4)c(-c4cccc(S(=O)(=O)[O-])c4F)c4nc(c(-c5cccc(S(=O)(=O)[O-])c5F)c5ccc2[nH]5)C=C4)C=C3)cc1
REMARK SMILES IDX 8 1 7 2 6 3 5 4 4 5 3 6 2 7 1 8 38 9 39 10 100 11 40 12
REMARK SMILES IDX 99 13 41 14 42 15 43 16 93 17 44 18 98 19 92 20 94 21 45 22
REMARK SMILES IDX 97 23 91 24 90 25 46 27 78 28 58 29 77 30 59 31 62 32 76 33
REMARK SMILES IDX 95 34 60 35 61 36 75 38 96 39 63 40 47 41 48 42 56 43 49 44
REMARK SMILES IDX 51 45 57 46 50 47 52 48 53 49 54 50 55 51 79 52 80 53 88 54
REMARK SMILES IDX 81 55 83 56 89 57 82 58 84 59 85 60 86 61 87 62 64 63 65 64
REMARK SMILES IDX 73 65 66 66 68 67 74 68 67 69 69 70 70 71 71 72 72 73 9 74
REMARK SMILES IDX 10 75 11 76 12 77 13 78 14 79 15 80 16 81 37 82 17 83 19 84
REMARK SMILES IDX 18 85 20 86 21 87 22 88 23 89 36 90 24 91 35 92 25 93 26 94
REMARK SMILES IDX 27 95 28 96 29 97 30 98 34 99 31 100 33 101 32 102
REMARK H PARENT 94 26 62 37
REMARK Flexibility Score: inf
ROOT
ATOM      1  C   UNL     1       6.483  -3.276  -4.371  1.00  0.00     0.188 C 
ENDROOT
BRANCH   1   2
ATOM      2  C   UNL     1       6.685  -1.786  -4.100  1.00  0.00     0.188 C 
BRANCH   2   3
ATOM      3  O   UNL     1       5.953  -0.929  -4.978  1.00  0.00    -0.376 OA
BRANCH   3   4
ATOM      4  C   UNL     1       6.752   0.095  -5.566  1.00  0.00     0.202 C 
BRANCH   4   5
ATOM      5  C   UNL     1       7.243   1.210  -4.627  1.00  0.00     0.261 C 
BRANCH   5   6
ATOM      6  O   UNL     1       7.279   0.864  -3.234  1.00  0.00    -0.460 OA
BRANCH   6   7
ATOM      7  C   UNL     1       6.307   0.907  -2.292  1.00  0.00     0.338 C 
ATOM      8  O   UNL     1       6.639   0.666  -1.131  1.00  0.00    -0.246 OA
BRANCH   7   9
ATOM      9  C   UNL     1       4.852   1.176  -2.563  1.00  0.00     0.060 A 
ATOM     10  C   UNL     1       4.278   1.444  -3.809  1.00  0.00     0.016 A 
ATOM     11  C   UNL     1       3.991   1.162  -1.449  1.00  0.00     0.016 A 
ATOM     12  C   UNL     1       2.920   1.738  -3.953  1.00  0.00     0.010 A 
ATOM     13  C   UNL     1       2.628   1.454  -1.584  1.00  0.00     0.010 A 
ATOM     14  C   UNL     1       2.092   1.785  -2.838  1.00  0.00    -0.014 A 
BRANCH  14  15
ATOM     15  C   UNL     1       0.781   2.474  -2.940  1.00  0.00     0.031 A 
ATOM     16  C   UNL     1       0.750   3.880  -2.396  1.00  0.00     0.074 A 
ATOM     17  C   UNL     1      -0.294   1.912  -3.535  1.00  0.00     0.049 A 
ATOM     18  N   UNL     1      -0.258   4.685  -2.232  1.00  0.00    -0.248 NA
ATOM     19  C   UNL     1       2.052   4.478  -2.020  1.00  0.00     0.031 C 
ATOM     20  C   UNL     1      -0.301   0.614  -4.216  1.00  0.00     0.029 A 
ATOM     21  N   UNL     1      -1.612   2.311  -3.601  1.00  0.00    -0.354 N 
ATOM     22  C   UNL     1       0.283   5.876  -1.762  1.00  0.00     0.074 A 
ATOM     23  C   UNL     1       1.702   5.684  -1.608  1.00  0.00     0.031 C 
ATOM     24  C   UNL     1      -1.571   0.252  -4.481  1.00  0.00     0.029 A 
ATOM     25  C   UNL     1      -2.472   1.292  -3.995  1.00  0.00     0.049 A 
ATOM     26  H   UNL     1      -1.913   3.224  -3.390  1.00  0.00     0.167 HD
ATOM     27  C   UNL     1      -0.361   7.040  -1.523  1.00  0.00     0.034 A 
ATOM     28  C   UNL     1      -3.815   1.183  -3.833  1.00  0.00     0.034 A 
ATOM     29  C   UNL     1      -1.782   7.156  -1.664  1.00  0.00     0.049 A 
ATOM     30  C   UNL     1      -4.509   2.388  -3.260  1.00  0.00     0.074 A 
ATOM     31  C   UNL     1      -2.584   8.269  -1.520  1.00  0.00     0.029 A 
ATOM     32  N   UNL     1      -2.617   6.084  -1.957  1.00  0.00    -0.354 N 
ATOM     33  N   UNL     1      -3.986   3.517  -2.835  1.00  0.00    -0.248 NA
ATOM     34  C   UNL     1      -5.973   2.341  -3.220  1.00  0.00     0.031 C 
ATOM     35  C   UNL     1      -3.912   7.855  -1.671  1.00  0.00     0.029 A 
ATOM     36  C   UNL     1      -3.931   6.496  -1.955  1.00  0.00     0.049 A 
ATOM     37  H   UNL     1      -2.313   5.165  -2.138  1.00  0.00     0.167 HD
ATOM     38  C   UNL     1      -5.061   4.344  -2.554  1.00  0.00     0.074 A 
ATOM     39  C   UNL     1      -6.260   3.559  -2.785  1.00  0.00     0.031 C 
ATOM     40  C   UNL     1      -5.072   5.652  -2.200  1.00  0.00     0.034 A 
BRANCH  27  41
ATOM     41  C   UNL     1       0.461   8.231  -1.106  1.00  0.00     0.023 A 
ATOM     42  C   UNL     1       1.350   8.832  -2.025  1.00  0.00     0.012 A 
ATOM     43  C   UNL     1       0.355   8.765   0.192  1.00  0.00     0.148 A 
ATOM     44  C   UNL     1       2.144   9.916  -1.648  1.00  0.00     0.002 A 
ATOM     45  C   UNL     1       1.119   9.872   0.547  1.00  0.00     0.091 A 
ATOM     46  F   UNL     1      -0.468   8.165   1.063  1.00  0.00    -0.205 F 
ATOM     47  C   UNL     1       2.022  10.441  -0.365  1.00  0.00     0.022 A 
BRANCH  45  48
ATOM     48  S   UNL     1       0.993  10.659   2.157  1.00  0.00     0.127 S 
ATOM     49  O   UNL     1       2.288  10.327   2.749  1.00  0.00    -0.237 OA
ATOM     50  O   UNL     1       0.830  12.068   1.797  1.00  0.00    -0.237 OA
ATOM     51  O   UNL     1      -0.162  10.058   2.808  1.00  0.00    -0.744 OA
ENDBRANCH  45  48
ENDBRANCH  27  41
BRANCH  28  52
ATOM     52  C   UNL     1      -4.574  -0.104  -4.072  1.00  0.00     0.023 A 
ATOM     53  C   UNL     1      -4.660  -0.643  -5.367  1.00  0.00     0.012 A 
ATOM     54  C   UNL     1      -5.202  -0.820  -3.014  1.00  0.00     0.148 A 
ATOM     55  C   UNL     1      -5.285  -1.876  -5.596  1.00  0.00     0.002 A 
ATOM     56  C   UNL     1      -5.764  -2.077  -3.236  1.00  0.00     0.091 A 
ATOM     57  F   UNL     1      -5.296  -0.245  -1.806  1.00  0.00    -0.205 F 
ATOM     58  C   UNL     1      -5.806  -2.606  -4.530  1.00  0.00     0.022 A 
BRANCH  56  59
ATOM     59  S   UNL     1      -6.341  -3.146  -1.899  1.00  0.00     0.127 S 
ATOM     60  O   UNL     1      -7.790  -3.093  -2.064  1.00  0.00    -0.237 OA
ATOM     61  O   UNL     1      -5.725  -4.426  -2.258  1.00  0.00    -0.237 OA
ATOM     62  O   UNL     1      -5.824  -2.568  -0.666  1.00  0.00    -0.744 OA
ENDBRANCH  56  59
ENDBRANCH  28  52
BRANCH  40  63
ATOM     63  C   UNL     1      -6.415   6.310  -2.157  1.00  0.00     0.023 A 
ATOM     64  C   UNL     1      -7.282   6.103  -1.071  1.00  0.00     0.012 A 
ATOM     65  C   UNL     1      -6.784   7.177  -3.204  1.00  0.00     0.148 A 
ATOM     66  C   UNL     1      -8.522   6.735  -1.043  1.00  0.00     0.002 A 
ATOM     67  C   UNL     1      -7.993   7.847  -3.139  1.00  0.00     0.091 A 
ATOM     68  F   UNL     1      -5.941   7.328  -4.236  1.00  0.00    -0.205 F 
ATOM     69  C   UNL     1      -8.871   7.615  -2.068  1.00  0.00     0.022 A 
BRANCH  67  70
ATOM     70  S   UNL     1      -8.465   9.076  -4.357  1.00  0.00     0.127 S 
ATOM     71  O   UNL     1      -9.559   8.402  -5.053  1.00  0.00    -0.237 OA
ATOM     72  O   UNL     1      -8.874  10.199  -3.514  1.00  0.00    -0.237 OA
ATOM     73  O   UNL     1      -7.276   9.328  -5.161  1.00  0.00    -0.744 OA
ENDBRANCH  67  70
ENDBRANCH  40  63
ENDBRANCH  14  15
ENDBRANCH   7   9
ENDBRANCH   6   7
ENDBRANCH   5   6
ENDBRANCH   4   5
ENDBRANCH   3   4
ENDBRANCH   2   3
ENDBRANCH   1   2
BRANCH   1  74
ATOM     74  O   UNL     1       6.873  -3.815  -5.628  1.00  0.00    -0.376 OA
BRANCH  74  75
ATOM     75  C   UNL     1       6.410  -3.224  -6.834  1.00  0.00     0.202 C 
BRANCH  75  76
ATOM     76  C   UNL     1       4.909  -3.033  -7.113  1.00  0.00     0.261 C 
BRANCH  76  77
ATOM     77  O   UNL     1       4.089  -2.956  -5.955  1.00  0.00    -0.463 OA
BRANCH  77  78
ATOM     78  C   UNL     1       3.467  -4.094  -5.539  1.00  0.00     0.310 C 
ATOM     79  O   UNL     1       3.502  -5.164  -6.129  1.00  0.00    -0.252 OA
BRANCH  78  80
ATOM     80  C   UNL     1       2.812  -3.867  -4.184  1.00  0.00     0.119 C 
ATOM     81  C   UNL     1       2.634  -2.363  -3.912  1.00  0.00     0.019 C 
ATOM     82  C   UNL     1       1.489  -4.642  -4.100  1.00  0.00     0.134 C 
ATOM     83  C   UNL     1       1.822  -2.133  -2.665  1.00  0.00     0.022 C 
ATOM     84  N   UNL     1       0.678  -4.253  -2.937  1.00  0.00    -0.342 N 
ATOM     85  C   UNL     1       0.488  -2.833  -2.817  1.00  0.00     0.119 C 
BRANCH  84  86
ATOM     86  C   UNL     1       0.290  -5.170  -1.978  1.00  0.00     0.225 C 
ATOM     87  O   UNL     1       0.873  -6.261  -1.911  1.00  0.00    -0.275 OA
BRANCH  86  88
ATOM     88  C   UNL     1      -0.883  -4.907  -0.981  1.00  0.00     0.081 C 
ATOM     89  C   UNL     1      -2.201  -4.406  -1.540  1.00  0.00     0.030 C 
ATOM     90  C   UNL     1      -0.593  -4.247   0.363  1.00  0.00     0.030 C 
ATOM     91  C   UNL     1      -2.437  -2.912  -1.458  1.00  0.00     0.103 C 
ATOM     92  C   UNL     1      -0.697  -2.730   0.427  1.00  0.00     0.103 C 
ATOM     93  N   UNL     1      -1.849  -2.142  -0.287  1.00  0.00    -0.198 NA
BRANCH  93  94
ATOM     94  S   UNL     1      -1.627  -0.505  -0.802  1.00  0.00     0.243 S 
ATOM     95  O   UNL     1      -0.308  -0.447  -1.396  1.00  0.00    -0.207 OA
ATOM     96  O   UNL     1      -2.784  -0.190  -1.595  1.00  0.00    -0.207 OA
BRANCH  94  97
ATOM     97  C   UNL     1      -1.577   0.700   0.495  1.00  0.00     0.082 A 
ATOM     98  C   UNL     1      -2.539   1.722   0.437  1.00  0.00     0.022 A 
ATOM     99  C   UNL     1      -0.333   0.948   1.089  1.00  0.00     0.022 A 
ATOM    100  C   UNL     1      -2.227   3.002   0.897  1.00  0.00     0.001 A 
ATOM    101  C   UNL     1      -0.034   2.228   1.560  1.00  0.00     0.001 A 
ATOM    102  C   UNL     1      -0.969   3.257   1.439  1.00  0.00     0.000 A 
ENDBRANCH  94  97
ENDBRANCH  93  94
ENDBRANCH  86  88
ENDBRANCH  84  86
ENDBRANCH  78  80
ENDBRANCH  77  78
ENDBRANCH  76  77
ENDBRANCH  75  76
ENDBRANCH  74  75
ENDBRANCH   1  74
TORSDOF 24
