REMARK SMILES CC(=O)Oc1ccc2oc(N)c([C@@H]3[NH2+][C@@H](C(=O)OCCOCCOCCOC(=O)c4ccc(-c5c6nc(c(-c7cccc(S(=O)(=O)[O-])c7F)c7ccc([nH]7)c(-c7cccc(S(=O)(=O)[O-])c7F)c7nc(c(-c8cccc(S(=O)(=O)[O-])c8F)c8ccc5[nH]8)C=C7)C=C6)cc4)C(C)(C)S3)c(=O)c2c1
REMARK SMILES IDX 22 1 21 2 20 3 19 4 18 5 16 6 17 7 15 8 13 9 14 10 96 11
REMARK SMILES IDX 93 14 94 15 95 16 12 17 5 18 6 19 100 20 7 21 99 22 8 23
REMARK SMILES IDX 97 24 9 25 98 26 10 27 4 28 2 29 1 30 3 31 11 32 23 35 24 36
REMARK SMILES IDX 25 37 26 38 27 39 28 40 29 41 30 42 31 43 92 44 32 45 91 46
REMARK SMILES IDX 33 47 34 48 35 49 85 50 36 51 90 52 84 53 86 54 37 55 89 56
REMARK SMILES IDX 83 57 82 58 38 60 70 61 50 62 69 63 51 64 54 65 68 66 87 67
REMARK SMILES IDX 52 68 53 69 67 71 88 72 55 73 39 74 40 75 48 76 41 77 43 78
REMARK SMILES IDX 49 79 42 80 44 81 45 82 46 83 47 84 71 85 72 86 80 87 73 88
REMARK SMILES IDX 75 89 81 90 74 91 76 92 77 93 78 94 79 95 56 96 57 97 65 98
REMARK SMILES IDX 58 99 60 100 66 101 59 102 61 103 62 104 63 105 64 106
REMARK H PARENT 14 12 14 13 11 33 11 34 86 59 54 70
REMARK Flexibility Score: inf
ROOT
ATOM      1  C   UNL     1       0.504 -14.358  -3.401  1.00  0.00     0.188 C 
ENDROOT
BRANCH   1   2
ATOM      2  O   UNL     1      -0.383 -14.503  -2.299  1.00  0.00    -0.376 OA
BRANCH   2   3
ATOM      3  C   UNL     1      -1.546 -13.692  -2.197  1.00  0.00     0.202 C 
BRANCH   3   4
ATOM      4  C   UNL     1      -1.375 -12.168  -2.084  1.00  0.00     0.261 C 
BRANCH   4   5
ATOM      5  O   UNL     1      -0.809 -11.488  -3.234  1.00  0.00    -0.459 OA
BRANCH   5   6
ATOM      6  C   UNL     1       0.456 -11.021  -3.066  1.00  0.00     0.366 C 
ATOM      7  O   UNL     1       1.078 -11.164  -2.015  1.00  0.00    -0.245 OA
BRANCH   6   8
ATOM      8  C   UNL     1       1.082 -10.239  -4.265  1.00  0.00     0.310 C 
ATOM      9  C   UNL     1       1.816  -8.012  -4.816  1.00  0.00     0.284 C 
ATOM     10  N   UNL     1       1.192  -8.833  -3.789  1.00  0.00    -0.318 N 
ATOM     11  S   UNL     1       1.296  -8.655  -6.415  1.00  0.00    -0.081 SA
ATOM     12  H   UNL     1       0.260  -8.470  -3.587  1.00  0.00     0.348 HD
ATOM     13  H   UNL     1       1.762  -8.806  -2.944  1.00  0.00     0.348 HD
ATOM     14  C   UNL     1       0.570 -10.224  -5.742  1.00  0.00     0.079 C 
ATOM     15  C   UNL     1      -0.945 -10.153  -5.924  1.00  0.00     0.030 C 
ATOM     16  C   UNL     1       1.163 -11.265  -6.716  1.00  0.00     0.030 C 
BRANCH   9  17
ATOM     17  C   UNL     1       3.308  -7.796  -4.686  1.00  0.00     0.128 A 
ATOM     18  C   UNL     1       6.784  -4.330  -4.669  1.00  0.00     0.131 A 
ATOM     19  C   UNL     1       7.748  -5.324  -4.847  1.00  0.00     0.051 A 
ATOM     20  C   UNL     1       5.443  -4.644  -4.469  1.00  0.00     0.063 A 
ATOM     21  C   UNL     1       7.355  -6.660  -4.844  1.00  0.00     0.052 A 
ATOM     22  C   UNL     1       5.064  -5.985  -4.490  1.00  0.00     0.069 A 
ATOM     23  C   UNL     1       6.009  -6.980  -4.668  1.00  0.00     0.140 A 
ATOM     24  C   UNL     1       3.661  -6.381  -4.352  1.00  0.00     0.205 A 
ATOM     25  O   UNL     1       5.673  -8.298  -4.665  1.00  0.00    -0.440 OA
ATOM     26  O   UNL     1       2.824  -5.541  -4.035  1.00  0.00    -0.288 OA
ATOM     27  C   UNL     1       4.346  -8.656  -4.830  1.00  0.00     0.205 A 
BRANCH  18  28
ATOM     28  O   UNL     1       7.157  -2.987  -4.588  1.00  0.00    -0.427 OA
BRANCH  28  29
ATOM     29  C   UNL     1       7.619  -2.446  -5.780  1.00  0.00     0.308 C 
ATOM     30  C   UNL     1       8.030  -1.027  -5.526  1.00  0.00     0.139 C 
ATOM     31  O   UNL     1       7.663  -2.989  -6.875  1.00  0.00    -0.252 OA
ENDBRANCH  28  29
ENDBRANCH  18  28
BRANCH  27  32
ATOM     32  N   UNL     1       4.273  -9.970  -5.173  1.00  0.00    -0.369 N 
ATOM     33  H   UNL     1       5.096 -10.505  -5.249  1.00  0.00     0.159 HD
ATOM     34  H   UNL     1       3.398 -10.387  -5.344  1.00  0.00     0.159 HD
ENDBRANCH  27  32
ENDBRANCH   9  17
ENDBRANCH   6   8
ENDBRANCH   5   6
ENDBRANCH   4   5
ENDBRANCH   3   4
ENDBRANCH   2   3
ENDBRANCH   1   2
BRANCH   1  35
ATOM     35  C   UNL     1      -0.054 -13.861  -4.734  1.00  0.00     0.188 C 
BRANCH  35  36
ATOM     36  O   UNL     1      -1.437 -14.065  -4.886  1.00  0.00    -0.376 OA
BRANCH  36  37
ATOM     37  C   UNL     1      -1.923 -14.883  -5.924  1.00  0.00     0.202 C 
BRANCH  37  38
ATOM     38  C   UNL     1      -1.367 -16.303  -6.091  1.00  0.00     0.261 C 
BRANCH  38  39
ATOM     39  O   UNL     1       0.038 -16.485  -5.883  1.00  0.00    -0.460 OA
BRANCH  39  40
ATOM     40  C   UNL     1       0.882 -16.078  -6.862  1.00  0.00     0.338 C 
ATOM     41  O   UNL     1       0.575 -15.521  -7.902  1.00  0.00    -0.246 OA
BRANCH  40  42
ATOM     42  C   UNL     1       2.254 -16.210  -6.316  1.00  0.00     0.060 A 
ATOM     43  C   UNL     1       2.654 -17.411  -5.726  1.00  0.00     0.016 A 
ATOM     44  C   UNL     1       3.123 -15.109  -6.334  1.00  0.00     0.016 A 
ATOM     45  C   UNL     1       3.928 -17.517  -5.170  1.00  0.00     0.010 A 
ATOM     46  C   UNL     1       4.401 -15.217  -5.774  1.00  0.00     0.010 A 
ATOM     47  C   UNL     1       4.820 -16.429  -5.204  1.00  0.00    -0.014 A 
BRANCH  47  48
ATOM     48  C   UNL     1       6.234 -16.649  -4.814  1.00  0.00     0.031 A 
ATOM     49  C   UNL     1       6.800 -16.158  -3.515  1.00  0.00     0.074 A 
ATOM     50  C   UNL     1       7.015 -17.334  -5.673  1.00  0.00     0.049 A 
ATOM     51  N   UNL     1       7.978 -16.402  -3.000  1.00  0.00    -0.248 NA
ATOM     52  C   UNL     1       5.954 -15.282  -2.691  1.00  0.00     0.031 C 
ATOM     53  C   UNL     1       6.595 -17.795  -6.999  1.00  0.00     0.029 A 
ATOM     54  N   UNL     1       8.312 -17.765  -5.566  1.00  0.00    -0.354 N 
ATOM     55  C   UNL     1       8.019 -15.720  -1.791  1.00  0.00     0.074 A 
ATOM     56  C   UNL     1       6.753 -15.027  -1.660  1.00  0.00     0.031 C 
ATOM     57  C   UNL     1       7.608 -18.459  -7.574  1.00  0.00     0.029 A 
ATOM     58  C   UNL     1       8.750 -18.464  -6.665  1.00  0.00     0.049 A 
ATOM     59  H   UNL     1       8.875 -17.591  -4.777  1.00  0.00     0.167 HD
ATOM     60  C   UNL     1       9.011 -15.700  -0.869  1.00  0.00     0.034 A 
ATOM     61  C   UNL     1       9.934 -19.055  -6.917  1.00  0.00     0.034 A 
ATOM     62  C   UNL     1      10.260 -16.406  -1.000  1.00  0.00     0.049 A 
ATOM     63  C   UNL     1      11.001 -19.043  -5.863  1.00  0.00     0.074 A 
ATOM     64  C   UNL     1      11.293 -16.491  -0.081  1.00  0.00     0.029 A 
ATOM     65  N   UNL     1      10.652 -17.136  -2.109  1.00  0.00    -0.354 N 
ATOM     66  N   UNL     1      10.961 -18.516  -4.665  1.00  0.00    -0.248 NA
ATOM     67  C   UNL     1      12.261 -19.732  -6.178  1.00  0.00     0.031 C 
ATOM     68  C   UNL     1      12.315 -17.262  -0.640  1.00  0.00     0.029 A 
ATOM     69  C   UNL     1      11.911 -17.671  -1.901  1.00  0.00     0.049 A 
ATOM     70  H   UNL     1      10.114 -17.256  -2.925  1.00  0.00     0.167 HD
ATOM     71  C   UNL     1      12.180 -18.824  -4.074  1.00  0.00     0.074 A 
ATOM     72  C   UNL     1      12.932 -19.599  -5.039  1.00  0.00     0.031 C 
ATOM     73  C   UNL     1      12.635 -18.479  -2.847  1.00  0.00     0.034 A 
BRANCH  60  74
ATOM     74  C   UNL     1       8.781 -14.963   0.423  1.00  0.00     0.023 A 
ATOM     75  C   UNL     1       8.023 -15.591   1.431  1.00  0.00     0.012 A 
ATOM     76  C   UNL     1       9.448 -13.755   0.704  1.00  0.00     0.148 A 
ATOM     77  C   UNL     1       7.934 -15.029   2.704  1.00  0.00     0.002 A 
ATOM     78  C   UNL     1       9.377 -13.214   1.984  1.00  0.00     0.091 A 
ATOM     79  F   UNL     1      10.167 -13.182  -0.272  1.00  0.00    -0.205 F 
ATOM     80  C   UNL     1       8.619 -13.849   2.983  1.00  0.00     0.022 A 
BRANCH  78  81
ATOM     81  S   UNL     1      10.270 -11.733   2.471  1.00  0.00     0.127 S 
ATOM     82  O   UNL     1       9.177 -10.838   2.847  1.00  0.00    -0.237 OA
ATOM     83  O   UNL     1      11.075 -12.217   3.592  1.00  0.00    -0.237 OA
ATOM     84  O   UNL     1      11.031 -11.315   1.302  1.00  0.00    -0.744 OA
ENDBRANCH  78  81
ENDBRANCH  60  74
BRANCH  61  85
ATOM     85  C   UNL     1      10.130 -19.760  -8.210  1.00  0.00     0.023 A 
ATOM     86  C   UNL     1      10.109 -21.166  -8.246  1.00  0.00     0.012 A 
ATOM     87  C   UNL     1      10.263 -19.037  -9.410  1.00  0.00     0.148 A 
ATOM     88  C   UNL     1      10.230 -21.843  -9.460  1.00  0.00     0.002 A 
ATOM     89  C   UNL     1      10.340 -19.716 -10.619  1.00  0.00     0.091 A 
ATOM     90  F   UNL     1      10.279 -17.698  -9.344  1.00  0.00    -0.205 F 
ATOM     91  C   UNL     1      10.335 -21.119 -10.645  1.00  0.00     0.022 A 
BRANCH  89  92
ATOM     92  S   UNL     1      10.371 -18.869 -12.202  1.00  0.00     0.127 S 
ATOM     93  O   UNL     1      11.707 -19.204 -12.692  1.00  0.00    -0.237 OA
ATOM     94  O   UNL     1       9.272 -19.523 -12.912  1.00  0.00    -0.237 OA
ATOM     95  O   UNL     1      10.146 -17.462 -11.903  1.00  0.00    -0.744 OA
ENDBRANCH  89  92
ENDBRANCH  61  85
BRANCH  73  96
ATOM     96  C   UNL     1      14.011 -18.934  -2.446  1.00  0.00     0.023 A 
ATOM     97  C   UNL     1      15.136 -18.243  -2.935  1.00  0.00     0.012 A 
ATOM     98  C   UNL     1      14.180 -19.953  -1.489  1.00  0.00     0.148 A 
ATOM     99  C   UNL     1      16.414 -18.563  -2.478  1.00  0.00     0.002 A 
ATOM    100  C   UNL     1      15.453 -20.244  -1.014  1.00  0.00     0.091 A 
ATOM    101  F   UNL     1      13.091 -20.599  -1.046  1.00  0.00    -0.205 F 
ATOM    102  C   UNL     1      16.571 -19.553  -1.510  1.00  0.00     0.022 A 
BRANCH 100 103
ATOM    103  S   UNL     1      15.753 -21.452   0.282  1.00  0.00     0.127 S 
ATOM    104  O   UNL     1      16.536 -22.462  -0.430  1.00  0.00    -0.237 OA
ATOM    105  O   UNL     1      16.509 -20.672   1.261  1.00  0.00    -0.237 OA
ATOM    106  O   UNL     1      14.442 -21.896   0.735  1.00  0.00    -0.744 OA
ENDBRANCH 100 103
ENDBRANCH  73  96
ENDBRANCH  47  48
ENDBRANCH  40  42
ENDBRANCH  39  40
ENDBRANCH  38  39
ENDBRANCH  37  38
ENDBRANCH  36  37
ENDBRANCH  35  36
ENDBRANCH   1  35
TORSDOF 24
