REMARK SMILES CC(C)(C)c1ccc(OCC(=O)N/N=C/c2ccc(C(=O)OCCOCCOCCOC(=O)c3ccc(-c4c5nc(c(-c6cccc(S(=O)(=O)[O-])c6F)c6ccc([nH]6)c(-c6cccc(S(=O)(=O)[O-])c6F)c6nc(c(-c7cccc(S(=O)(=O)[O-])c7F)c7ccc4[nH]7)C=C6)C=C5)cc3)cc2)cc1
REMARK SMILES IDX 25 1 24 2 23 3 22 4 20 5 21 6 19 7 16 8 17 9 98 10 18 11
REMARK SMILES IDX 97 12 15 13 14 14 13 15 11 16 12 17 10 19 9 20 8 21 5 22
REMARK SMILES IDX 6 23 100 24 7 25 99 26 2 27 1 28 3 29 4 30 26 31 27 32 28 33
REMARK SMILES IDX 29 34 30 35 31 36 32 37 33 38 34 39 35 40 96 41 36 42 95 43
REMARK SMILES IDX 37 44 38 45 39 46 89 47 40 48 94 49 88 50 90 51 41 52 93 53
REMARK SMILES IDX 87 54 86 55 42 57 74 58 54 59 73 60 55 61 58 62 72 63 91 64
REMARK SMILES IDX 56 65 57 66 71 68 92 69 59 70 43 71 44 72 52 73 45 74 47 75
REMARK SMILES IDX 53 76 46 77 48 78 49 79 50 80 51 81 75 82 76 83 84 84 77 85
REMARK SMILES IDX 79 86 85 87 78 88 80 89 81 90 82 91 83 92 60 93 61 94 69 95
REMARK SMILES IDX 62 96 64 97 70 98 63 99 65 100 66 101 67 102 68 103
REMARK H PARENT 13 18 90 56 58 67
REMARK Flexibility Score: inf
ROOT
ATOM      1  O   UNL     1      11.690   8.874  -1.575  1.00  0.00    -0.376 OA
ENDROOT
BRANCH   1   2
ATOM      2  C   UNL     1      12.294   8.210  -2.669  1.00  0.00     0.202 C 
BRANCH   2   3
ATOM      3  C   UNL     1      11.543   7.854  -3.968  1.00  0.00     0.261 C 
BRANCH   3   4
ATOM      4  O   UNL     1      10.113   7.843  -3.926  1.00  0.00    -0.460 OA
BRANCH   4   5
ATOM      5  C   UNL     1       9.520   6.633  -3.808  1.00  0.00     0.338 C 
ATOM      6  O   UNL     1      10.072   5.550  -3.711  1.00  0.00    -0.246 OA
BRANCH   5   7
ATOM      7  C   UNL     1       8.064   6.832  -3.649  1.00  0.00     0.060 A 
ATOM      8  C   UNL     1       5.331   7.177  -3.275  1.00  0.00    -0.005 A 
ATOM      9  C   UNL     1       6.056   6.399  -2.368  1.00  0.00     0.010 A 
ATOM     10  C   UNL     1       5.962   7.803  -4.354  1.00  0.00     0.010 A 
ATOM     11  C   UNL     1       7.423   6.207  -2.570  1.00  0.00     0.016 A 
ATOM     12  C   UNL     1       7.340   7.646  -4.531  1.00  0.00     0.016 A 
BRANCH   8  13
ATOM     13  C   UNL     1       3.875   7.290  -3.083  1.00  0.00     0.141 C 
ATOM     14  N   UNL     1       3.081   7.186  -4.091  1.00  0.00    -0.181 NA
BRANCH  14  15
ATOM     15  N   UNL     1       1.724   7.170  -3.988  1.00  0.00    -0.244 N 
ATOM     16  C   UNL     1       0.820   7.067  -2.966  1.00  0.00     0.277 C 
ATOM     17  O   UNL     1      -0.383   7.071  -3.268  1.00  0.00    -0.269 OA
ATOM     18  H   UNL     1       1.285   7.254  -4.865  1.00  0.00     0.193 HD
BRANCH  16  19
ATOM     19  C   UNL     1       1.221   6.992  -1.496  1.00  0.00     0.331 C 
BRANCH  19  20
ATOM     20  O   UNL     1       2.090   5.937  -1.123  1.00  0.00    -0.484 OA
BRANCH  20  21
ATOM     21  C   UNL     1       1.613   4.660  -1.188  1.00  0.00     0.120 A 
ATOM     22  C   UNL     1       0.882   1.917  -1.240  1.00  0.00    -0.042 A 
ATOM     23  C   UNL     1       2.223   2.315  -1.101  1.00  0.00     0.008 A 
ATOM     24  C   UNL     1      -0.076   2.935  -1.368  1.00  0.00     0.008 A 
ATOM     25  C   UNL     1       2.581   3.666  -1.067  1.00  0.00     0.047 A 
ATOM     26  C   UNL     1       0.282   4.289  -1.338  1.00  0.00     0.047 A 
BRANCH  22  27
ATOM     27  C   UNL     1       0.508   0.426  -1.233  1.00  0.00    -0.013 C 
ATOM     28  C   UNL     1       1.054  -0.245   0.047  1.00  0.00     0.016 C 
ATOM     29  C   UNL     1       1.120  -0.263  -2.470  1.00  0.00     0.016 C 
ATOM     30  C   UNL     1      -1.015   0.170  -1.264  1.00  0.00     0.016 C 
ENDBRANCH  22  27
ENDBRANCH  20  21
ENDBRANCH  19  20
ENDBRANCH  16  19
ENDBRANCH  14  15
ENDBRANCH   8  13
ENDBRANCH   5   7
ENDBRANCH   4   5
ENDBRANCH   3   4
ENDBRANCH   2   3
ENDBRANCH   1   2
BRANCH   1  31
ATOM     31  C   UNL     1      10.371   8.547  -1.203  1.00  0.00     0.188 C 
BRANCH  31  32
ATOM     32  C   UNL     1       9.342   9.615  -1.635  1.00  0.00     0.188 C 
BRANCH  32  33
ATOM     33  O   UNL     1       9.756  10.756  -2.379  1.00  0.00    -0.376 OA
BRANCH  33  34
ATOM     34  C   UNL     1      10.915  11.474  -1.973  1.00  0.00     0.202 C 
BRANCH  34  35
ATOM     35  C   UNL     1      11.075  11.955  -0.520  1.00  0.00     0.261 C 
BRANCH  35  36
ATOM     36  O   UNL     1      10.743  11.002   0.499  1.00  0.00    -0.460 OA
BRANCH  36  37
ATOM     37  C   UNL     1       9.615  11.274   1.202  1.00  0.00     0.338 C 
ATOM     38  O   UNL     1       8.867  12.226   1.060  1.00  0.00    -0.246 OA
BRANCH  37  39
ATOM     39  C   UNL     1       9.300  10.134   2.084  1.00  0.00     0.060 A 
ATOM     40  C   UNL     1       8.100   9.442   1.870  1.00  0.00     0.016 A 
ATOM     41  C   UNL     1      10.139   9.790   3.144  1.00  0.00     0.016 A 
ATOM     42  C   UNL     1       7.725   8.411   2.729  1.00  0.00     0.010 A 
ATOM     43  C   UNL     1       9.750   8.771   4.019  1.00  0.00     0.010 A 
ATOM     44  C   UNL     1       8.530   8.097   3.832  1.00  0.00    -0.014 A 
BRANCH  44  45
ATOM     45  C   UNL     1       8.018   7.179   4.877  1.00  0.00     0.031 A 
ATOM     46  C   UNL     1       7.392   7.768   6.111  1.00  0.00     0.074 A 
ATOM     47  C   UNL     1       8.112   5.846   4.734  1.00  0.00     0.049 A 
ATOM     48  N   UNL     1       6.913   7.163   7.165  1.00  0.00    -0.248 NA
ATOM     49  C   UNL     1       7.296   9.236   6.162  1.00  0.00     0.031 C 
ATOM     50  C   UNL     1       8.688   5.157   3.581  1.00  0.00     0.029 A 
ATOM     51  N   UNL     1       7.745   4.833   5.585  1.00  0.00    -0.354 N 
ATOM     52  C   UNL     1       6.483   8.173   8.018  1.00  0.00     0.074 A 
ATOM     53  C   UNL     1       6.768   9.431   7.362  1.00  0.00     0.031 C 
ATOM     54  C   UNL     1       8.665   3.832   3.810  1.00  0.00     0.029 A 
ATOM     55  C   UNL     1       8.095   3.583   5.134  1.00  0.00     0.049 A 
ATOM     56  H   UNL     1       7.277   4.987   6.437  1.00  0.00     0.167 HD
ATOM     57  C   UNL     1       5.892   8.065   9.231  1.00  0.00     0.034 A 
ATOM     58  C   UNL     1       7.989   2.379   5.733  1.00  0.00     0.034 A 
ATOM     59  C   UNL     1       5.602   6.814   9.878  1.00  0.00     0.049 A 
ATOM     60  C   UNL     1       7.364   2.289   7.102  1.00  0.00     0.074 A 
ATOM     61  C   UNL     1       4.970   6.600  11.090  1.00  0.00     0.029 A 
ATOM     62  N   UNL     1       5.938   5.567   9.376  1.00  0.00    -0.354 N 
ATOM     63  N   UNL     1       6.854   3.243   7.844  1.00  0.00    -0.248 NA
ATOM     64  C   UNL     1       7.271   0.950   7.704  1.00  0.00     0.031 C 
ATOM     65  C   UNL     1       4.949   5.222  11.334  1.00  0.00     0.029 A 
ATOM     66  C   UNL     1       5.540   4.578  10.259  1.00  0.00     0.049 A 
ATOM     67  H   UNL     1       6.393   5.408   8.518  1.00  0.00     0.167 HD
ATOM     68  C   UNL     1       6.347   2.616   8.978  1.00  0.00     0.074 A 
ATOM     69  C   UNL     1       6.595   1.198   8.817  1.00  0.00     0.031 C 
ATOM     70  C   UNL     1       5.742   3.165  10.061  1.00  0.00     0.034 A 
BRANCH  57  71
ATOM     71  C   UNL     1       5.499   9.339   9.929  1.00  0.00     0.023 A 
ATOM     72  C   UNL     1       4.402  10.085   9.452  1.00  0.00     0.012 A 
ATOM     73  C   UNL     1       6.185   9.775  11.079  1.00  0.00     0.148 A 
ATOM     74  C   UNL     1       4.014  11.263  10.089  1.00  0.00     0.002 A 
ATOM     75  C   UNL     1       5.764  10.927  11.734  1.00  0.00     0.091 A 
ATOM     76  F   UNL     1       7.241   9.066  11.502  1.00  0.00    -0.205 F 
ATOM     77  C   UNL     1       4.687  11.677  11.235  1.00  0.00     0.022 A 
BRANCH  75  78
ATOM     78  S   UNL     1       6.519  11.501  13.259  1.00  0.00     0.127 S 
ATOM     79  O   UNL     1       7.236  12.692  12.803  1.00  0.00    -0.237 OA
ATOM     80  O   UNL     1       5.351  11.776  14.097  1.00  0.00    -0.237 OA
ATOM     81  O   UNL     1       7.358  10.408  13.729  1.00  0.00    -0.744 OA
ENDBRANCH  75  78
ENDBRANCH  57  71
BRANCH  58  82
ATOM     82  C   UNL     1       8.457   1.151   5.031  1.00  0.00     0.023 A 
ATOM     83  C   UNL     1       7.514   0.199   4.596  1.00  0.00     0.012 A 
ATOM     84  C   UNL     1       9.826   0.922   4.789  1.00  0.00     0.148 A 
ATOM     85  C   UNL     1       7.928  -0.973   3.962  1.00  0.00     0.002 A 
ATOM     86  C   UNL     1      10.227  -0.222   4.109  1.00  0.00     0.091 A 
ATOM     87  F   UNL     1      10.709   1.831   5.226  1.00  0.00    -0.205 F 
ATOM     88  C   UNL     1       9.281  -1.179   3.710  1.00  0.00     0.022 A 
BRANCH  86  89
ATOM     89  S   UNL     1      11.934  -0.514   3.635  1.00  0.00     0.127 S 
ATOM     90  O   UNL     1      12.299  -1.631   4.502  1.00  0.00    -0.237 OA
ATOM     91  O   UNL     1      11.799  -0.852   2.217  1.00  0.00    -0.237 OA
ATOM     92  O   UNL     1      12.633   0.738   3.889  1.00  0.00    -0.744 OA
ENDBRANCH  86  89
ENDBRANCH  58  82
BRANCH  70  93
ATOM     93  C   UNL     1       5.261   2.235  11.146  1.00  0.00     0.023 A 
ATOM     94  C   UNL     1       6.193   1.605  11.995  1.00  0.00     0.012 A 
ATOM     95  C   UNL     1       3.883   2.050  11.375  1.00  0.00     0.148 A 
ATOM     96  C   UNL     1       5.761   0.780  13.034  1.00  0.00     0.002 A 
ATOM     97  C   UNL     1       3.460   1.266  12.442  1.00  0.00     0.091 A 
ATOM     98  F   UNL     1       3.012   2.643  10.547  1.00  0.00    -0.205 F 
ATOM     99  C   UNL     1       4.397   0.621  13.265  1.00  0.00     0.022 A 
BRANCH  97 100
ATOM    100  S   UNL     1       1.725   1.083  12.875  1.00  0.00     0.127 S 
ATOM    101  O   UNL     1       1.458  -0.293  12.461  1.00  0.00    -0.237 OA
ATOM    102  O   UNL     1       1.743   1.292  14.323  1.00  0.00    -0.237 OA
ATOM    103  O   UNL     1       1.014   2.111  12.126  1.00  0.00    -0.744 OA
ENDBRANCH  97 100
ENDBRANCH  70  93
ENDBRANCH  44  45
ENDBRANCH  37  39
ENDBRANCH  36  37
ENDBRANCH  35  36
ENDBRANCH  34  35
ENDBRANCH  33  34
ENDBRANCH  32  33
ENDBRANCH  31  32
ENDBRANCH   1  31
TORSDOF 26
