REMARK SMILES O=C(OCCOCCOCCOC(=O)[C@@H]1CCc2[nH]ncc2C1)c1ccc(-c2c3nc(c(-c4cccc(S(=O)(=O)[O-])c4F)c4ccc([nH]4)c(-c4cccc(S(=O)(=O)[O-])c4F)c4nc(c(-c5cccc(S(=O)(=O)[O-])c5F)c5ccc2[nH]5)C=C4)C=C3)cc1
REMARK SMILES IDX 6 1 5 2 4 3 3 4 2 5 1 6 24 7 25 8 86 9 26 10 85 11 27 12
REMARK SMILES IDX 28 13 29 14 79 15 30 16 84 17 78 18 80 19 31 20 83 21 77 22
REMARK SMILES IDX 76 23 32 25 64 26 44 27 63 28 45 29 48 30 62 31 81 32 46 33
REMARK SMILES IDX 47 34 61 36 82 37 49 38 33 39 34 40 42 41 35 42 37 43 43 44
REMARK SMILES IDX 36 45 38 46 39 47 40 48 41 49 65 50 66 51 74 52 67 53 69 54
REMARK SMILES IDX 75 55 68 56 70 57 71 58 72 59 73 60 50 61 51 62 59 63 52 64
REMARK SMILES IDX 54 65 60 66 53 67 55 68 56 69 57 70 58 71 7 72 8 73 9 74
REMARK SMILES IDX 10 75 11 76 12 77 13 78 14 79 15 80 16 81 23 82 17 83 22 84
REMARK SMILES IDX 18 85 21 86 19 87 20 88
REMARK H PARENT 80 24 48 35 19 89
REMARK Flexibility Score: inf
ROOT
ATOM      1  O   UNL     1       3.925  -1.271  -0.947  1.00  0.00    -0.376 OA
ENDROOT
BRANCH   1   2
ATOM      2  C   UNL     1       4.742  -1.544   0.199  1.00  0.00     0.202 C 
BRANCH   2   3
ATOM      3  C   UNL     1       4.521  -0.646   1.431  1.00  0.00     0.261 C 
BRANCH   3   4
ATOM      4  O   UNL     1       3.172  -0.184   1.581  1.00  0.00    -0.460 OA
BRANCH   4   5
ATOM      5  C   UNL     1       2.599   0.940   1.081  1.00  0.00     0.338 C 
ATOM      6  O   UNL     1       1.442   1.188   1.421  1.00  0.00    -0.246 OA
BRANCH   5   7
ATOM      7  C   UNL     1       3.270   1.873   0.113  1.00  0.00     0.060 A 
ATOM      8  C   UNL     1       4.489   1.648  -0.534  1.00  0.00     0.016 A 
ATOM      9  C   UNL     1       2.594   3.067  -0.185  1.00  0.00     0.016 A 
ATOM     10  C   UNL     1       5.074   2.584  -1.374  1.00  0.00     0.010 A 
ATOM     11  C   UNL     1       3.162   4.012  -1.043  1.00  0.00     0.010 A 
ATOM     12  C   UNL     1       4.429   3.784  -1.605  1.00  0.00    -0.014 A 
BRANCH  12  13
ATOM     13  C   UNL     1       5.173   4.884  -2.240  1.00  0.00     0.031 A 
ATOM     14  C   UNL     1       5.613   5.993  -1.347  1.00  0.00     0.074 A 
ATOM     15  C   UNL     1       5.467   4.881  -3.552  1.00  0.00     0.049 A 
ATOM     16  N   UNL     1       6.142   7.138  -1.661  1.00  0.00    -0.248 NA
ATOM     17  C   UNL     1       5.491   5.754   0.104  1.00  0.00     0.031 C 
ATOM     18  C   UNL     1       5.279   3.759  -4.465  1.00  0.00     0.029 A 
ATOM     19  N   UNL     1       5.881   5.899  -4.368  1.00  0.00    -0.354 N 
ATOM     20  C   UNL     1       6.427   7.752  -0.453  1.00  0.00     0.074 A 
ATOM     21  C   UNL     1       5.968   6.881   0.603  1.00  0.00     0.031 C 
ATOM     22  C   UNL     1       5.344   4.202  -5.730  1.00  0.00     0.029 A 
ATOM     23  C   UNL     1       5.625   5.628  -5.697  1.00  0.00     0.049 A 
ATOM     24  H   UNL     1       6.310   6.725  -4.046  1.00  0.00     0.167 HD
ATOM     25  C   UNL     1       7.057   8.928  -0.257  1.00  0.00     0.034 A 
ATOM     26  C   UNL     1       5.567   6.467  -6.747  1.00  0.00     0.034 A 
ATOM     27  C   UNL     1       7.457   9.774  -1.344  1.00  0.00     0.049 A 
ATOM     28  C   UNL     1       6.059   7.866  -6.516  1.00  0.00     0.074 A 
ATOM     29  C   UNL     1       8.107  10.989  -1.304  1.00  0.00     0.029 A 
ATOM     30  N   UNL     1       7.197   9.492  -2.681  1.00  0.00    -0.354 N 
ATOM     31  N   UNL     1       6.409   8.431  -5.384  1.00  0.00    -0.248 NA
ATOM     32  C   UNL     1       6.264   8.705  -7.700  1.00  0.00     0.031 C 
ATOM     33  C   UNL     1       8.194  11.467  -2.617  1.00  0.00     0.029 A 
ATOM     34  C   UNL     1       7.650  10.522  -3.478  1.00  0.00     0.049 A 
ATOM     35  H   UNL     1       6.755   8.676  -3.010  1.00  0.00     0.167 HD
ATOM     36  C   UNL     1       6.972   9.650  -5.722  1.00  0.00     0.074 A 
ATOM     37  C   UNL     1       6.867   9.761  -7.167  1.00  0.00     0.031 C 
ATOM     38  C   UNL     1       7.560  10.571  -4.919  1.00  0.00     0.034 A 
BRANCH  25  39
ATOM     39  C   UNL     1       7.300   9.335   1.167  1.00  0.00     0.023 A 
ATOM     40  C   UNL     1       8.217   8.613   1.963  1.00  0.00     0.012 A 
ATOM     41  C   UNL     1       6.569  10.389   1.740  1.00  0.00     0.148 A 
ATOM     42  C   UNL     1       8.359   8.899   3.320  1.00  0.00     0.002 A 
ATOM     43  C   UNL     1       6.751  10.700   3.081  1.00  0.00     0.091 A 
ATOM     44  F   UNL     1       5.678  11.038   0.977  1.00  0.00    -0.205 F 
ATOM     45  C   UNL     1       7.630   9.946   3.877  1.00  0.00     0.022 A 
BRANCH  43  46
ATOM     46  S   UNL     1       5.903  12.065   3.879  1.00  0.00     0.127 S 
ATOM     47  O   UNL     1       5.001  11.363   4.788  1.00  0.00    -0.237 OA
ATOM     48  O   UNL     1       7.005  12.768   4.532  1.00  0.00    -0.237 OA
ATOM     49  O   UNL     1       5.252  12.814   2.809  1.00  0.00    -0.744 OA
ENDBRANCH  43  46
ENDBRANCH  25  39
BRANCH  26  50
ATOM     50  C   UNL     1       5.124   5.972  -8.080  1.00  0.00     0.023 A 
ATOM     51  C   UNL     1       6.088   5.662  -9.056  1.00  0.00     0.012 A 
ATOM     52  C   UNL     1       3.758   5.745  -8.368  1.00  0.00     0.148 A 
ATOM     53  C   UNL     1       5.705   5.160 -10.301  1.00  0.00     0.002 A 
ATOM     54  C   UNL     1       3.384   5.207  -9.597  1.00  0.00     0.091 A 
ATOM     55  F   UNL     1       2.846   6.073  -7.444  1.00  0.00    -0.205 F 
ATOM     56  C   UNL     1       4.357   4.926 -10.568  1.00  0.00     0.022 A 
BRANCH  54  57
ATOM     57  S   UNL     1       1.683   4.772 -10.002  1.00  0.00     0.127 S 
ATOM     58  O   UNL     1       1.296   5.861 -10.894  1.00  0.00    -0.237 OA
ATOM     59  O   UNL     1       1.844   3.471 -10.652  1.00  0.00    -0.237 OA
ATOM     60  O   UNL     1       0.963   4.699  -8.735  1.00  0.00    -0.744 OA
ENDBRANCH  54  57
ENDBRANCH  26  50
BRANCH  38  61
ATOM     61  C   UNL     1       8.219  11.744  -5.584  1.00  0.00     0.023 A 
ATOM     62  C   UNL     1       7.444  12.783  -6.128  1.00  0.00     0.012 A 
ATOM     63  C   UNL     1       9.623  11.858  -5.549  1.00  0.00     0.148 A 
ATOM     64  C   UNL     1       8.063  13.918  -6.646  1.00  0.00     0.002 A 
ATOM     65  C   UNL     1      10.227  13.017  -6.008  1.00  0.00     0.091 A 
ATOM     66  F   UNL     1      10.335  10.839  -5.044  1.00  0.00    -0.205 F 
ATOM     67  C   UNL     1       9.450  14.043  -6.569  1.00  0.00     0.022 A 
BRANCH  65  68
ATOM     68  S   UNL     1      11.988  13.314  -5.832  1.00  0.00     0.127 S 
ATOM     69  O   UNL     1      12.437  13.274  -7.222  1.00  0.00    -0.237 OA
ATOM     70  O   UNL     1      12.015  14.643  -5.219  1.00  0.00    -0.237 OA
ATOM     71  O   UNL     1      12.498  12.245  -4.983  1.00  0.00    -0.744 OA
ENDBRANCH  65  68
ENDBRANCH  38  61
ENDBRANCH  12  13
ENDBRANCH   5   7
ENDBRANCH   4   5
ENDBRANCH   3   4
ENDBRANCH   2   3
ENDBRANCH   1   2
BRANCH   1  72
ATOM     72  C   UNL     1       2.552  -1.641  -0.783  1.00  0.00     0.188 C 
BRANCH  72  73
ATOM     73  C   UNL     1       1.961  -2.439  -1.947  1.00  0.00     0.188 C 
BRANCH  73  74
ATOM     74  O   UNL     1       2.568  -3.686  -2.271  1.00  0.00    -0.376 OA
BRANCH  74  75
ATOM     75  C   UNL     1       3.971  -3.690  -2.500  1.00  0.00     0.202 C 
BRANCH  75  76
ATOM     76  C   UNL     1       4.542  -2.880  -3.679  1.00  0.00     0.261 C 
BRANCH  76  77
ATOM     77  O   UNL     1       3.895  -1.621  -3.937  1.00  0.00    -0.463 OA
BRANCH  77  78
ATOM     78  C   UNL     1       3.138  -1.578  -5.071  1.00  0.00     0.309 C 
ATOM     79  O   UNL     1       3.054  -2.511  -5.864  1.00  0.00    -0.252 OA
BRANCH  78  80
ATOM     80  C   UNL     1       2.293  -0.311  -5.180  1.00  0.00     0.104 C 
ATOM     81  C   UNL     1       1.794  -0.186  -6.651  1.00  0.00     0.022 C 
ATOM     82  C   UNL     1       3.026   0.967  -4.722  1.00  0.00     0.054 C 
ATOM     83  C   UNL     1       0.892   1.029  -6.929  1.00  0.00     0.057 C 
ATOM     84  C   UNL     1       2.237   2.174  -5.096  1.00  0.00    -0.006 A 
ATOM     85  C   UNL     1       1.357   2.189  -6.152  1.00  0.00     0.038 A 
ATOM     86  C   UNL     1       2.134   3.472  -4.572  1.00  0.00     0.138 A 
ATOM     87  N   UNL     1       1.005   3.497  -6.351  1.00  0.00    -0.282 N 
ATOM     88  N   UNL     1       1.324   4.256  -5.283  1.00  0.00    -0.184 NA
ATOM     89  H   UNL     1       0.575   3.838  -7.168  1.00  0.00     0.190 HD
ENDBRANCH  78  80
ENDBRANCH  77  78
ENDBRANCH  76  77
ENDBRANCH  75  76
ENDBRANCH  74  75
ENDBRANCH  73  74
ENDBRANCH  72  73
ENDBRANCH   1  72
TORSDOF 20
