REMARK SMILES Cc1cc(F)ccc1OC1(C(=O)OCCOCCOCCOC(=O)c2ccc(-c3c4nc(c(-c5cccc(S(=O)(=O)[O-])c5F)c5ccc([nH]5)c(-c5cccc(S(=O)(=O)[O-])c5F)c5nc(c(-c6cccc(S(=O)(=O)[O-])c6F)c6ccc3[nH]6)C=C5)C=C4)cc2)CCN(C(=O)[C@H]2CCOC2)CC1
REMARK SMILES IDX 18 1 17 2 16 3 15 4 14 5 13 6 11 7 12 8 10 9 88 10 99 11
REMARK SMILES IDX 89 12 98 13 90 14 91 15 92 16 9 17 8 18 1 19 2 20 3 21 4 22
REMARK SMILES IDX 7 23 5 24 6 25 93 26 94 27 97 28 95 29 96 30 19 31 20 32
REMARK SMILES IDX 21 33 22 34 23 35 24 36 25 37 26 38 87 39 27 40 86 41 28 42
REMARK SMILES IDX 29 43 30 44 80 45 31 46 85 47 79 48 81 49 32 50 84 51 78 52
REMARK SMILES IDX 77 53 33 55 65 56 45 57 64 58 46 59 49 60 63 61 82 62 47 63
REMARK SMILES IDX 48 64 62 66 83 67 50 68 34 69 35 70 43 71 36 72 38 73 44 74
REMARK SMILES IDX 37 75 39 76 40 77 41 78 42 79 66 80 67 81 75 82 68 83 70 84
REMARK SMILES IDX 76 85 69 86 71 87 72 88 73 89 74 90 51 91 52 92 60 93 53 94
REMARK SMILES IDX 55 95 61 96 54 97 56 98 57 99 58 100 59 101
REMARK H PARENT 81 54 49 65
REMARK Flexibility Score: inf
ROOT
ATOM      1  C   UNL     1      10.657  10.351  -0.554  1.00  0.00     0.188 C 
ENDROOT
BRANCH   1   2
ATOM      2  C   UNL     1       9.985  10.420   0.817  1.00  0.00     0.188 C 
BRANCH   2   3
ATOM      3  O   UNL     1      10.831  10.203   1.939  1.00  0.00    -0.376 OA
BRANCH   3   4
ATOM      4  C   UNL     1      11.438   8.917   2.048  1.00  0.00     0.202 C 
BRANCH   4   5
ATOM      5  C   UNL     1      10.485   7.719   2.183  1.00  0.00     0.261 C 
BRANCH   5   6
ATOM      6  O   UNL     1       9.660   7.498   1.016  1.00  0.00    -0.460 OA
BRANCH   6   7
ATOM      7  C   UNL     1       8.309   7.529   1.206  1.00  0.00     0.350 C 
ATOM      8  O   UNL     1       7.795   7.623   2.320  1.00  0.00    -0.247 OA
BRANCH   7   9
ATOM      9  C   UNL     1       7.453   7.447  -0.108  1.00  0.00     0.209 C 
ATOM     10  C   UNL     1       8.296   7.259  -1.366  1.00  0.00     0.082 C 
ATOM     11  C   UNL     1       6.465   6.330   0.242  1.00  0.00     0.082 C 
ATOM     12  C   UNL     1       8.111   5.963  -2.147  1.00  0.00     0.124 C 
ATOM     13  C   UNL     1       5.952   5.503  -0.908  1.00  0.00     0.124 C 
ATOM     14  N   UNL     1       6.986   5.080  -1.843  1.00  0.00    -0.342 N 
ATOM     15  C   UNL     1       6.886   3.951  -2.662  1.00  0.00     0.228 C 
ATOM     16  O   UNL     1       7.750   3.707  -3.508  1.00  0.00    -0.274 OA
BRANCH   9  17
ATOM     17  O   UNL     1       6.896   8.780  -0.067  1.00  0.00    -0.475 OA
BRANCH  17  18
ATOM     18  C   UNL     1       5.881   9.423  -0.694  1.00  0.00     0.124 A 
ATOM     19  C   UNL     1       5.442   8.154  -2.931  1.00  0.00     0.048 C 
ATOM     20  C   UNL     1       5.196   9.201  -1.897  1.00  0.00    -0.006 A 
ATOM     21  C   UNL     1       4.178  10.112  -2.287  1.00  0.00     0.046 A 
ATOM     22  C   UNL     1       3.870  11.232  -1.533  1.00  0.00     0.123 A 
ATOM     23  C   UNL     1       5.546  10.587   0.041  1.00  0.00     0.050 A 
ATOM     24  F   UNL     1       2.919  12.072  -1.957  1.00  0.00    -0.207 F 
ATOM     25  C   UNL     1       4.558  11.487  -0.368  1.00  0.00     0.043 A 
ENDBRANCH  17  18
ENDBRANCH   9  17
BRANCH  15  26
ATOM     26  C   UNL     1       5.678   3.039  -2.514  1.00  0.00     0.107 C 
ATOM     27  C   UNL     1       4.463   3.549  -3.261  1.00  0.00     0.044 C 
ATOM     28  C   UNL     1       5.906   1.692  -3.180  1.00  0.00     0.173 C 
ATOM     29  C   UNL     1       3.704   2.286  -3.618  1.00  0.00     0.161 C 
ATOM     30  O   UNL     1       4.613   1.184  -3.532  1.00  0.00    -0.381 OA
ENDBRANCH  15  26
ENDBRANCH   7   9
ENDBRANCH   6   7
ENDBRANCH   5   6
ENDBRANCH   4   5
ENDBRANCH   3   4
ENDBRANCH   2   3
ENDBRANCH   1   2
BRANCH   1  31
ATOM     31  O   UNL     1      11.490   9.216  -0.777  1.00  0.00    -0.376 OA
BRANCH  31  32
ATOM     32  C   UNL     1      12.060   9.116  -2.088  1.00  0.00     0.202 C 
BRANCH  32  33
ATOM     33  C   UNL     1      12.848  10.347  -2.582  1.00  0.00     0.261 C 
BRANCH  33  34
ATOM     34  O   UNL     1      12.056  11.540  -2.750  1.00  0.00    -0.460 OA
BRANCH  34  35
ATOM     35  C   UNL     1      10.952  11.451  -3.529  1.00  0.00     0.338 C 
ATOM     36  O   UNL     1      10.696  10.555  -4.317  1.00  0.00    -0.246 OA
BRANCH  35  37
ATOM     37  C   UNL     1       9.972  12.473  -3.073  1.00  0.00     0.060 A 
ATOM     38  C   UNL     1       8.611  12.130  -3.076  1.00  0.00     0.016 A 
ATOM     39  C   UNL     1      10.374  13.717  -2.572  1.00  0.00     0.016 A 
ATOM     40  C   UNL     1       7.653  13.043  -2.630  1.00  0.00     0.010 A 
ATOM     41  C   UNL     1       9.413  14.632  -2.130  1.00  0.00     0.010 A 
ATOM     42  C   UNL     1       8.045  14.315  -2.192  1.00  0.00    -0.014 A 
BRANCH  42  43
ATOM     43  C   UNL     1       7.027  15.379  -2.007  1.00  0.00     0.031 A 
ATOM     44  C   UNL     1       6.776  16.327  -3.150  1.00  0.00     0.074 A 
ATOM     45  C   UNL     1       6.334  15.517  -0.863  1.00  0.00     0.049 A 
ATOM     46  N   UNL     1       5.938  17.326  -3.232  1.00  0.00    -0.248 NA
ATOM     47  C   UNL     1       7.588  16.119  -4.360  1.00  0.00     0.031 C 
ATOM     48  C   UNL     1       6.475  14.675   0.322  1.00  0.00     0.029 A 
ATOM     49  N   UNL     1       5.378  16.439  -0.511  1.00  0.00    -0.354 N 
ATOM     50  C   UNL     1       6.137  17.882  -4.489  1.00  0.00     0.074 A 
ATOM     51  C   UNL     1       7.187  17.119  -5.129  1.00  0.00     0.031 C 
ATOM     52  C   UNL     1       5.637  15.122   1.275  1.00  0.00     0.029 A 
ATOM     53  C   UNL     1       4.920  16.297   0.777  1.00  0.00     0.049 A 
ATOM     54  H   UNL     1       5.051  17.136  -1.124  1.00  0.00     0.167 HD
ATOM     55  C   UNL     1       5.499  18.924  -5.072  1.00  0.00     0.034 A 
ATOM     56  C   UNL     1       4.032  17.036   1.475  1.00  0.00     0.034 A 
ATOM     57  C   UNL     1       4.451  19.684  -4.451  1.00  0.00     0.049 A 
ATOM     58  C   UNL     1       3.364  18.221   0.820  1.00  0.00     0.074 A 
ATOM     59  C   UNL     1       3.713  20.726  -4.984  1.00  0.00     0.029 A 
ATOM     60  N   UNL     1       4.005  19.502  -3.152  1.00  0.00    -0.354 N 
ATOM     61  N   UNL     1       3.467  18.654  -0.414  1.00  0.00    -0.248 NA
ATOM     62  C   UNL     1       2.436  19.005   1.650  1.00  0.00     0.031 C 
ATOM     63  C   UNL     1       2.843  21.196  -3.994  1.00  0.00     0.029 A 
ATOM     64  C   UNL     1       3.018  20.426  -2.855  1.00  0.00     0.049 A 
ATOM     65  H   UNL     1       4.341  18.816  -2.531  1.00  0.00     0.167 HD
ATOM     66  C   UNL     1       2.593  19.733  -0.517  1.00  0.00     0.074 A 
ATOM     67  C   UNL     1       1.957  19.879   0.775  1.00  0.00     0.031 C 
ATOM     68  C   UNL     1       2.349  20.536  -1.583  1.00  0.00     0.034 A 
BRANCH  55  69
ATOM     69  C   UNL     1       5.925  19.292  -6.468  1.00  0.00     0.023 A 
ATOM     70  C   UNL     1       5.586  18.451  -7.548  1.00  0.00     0.012 A 
ATOM     71  C   UNL     1       6.652  20.473  -6.712  1.00  0.00     0.148 A 
ATOM     72  C   UNL     1       6.003  18.756  -8.843  1.00  0.00     0.002 A 
ATOM     73  C   UNL     1       7.025  20.794  -8.011  1.00  0.00     0.091 A 
ATOM     74  F   UNL     1       6.991  21.244  -5.669  1.00  0.00    -0.205 F 
ATOM     75  C   UNL     1       6.714  19.931  -9.075  1.00  0.00     0.022 A 
BRANCH  73  76
ATOM     76  S   UNL     1       7.877  22.322  -8.413  1.00  0.00     0.127 S 
ATOM     77  O   UNL     1       9.247  21.852  -8.612  1.00  0.00    -0.237 OA
ATOM     78  O   UNL     1       7.195  22.746  -9.636  1.00  0.00    -0.237 OA
ATOM     79  O   UNL     1       7.670  23.202  -7.272  1.00  0.00    -0.744 OA
ENDBRANCH  73  76
ENDBRANCH  55  69
BRANCH  56  80
ATOM     80  C   UNL     1       3.680  16.654   2.873  1.00  0.00     0.023 A 
ATOM     81  C   UNL     1       2.392  16.156   3.148  1.00  0.00     0.012 A 
ATOM     82  C   UNL     1       4.610  16.774   3.924  1.00  0.00     0.148 A 
ATOM     83  C   UNL     1       2.027  15.805   4.448  1.00  0.00     0.002 A 
ATOM     84  C   UNL     1       4.257  16.374   5.208  1.00  0.00     0.091 A 
ATOM     85  F   UNL     1       5.824  17.266   3.643  1.00  0.00    -0.205 F 
ATOM     86  C   UNL     1       2.962  15.903   5.475  1.00  0.00     0.022 A 
BRANCH  84  87
ATOM     87  S   UNL     1       5.423  16.359   6.574  1.00  0.00     0.127 S 
ATOM     88  O   UNL     1       4.840  17.350   7.476  1.00  0.00    -0.237 OA
ATOM     89  O   UNL     1       5.325  14.974   7.033  1.00  0.00    -0.237 OA
ATOM     90  O   UNL     1       6.712  16.718   5.998  1.00  0.00    -0.744 OA
ENDBRANCH  84  87
ENDBRANCH  56  80
BRANCH  68  91
ATOM     91  C   UNL     1       1.325  21.634  -1.427  1.00  0.00     0.023 A 
ATOM     92  C   UNL     1       1.628  22.772  -0.652  1.00  0.00     0.012 A 
ATOM     93  C   UNL     1       0.099  21.580  -2.121  1.00  0.00     0.148 A 
ATOM     94  C   UNL     1       0.717  23.823  -0.547  1.00  0.00     0.002 A 
ATOM     95  C   UNL     1      -0.784  22.653  -2.051  1.00  0.00     0.091 A 
ATOM     96  F   UNL     1      -0.181  20.484  -2.840  1.00  0.00    -0.205 F 
ATOM     97  C   UNL     1      -0.482  23.770  -1.255  1.00  0.00     0.022 A 
BRANCH  95  98
ATOM     98  S   UNL     1      -2.305  22.714  -3.006  1.00  0.00     0.127 S 
ATOM     99  O   UNL     1      -3.316  22.503  -1.971  1.00  0.00    -0.237 OA
ATOM    100  O   UNL     1      -2.272  24.068  -3.559  1.00  0.00    -0.237 OA
ATOM    101  O   UNL     1      -2.197  21.654  -4.000  1.00  0.00    -0.744 OA
ENDBRANCH  95  98
ENDBRANCH  68  91
ENDBRANCH  42  43
ENDBRANCH  35  37
ENDBRANCH  34  35
ENDBRANCH  33  34
ENDBRANCH  32  33
ENDBRANCH  31  32
ENDBRANCH   1  31
TORSDOF 23
