REMARK SMILES C[N@@H+]1CCC[C@@H](C(=O)N[C@H](C(=O)OCCOCCOCCOC(=O)c2ccc(-c3c4nc(c(-c5cccc(S(=O)(=O)[O-])c5F)c5ccc([nH]5)c(-c5cccc(S(=O)(=O)[O-])c5F)c5nc(c(-c6cccc(S(=O)(=O)[O-])c6F)c6ccc3[nH]6)C=C5)C=C4)cc2)c2ccccc2)C1
REMARK SMILES IDX 18 1 17 2 16 3 15 4 14 5 13 6 11 7 12 8 10 9 9 10 7 11 8 12
REMARK SMILES IDX 6 14 1 15 2 16 3 17 94 18 4 20 5 21 88 22 89 23 93 24 90 25
REMARK SMILES IDX 92 26 91 27 19 28 20 29 21 30 22 31 23 32 24 33 25 34 26 35
REMARK SMILES IDX 87 36 27 37 86 38 28 39 29 40 30 41 80 42 31 43 85 44 79 45
REMARK SMILES IDX 81 46 32 47 84 48 78 49 77 50 33 52 65 53 45 54 64 55 46 56
REMARK SMILES IDX 49 57 63 58 82 59 47 60 48 61 62 63 83 64 50 65 34 66 35 67
REMARK SMILES IDX 43 68 36 69 38 70 44 71 37 72 39 73 40 74 41 75 42 76 66 77
REMARK SMILES IDX 67 78 75 79 68 80 70 81 76 82 69 83 71 84 72 85 73 86 74 87
REMARK SMILES IDX 51 88 52 89 60 90 53 91 55 92 61 93 54 94 56 95 57 96 58 97
REMARK SMILES IDX 59 98
REMARK H PARENT 9 13 2 19 81 51 49 62
REMARK Flexibility Score: inf
ROOT
ATOM      1  C   UNL     1       0.775   0.349   5.171  1.00  0.00     0.188 C 
ENDROOT
BRANCH   1   2
ATOM      2  C   UNL     1       0.272  -1.097   5.098  1.00  0.00     0.188 C 
BRANCH   2   3
ATOM      3  O   UNL     1       1.194  -2.136   5.335  1.00  0.00    -0.376 OA
BRANCH   3   4
ATOM      4  C   UNL     1       2.302  -2.352   4.481  1.00  0.00     0.202 C 
BRANCH   4   5
ATOM      5  C   UNL     1       2.428  -1.848   3.034  1.00  0.00     0.261 C 
BRANCH   5   6
ATOM      6  O   UNL     1       1.991  -0.510   2.757  1.00  0.00    -0.461 OA
BRANCH   6   7
ATOM      7  C   UNL     1       0.834  -0.418   2.054  1.00  0.00     0.333 C 
ATOM      8  O   UNL     1       0.209  -1.415   1.690  1.00  0.00    -0.249 OA
BRANCH   7   9
ATOM      9  C   UNL     1       0.355   1.005   1.700  1.00  0.00     0.223 C 
BRANCH   9  10
ATOM     10  N   UNL     1      -1.110   0.976   1.841  1.00  0.00    -0.339 N 
ATOM     11  C   UNL     1      -2.131   1.068   0.964  1.00  0.00     0.229 C 
ATOM     12  O   UNL     1      -3.262   1.040   1.467  1.00  0.00    -0.275 OA
ATOM     13  H   UNL     1      -1.407   0.867   2.773  1.00  0.00     0.164 HD
BRANCH  11  14
ATOM     14  C   UNL     1      -1.997   1.223  -0.553  1.00  0.00     0.133 C 
ATOM     15  C   UNL     1       0.997   3.429  -1.279  1.00  0.00     0.332 C 
ATOM     16  N   UNL     1       0.210   2.227  -1.066  1.00  0.00    -0.337 N 
ATOM     17  C   UNL     1       0.612   1.099  -1.904  1.00  0.00     0.262 C 
ATOM     18  C   UNL     1      -1.228   2.455  -1.033  1.00  0.00     0.275 C 
ATOM     19  H   UNL     1       0.444   1.938  -0.116  1.00  0.00     0.347 HD
ATOM     20  C   UNL     1      -0.100  -0.206  -1.521  1.00  0.00     0.062 C 
ATOM     21  C   UNL     1      -1.598  -0.053  -1.292  1.00  0.00     0.025 C 
ENDBRANCH  11  14
ENDBRANCH   9  10
BRANCH   9  22
ATOM     22  C   UNL     1       0.924   2.300   2.301  1.00  0.00    -0.014 A 
ATOM     23  C   UNL     1       2.259   2.460   2.697  1.00  0.00     0.006 A 
ATOM     24  C   UNL     1       0.110   3.459   2.347  1.00  0.00     0.006 A 
ATOM     25  C   UNL     1       2.738   3.695   3.161  1.00  0.00     0.000 A 
ATOM     26  C   UNL     1       0.591   4.696   2.783  1.00  0.00     0.000 A 
ATOM     27  C   UNL     1       1.908   4.812   3.198  1.00  0.00     0.000 A 
ENDBRANCH   9  22
ENDBRANCH   7   9
ENDBRANCH   6   7
ENDBRANCH   5   6
ENDBRANCH   4   5
ENDBRANCH   3   4
ENDBRANCH   2   3
ENDBRANCH   1   2
BRANCH   1  28
ATOM     28  O   UNL     1       2.133   0.630   5.410  1.00  0.00    -0.376 OA
BRANCH  28  29
ATOM     29  C   UNL     1       2.700   0.284   6.660  1.00  0.00     0.202 C 
BRANCH  29  30
ATOM     30  C   UNL     1       1.920   0.277   7.989  1.00  0.00     0.261 C 
BRANCH  30  31
ATOM     31  O   UNL     1       0.505   0.071   7.929  1.00  0.00    -0.460 OA
BRANCH  31  32
ATOM     32  C   UNL     1      -0.256   1.190   8.049  1.00  0.00     0.338 C 
ATOM     33  O   UNL     1       0.142   2.330   8.238  1.00  0.00    -0.246 OA
BRANCH  32  34
ATOM     34  C   UNL     1      -1.645   0.860   7.659  1.00  0.00     0.060 A 
ATOM     35  C   UNL     1      -2.223   1.533   6.568  1.00  0.00     0.016 A 
ATOM     36  C   UNL     1      -2.366  -0.109   8.354  1.00  0.00     0.016 A 
ATOM     37  C   UNL     1      -3.539   1.265   6.193  1.00  0.00     0.010 A 
ATOM     38  C   UNL     1      -3.696  -0.349   8.002  1.00  0.00     0.010 A 
ATOM     39  C   UNL     1      -4.299   0.368   6.950  1.00  0.00    -0.014 A 
BRANCH  39  40
ATOM     40  C   UNL     1      -5.778   0.376   6.839  1.00  0.00     0.031 A 
ATOM     41  C   UNL     1      -6.544   1.215   7.826  1.00  0.00     0.074 A 
ATOM     42  C   UNL     1      -6.433  -0.353   5.920  1.00  0.00     0.049 A 
ATOM     43  N   UNL     1      -7.833   1.323   8.007  1.00  0.00    -0.248 NA
ATOM     44  C   UNL     1      -5.736   2.036   8.744  1.00  0.00     0.031 C 
ATOM     45  C   UNL     1      -5.811  -1.174   4.885  1.00  0.00     0.029 A 
ATOM     46  N   UNL     1      -7.781  -0.534   5.735  1.00  0.00    -0.354 N 
ATOM     47  C   UNL     1      -7.991   2.192   9.080  1.00  0.00     0.074 A 
ATOM     48  C   UNL     1      -6.666   2.568   9.521  1.00  0.00     0.031 C 
ATOM     49  C   UNL     1      -6.777  -1.798   4.189  1.00  0.00     0.029 A 
ATOM     50  C   UNL     1      -8.081  -1.442   4.748  1.00  0.00     0.049 A 
ATOM     51  H   UNL     1      -8.466  -0.060   6.258  1.00  0.00     0.167 HD
ATOM     52  C   UNL     1      -9.133   2.647   9.645  1.00  0.00     0.034 A 
ATOM     53  C   UNL     1      -9.272  -1.940   4.358  1.00  0.00     0.034 A 
ATOM     54  C   UNL     1     -10.449   2.274   9.205  1.00  0.00     0.049 A 
ATOM     55  C   UNL     1     -10.533  -1.461   5.035  1.00  0.00     0.074 A 
ATOM     56  C   UNL     1     -11.672   2.701   9.689  1.00  0.00     0.029 A 
ATOM     57  N   UNL     1     -10.714   1.369   8.188  1.00  0.00    -0.354 N 
ATOM     58  N   UNL     1     -10.677  -0.572   5.989  1.00  0.00    -0.248 NA
ATOM     59  C   UNL     1     -11.801  -2.032   4.557  1.00  0.00     0.031 C 
ATOM     60  C   UNL     1     -12.677   2.023   8.991  1.00  0.00     0.029 A 
ATOM     61  C   UNL     1     -12.081   1.211   8.039  1.00  0.00     0.049 A 
ATOM     62  H   UNL     1     -10.031   0.906   7.652  1.00  0.00     0.167 HD
ATOM     63  C   UNL     1     -12.048  -0.441   6.190  1.00  0.00     0.074 A 
ATOM     64  C   UNL     1     -12.692  -1.339   5.254  1.00  0.00     0.031 C 
ATOM     65  C   UNL     1     -12.713   0.351   7.069  1.00  0.00     0.034 A 
BRANCH  52  66
ATOM     66  C   UNL     1      -8.993   3.597  10.807  1.00  0.00     0.023 A 
ATOM     67  C   UNL     1      -8.490   4.898  10.596  1.00  0.00     0.012 A 
ATOM     68  C   UNL     1      -9.352   3.199  12.109  1.00  0.00     0.148 A 
ATOM     69  C   UNL     1      -8.294   5.767  11.669  1.00  0.00     0.002 A 
ATOM     70  C   UNL     1      -9.204   4.090  13.166  1.00  0.00     0.091 A 
ATOM     71  F   UNL     1      -9.804   1.951  12.297  1.00  0.00    -0.205 F 
ATOM     72  C   UNL     1      -8.658   5.366  12.951  1.00  0.00     0.022 A 
BRANCH  70  73
ATOM     73  S   UNL     1      -9.723   3.694  14.839  1.00  0.00     0.127 S 
ATOM     74  O   UNL     1      -8.439   3.493  15.507  1.00  0.00    -0.237 OA
ATOM     75  O   UNL     1     -10.432   4.911  15.237  1.00  0.00    -0.237 OA
ATOM     76  O   UNL     1     -10.566   2.512  14.727  1.00  0.00    -0.744 OA
ENDBRANCH  70  73
ENDBRANCH  52  66
BRANCH  53  77
ATOM     77  C   UNL     1      -9.338  -2.914   3.232  1.00  0.00     0.023 A 
ATOM     78  C   UNL     1      -9.896  -2.509   2.004  1.00  0.00     0.012 A 
ATOM     79  C   UNL     1      -8.837  -4.224   3.360  1.00  0.00     0.148 A 
ATOM     80  C   UNL     1      -9.979  -3.398   0.932  1.00  0.00     0.002 A 
ATOM     81  C   UNL     1      -8.876  -5.090   2.272  1.00  0.00     0.091 A 
ATOM     82  F   UNL     1      -8.320  -4.593   4.541  1.00  0.00    -0.205 F 
ATOM     83  C   UNL     1      -9.461  -4.683   1.062  1.00  0.00     0.022 A 
BRANCH  81  84
ATOM     84  S   UNL     1      -8.144  -6.730   2.306  1.00  0.00     0.127 S 
ATOM     85  O   UNL     1      -9.313  -7.584   2.108  1.00  0.00    -0.237 OA
ATOM     86  O   UNL     1      -7.226  -6.670   1.169  1.00  0.00    -0.237 OA
ATOM     87  O   UNL     1      -7.497  -6.851   3.605  1.00  0.00    -0.744 OA
ENDBRANCH  81  84
ENDBRANCH  53  77
BRANCH  65  88
ATOM     88  C   UNL     1     -14.222   0.339   7.031  1.00  0.00     0.023 A 
ATOM     89  C   UNL     1     -14.936  -0.784   7.494  1.00  0.00     0.012 A 
ATOM     90  C   UNL     1     -14.932   1.482   6.609  1.00  0.00     0.148 A 
ATOM     91  C   UNL     1     -16.332  -0.782   7.502  1.00  0.00     0.002 A 
ATOM     92  C   UNL     1     -16.320   1.496   6.671  1.00  0.00     0.091 A 
ATOM     93  F   UNL     1     -14.237   2.536   6.157  1.00  0.00    -0.205 F 
ATOM     94  C   UNL     1     -17.022   0.360   7.104  1.00  0.00     0.022 A 
BRANCH  92  95
ATOM     95  S   UNL     1     -17.289   2.957   6.277  1.00  0.00     0.127 S 
ATOM     96  O   UNL     1     -17.914   2.569   5.014  1.00  0.00    -0.237 OA
ATOM     97  O   UNL     1     -18.208   3.036   7.413  1.00  0.00    -0.237 OA
ATOM     98  O   UNL     1     -16.340   4.059   6.191  1.00  0.00    -0.744 OA
ENDBRANCH  92  95
ENDBRANCH  65  88
ENDBRANCH  39  40
ENDBRANCH  32  34
ENDBRANCH  31  32
ENDBRANCH  30  31
ENDBRANCH  29  30
ENDBRANCH  28  29
ENDBRANCH   1  28
TORSDOF 23
