REMARK SMILES O=C(OCCOCCOCCOC(=O)[C@@H]1CC2(CC[NH2+]CC2)C[N@H+]1Cc1cccc2nonc12)c1ccc(-c2c3nc(c(-c4cccc(S(=O)(=O)[O-])c4F)c4ccc([nH]4)c(-c4cccc(S(=O)(=O)[O-])c4F)c4nc(c(-c5cccc(S(=O)(=O)[O-])c5F)c5ccc2[nH]5)C=C4)C=C3)cc1
REMARK SMILES IDX 7 1 6 2 5 3 4 4 3 5 2 6 1 7 35 8 36 9 97 10 37 11 96 12
REMARK SMILES IDX 38 13 39 14 40 15 90 16 41 17 95 18 89 19 91 20 42 21 94 22
REMARK SMILES IDX 88 23 87 24 43 26 75 27 55 28 74 29 56 30 59 31 73 32 92 33
REMARK SMILES IDX 57 34 58 35 72 37 93 38 60 39 44 40 45 41 53 42 46 43 48 44
REMARK SMILES IDX 54 45 47 46 49 47 50 48 51 49 52 50 76 51 77 52 85 53 78 54
REMARK SMILES IDX 80 55 86 56 79 57 81 58 82 59 83 60 84 61 61 62 62 63 70 64
REMARK SMILES IDX 63 65 65 66 71 67 64 68 66 69 67 70 68 71 69 72 8 73 9 74
REMARK SMILES IDX 10 75 11 76 12 77 13 78 14 79 15 80 16 81 24 82 17 83 23 84
REMARK SMILES IDX 18 86 22 87 19 88 21 89 20 90 25 93 26 94 27 95 34 96 28 97
REMARK SMILES IDX 30 98 33 99 29 100 31 101 32 102
REMARK H PARENT 91 25 59 36 24 85 20 91 20 92
REMARK Flexibility Score: inf
ROOT
ATOM      1  C   UNL     1       1.996   0.881  -0.701  1.00  0.00     0.188 C 
ENDROOT
BRANCH   1   2
ATOM      2  O   UNL     1       2.935  -0.022  -0.111  1.00  0.00    -0.376 OA
BRANCH   2   3
ATOM      3  C   UNL     1       3.978  -0.507  -0.953  1.00  0.00     0.202 C 
BRANCH   3   4
ATOM      4  C   UNL     1       3.646  -1.942  -1.339  1.00  0.00     0.261 C 
BRANCH   4   5
ATOM      5  O   UNL     1       3.595  -2.728  -0.125  1.00  0.00    -0.460 OA
BRANCH   5   6
ATOM      6  C   UNL     1       2.430  -2.666   0.572  1.00  0.00     0.338 C 
ATOM      7  O   UNL     1       1.304  -2.614   0.068  1.00  0.00    -0.246 OA
BRANCH   6   8
ATOM      8  C   UNL     1       2.696  -2.571   2.042  1.00  0.00     0.060 A 
ATOM      9  C   UNL     1       1.650  -2.543   2.971  1.00  0.00     0.016 A 
ATOM     10  C   UNL     1       3.989  -2.396   2.527  1.00  0.00     0.016 A 
ATOM     11  C   UNL     1       1.903  -2.323   4.353  1.00  0.00     0.010 A 
ATOM     12  C   UNL     1       4.223  -2.141   3.892  1.00  0.00     0.010 A 
ATOM     13  C   UNL     1       3.200  -2.067   4.855  1.00  0.00    -0.014 A 
BRANCH  13  14
ATOM     14  C   UNL     1       3.518  -1.765   6.329  1.00  0.00     0.031 A 
ATOM     15  C   UNL     1       5.009  -1.482   6.749  1.00  0.00     0.074 A 
ATOM     16  C   UNL     1       2.609  -1.310   7.235  1.00  0.00     0.049 A 
ATOM     17  N   UNL     1       5.523  -0.347   7.183  1.00  0.00    -0.248 NA
ATOM     18  C   UNL     1       6.050  -2.473   6.448  1.00  0.00     0.031 C 
ATOM     19  C   UNL     1       1.478  -0.407   6.955  1.00  0.00     0.029 A 
ATOM     20  N   UNL     1       2.638  -1.334   8.611  1.00  0.00    -0.354 N 
ATOM     21  C   UNL     1       6.919  -0.407   7.082  1.00  0.00     0.074 A 
ATOM     22  C   UNL     1       7.178  -1.766   6.614  1.00  0.00     0.031 C 
ATOM     23  C   UNL     1       1.125   0.234   8.095  1.00  0.00     0.029 A 
ATOM     24  C   UNL     1       1.834  -0.370   9.208  1.00  0.00     0.049 A 
ATOM     25  H   UNL     1       3.179  -1.975   9.126  1.00  0.00     0.167 HD
ATOM     26  C   UNL     1       7.848   0.590   7.308  1.00  0.00     0.034 A 
ATOM     27  C   UNL     1       1.697  -0.043  10.527  1.00  0.00     0.034 A 
ATOM     28  C   UNL     1       7.489   1.935   7.793  1.00  0.00     0.049 A 
ATOM     29  C   UNL     1       2.928   0.793  10.798  1.00  0.00     0.074 A 
ATOM     30  C   UNL     1       7.740   3.243   7.394  1.00  0.00     0.029 A 
ATOM     31  N   UNL     1       7.064   2.168   9.094  1.00  0.00    -0.354 N 
ATOM     32  N   UNL     1       3.078   2.094  10.755  1.00  0.00    -0.248 NA
ATOM     33  C   UNL     1       4.166   0.027  10.802  1.00  0.00     0.031 C 
ATOM     34  C   UNL     1       7.044   4.136   8.309  1.00  0.00     0.029 A 
ATOM     35  C   UNL     1       6.308   3.346   9.198  1.00  0.00     0.049 A 
ATOM     36  H   UNL     1       7.267   1.576   9.854  1.00  0.00     0.167 HD
ATOM     37  C   UNL     1       4.422   2.297  10.418  1.00  0.00     0.074 A 
ATOM     38  C   UNL     1       4.984   0.963  10.375  1.00  0.00     0.031 C 
ATOM     39  C   UNL     1       5.012   3.468  10.002  1.00  0.00     0.034 A 
BRANCH  26  40
ATOM     40  C   UNL     1       9.331   0.304   7.179  1.00  0.00     0.023 A 
ATOM     41  C   UNL     1      10.008   0.153   8.406  1.00  0.00     0.012 A 
ATOM     42  C   UNL     1      10.094   0.327   5.986  1.00  0.00     0.148 A 
ATOM     43  C   UNL     1      11.398   0.080   8.470  1.00  0.00     0.002 A 
ATOM     44  C   UNL     1      11.495   0.246   6.058  1.00  0.00     0.091 A 
ATOM     45  F   UNL     1       9.458   0.455   4.812  1.00  0.00    -0.205 F 
ATOM     46  C   UNL     1      12.141   0.136   7.300  1.00  0.00     0.022 A 
BRANCH  44  47
ATOM     47  S   UNL     1      12.601   0.315   4.632  1.00  0.00     0.127 S 
ATOM     48  O   UNL     1      13.331   1.559   4.873  1.00  0.00    -0.237 OA
ATOM     49  O   UNL     1      13.398  -0.900   4.805  1.00  0.00    -0.237 OA
ATOM     50  O   UNL     1      11.738   0.317   3.459  1.00  0.00    -0.744 OA
ENDBRANCH  44  47
ENDBRANCH  26  40
BRANCH  27  51
ATOM     51  C   UNL     1       1.388  -1.255  11.373  1.00  0.00     0.023 A 
ATOM     52  C   UNL     1       0.205  -1.940  11.014  1.00  0.00     0.012 A 
ATOM     53  C   UNL     1       2.195  -1.825  12.379  1.00  0.00     0.148 A 
ATOM     54  C   UNL     1      -0.087  -3.207  11.511  1.00  0.00     0.002 A 
ATOM     55  C   UNL     1       1.928  -3.113  12.838  1.00  0.00     0.091 A 
ATOM     56  F   UNL     1       3.235  -1.139  12.866  1.00  0.00    -0.205 F 
ATOM     57  C   UNL     1       0.797  -3.811  12.394  1.00  0.00     0.022 A 
BRANCH  55  58
ATOM     58  S   UNL     1       3.043  -4.003  13.933  1.00  0.00     0.127 S 
ATOM     59  O   UNL     1       2.125  -4.532  14.941  1.00  0.00    -0.237 OA
ATOM     60  O   UNL     1       3.603  -5.002  13.024  1.00  0.00    -0.237 OA
ATOM     61  O   UNL     1       3.992  -3.015  14.428  1.00  0.00    -0.744 OA
ENDBRANCH  55  58
ENDBRANCH  27  51
BRANCH  39  62
ATOM     62  C   UNL     1       4.173   4.837  10.090  1.00  0.00     0.023 A 
ATOM     63  C   UNL     1       4.772   5.928  10.738  1.00  0.00     0.012 A 
ATOM     64  C   UNL     1       2.910   5.154   9.459  1.00  0.00     0.148 A 
ATOM     65  C   UNL     1       4.246   7.237  10.634  1.00  0.00     0.002 A 
ATOM     66  C   UNL     1       2.546   6.469   9.133  1.00  0.00     0.091 A 
ATOM     67  F   UNL     1       1.990   4.200   9.230  1.00  0.00    -0.205 F 
ATOM     68  C   UNL     1       3.204   7.521   9.754  1.00  0.00     0.022 A 
BRANCH  66  69
ATOM     69  S   UNL     1       1.418   6.900   7.759  1.00  0.00     0.127 S 
ATOM     70  O   UNL     1       0.203   7.308   8.463  1.00  0.00    -0.237 OA
ATOM     71  O   UNL     1       2.122   8.011   7.106  1.00  0.00    -0.237 OA
ATOM     72  O   UNL     1       1.264   5.719   6.920  1.00  0.00    -0.744 OA
ENDBRANCH  66  69
ENDBRANCH  39  62
ENDBRANCH  13  14
ENDBRANCH   6   8
ENDBRANCH   5   6
ENDBRANCH   4   5
ENDBRANCH   3   4
ENDBRANCH   2   3
ENDBRANCH   1   2
BRANCH   1  73
ATOM     73  C   UNL     1       2.037   2.201   0.076  1.00  0.00     0.188 C 
BRANCH  73  74
ATOM     74  O   UNL     1       2.321   3.333  -0.733  1.00  0.00    -0.376 OA
BRANCH  74  75
ATOM     75  C   UNL     1       2.502   4.619  -0.116  1.00  0.00     0.202 C 
BRANCH  75  76
ATOM     76  C   UNL     1       3.220   4.913   1.226  1.00  0.00     0.261 C 
BRANCH  76  77
ATOM     77  O   UNL     1       3.539   3.795   2.017  1.00  0.00    -0.459 OA
BRANCH  77  78
ATOM     78  C   UNL     1       2.479   3.244   2.647  1.00  0.00     0.365 C 
ATOM     79  O   UNL     1       1.336   3.696   2.610  1.00  0.00    -0.245 OA
BRANCH  78  80
ATOM     80  C   UNL     1       2.842   1.941   3.329  1.00  0.00     0.296 C 
ATOM     81  C   UNL     1       2.690   2.341   4.771  1.00  0.00     0.091 C 
ATOM     82  N   UNL     1       4.245   1.500   3.281  1.00  0.00    -0.319 N 
ATOM     83  C   UNL     1       4.134   2.345   5.282  1.00  0.00     0.036 C 
ATOM     84  C   UNL     1       4.699   1.154   4.597  1.00  0.00     0.270 C 
ATOM     85  H   UNL     1       4.583   2.352   2.833  1.00  0.00     0.349 HD
ATOM     86  C   UNL     1       4.090   2.190   6.752  1.00  0.00     0.074 C 
ATOM     87  C   UNL     1       4.981   3.598   4.936  1.00  0.00     0.074 C 
ATOM     88  C   UNL     1       3.415   3.417   7.252  1.00  0.00     0.261 C 
ATOM     89  C   UNL     1       4.401   4.851   5.548  1.00  0.00     0.261 C 
ATOM     90  N   UNL     1       4.169   4.638   6.958  1.00  0.00    -0.346 N 
ATOM     91  H   UNL     1       5.073   4.580   7.428  1.00  0.00     0.346 HD
ATOM     92  H   UNL     1       3.608   5.422   7.290  1.00  0.00     0.346 HD
BRANCH  82  93
ATOM     93  C   UNL     1       4.952   0.908   2.195  1.00  0.00     0.302 C 
BRANCH  93  94
ATOM     94  C   UNL     1       5.974   1.852   1.631  1.00  0.00     0.038 A 
ATOM     95  C   UNL     1       7.117   2.228   2.385  1.00  0.00     0.012 A 
ATOM     96  C   UNL     1       5.909   2.508   0.384  1.00  0.00     0.144 A 
ATOM     97  C   UNL     1       8.063   3.200   1.978  1.00  0.00     0.003 A 
ATOM     98  C   UNL     1       6.867   3.525  -0.026  1.00  0.00     0.135 A 
ATOM     99  N   UNL     1       5.045   2.354  -0.624  1.00  0.00    -0.049 NA
ATOM    100  C   UNL     1       7.962   3.898   0.767  1.00  0.00     0.034 A 
ATOM    101  N   UNL     1       6.506   3.993  -1.230  1.00  0.00    -0.050 NA
ATOM    102  O   UNL     1       5.372   3.287  -1.578  1.00  0.00    -0.243 OA
ENDBRANCH  93  94
ENDBRANCH  82  93
ENDBRANCH  78  80
ENDBRANCH  77  78
ENDBRANCH  76  77
ENDBRANCH  75  76
ENDBRANCH  74  75
ENDBRANCH  73  74
ENDBRANCH   1  73
TORSDOF 22
