REMARK SMILES O=C(Cc1c(C(=O)c2cc3c(cn2)CCCC3)[nH]c2cc(Cl)ccc12)OCCOCCOCCOC(=O)c1ccc(-c2c3nc(c(-c4cccc(S(=O)(=O)[O-])c4F)c4ccc([nH]4)c(-c4cccc(S(=O)(=O)[O-])c4F)c4nc(c(-c5cccc(S(=O)(=O)[O-])c5F)c5ccc2[nH]5)C=C4)C=C3)cc1
REMARK SMILES IDX 30 1 29 2 28 3 27 4 26 5 2 6 1 7 3 8 4 9 5 10 25 11 18 12
REMARK SMILES IDX 19 13 24 14 20 16 23 17 21 18 22 19 6 20 7 21 8 22 9 23
REMARK SMILES IDX 13 24 10 25 12 26 11 27 17 28 14 29 16 30 15 31 31 32 32 33
REMARK SMILES IDX 33 34 34 35 35 36 36 37 37 38 38 39 39 40 100 41 40 42 99 43
REMARK SMILES IDX 41 44 42 45 43 46 93 47 44 48 98 49 92 50 94 51 45 52 97 53
REMARK SMILES IDX 91 54 90 55 46 57 78 58 58 59 77 60 59 61 62 62 76 63 95 64
REMARK SMILES IDX 60 65 61 66 75 68 96 69 63 70 47 71 48 72 56 73 49 74 51 75
REMARK SMILES IDX 57 76 50 77 52 78 53 79 54 80 55 81 79 82 80 83 88 84 81 85
REMARK SMILES IDX 83 86 89 87 82 88 84 89 85 90 86 91 87 92 64 93 65 94 73 95
REMARK SMILES IDX 66 96 68 97 74 98 67 99 69 100 70 101 71 102 72 103
REMARK H PARENT 18 15 94 56 62 67
REMARK Flexibility Score: inf
ROOT
ATOM      1  C   UNL     1       2.657  -1.354  -1.543  1.00  0.00     0.188 C 
ENDROOT
BRANCH   1   2
ATOM      2  O   UNL     1       4.071  -1.294  -1.521  1.00  0.00    -0.376 OA
BRANCH   2   3
ATOM      3  C   UNL     1       4.752  -1.014  -0.310  1.00  0.00     0.202 C 
BRANCH   3   4
ATOM      4  C   UNL     1       4.083  -1.375   1.018  1.00  0.00     0.261 C 
BRANCH   4   5
ATOM      5  O   UNL     1       2.799  -0.807   1.326  1.00  0.00    -0.463 OA
BRANCH   5   6
ATOM      6  C   UNL     1       2.533   0.515   1.414  1.00  0.00     0.310 C 
ATOM      7  O   UNL     1       1.725   0.914   2.251  1.00  0.00    -0.252 OA
BRANCH   6   8
ATOM      8  C   UNL     1       3.077   1.424   0.347  1.00  0.00     0.161 C 
BRANCH   8   9
ATOM      9  C   UNL     1       4.079   2.427   0.807  1.00  0.00     0.000 A 
ATOM     10  C   UNL     1       3.986   3.752   0.410  1.00  0.00     0.093 A 
ATOM     11  C   UNL     1       5.307   2.326   1.541  1.00  0.00     0.004 A 
ATOM     12  N   UNL     1       4.755   4.466   1.299  1.00  0.00    -0.351 N 
ATOM     13  C   UNL     1       5.639   3.624   1.930  1.00  0.00     0.048 A 
ATOM     14  C   UNL     1       6.193   1.300   1.931  1.00  0.00     0.012 A 
ATOM     15  H   UNL     1       4.683   5.435   1.458  1.00  0.00     0.167 HD
ATOM     16  C   UNL     1       6.704   3.919   2.793  1.00  0.00     0.047 A 
ATOM     17  C   UNL     1       7.296   1.572   2.747  1.00  0.00     0.021 A 
ATOM     18  C   UNL     1       7.518   2.862   3.202  1.00  0.00     0.043 A 
ATOM     19  Cl  UNL     1       8.838   3.162   4.266  1.00  0.00    -0.084 Cl
BRANCH  10  20
ATOM     20  C   UNL     1       3.194   4.269  -0.702  1.00  0.00     0.227 C 
ATOM     21  O   UNL     1       2.738   3.566  -1.601  1.00  0.00    -0.285 OA
BRANCH  20  22
ATOM     22  C   UNL     1       3.027   5.721  -0.774  1.00  0.00     0.113 A 
ATOM     23  C   UNL     1       4.169   6.474  -1.005  1.00  0.00     0.036 A 
ATOM     24  N   UNL     1       1.837   6.195  -0.351  1.00  0.00    -0.252 NA
ATOM     25  C   UNL     1       4.119   7.819  -0.685  1.00  0.00    -0.041 A 
ATOM     26  C   UNL     1       1.787   7.522  -0.155  1.00  0.00     0.115 A 
ATOM     27  C   UNL     1       2.904   8.352  -0.237  1.00  0.00    -0.026 A 
ATOM     28  C   UNL     1       5.386   8.624  -0.714  1.00  0.00     0.036 C 
ATOM     29  C   UNL     1       2.755   9.806   0.081  1.00  0.00     0.037 C 
ATOM     30  C   UNL     1       5.155  10.126  -0.655  1.00  0.00     0.005 C 
ATOM     31  C   UNL     1       4.083  10.505   0.357  1.00  0.00     0.005 C 
ENDBRANCH  20  22
ENDBRANCH  10  20
ENDBRANCH   8   9
ENDBRANCH   6   8
ENDBRANCH   5   6
ENDBRANCH   4   5
ENDBRANCH   3   4
ENDBRANCH   2   3
ENDBRANCH   1   2
BRANCH   1  32
ATOM     32  C   UNL     1       2.059  -2.762  -1.514  1.00  0.00     0.188 C 
BRANCH  32  33
ATOM     33  O   UNL     1       2.859  -3.821  -1.013  1.00  0.00    -0.376 OA
BRANCH  33  34
ATOM     34  C   UNL     1       4.132  -4.059  -1.606  1.00  0.00     0.202 C 
BRANCH  34  35
ATOM     35  C   UNL     1       4.331  -4.009  -3.135  1.00  0.00     0.261 C 
BRANCH  35  36
ATOM     36  O   UNL     1       4.055  -2.752  -3.787  1.00  0.00    -0.460 OA
BRANCH  36  37
ATOM     37  C   UNL     1       3.011  -2.727  -4.659  1.00  0.00     0.338 C 
ATOM     38  O   UNL     1       2.263  -3.648  -4.918  1.00  0.00    -0.246 OA
BRANCH  37  39
ATOM     39  C   UNL     1       2.818  -1.348  -5.175  1.00  0.00     0.060 A 
ATOM     40  C   UNL     1       3.786  -0.746  -5.978  1.00  0.00     0.016 A 
ATOM     41  C   UNL     1       1.626  -0.665  -4.893  1.00  0.00     0.016 A 
ATOM     42  C   UNL     1       3.561   0.541  -6.492  1.00  0.00     0.010 A 
ATOM     43  C   UNL     1       1.422   0.637  -5.370  1.00  0.00     0.010 A 
ATOM     44  C   UNL     1       2.381   1.249  -6.190  1.00  0.00    -0.014 A 
BRANCH  44  45
ATOM     45  C   UNL     1       2.065   2.522  -6.897  1.00  0.00     0.031 A 
ATOM     46  C   UNL     1       2.277   3.878  -6.276  1.00  0.00     0.074 A 
ATOM     47  C   UNL     1       1.548   2.437  -8.140  1.00  0.00     0.049 A 
ATOM     48  N   UNL     1       2.094   5.059  -6.816  1.00  0.00    -0.248 NA
ATOM     49  C   UNL     1       2.752   3.931  -4.886  1.00  0.00     0.031 C 
ATOM     50  C   UNL     1       1.246   1.186  -8.840  1.00  0.00     0.029 A 
ATOM     51  N   UNL     1       1.182   3.413  -9.034  1.00  0.00    -0.354 N 
ATOM     52  C   UNL     1       2.417   5.993  -5.837  1.00  0.00     0.074 A 
ATOM     53  C   UNL     1       2.808   5.243  -4.666  1.00  0.00     0.031 C 
ATOM     54  C   UNL     1       0.754   1.470 -10.056  1.00  0.00     0.029 A 
ATOM     55  C   UNL     1       0.692   2.919 -10.220  1.00  0.00     0.049 A 
ATOM     56  H   UNL     1       1.263   4.376  -8.843  1.00  0.00     0.167 HD
ATOM     57  C   UNL     1       2.409   7.344  -5.929  1.00  0.00     0.034 A 
ATOM     58  C   UNL     1       0.249   3.552 -11.325  1.00  0.00     0.034 A 
ATOM     59  C   UNL     1       2.086   8.080  -7.131  1.00  0.00     0.049 A 
ATOM     60  C   UNL     1       0.275   5.051 -11.392  1.00  0.00     0.074 A 
ATOM     61  C   UNL     1       2.196   9.448  -7.345  1.00  0.00     0.029 A 
ATOM     62  N   UNL     1       1.606   7.537  -8.305  1.00  0.00    -0.354 N 
ATOM     63  N   UNL     1       0.713   5.901 -10.501  1.00  0.00    -0.248 NA
ATOM     64  C   UNL     1      -0.221   5.678 -12.629  1.00  0.00     0.031 C 
ATOM     65  C   UNL     1       1.746   9.738  -8.627  1.00  0.00     0.029 A 
ATOM     66  C   UNL     1       1.408   8.545  -9.233  1.00  0.00     0.049 A 
ATOM     67  H   UNL     1       1.431   6.581  -8.459  1.00  0.00     0.167 HD
ATOM     68  C   UNL     1       0.595   7.154 -11.088  1.00  0.00     0.074 A 
ATOM     69  C   UNL     1       0.039   6.960 -12.407  1.00  0.00     0.031 C 
ATOM     70  C   UNL     1       0.922   8.356 -10.568  1.00  0.00     0.034 A 
BRANCH  57  71
ATOM     71  C   UNL     1       2.892   8.225  -4.793  1.00  0.00     0.023 A 
ATOM     72  C   UNL     1       4.274   8.505  -4.782  1.00  0.00     0.012 A 
ATOM     73  C   UNL     1       1.986   9.134  -4.194  1.00  0.00     0.148 A 
ATOM     74  C   UNL     1       4.732   9.737  -4.321  1.00  0.00     0.002 A 
ATOM     75  C   UNL     1       2.451  10.376  -3.767  1.00  0.00     0.091 A 
ATOM     76  F   UNL     1       0.680   8.835  -4.212  1.00  0.00    -0.205 F 
ATOM     77  C   UNL     1       3.816  10.686  -3.865  1.00  0.00     0.022 A 
BRANCH  75  78
ATOM     78  S   UNL     1       1.359  11.720  -3.264  1.00  0.00     0.127 S 
ATOM     79  O   UNL     1       1.946  12.143  -1.992  1.00  0.00    -0.237 OA
ATOM     80  O   UNL     1       1.535  12.681  -4.348  1.00  0.00    -0.237 OA
ATOM     81  O   UNL     1       0.033  11.128  -3.145  1.00  0.00    -0.744 OA
ENDBRANCH  75  78
ENDBRANCH  57  71
BRANCH  58  82
ATOM     82  C   UNL     1      -0.186   2.763 -12.505  1.00  0.00     0.023 A 
ATOM     83  C   UNL     1       0.641   2.721 -13.644  1.00  0.00     0.012 A 
ATOM     84  C   UNL     1      -1.401   2.057 -12.501  1.00  0.00     0.148 A 
ATOM     85  C   UNL     1       0.251   2.004 -14.773  1.00  0.00     0.002 A 
ATOM     86  C   UNL     1      -1.766   1.314 -13.616  1.00  0.00     0.091 A 
ATOM     87  F   UNL     1      -2.170   2.123 -11.405  1.00  0.00    -0.205 F 
ATOM     88  C   UNL     1      -0.947   1.295 -14.757  1.00  0.00     0.022 A 
BRANCH  86  89
ATOM     89  S   UNL     1      -3.251   0.307 -13.661  1.00  0.00     0.127 S 
ATOM     90  O   UNL     1      -4.049   1.001 -14.669  1.00  0.00    -0.237 OA
ATOM     91  O   UNL     1      -2.720  -0.990 -14.081  1.00  0.00    -0.237 OA
ATOM     92  O   UNL     1      -3.789   0.332 -12.308  1.00  0.00    -0.744 OA
ENDBRANCH  86  89
ENDBRANCH  58  82
BRANCH  70  93
ATOM     93  C   UNL     1       0.767   9.586 -11.415  1.00  0.00     0.023 A 
ATOM     94  C   UNL     1      -0.506  10.157 -11.588  1.00  0.00     0.012 A 
ATOM     95  C   UNL     1       1.907  10.259 -11.901  1.00  0.00     0.148 A 
ATOM     96  C   UNL     1      -0.644  11.380 -12.243  1.00  0.00     0.002 A 
ATOM     97  C   UNL     1       1.765  11.493 -12.522  1.00  0.00     0.091 A 
ATOM     98  F   UNL     1       3.109   9.692 -11.718  1.00  0.00    -0.205 F 
ATOM     99  C   UNL     1       0.489  12.053 -12.697  1.00  0.00     0.022 A 
BRANCH  97 100
ATOM    100  S   UNL     1       3.172  12.464 -13.075  1.00  0.00     0.127 S 
ATOM    101  O   UNL     1       3.021  12.403 -14.528  1.00  0.00    -0.237 OA
ATOM    102  O   UNL     1       2.896  13.776 -12.489  1.00  0.00    -0.237 OA
ATOM    103  O   UNL     1       4.357  11.801 -12.548  1.00  0.00    -0.744 OA
ENDBRANCH  97 100
ENDBRANCH  70  93
ENDBRANCH  44  45
ENDBRANCH  37  39
ENDBRANCH  36  37
ENDBRANCH  35  36
ENDBRANCH  34  35
ENDBRANCH  33  34
ENDBRANCH  32  33
ENDBRANCH   1  32
TORSDOF 23
