REMARK SMILES O=C(OCCOCCOCCOC(=O)c1cc(-c2ccccc2)ccc1F)c1ccc(-c2c3nc(c(-c4cccc(S(=O)(=O)[O-])c4F)c4ccc([nH]4)c(-c4cccc(S(=O)(=O)[O-])c4F)c4nc(c(-c5cccc(S(=O)(=O)[O-])c5F)c5ccc2[nH]5)C=C4)C=C3)cc1
REMARK SMILES IDX 7 1 6 2 5 3 4 4 3 5 2 6 1 7 28 8 29 9 90 10 30 11 89 12
REMARK SMILES IDX 31 13 32 14 33 15 83 16 34 17 88 18 82 19 84 20 35 21 87 22
REMARK SMILES IDX 81 23 80 24 36 26 68 27 48 28 67 29 49 30 52 31 66 32 85 33
REMARK SMILES IDX 50 34 51 35 65 37 86 38 53 39 37 40 38 41 46 42 39 43 41 44
REMARK SMILES IDX 47 45 40 46 42 47 43 48 44 49 45 50 69 51 70 52 78 53 71 54
REMARK SMILES IDX 73 55 79 56 72 57 74 58 75 59 76 60 77 61 54 62 55 63 63 64
REMARK SMILES IDX 56 65 58 66 64 67 57 68 59 69 60 70 61 71 62 72 8 73 9 74
REMARK SMILES IDX 10 75 11 76 12 77 13 78 14 79 15 80 16 81 26 82 17 83 25 84
REMARK SMILES IDX 27 85 24 86 18 87 19 88 23 89 20 90 22 91 21 92
REMARK H PARENT 84 25 52 36
REMARK Flexibility Score: inf
ROOT
ATOM      1  C   UNL     1       2.472  -1.482  -1.649  1.00  0.00     0.188 C 
ENDROOT
BRANCH   1   2
ATOM      2  O   UNL     1       3.744  -0.893  -1.349  1.00  0.00    -0.376 OA
BRANCH   2   3
ATOM      3  C   UNL     1       4.554  -1.670  -0.466  1.00  0.00     0.202 C 
BRANCH   3   4
ATOM      4  C   UNL     1       4.377  -1.312   1.013  1.00  0.00     0.261 C 
BRANCH   4   5
ATOM      5  O   UNL     1       2.997  -1.070   1.333  1.00  0.00    -0.460 OA
BRANCH   5   6
ATOM      6  C   UNL     1       2.375   0.131   1.449  1.00  0.00     0.338 C 
ATOM      7  O   UNL     1       1.180   0.152   1.739  1.00  0.00    -0.246 OA
BRANCH   6   8
ATOM      8  C   UNL     1       3.088   1.437   1.313  1.00  0.00     0.060 A 
ATOM      9  C   UNL     1       4.151   1.679   0.441  1.00  0.00     0.016 A 
ATOM     10  C   UNL     1       2.605   2.512   2.078  1.00  0.00     0.016 A 
ATOM     11  C   UNL     1       4.813   2.904   0.437  1.00  0.00     0.010 A 
ATOM     12  C   UNL     1       3.212   3.771   2.012  1.00  0.00     0.010 A 
ATOM     13  C   UNL     1       4.356   3.960   1.227  1.00  0.00    -0.014 A 
BRANCH  13  14
ATOM     14  C   UNL     1       5.139   5.216   1.288  1.00  0.00     0.031 A 
ATOM     15  C   UNL     1       5.842   5.577   2.565  1.00  0.00     0.074 A 
ATOM     16  C   UNL     1       5.285   5.983   0.190  1.00  0.00     0.049 A 
ATOM     17  N   UNL     1       6.555   6.636   2.841  1.00  0.00    -0.248 NA
ATOM     18  C   UNL     1       5.741   4.614   3.676  1.00  0.00     0.031 C 
ATOM     19  C   UNL     1       4.704   5.692  -1.121  1.00  0.00     0.029 A 
ATOM     20  N   UNL     1       5.975   7.153  -0.005  1.00  0.00    -0.354 N 
ATOM     21  C   UNL     1       6.956   6.485   4.162  1.00  0.00     0.074 A 
ATOM     22  C   UNL     1       6.404   5.238   4.639  1.00  0.00     0.031 C 
ATOM     23  C   UNL     1       5.075   6.648  -1.985  1.00  0.00     0.029 A 
ATOM     24  C   UNL     1       5.859   7.654  -1.280  1.00  0.00     0.049 A 
ATOM     25  H   UNL     1       6.502   7.592   0.701  1.00  0.00     0.167 HD
ATOM     26  C   UNL     1       7.733   7.304   4.904  1.00  0.00     0.034 A 
ATOM     27  C   UNL     1       6.309   8.804  -1.819  1.00  0.00     0.034 A 
ATOM     28  C   UNL     1       8.312   8.521   4.411  1.00  0.00     0.049 A 
ATOM     29  C   UNL     1       7.128   9.723  -0.958  1.00  0.00     0.074 A 
ATOM     30  C   UNL     1       9.107   9.428   5.086  1.00  0.00     0.029 A 
ATOM     31  N   UNL     1       8.163   8.995   3.117  1.00  0.00    -0.354 N 
ATOM     32  N   UNL     1       7.529   9.546   0.278  1.00  0.00    -0.248 NA
ATOM     33  C   UNL     1       7.576  10.986  -1.561  1.00  0.00     0.031 C 
ATOM     34  C   UNL     1       9.432  10.459   4.199  1.00  0.00     0.029 A 
ATOM     35  C   UNL     1       8.849  10.186   2.971  1.00  0.00     0.049 A 
ATOM     36  H   UNL     1       7.646   8.549   2.408  1.00  0.00     0.167 HD
ATOM     37  C   UNL     1       8.294  10.660   0.595  1.00  0.00     0.074 A 
ATOM     38  C   UNL     1       8.319  11.499  -0.587  1.00  0.00     0.031 C 
ATOM     39  C   UNL     1       8.903  10.971   1.764  1.00  0.00     0.034 A 
BRANCH  26  40
ATOM     40  C   UNL     1       8.017   6.893   6.321  1.00  0.00     0.023 A 
ATOM     41  C   UNL     1       8.978   5.893   6.574  1.00  0.00     0.012 A 
ATOM     42  C   UNL     1       7.357   7.513   7.398  1.00  0.00     0.148 A 
ATOM     43  C   UNL     1       9.262   5.501   7.881  1.00  0.00     0.002 A 
ATOM     44  C   UNL     1       7.668   7.139   8.700  1.00  0.00     0.091 A 
ATOM     45  F   UNL     1       6.432   8.445   7.128  1.00  0.00    -0.205 F 
ATOM     46  C   UNL     1       8.614   6.128   8.943  1.00  0.00     0.022 A 
BRANCH  44  47
ATOM     47  S   UNL     1       6.923   7.912  10.139  1.00  0.00     0.127 S 
ATOM     48  O   UNL     1       6.165   6.799  10.711  1.00  0.00    -0.237 OA
ATOM     49  O   UNL     1       8.098   8.313  10.912  1.00  0.00    -0.237 OA
ATOM     50  O   UNL     1       6.116   9.014   9.634  1.00  0.00    -0.744 OA
ENDBRANCH  44  47
ENDBRANCH  26  40
BRANCH  27  51
ATOM     51  C   UNL     1       6.006   9.129  -3.243  1.00  0.00     0.023 A 
ATOM     52  C   UNL     1       7.043   9.145  -4.195  1.00  0.00     0.012 A 
ATOM     53  C   UNL     1       4.684   9.366  -3.672  1.00  0.00     0.148 A 
ATOM     54  C   UNL     1       6.771   9.403  -5.541  1.00  0.00     0.002 A 
ATOM     55  C   UNL     1       4.413   9.566  -5.021  1.00  0.00     0.091 A 
ATOM     56  F   UNL     1       3.707   9.373  -2.754  1.00  0.00    -0.205 F 
ATOM     57  C   UNL     1       5.456   9.598  -5.957  1.00  0.00     0.022 A 
BRANCH  55  58
ATOM     58  S   UNL     1       2.727   9.660  -5.637  1.00  0.00     0.127 S 
ATOM     59  O   UNL     1       2.533  11.100  -5.772  1.00  0.00    -0.237 OA
ATOM     60  O   UNL     1       2.817   8.925  -6.898  1.00  0.00    -0.237 OA
ATOM     61  O   UNL     1       1.919   8.992  -4.624  1.00  0.00    -0.744 OA
ENDBRANCH  55  58
ENDBRANCH  27  51
BRANCH  39  62
ATOM     62  C   UNL     1       9.664  12.264   1.835  1.00  0.00     0.023 A 
ATOM     63  C   UNL     1       8.957  13.472   1.988  1.00  0.00     0.012 A 
ATOM     64  C   UNL     1      11.070  12.266   1.889  1.00  0.00     0.148 A 
ATOM     65  C   UNL     1       9.642  14.668   2.190  1.00  0.00     0.002 A 
ATOM     66  C   UNL     1      11.745  13.455   2.134  1.00  0.00     0.091 A 
ATOM     67  F   UNL     1      11.719  11.105   1.718  1.00  0.00    -0.205 F 
ATOM     68  C   UNL     1      11.033  14.657   2.279  1.00  0.00     0.022 A 
BRANCH  66  69
ATOM     69  S   UNL     1      13.524  13.513   2.368  1.00  0.00     0.127 S 
ATOM     70  O   UNL     1      13.973  14.091   1.103  1.00  0.00    -0.237 OA
ATOM     71  O   UNL     1      13.659  14.398   3.526  1.00  0.00    -0.237 OA
ATOM     72  O   UNL     1      13.939  12.138   2.612  1.00  0.00    -0.744 OA
ENDBRANCH  66  69
ENDBRANCH  39  62
ENDBRANCH  13  14
ENDBRANCH   6   8
ENDBRANCH   5   6
ENDBRANCH   4   5
ENDBRANCH   3   4
ENDBRANCH   2   3
ENDBRANCH   1   2
BRANCH   1  73
ATOM     73  C   UNL     1       1.971  -0.995  -3.011  1.00  0.00     0.188 C 
BRANCH  73  74
ATOM     74  O   UNL     1       2.655  -1.570  -4.129  1.00  0.00    -0.376 OA
BRANCH  74  75
ATOM     75  C   UNL     1       4.026  -1.214  -4.289  1.00  0.00     0.202 C 
BRANCH  75  76
ATOM     76  C   UNL     1       4.312   0.158  -4.911  1.00  0.00     0.261 C 
BRANCH  76  77
ATOM     77  O   UNL     1       3.795   1.284  -4.183  1.00  0.00    -0.460 OA
BRANCH  77  78
ATOM     78  C   UNL     1       2.711   1.863  -4.763  1.00  0.00     0.341 C 
ATOM     79  O   UNL     1       2.043   1.422  -5.681  1.00  0.00    -0.246 OA
BRANCH  78  80
ATOM     80  C   UNL     1       2.425   3.156  -4.139  1.00  0.00     0.096 A 
ATOM     81  C   UNL     1       1.475   3.267  -3.115  1.00  0.00     0.027 A 
ATOM     82  C   UNL     1       2.969   4.289  -4.731  1.00  0.00     0.137 A 
ATOM     83  C   UNL     1       1.049   4.538  -2.686  1.00  0.00    -0.017 A 
ATOM     84  C   UNL     1       2.559   5.548  -4.323  1.00  0.00     0.041 A 
ATOM     85  F   UNL     1       3.874   4.178  -5.715  1.00  0.00    -0.206 F 
ATOM     86  C   UNL     1       1.609   5.672  -3.305  1.00  0.00     0.012 A 
BRANCH  83  87
ATOM     87  C   UNL     1       0.000   4.691  -1.665  1.00  0.00    -0.018 A 
ATOM     88  C   UNL     1       0.151   4.164  -0.375  1.00  0.00     0.009 A 
ATOM     89  C   UNL     1      -1.183   5.391  -1.956  1.00  0.00     0.009 A 
ATOM     90  C   UNL     1      -0.840   4.340   0.597  1.00  0.00     0.001 A 
ATOM     91  C   UNL     1      -2.178   5.562  -0.990  1.00  0.00     0.001 A 
ATOM     92  C   UNL     1      -2.004   5.039   0.288  1.00  0.00     0.000 A 
ENDBRANCH  83  87
ENDBRANCH  78  80
ENDBRANCH  77  78
ENDBRANCH  76  77
ENDBRANCH  75  76
ENDBRANCH  74  75
ENDBRANCH  73  74
ENDBRANCH   1  73
TORSDOF 21
