REMARK SMILES C[C@H](c1ccc(Br)s1)[NH+]1CCC(CC(=O)OCCOCCOCCOC(=O)c2ccc(-c3c4nc(c(-c5cccc(S(=O)(=O)[O-])c5F)c5ccc([nH]5)c(-c5cccc(S(=O)(=O)[O-])c5F)c5nc(c(-c6cccc(S(=O)(=O)[O-])c6F)c6ccc3[nH]6)C=C5)C=C4)cc2)CC1
REMARK SMILES IDX 20 1 19 2 18 3 17 4 16 5 14 6 15 7 13 8 12 9 9 10 10 11
REMARK SMILES IDX 92 12 11 14 91 15 2 16 1 17 3 18 4 19 8 20 5 21 6 22 7 23
REMARK SMILES IDX 21 24 22 25 23 26 24 27 25 28 26 29 27 30 28 31 29 32 90 33
REMARK SMILES IDX 30 34 89 35 31 36 32 37 33 38 83 39 34 40 88 41 82 42 84 43
REMARK SMILES IDX 35 44 87 45 81 46 80 47 36 49 68 50 48 51 67 52 49 53 52 54
REMARK SMILES IDX 66 55 85 56 50 57 51 58 65 60 86 61 53 62 37 63 38 64 46 65
REMARK SMILES IDX 39 66 41 67 47 68 40 69 42 70 43 71 44 72 45 73 69 74 70 75
REMARK SMILES IDX 78 76 71 77 73 78 79 79 72 80 74 81 75 82 76 83 77 84 54 85
REMARK SMILES IDX 55 86 63 87 56 88 58 89 64 90 57 91 59 92 60 93 61 94 62 95
REMARK H PARENT 9 13 84 48 52 59
REMARK Flexibility Score: inf
ROOT
ATOM      1  C   UNL     1      -6.470   2.958  -3.849  1.00  0.00     0.188 C 
ENDROOT
BRANCH   1   2
ATOM      2  O   UNL     1      -7.373   4.053  -3.738  1.00  0.00    -0.376 OA
BRANCH   2   3
ATOM      3  C   UNL     1      -6.941   5.162  -2.953  1.00  0.00     0.202 C 
BRANCH   3   4
ATOM      4  C   UNL     1      -6.736   4.879  -1.459  1.00  0.00     0.261 C 
BRANCH   4   5
ATOM      5  O   UNL     1      -5.806   3.806  -1.207  1.00  0.00    -0.463 OA
BRANCH   5   6
ATOM      6  C   UNL     1      -6.240   2.828  -0.374  1.00  0.00     0.306 C 
ATOM      7  O   UNL     1      -7.292   2.865   0.258  1.00  0.00    -0.252 OA
BRANCH   6   8
ATOM      8  C   UNL     1      -5.351   1.599  -0.343  1.00  0.00     0.126 C 
BRANCH   8   9
ATOM      9  C   UNL     1      -3.912   1.663  -0.883  1.00  0.00     0.011 C 
ATOM     10  N   UNL     1      -1.058   1.358  -0.224  1.00  0.00    -0.328 N 
ATOM     11  C   UNL     1      -1.594   2.664  -0.626  1.00  0.00     0.263 C 
ATOM     12  C   UNL     1      -1.744   0.288  -0.956  1.00  0.00     0.263 C 
ATOM     13  H   UNL     1      -1.260   1.202   0.763  1.00  0.00     0.348 HD
ATOM     14  C   UNL     1      -3.071   2.772  -0.238  1.00  0.00     0.066 C 
ATOM     15  C   UNL     1      -3.240   0.297  -0.630  1.00  0.00     0.066 C 
BRANCH  10  16
ATOM     16  C   UNL     1       0.420   1.312  -0.281  1.00  0.00     0.222 C 
ATOM     17  C   UNL     1       1.034   1.455  -1.681  1.00  0.00     0.082 C 
BRANCH  16  18
ATOM     18  C   UNL     1       0.950   0.085   0.449  1.00  0.00     0.063 A 
ATOM     19  C   UNL     1       1.244  -1.178  -0.042  1.00  0.00     0.023 A 
ATOM     20  S   UNL     1       1.239   0.162   2.147  1.00  0.00    -0.127 S 
ATOM     21  C   UNL     1       1.650  -2.087   0.981  1.00  0.00     0.028 A 
ATOM     22  C   UNL     1       1.680  -1.471   2.205  1.00  0.00     0.070 A 
ATOM     23  Br  UNL     1       2.153  -2.347   3.792  1.00  0.00    -0.039 Br
ENDBRANCH  16  18
ENDBRANCH  10  16
ENDBRANCH   8   9
ENDBRANCH   6   8
ENDBRANCH   5   6
ENDBRANCH   4   5
ENDBRANCH   3   4
ENDBRANCH   2   3
ENDBRANCH   1   2
BRANCH   1  24
ATOM     24  C   UNL     1      -5.098   3.290  -4.438  1.00  0.00     0.188 C 
BRANCH  24  25
ATOM     25  O   UNL     1      -4.386   4.345  -3.802  1.00  0.00    -0.376 OA
BRANCH  25  26
ATOM     26  C   UNL     1      -3.105   4.665  -4.355  1.00  0.00     0.202 C 
BRANCH  26  27
ATOM     27  C   UNL     1      -3.017   4.873  -5.882  1.00  0.00     0.261 C 
BRANCH  27  28
ATOM     28  O   UNL     1      -3.402   3.752  -6.703  1.00  0.00    -0.460 OA
BRANCH  28  29
ATOM     29  C   UNL     1      -2.880   2.533  -6.430  1.00  0.00     0.338 C 
ATOM     30  O   UNL     1      -1.928   2.299  -5.704  1.00  0.00    -0.246 OA
BRANCH  29  31
ATOM     31  C   UNL     1      -3.832   1.501  -6.932  1.00  0.00     0.060 A 
ATOM     32  C   UNL     1      -4.044   0.351  -6.154  1.00  0.00     0.016 A 
ATOM     33  C   UNL     1      -4.573   1.692  -8.102  1.00  0.00     0.016 A 
ATOM     34  C   UNL     1      -4.957  -0.626  -6.565  1.00  0.00     0.010 A 
ATOM     35  C   UNL     1      -5.475   0.709  -8.520  1.00  0.00     0.010 A 
ATOM     36  C   UNL     1      -5.643  -0.474  -7.776  1.00  0.00    -0.014 A 
BRANCH  36  37
ATOM     37  C   UNL     1      -6.322  -1.631  -8.413  1.00  0.00     0.031 A 
ATOM     38  C   UNL     1      -5.550  -2.392  -9.459  1.00  0.00     0.074 A 
ATOM     39  C   UNL     1      -7.589  -1.982  -8.126  1.00  0.00     0.049 A 
ATOM     40  N   UNL     1      -5.950  -3.337 -10.267  1.00  0.00    -0.248 NA
ATOM     41  C   UNL     1      -4.132  -2.023  -9.619  1.00  0.00     0.031 C 
ATOM     42  C   UNL     1      -8.439  -1.355  -7.117  1.00  0.00     0.029 A 
ATOM     43  N   UNL     1      -8.393  -2.943  -8.695  1.00  0.00    -0.354 N 
ATOM     44  C   UNL     1      -4.851  -3.642 -11.060  1.00  0.00     0.074 A 
ATOM     45  C   UNL     1      -3.767  -2.784 -10.638  1.00  0.00     0.031 C 
ATOM     46  C   UNL     1      -9.660  -1.920  -7.166  1.00  0.00     0.029 A 
ATOM     47  C   UNL     1      -9.689  -2.920  -8.233  1.00  0.00     0.049 A 
ATOM     48  H   UNL     1      -8.072  -3.584  -9.369  1.00  0.00     0.167 HD
ATOM     49  C   UNL     1      -4.746  -4.557 -12.051  1.00  0.00     0.034 A 
ATOM     50  C   UNL     1     -10.778  -3.601  -8.651  1.00  0.00     0.034 A 
ATOM     51  C   UNL     1      -5.814  -5.423 -12.462  1.00  0.00     0.049 A 
ATOM     52  C   UNL     1     -10.648  -4.591  -9.786  1.00  0.00     0.074 A 
ATOM     53  C   UNL     1      -5.794  -6.405 -13.435  1.00  0.00     0.029 A 
ATOM     54  N   UNL     1      -7.094  -5.403 -11.934  1.00  0.00    -0.354 N 
ATOM     55  N   UNL     1      -9.582  -4.931 -10.469  1.00  0.00    -0.248 NA
ATOM     56  C   UNL     1     -11.868  -5.309 -10.193  1.00  0.00     0.031 C 
ATOM     57  C   UNL     1      -7.074  -6.961 -13.516  1.00  0.00     0.029 A 
ATOM     58  C   UNL     1      -7.876  -6.352 -12.564  1.00  0.00     0.049 A 
ATOM     59  H   UNL     1      -7.401  -4.803 -11.216  1.00  0.00     0.167 HD
ATOM     60  C   UNL     1      -9.989  -5.935 -11.344  1.00  0.00     0.074 A 
ATOM     61  C   UNL     1     -11.400  -6.149 -11.107  1.00  0.00     0.031 C 
ATOM     62  C   UNL     1      -9.260  -6.613 -12.264  1.00  0.00     0.034 A 
BRANCH  49  63
ATOM     63  C   UNL     1      -3.423  -4.671 -12.757  1.00  0.00     0.023 A 
ATOM     64  C   UNL     1      -2.323  -5.253 -12.096  1.00  0.00     0.012 A 
ATOM     65  C   UNL     1      -3.284  -4.244 -14.092  1.00  0.00     0.148 A 
ATOM     66  C   UNL     1      -1.094  -5.378 -12.742  1.00  0.00     0.002 A 
ATOM     67  C   UNL     1      -2.071  -4.416 -14.745  1.00  0.00     0.091 A 
ATOM     68  F   UNL     1      -4.337  -3.670 -14.692  1.00  0.00    -0.205 F 
ATOM     69  C   UNL     1      -0.972  -4.971 -14.068  1.00  0.00     0.022 A 
BRANCH  67  70
ATOM     70  S   UNL     1      -1.837  -3.997 -16.475  1.00  0.00     0.127 S 
ATOM     71  O   UNL     1      -0.959  -2.832 -16.379  1.00  0.00    -0.237 OA
ATOM     72  O   UNL     1      -1.196  -5.204 -16.998  1.00  0.00    -0.237 OA
ATOM     73  O   UNL     1      -3.166  -3.735 -17.009  1.00  0.00    -0.744 OA
ENDBRANCH  67  70
ENDBRANCH  49  63
BRANCH  50  74
ATOM     74  C   UNL     1     -12.099  -3.388  -7.990  1.00  0.00     0.023 A 
ATOM     75  C   UNL     1     -12.673  -4.427  -7.230  1.00  0.00     0.012 A 
ATOM     76  C   UNL     1     -12.796  -2.171  -8.120  1.00  0.00     0.148 A 
ATOM     77  C   UNL     1     -13.928  -4.270  -6.641  1.00  0.00     0.002 A 
ATOM     78  C   UNL     1     -14.021  -2.002  -7.486  1.00  0.00     0.091 A 
ATOM     79  F   UNL     1     -12.245  -1.202  -8.864  1.00  0.00    -0.205 F 
ATOM     80  C   UNL     1     -14.598  -3.056  -6.761  1.00  0.00     0.022 A 
BRANCH  78  81
ATOM     81  S   UNL     1     -14.905  -0.438  -7.491  1.00  0.00     0.127 S 
ATOM     82  O   UNL     1     -16.076  -0.758  -8.304  1.00  0.00    -0.237 OA
ATOM     83  O   UNL     1     -15.178  -0.244  -6.066  1.00  0.00    -0.237 OA
ATOM     84  O   UNL     1     -13.984   0.533  -8.066  1.00  0.00    -0.744 OA
ENDBRANCH  78  81
ENDBRANCH  50  74
BRANCH  62  85
ATOM     85  C   UNL     1      -9.927  -7.718 -13.041  1.00  0.00     0.023 A 
ATOM     86  C   UNL     1     -10.821  -7.414 -14.085  1.00  0.00     0.012 A 
ATOM     87  C   UNL     1      -9.549  -9.059 -12.821  1.00  0.00     0.148 A 
ATOM     88  C   UNL     1     -11.341  -8.430 -14.887  1.00  0.00     0.002 A 
ATOM     89  C   UNL     1     -10.031 -10.059 -13.656  1.00  0.00     0.091 A 
ATOM     90  F   UNL     1      -8.706  -9.326 -11.813  1.00  0.00    -0.205 F 
ATOM     91  C   UNL     1     -10.935  -9.747 -14.684  1.00  0.00     0.022 A 
BRANCH  89  92
ATOM     92  S   UNL     1      -9.482 -11.765 -13.537  1.00  0.00     0.127 S 
ATOM     93  O   UNL     1     -10.697 -12.439 -13.082  1.00  0.00    -0.237 OA
ATOM     94  O   UNL     1      -9.100 -12.063 -14.918  1.00  0.00    -0.237 OA
ATOM     95  O   UNL     1      -8.377 -11.770 -12.587  1.00  0.00    -0.744 OA
ENDBRANCH  89  92
ENDBRANCH  62  85
ENDBRANCH  36  37
ENDBRANCH  29  31
ENDBRANCH  28  29
ENDBRANCH  27  28
ENDBRANCH  26  27
ENDBRANCH  25  26
ENDBRANCH  24  25
ENDBRANCH   1  24
TORSDOF 23
