REMARK SMILES O=C(C[C@H]([NH2+]Cc1ccccc1C1CC1)c1cccs1)OCCOCCOCCOC(=O)c1ccc(-c2c3nc(c(-c4cccc(S(=O)(=O)[O-])c4F)c4ccc([nH]4)c(-c4cccc(S(=O)(=O)[O-])c4F)c4nc(c(-c5cccc(S(=O)(=O)[O-])c5F)c5ccc2[nH]5)C=C4)C=C3)cc1
REMARK SMILES IDX 25 1 24 2 23 3 22 4 21 5 2 6 1 7 3 8 4 9 16 10 17 11 20 12
REMARK SMILES IDX 18 13 19 14 5 15 6 18 7 19 8 20 12 21 9 22 11 23 10 24 13 25
REMARK SMILES IDX 14 26 15 27 26 28 27 29 28 30 29 31 30 32 31 33 32 34 33 35
REMARK SMILES IDX 34 36 95 37 35 38 94 39 36 40 37 41 38 42 88 43 39 44 93 45
REMARK SMILES IDX 87 46 89 47 40 48 92 49 86 50 85 51 41 53 73 54 53 55 72 56
REMARK SMILES IDX 54 57 57 58 71 59 90 60 55 61 56 62 70 64 91 65 58 66 42 67
REMARK SMILES IDX 43 68 51 69 44 70 46 71 52 72 45 73 47 74 48 75 49 76 50 77
REMARK SMILES IDX 74 78 75 79 83 80 76 81 78 82 84 83 77 84 79 85 80 86 81 87
REMARK SMILES IDX 82 88 59 89 60 90 68 91 61 92 63 93 69 94 62 95 64 96 65 97
REMARK SMILES IDX 66 98 67 99
REMARK H PARENT 5 16 5 17 89 52 57 63
REMARK Flexibility Score: inf
ROOT
ATOM      1  C   UNL     1       6.278  -0.714  -1.157  1.00  0.00     0.188 C 
ENDROOT
BRANCH   1   2
ATOM      2  O   UNL     1       5.177   0.197  -1.238  1.00  0.00    -0.376 OA
BRANCH   2   3
ATOM      3  C   UNL     1       5.521   1.561  -1.431  1.00  0.00     0.202 C 
BRANCH   3   4
ATOM      4  C   UNL     1       5.517   2.341  -0.127  1.00  0.00     0.261 C 
BRANCH   4   5
ATOM      5  O   UNL     1       6.412   1.788   0.851  1.00  0.00    -0.463 OA
BRANCH   5   6
ATOM      6  C   UNL     1       6.152   0.870   1.806  1.00  0.00     0.312 C 
ATOM      7  O   UNL     1       7.083   0.534   2.543  1.00  0.00    -0.252 OA
BRANCH   6   8
ATOM      8  C   UNL     1       4.821   0.142   1.908  1.00  0.00     0.193 C 
BRANCH   8   9
ATOM      9  C   UNL     1       3.545   0.917   2.284  1.00  0.00     0.235 C 
BRANCH   9  10
ATOM     10  C   UNL     1       3.888   2.198   3.023  1.00  0.00     0.062 A 
ATOM     11  C   UNL     1       3.767   3.521   2.634  1.00  0.00     0.021 A 
ATOM     12  S   UNL     1       4.618   2.096   4.584  1.00  0.00    -0.143 S 
ATOM     13  C   UNL     1       4.488   4.406   3.488  1.00  0.00     0.012 A 
ATOM     14  C   UNL     1       5.040   3.750   4.563  1.00  0.00     0.065 A 
ENDBRANCH   9  10
BRANCH   9  15
ATOM     15  N   UNL     1       2.716   1.155   1.079  1.00  0.00    -0.335 N 
ATOM     16  H   UNL     1       3.286   0.976   0.253  1.00  0.00     0.347 HD
ATOM     17  H   UNL     1       2.393   2.122   1.120  1.00  0.00     0.347 HD
BRANCH  15  18
ATOM     18  C   UNL     1       1.526   0.302   1.017  1.00  0.00     0.298 C 
BRANCH  18  19
ATOM     19  C   UNL     1       0.768   0.577  -0.269  1.00  0.00     0.010 A 
ATOM     20  C   UNL     1      -0.168   1.640  -0.200  1.00  0.00     0.010 A 
ATOM     21  C   UNL     1       0.975  -0.089  -1.502  1.00  0.00    -0.036 A 
ATOM     22  C   UNL     1      -0.912   2.044  -1.305  1.00  0.00     0.001 A 
ATOM     23  C   UNL     1       0.182   0.349  -2.598  1.00  0.00     0.004 A 
ATOM     24  C   UNL     1      -0.740   1.392  -2.511  1.00  0.00     0.000 A 
BRANCH  21  25
ATOM     25  C   UNL     1       1.975  -1.184  -1.849  1.00  0.00     0.020 C 
ATOM     26  C   UNL     1       2.723  -2.147  -0.976  1.00  0.00     0.009 C 
ATOM     27  C   UNL     1       1.493  -2.614  -1.682  1.00  0.00     0.009 C 
ENDBRANCH  21  25
ENDBRANCH  18  19
ENDBRANCH  15  18
ENDBRANCH   9  15
ENDBRANCH   8   9
ENDBRANCH   6   8
ENDBRANCH   5   6
ENDBRANCH   4   5
ENDBRANCH   3   4
ENDBRANCH   2   3
ENDBRANCH   1   2
BRANCH   1  28
ATOM     28  C   UNL     1       7.263  -0.688  -2.330  1.00  0.00     0.188 C 
BRANCH  28  29
ATOM     29  O   UNL     1       6.714  -0.432  -3.619  1.00  0.00    -0.376 OA
BRANCH  29  30
ATOM     30  C   UNL     1       5.547  -1.158  -4.000  1.00  0.00     0.202 C 
BRANCH  30  31
ATOM     31  C   UNL     1       5.761  -2.649  -4.257  1.00  0.00     0.261 C 
BRANCH  31  32
ATOM     32  O   UNL     1       5.607  -3.412  -3.044  1.00  0.00    -0.460 OA
BRANCH  32  33
ATOM     33  C   UNL     1       6.721  -4.035  -2.593  1.00  0.00     0.338 C 
ATOM     34  O   UNL     1       7.832  -3.995  -3.092  1.00  0.00    -0.246 OA
BRANCH  33  35
ATOM     35  C   UNL     1       6.450  -4.707  -1.306  1.00  0.00     0.060 A 
ATOM     36  C   UNL     1       7.392  -4.554  -0.283  1.00  0.00     0.016 A 
ATOM     37  C   UNL     1       5.361  -5.569  -1.142  1.00  0.00     0.016 A 
ATOM     38  C   UNL     1       7.293  -5.322   0.875  1.00  0.00     0.010 A 
ATOM     39  C   UNL     1       5.264  -6.340   0.023  1.00  0.00     0.010 A 
ATOM     40  C   UNL     1       6.259  -6.259   1.014  1.00  0.00    -0.014 A 
BRANCH  40  41
ATOM     41  C   UNL     1       6.324  -7.249   2.119  1.00  0.00     0.031 A 
ATOM     42  C   UNL     1       6.835  -8.639   1.836  1.00  0.00     0.074 A 
ATOM     43  C   UNL     1       5.976  -6.907   3.373  1.00  0.00     0.049 A 
ATOM     44  N   UNL     1       7.040  -9.630   2.665  1.00  0.00    -0.248 NA
ATOM     45  C   UNL     1       7.160  -8.953   0.434  1.00  0.00     0.031 C 
ATOM     46  C   UNL     1       5.450  -5.606   3.779  1.00  0.00     0.029 A 
ATOM     47  N   UNL     1       6.004  -7.638   4.535  1.00  0.00    -0.354 N 
ATOM     48  C   UNL     1       7.512 -10.683   1.891  1.00  0.00     0.074 A 
ATOM     49  C   UNL     1       7.534 -10.222   0.519  1.00  0.00     0.031 C 
ATOM     50  C   UNL     1       5.181  -5.637   5.096  1.00  0.00     0.029 A 
ATOM     51  C   UNL     1       5.513  -6.960   5.624  1.00  0.00     0.049 A 
ATOM     52  H   UNL     1       6.343  -8.561   4.583  1.00  0.00     0.167 HD
ATOM     53  C   UNL     1       7.922 -11.913   2.284  1.00  0.00     0.034 A 
ATOM     54  C   UNL     1       5.348  -7.360   6.901  1.00  0.00     0.034 A 
ATOM     55  C   UNL     1       7.922 -12.372   3.647  1.00  0.00     0.049 A 
ATOM     56  C   UNL     1       5.811  -8.734   7.313  1.00  0.00     0.074 A 
ATOM     57  C   UNL     1       8.351 -13.591   4.144  1.00  0.00     0.029 A 
ATOM     58  N   UNL     1       7.469 -11.637   4.730  1.00  0.00    -0.354 N 
ATOM     59  N   UNL     1       6.384  -9.666   6.590  1.00  0.00    -0.248 NA
ATOM     60  C   UNL     1       5.646  -9.094   8.730  1.00  0.00     0.031 C 
ATOM     61  C   UNL     1       8.147 -13.596   5.529  1.00  0.00     0.029 A 
ATOM     62  C   UNL     1       7.604 -12.376   5.894  1.00  0.00     0.049 A 
ATOM     63  H   UNL     1       7.105 -10.724   4.680  1.00  0.00     0.167 HD
ATOM     64  C   UNL     1       6.670 -10.708   7.466  1.00  0.00     0.074 A 
ATOM     65  C   UNL     1       6.239 -10.279   8.780  1.00  0.00     0.031 C 
ATOM     66  C   UNL     1       7.219 -11.920   7.205  1.00  0.00     0.034 A 
BRANCH  53  67
ATOM     67  C   UNL     1       8.466 -12.838   1.228  1.00  0.00     0.023 A 
ATOM     68  C   UNL     1       9.756 -12.602   0.708  1.00  0.00     0.012 A 
ATOM     69  C   UNL     1       7.745 -13.970   0.803  1.00  0.00     0.148 A 
ATOM     70  C   UNL     1      10.311 -13.467  -0.233  1.00  0.00     0.002 A 
ATOM     71  C   UNL     1       8.320 -14.848  -0.109  1.00  0.00     0.091 A 
ATOM     72  F   UNL     1       6.512 -14.163   1.292  1.00  0.00    -0.205 F 
ATOM     73  C   UNL     1       9.598 -14.594  -0.633  1.00  0.00     0.022 A 
BRANCH  71  74
ATOM     74  S   UNL     1       7.514 -16.364  -0.638  1.00  0.00     0.127 S 
ATOM     75  O   UNL     1       7.186 -16.053  -2.029  1.00  0.00    -0.237 OA
ATOM     76  O   UNL     1       8.578 -17.354  -0.469  1.00  0.00    -0.237 OA
ATOM     77  O   UNL     1       6.372 -16.542   0.247  1.00  0.00    -0.744 OA
ENDBRANCH  71  74
ENDBRANCH  53  67
BRANCH  54  78
ATOM     78  C   UNL     1       4.753  -6.429   7.900  1.00  0.00     0.023 A 
ATOM     79  C   UNL     1       5.554  -5.902   8.932  1.00  0.00     0.012 A 
ATOM     80  C   UNL     1       3.396  -6.059   7.828  1.00  0.00     0.148 A 
ATOM     81  C   UNL     1       5.006  -5.052   9.893  1.00  0.00     0.002 A 
ATOM     82  C   UNL     1       2.871  -5.167   8.756  1.00  0.00     0.091 A 
ATOM     83  F   UNL     1       2.641  -6.589   6.855  1.00  0.00    -0.205 F 
ATOM     84  C   UNL     1       3.669  -4.675   9.799  1.00  0.00     0.022 A 
BRANCH  82  85
ATOM     85  S   UNL     1       1.195  -4.535   8.616  1.00  0.00     0.127 S 
ATOM     86  O   UNL     1       0.484  -5.347   9.598  1.00  0.00    -0.237 OA
ATOM     87  O   UNL     1       1.363  -3.128   8.984  1.00  0.00    -0.237 OA
ATOM     88  O   UNL     1       0.824  -4.742   7.222  1.00  0.00    -0.744 OA
ENDBRANCH  82  85
ENDBRANCH  54  78
BRANCH  66  89
ATOM     89  C   UNL     1       7.397 -12.869   8.362  1.00  0.00     0.023 A 
ATOM     90  C   UNL     1       6.267 -13.492   8.929  1.00  0.00     0.012 A 
ATOM     91  C   UNL     1       8.679 -13.187   8.854  1.00  0.00     0.148 A 
ATOM     92  C   UNL     1       6.406 -14.384   9.992  1.00  0.00     0.002 A 
ATOM     93  C   UNL     1       8.812 -14.111   9.885  1.00  0.00     0.091 A 
ATOM     94  F   UNL     1       9.743 -12.572   8.318  1.00  0.00    -0.205 F 
ATOM     95  C   UNL     1       7.677 -14.701  10.463  1.00  0.00     0.022 A 
BRANCH  93  96
ATOM     96  S   UNL     1      10.420 -14.640  10.490  1.00  0.00     0.127 S 
ATOM     97  O   UNL     1      10.560 -13.842  11.707  1.00  0.00    -0.237 OA
ATOM     98  O   UNL     1      10.217 -16.071  10.720  1.00  0.00    -0.237 OA
ATOM     99  O   UNL     1      11.362 -14.334   9.421  1.00  0.00    -0.744 OA
ENDBRANCH  93  96
ENDBRANCH  66  89
ENDBRANCH  40  41
ENDBRANCH  33  35
ENDBRANCH  32  33
ENDBRANCH  31  32
ENDBRANCH  30  31
ENDBRANCH  29  30
ENDBRANCH  28  29
ENDBRANCH   1  28
TORSDOF 26
