REMARK SMILES O=C(OCCOCCOCCOC(=O)[C@@H]1[C@H](C(=O)Nc2ccccc2OC(F)F)[C@@H]2C=C[C@H]1C2)c1ccc(-c2c3nc(c(-c4cccc(S(=O)(=O)[O-])c4F)c4ccc([nH]4)c(-c4cccc(S(=O)(=O)[O-])c4F)c4nc(c(-c5cccc(S(=O)(=O)[O-])c5F)c5ccc2[nH]5)C=C4)C=C3)cc1
REMARK SMILES IDX 8 1 7 2 6 3 5 4 4 5 3 6 2 7 1 8 35 9 36 10 97 11 37 12 96 13
REMARK SMILES IDX 38 14 39 15 40 16 90 17 41 18 95 19 89 20 91 21 42 22 94 23
REMARK SMILES IDX 88 24 87 25 43 27 75 28 55 29 74 30 56 31 59 32 73 33 92 34
REMARK SMILES IDX 57 35 58 36 72 38 93 39 60 40 44 41 45 42 53 43 46 44 48 45
REMARK SMILES IDX 54 46 47 47 49 48 50 49 51 50 52 51 76 52 77 53 85 54 78 55
REMARK SMILES IDX 80 56 86 57 79 58 81 59 82 60 83 61 84 62 61 63 62 64 70 65
REMARK SMILES IDX 63 66 65 67 71 68 64 69 66 70 67 71 68 72 69 73 9 74 10 75
REMARK SMILES IDX 11 76 12 77 13 78 14 79 15 80 16 81 33 82 30 83 32 84 34 85
REMARK SMILES IDX 31 86 17 87 18 88 19 89 20 91 21 92 25 93 22 94 24 95 23 96
REMARK SMILES IDX 26 97 27 98 28 99 29 100
REMARK H PARENT 91 26 59 37 19 90
REMARK Flexibility Score: inf
ROOT
ATOM      1  C   UNL     1       3.516  -3.944  -0.981  1.00  0.00     0.188 C 
ENDROOT
BRANCH   1   2
ATOM      2  C   UNL     1       4.021  -2.899   0.044  1.00  0.00     0.188 C 
BRANCH   2   3
ATOM      3  O   UNL     1       5.251  -2.287  -0.310  1.00  0.00    -0.376 OA
BRANCH   3   4
ATOM      4  C   UNL     1       5.886  -1.485   0.700  1.00  0.00     0.202 C 
BRANCH   4   5
ATOM      5  C   UNL     1       5.018  -0.695   1.706  1.00  0.00     0.261 C 
BRANCH   5   6
ATOM      6  O   UNL     1       3.992   0.002   0.999  1.00  0.00    -0.460 OA
BRANCH   6   7
ATOM      7  C   UNL     1       3.720   1.268   1.399  1.00  0.00     0.338 C 
ATOM      8  O   UNL     1       3.176   1.585   2.432  1.00  0.00    -0.246 OA
BRANCH   7   9
ATOM      9  C   UNL     1       4.059   2.162   0.268  1.00  0.00     0.060 A 
ATOM     10  C   UNL     1       5.287   1.993  -0.395  1.00  0.00     0.016 A 
ATOM     11  C   UNL     1       3.130   3.094  -0.188  1.00  0.00     0.016 A 
ATOM     12  C   UNL     1       5.564   2.688  -1.563  1.00  0.00     0.010 A 
ATOM     13  C   UNL     1       3.416   3.810  -1.351  1.00  0.00     0.010 A 
ATOM     14  C   UNL     1       4.634   3.611  -2.039  1.00  0.00    -0.014 A 
BRANCH  14  15
ATOM     15  C   UNL     1       5.088   4.617  -3.020  1.00  0.00     0.031 A 
ATOM     16  C   UNL     1       5.600   5.895  -2.428  1.00  0.00     0.074 A 
ATOM     17  C   UNL     1       5.073   4.417  -4.350  1.00  0.00     0.049 A 
ATOM     18  N   UNL     1       6.080   6.951  -3.020  1.00  0.00    -0.248 NA
ATOM     19  C   UNL     1       5.590   5.980  -0.954  1.00  0.00     0.031 C 
ATOM     20  C   UNL     1       4.667   3.187  -5.023  1.00  0.00     0.029 A 
ATOM     21  N   UNL     1       5.365   5.274  -5.381  1.00  0.00    -0.354 N 
ATOM     22  C   UNL     1       6.424   7.818  -1.994  1.00  0.00     0.074 A 
ATOM     23  C   UNL     1       6.057   7.195  -0.747  1.00  0.00     0.031 C 
ATOM     24  C   UNL     1       4.620   3.401  -6.350  1.00  0.00     0.029 A 
ATOM     25  C   UNL     1       5.029   4.774  -6.620  1.00  0.00     0.049 A 
ATOM     26  H   UNL     1       5.775   6.159  -5.248  1.00  0.00     0.167 HD
ATOM     27  C   UNL     1       7.024   9.023  -2.079  1.00  0.00     0.034 A 
ATOM     28  C   UNL     1       5.045   5.375  -7.826  1.00  0.00     0.034 A 
ATOM     29  C   UNL     1       7.325   9.651  -3.327  1.00  0.00     0.049 A 
ATOM     30  C   UNL     1       5.623   6.766  -7.908  1.00  0.00     0.074 A 
ATOM     31  C   UNL     1       7.905  10.880  -3.560  1.00  0.00     0.029 A 
ATOM     32  N   UNL     1       7.021   9.096  -4.564  1.00  0.00    -0.354 N 
ATOM     33  N   UNL     1       6.074   7.527  -6.938  1.00  0.00    -0.248 NA
ATOM     34  C   UNL     1       5.765   7.357  -9.246  1.00  0.00     0.031 C 
ATOM     35  C   UNL     1       7.915  11.087  -4.943  1.00  0.00     0.029 A 
ATOM     36  C   UNL     1       7.384   9.966  -5.570  1.00  0.00     0.049 A 
ATOM     37  H   UNL     1       6.609   8.213  -4.701  1.00  0.00     0.167 HD
ATOM     38  C   UNL     1       6.614   8.652  -7.547  1.00  0.00     0.074 A 
ATOM     39  C   UNL     1       6.418   8.482  -8.974  1.00  0.00     0.031 C 
ATOM     40  C   UNL     1       7.226   9.722  -6.983  1.00  0.00     0.034 A 
BRANCH  27  41
ATOM     41  C   UNL     1       7.335   9.694  -0.773  1.00  0.00     0.023 A 
ATOM     42  C   UNL     1       8.342   9.160   0.061  1.00  0.00     0.012 A 
ATOM     43  C   UNL     1       6.540  10.756  -0.309  1.00  0.00     0.148 A 
ATOM     44  C   UNL     1       8.504   9.627   1.364  1.00  0.00     0.002 A 
ATOM     45  C   UNL     1       6.737  11.245   0.976  1.00  0.00     0.091 A 
ATOM     46  F   UNL     1       5.566  11.221  -1.103  1.00  0.00    -0.205 F 
ATOM     47  C   UNL     1       7.703  10.669   1.820  1.00  0.00     0.022 A 
BRANCH  45  48
ATOM     48  S   UNL     1       5.781  12.608   1.643  1.00  0.00     0.127 S 
ATOM     49  O   UNL     1       4.933  11.925   2.619  1.00  0.00    -0.237 OA
ATOM     50  O   UNL     1       6.822  13.454   2.225  1.00  0.00    -0.237 OA
ATOM     51  O   UNL     1       5.082  13.200   0.510  1.00  0.00    -0.744 OA
ENDBRANCH  45  48
ENDBRANCH  27  41
BRANCH  28  52
ATOM     52  C   UNL     1       4.591   4.639  -9.043  1.00  0.00     0.023 A 
ATOM     53  C   UNL     1       5.543   4.191  -9.979  1.00  0.00     0.012 A 
ATOM     54  C   UNL     1       3.227   4.351  -9.266  1.00  0.00     0.148 A 
ATOM     55  C   UNL     1       5.149   3.499 -11.126  1.00  0.00     0.002 A 
ATOM     56  C   UNL     1       2.844   3.626 -10.392  1.00  0.00     0.091 A 
ATOM     57  F   UNL     1       2.331   4.787  -8.370  1.00  0.00    -0.205 F 
ATOM     58  C   UNL     1       3.803   3.212 -11.330  1.00  0.00     0.022 A 
BRANCH  56  59
ATOM     59  S   UNL     1       1.147   3.118 -10.701  1.00  0.00     0.127 S 
ATOM     60  O   UNL     1       0.830   3.857 -11.922  1.00  0.00    -0.237 OA
ATOM     61  O   UNL     1       1.296   1.673 -10.879  1.00  0.00    -0.237 OA
ATOM     62  O   UNL     1       0.392   3.506  -9.519  1.00  0.00    -0.744 OA
ENDBRANCH  56  59
ENDBRANCH  28  52
BRANCH  40  63
ATOM     63  C   UNL     1       7.800  10.771  -7.892  1.00  0.00     0.023 A 
ATOM     64  C   UNL     1       6.952  11.711  -8.505  1.00  0.00     0.012 A 
ATOM     65  C   UNL     1       9.198  10.925  -7.977  1.00  0.00     0.148 A 
ATOM     66  C   UNL     1       7.491  12.795  -9.194  1.00  0.00     0.002 A 
ATOM     67  C   UNL     1       9.726  12.037  -8.616  1.00  0.00     0.091 A 
ATOM     68  F   UNL     1       9.979  10.002  -7.397  1.00  0.00    -0.205 F 
ATOM     69  C   UNL     1       8.875  12.969  -9.232  1.00  0.00     0.022 A 
BRANCH  67  70
ATOM     70  S   UNL     1      11.483  12.407  -8.599  1.00  0.00     0.127 S 
ATOM     71  O   UNL     1      11.847  12.187  -9.998  1.00  0.00    -0.237 OA
ATOM     72  O   UNL     1      11.498  13.808  -8.176  1.00  0.00    -0.237 OA
ATOM     73  O   UNL     1      12.083  11.482  -7.647  1.00  0.00    -0.744 OA
ENDBRANCH  67  70
ENDBRANCH  40  63
ENDBRANCH  14  15
ENDBRANCH   7   9
ENDBRANCH   6   7
ENDBRANCH   5   6
ENDBRANCH   4   5
ENDBRANCH   3   4
ENDBRANCH   2   3
ENDBRANCH   1   2
BRANCH   1  74
ATOM     74  O   UNL     1       4.448  -4.627  -1.810  1.00  0.00    -0.376 OA
BRANCH  74  75
ATOM     75  C   UNL     1       4.797  -3.988  -3.062  1.00  0.00     0.202 C 
BRANCH  75  76
ATOM     76  C   UNL     1       3.720  -3.941  -4.202  1.00  0.00     0.261 C 
BRANCH  76  77
ATOM     77  O   UNL     1       3.313  -2.592  -4.649  1.00  0.00    -0.463 OA
BRANCH  77  78
ATOM     78  C   UNL     1       1.968  -2.407  -4.926  1.00  0.00     0.310 C 
ATOM     79  O   UNL     1       1.185  -3.358  -4.916  1.00  0.00    -0.252 OA
BRANCH  78  80
ATOM     80  C   UNL     1       1.540  -0.978  -5.394  1.00  0.00     0.119 C 
ATOM     81  C   UNL     1       1.538   0.515  -4.803  1.00  0.00     0.100 C 
ATOM     82  C   UNL     1       0.055  -1.066  -5.910  1.00  0.00     0.027 C 
ATOM     83  C   UNL     1       0.126   1.050  -5.241  1.00  0.00     0.025 C 
ATOM     84  C   UNL     1      -0.913  -0.925  -4.749  1.00  0.00    -0.027 C 
ATOM     85  C   UNL     1      -0.131   0.315  -6.543  1.00  0.00     0.017 C 
ATOM     86  C   UNL     1      -0.900   0.360  -4.374  1.00  0.00    -0.027 C 
BRANCH  81  87
ATOM     87  C   UNL     1       1.759   1.335  -3.505  1.00  0.00     0.229 C 
ATOM     88  O   UNL     1       2.140   2.510  -3.645  1.00  0.00    -0.274 OA
ATOM     89  N   UNL     1       1.356   1.069  -2.239  1.00  0.00    -0.323 N 
ATOM     90  H   UNL     1       1.351   1.851  -1.641  1.00  0.00     0.170 HD
BRANCH  89  91
ATOM     91  C   UNL     1       0.951  -0.109  -1.643  1.00  0.00     0.084 A 
ATOM     92  C   UNL     1      -0.002  -0.075  -0.624  1.00  0.00     0.030 A 
ATOM     93  C   UNL     1       1.424  -1.317  -2.075  1.00  0.00     0.149 A 
ATOM     94  C   UNL     1      -0.681  -1.245  -0.275  1.00  0.00     0.002 A 
ATOM     95  C   UNL     1       0.632  -2.450  -1.870  1.00  0.00     0.049 A 
ATOM     96  C   UNL     1      -0.424  -2.420  -0.971  1.00  0.00     0.004 A 
BRANCH  93  97
ATOM     97  O   UNL     1       2.627  -1.504  -2.667  1.00  0.00    -0.433 OA
BRANCH  97  98
ATOM     98  C   UNL     1       3.770  -0.667  -2.500  1.00  0.00     0.542 C 
ATOM     99  F   UNL     1       3.963   0.057  -3.625  1.00  0.00    -0.167 F 
ATOM    100  F   UNL     1       3.624   0.157  -1.462  1.00  0.00    -0.167 F 
ENDBRANCH  97  98
ENDBRANCH  93  97
ENDBRANCH  89  91
ENDBRANCH  81  87
ENDBRANCH  78  80
ENDBRANCH  77  78
ENDBRANCH  76  77
ENDBRANCH  75  76
ENDBRANCH  74  75
ENDBRANCH   1  74
TORSDOF 24
