REMARK SMILES Cc1sc(NC(=O)[C@@H]2[C@@H](C(=O)OCCOCCOCCOC(=O)c3ccc(-c4c5nc(c(-c6cccc(S(=O)(=O)[O-])c6F)c6ccc([nH]6)c(-c6cccc(S(=O)(=O)[O-])c6F)c6nc(c(-c7cccc(S(=O)(=O)[O-])c7F)c7ccc4[nH]7)C=C6)C=C5)cc3)[C@@H]3C=C[C@H]2C3)c(C#N)c1C
REMARK SMILES IDX 16 1 15 2 14 3 13 4 12 5 10 6 11 7 9 8 8 9 90 10 87 11 89 12
REMARK SMILES IDX 91 13 88 14 6 15 5 16 7 18 4 19 1 20 2 21 3 22 95 23 92 24
REMARK SMILES IDX 96 25 93 26 94 27 17 28 18 29 19 30 20 31 21 32 22 33 23 34
REMARK SMILES IDX 24 35 25 36 86 37 26 38 85 39 27 40 28 41 29 42 79 43 30 44
REMARK SMILES IDX 84 45 78 46 80 47 31 48 83 49 77 50 76 51 32 53 64 54 44 55
REMARK SMILES IDX 63 56 45 57 48 58 62 59 81 60 46 61 47 62 61 64 82 65 49 66
REMARK SMILES IDX 33 67 34 68 42 69 35 70 37 71 43 72 36 73 38 74 39 75 40 76
REMARK SMILES IDX 41 77 65 78 66 79 74 80 67 81 69 82 75 83 68 84 70 85 71 86
REMARK SMILES IDX 72 87 73 88 50 89 51 90 59 91 52 92 54 93 60 94 53 95 55 96
REMARK SMILES IDX 56 97 57 98 58 99
REMARK H PARENT 5 17 80 52 48 63
REMARK Flexibility Score: inf
ROOT
ATOM      1  C   UNL     1      -1.300  -3.659   0.284  1.00  0.00     0.188 C 
ENDROOT
BRANCH   1   2
ATOM      2  O   UNL     1      -1.640  -3.548  -1.066  1.00  0.00    -0.376 OA
BRANCH   2   3
ATOM      3  C   UNL     1      -2.001  -4.723  -1.753  1.00  0.00     0.202 C 
BRANCH   3   4
ATOM      4  C   UNL     1      -1.686  -6.149  -1.228  1.00  0.00     0.261 C 
BRANCH   4   5
ATOM      5  O   UNL     1      -1.356  -6.325   0.172  1.00  0.00    -0.463 OA
BRANCH   5   6
ATOM      6  C   UNL     1      -0.036  -6.270   0.512  1.00  0.00     0.310 C 
ATOM      7  O   UNL     1       0.851  -6.261  -0.334  1.00  0.00    -0.252 OA
BRANCH   6   8
ATOM      8  C   UNL     1       0.204  -6.167   2.055  1.00  0.00     0.119 C 
ATOM      9  C   UNL     1       0.819  -4.764   2.769  1.00  0.00     0.100 C 
ATOM     10  C   UNL     1       2.221  -5.342   3.204  1.00  0.00     0.025 C 
ATOM     11  C   UNL     1       1.365  -7.182   2.219  1.00  0.00     0.027 C 
ATOM     12  C   UNL     1       2.064  -6.433   4.253  1.00  0.00    -0.027 C 
ATOM     13  C   UNL     1       2.584  -6.269   2.034  1.00  0.00     0.017 C 
ATOM     14  C   UNL     1       1.533  -7.515   3.666  1.00  0.00    -0.027 C 
BRANCH   9  15
ATOM     15  C   UNL     1       0.036  -4.155   4.044  1.00  0.00     0.229 C 
ATOM     16  N   UNL     1       0.097  -2.872   4.644  1.00  0.00    -0.316 N 
ATOM     17  H   UNL     1       0.435  -2.869   5.569  1.00  0.00     0.170 HD
ATOM     18  O   UNL     1      -0.621  -4.972   4.718  1.00  0.00    -0.274 OA
BRANCH  16  19
ATOM     19  C   UNL     1      -0.254  -1.558   4.127  1.00  0.00     0.113 A 
ATOM     20  C   UNL     1       0.337   0.926   0.247  1.00  0.00     0.057 C 
ATOM     21  C   UNL     1      -0.472   0.479   1.496  1.00  0.00     0.008 A 
ATOM     22  S   UNL     1       1.124  -0.874   2.522  1.00  0.00    -0.122 S 
ATOM     23  C   UNL     1      -2.148   0.391   2.605  1.00  0.00    -0.017 A 
ATOM     24  C   UNL     1      -1.770  -0.752   4.160  1.00  0.00     0.090 A 
ATOM     25  C   UNL     1      -3.612   0.904   2.638  1.00  0.00     0.047 C 
BRANCH  24  26
ATOM     26  C   UNL     1      -2.606  -0.772   5.327  1.00  0.00     0.103 C 
ATOM     27  N   UNL     1      -3.189  -0.729   6.330  1.00  0.00    -0.192 NA
ENDBRANCH  24  26
ENDBRANCH  16  19
ENDBRANCH   9  15
ENDBRANCH   6   8
ENDBRANCH   5   6
ENDBRANCH   4   5
ENDBRANCH   3   4
ENDBRANCH   2   3
ENDBRANCH   1   2
BRANCH   1  28
ATOM     28  C   UNL     1      -2.366  -4.120   1.328  1.00  0.00     0.188 C 
BRANCH  28  29
ATOM     29  O   UNL     1      -3.512  -4.833   0.922  1.00  0.00    -0.376 OA
BRANCH  29  30
ATOM     30  C   UNL     1      -4.619  -4.294   0.222  1.00  0.00     0.202 C 
BRANCH  30  31
ATOM     31  C   UNL     1      -4.909  -2.820  -0.098  1.00  0.00     0.261 C 
BRANCH  31  32
ATOM     32  O   UNL     1      -3.770  -2.007  -0.309  1.00  0.00    -0.460 OA
BRANCH  32  33
ATOM     33  C   UNL     1      -3.364  -1.539   0.876  1.00  0.00     0.338 C 
ATOM     34  O   UNL     1      -3.909  -1.746   1.954  1.00  0.00    -0.246 OA
BRANCH  33  35
ATOM     35  C   UNL     1      -2.102  -0.783   0.788  1.00  0.00     0.060 A 
ATOM     36  C   UNL     1      -1.098  -1.051   2.247  1.00  0.00     0.016 A 
ATOM     37  C   UNL     1      -2.388   0.797   0.250  1.00  0.00     0.016 A 
ATOM     38  C   UNL     1      -0.472   0.609   3.323  1.00  0.00     0.010 A 
ATOM     39  C   UNL     1      -1.907   2.198   1.113  1.00  0.00     0.010 A 
ATOM     40  C   UNL     1      -1.090   2.204   2.658  1.00  0.00    -0.014 A 
BRANCH  40  41
ATOM     41  C   UNL     1      -1.200   3.615   3.182  1.00  0.00     0.031 A 
ATOM     42  C   UNL     1       0.170   4.144   3.126  1.00  0.00     0.074 A 
ATOM     43  C   UNL     1      -2.341   4.423   3.245  1.00  0.00     0.049 A 
ATOM     44  N   UNL     1       0.922   4.405   4.143  1.00  0.00    -0.248 NA
ATOM     45  C   UNL     1       0.910   4.111   1.845  1.00  0.00     0.031 C 
ATOM     46  C   UNL     1      -3.768   4.037   3.175  1.00  0.00     0.029 A 
ATOM     47  N   UNL     1      -2.534   5.811   3.271  1.00  0.00    -0.354 N 
ATOM     48  C   UNL     1       2.022   5.011   3.555  1.00  0.00     0.074 A 
ATOM     49  C   UNL     1       2.140   4.445   2.243  1.00  0.00     0.031 C 
ATOM     50  C   UNL     1      -4.584   5.048   2.797  1.00  0.00     0.029 A 
ATOM     51  C   UNL     1      -3.827   6.274   2.851  1.00  0.00     0.049 A 
ATOM     52  H   UNL     1      -1.825   6.432   3.559  1.00  0.00     0.167 HD
ATOM     53  C   UNL     1       2.329   6.280   3.936  1.00  0.00     0.034 A 
ATOM     54  C   UNL     1      -4.346   7.537   2.686  1.00  0.00     0.034 A 
ATOM     55  C   UNL     1       1.649   6.618   5.163  1.00  0.00     0.049 A 
ATOM     56  C   UNL     1      -3.477   8.426   3.459  1.00  0.00     0.074 A 
ATOM     57  C   UNL     1       1.609   6.094   6.439  1.00  0.00     0.029 A 
ATOM     58  N   UNL     1       0.494   7.331   4.977  1.00  0.00    -0.354 N 
ATOM     59  N   UNL     1      -3.494   8.472   4.758  1.00  0.00    -0.248 NA
ATOM     60  C   UNL     1      -2.331   9.028   2.801  1.00  0.00     0.031 C 
ATOM     61  C   UNL     1       0.344   6.445   6.978  1.00  0.00     0.029 A 
ATOM     62  C   UNL     1      -0.314   7.276   6.078  1.00  0.00     0.049 A 
ATOM     63  H   UNL     1       0.273   7.821   4.152  1.00  0.00     0.167 HD
ATOM     64  C   UNL     1      -2.154   8.575   5.058  1.00  0.00     0.074 A 
ATOM     65  C   UNL     1      -1.518   9.104   3.855  1.00  0.00     0.031 C 
ATOM     66  C   UNL     1      -1.647   7.829   6.075  1.00  0.00     0.034 A 
BRANCH  53  67
ATOM     67  C   UNL     1       2.804   7.365   2.994  1.00  0.00     0.023 A 
ATOM     68  C   UNL     1       3.389   8.502   3.583  1.00  0.00     0.012 A 
ATOM     69  C   UNL     1       2.502   7.446   1.612  1.00  0.00     0.148 A 
ATOM     70  C   UNL     1       3.678   9.646   2.832  1.00  0.00     0.002 A 
ATOM     71  C   UNL     1       2.877   8.544   0.850  1.00  0.00     0.091 A 
ATOM     72  F   UNL     1       1.722   6.528   1.038  1.00  0.00    -0.205 F 
ATOM     73  C   UNL     1       3.446   9.660   1.461  1.00  0.00     0.022 A 
BRANCH  71  74
ATOM     74  S   UNL     1       2.643   8.584  -0.934  1.00  0.00     0.127 S 
ATOM     75  O   UNL     1       1.652   9.645  -1.079  1.00  0.00    -0.237 OA
ATOM     76  O   UNL     1       3.989   8.921  -1.397  1.00  0.00    -0.237 OA
ATOM     77  O   UNL     1       2.200   7.246  -1.307  1.00  0.00    -0.744 OA
ENDBRANCH  71  74
ENDBRANCH  53  67
BRANCH  54  78
ATOM     78  C   UNL     1      -5.493   8.181   1.940  1.00  0.00     0.023 A 
ATOM     79  C   UNL     1      -5.882   9.519   2.246  1.00  0.00     0.012 A 
ATOM     80  C   UNL     1      -5.954   7.655   0.718  1.00  0.00     0.148 A 
ATOM     81  C   UNL     1      -6.597  10.321   1.338  1.00  0.00     0.002 A 
ATOM     82  C   UNL     1      -6.654   8.463  -0.191  1.00  0.00     0.091 A 
ATOM     83  F   UNL     1      -5.634   6.393   0.412  1.00  0.00    -0.205 F 
ATOM     84  C   UNL     1      -6.958   9.800   0.104  1.00  0.00     0.022 A 
BRANCH  82  85
ATOM     85  S   UNL     1      -7.104   7.891  -1.839  1.00  0.00     0.127 S 
ATOM     86  O   UNL     1      -8.510   8.287  -1.930  1.00  0.00    -0.237 OA
ATOM     87  O   UNL     1      -6.197   8.664  -2.683  1.00  0.00    -0.237 OA
ATOM     88  O   UNL     1      -6.884   6.451  -1.827  1.00  0.00    -0.744 OA
ENDBRANCH  82  85
ENDBRANCH  54  78
BRANCH  66  89
ATOM     89  C   UNL     1      -2.555   7.473   7.215  1.00  0.00     0.023 A 
ATOM     90  C   UNL     1      -3.657   6.601   7.123  1.00  0.00     0.012 A 
ATOM     91  C   UNL     1      -2.182   7.975   8.472  1.00  0.00     0.148 A 
ATOM     92  C   UNL     1      -4.367   6.239   8.274  1.00  0.00     0.002 A 
ATOM     93  C   UNL     1      -2.850   7.571   9.614  1.00  0.00     0.091 A 
ATOM     94  F   UNL     1      -1.147   8.828   8.527  1.00  0.00    -0.205 F 
ATOM     95  C   UNL     1      -3.951   6.707   9.522  1.00  0.00     0.022 A 
BRANCH  93  96
ATOM     96  S   UNL     1      -2.271   8.055  11.239  1.00  0.00     0.127 S 
ATOM     97  O   UNL     1      -3.271   9.043  11.636  1.00  0.00    -0.237 OA
ATOM     98  O   UNL     1      -2.325   6.793  11.978  1.00  0.00    -0.237 OA
ATOM     99  O   UNL     1      -0.921   8.572  11.047  1.00  0.00    -0.744 OA
ENDBRANCH  93  96
ENDBRANCH  66  89
ENDBRANCH  40  41
ENDBRANCH  33  35
ENDBRANCH  32  33
ENDBRANCH  31  32
ENDBRANCH  30  31
ENDBRANCH  29  30
ENDBRANCH  28  29
ENDBRANCH   1  28
TORSDOF 23
