REMARK SMILES Cc1c(C(=O)Nc2ccc(C(=O)Nc3ccccc3C(=O)OCCOCCOCCOC(=O)c3ccc(-c4c5nc(c(-c6cccc(S(=O)(=O)[O-])c6F)c6ccc([nH]6)c(-c6cccc(S(=O)(=O)[O-])c6F)c6nc(c(-c7cccc(S(=O)(=O)[O-])c7F)c7ccc4[nH]7)C=C6)C=C5)cc3)cc2)cccc1[N+](=O)[O-]
REMARK SMILES IDX 26 1 25 2 24 3 23 4 22 5 20 6 21 7 19 8 14 9 15 10 16 11
REMARK SMILES IDX 18 12 17 13 13 14 11 15 12 16 10 18 7 19 8 20 98 21 9 22
REMARK SMILES IDX 97 23 6 24 4 25 5 26 3 28 1 29 2 30 102 31 99 32 101 33
REMARK SMILES IDX 100 34 103 35 104 36 105 37 27 38 28 39 29 40 30 41 31 42
REMARK SMILES IDX 32 43 33 44 34 45 35 46 96 47 36 48 95 49 37 50 38 51 39 52
REMARK SMILES IDX 89 53 40 54 94 55 88 56 90 57 41 58 93 59 87 60 86 61 42 63
REMARK SMILES IDX 74 64 54 65 73 66 55 67 58 68 72 69 91 70 56 71 57 72 71 74
REMARK SMILES IDX 92 75 59 76 43 77 44 78 52 79 45 80 47 81 53 82 46 83 48 84
REMARK SMILES IDX 49 85 50 86 51 87 75 88 76 89 84 90 77 91 79 92 85 93 78 94
REMARK SMILES IDX 80 95 81 96 82 97 83 98 60 99 61 100 69 101 62 102 64 103
REMARK SMILES IDX 70 104 63 105 65 106 66 107 67 108 68 109
REMARK H PARENT 13 17 6 27 90 62 58 73
REMARK Flexibility Score: inf
ROOT
ATOM      1  C   UNL     1       7.264  -1.881   1.030  1.00  0.00     0.188 C 
ENDROOT
BRANCH   1   2
ATOM      2  O   UNL     1       6.947  -1.976   2.475  1.00  0.00    -0.376 OA
BRANCH   2   3
ATOM      3  C   UNL     1       5.703  -2.130   3.311  1.00  0.00     0.202 C 
BRANCH   3   4
ATOM      4  C   UNL     1       4.261  -1.139   4.033  1.00  0.00     0.261 C 
BRANCH   4   5
ATOM      5  O   UNL     1       3.271   0.449   3.932  1.00  0.00    -0.460 OA
BRANCH   5   6
ATOM      6  C   UNL     1       3.518   2.144   3.830  1.00  0.00     0.340 C 
ATOM      7  O   UNL     1       4.327   2.814   4.486  1.00  0.00    -0.246 OA
BRANCH   6   8
ATOM      8  C   UNL     1       2.776   3.222   2.975  1.00  0.00     0.083 A 
ATOM      9  C   UNL     1       2.866   3.836   1.570  1.00  0.00     0.056 A 
ATOM     10  C   UNL     1       1.958   4.933   1.494  1.00  0.00     0.027 A 
ATOM     11  C   UNL     1       1.016   5.309   2.503  1.00  0.00     0.002 A 
ATOM     12  C   UNL     1       1.841   3.676   3.973  1.00  0.00     0.018 A 
ATOM     13  C   UNL     1       0.939   4.675   3.728  1.00  0.00     0.001 A 
BRANCH   9  14
ATOM     14  N   UNL     1       3.506   3.640   0.035  1.00  0.00    -0.321 N 
ATOM     15  C   UNL     1       4.197   2.753  -1.129  1.00  0.00     0.255 C 
ATOM     16  O   UNL     1       4.352   3.305  -2.228  1.00  0.00    -0.269 OA
ATOM     17  H   UNL     1       3.412   4.531  -0.373  1.00  0.00     0.170 HD
BRANCH  15  18
ATOM     18  C   UNL     1       4.604   1.161  -1.099  1.00  0.00     0.040 A 
ATOM     19  C   UNL     1       2.624  -1.968   0.044  1.00  0.00     0.041 A 
ATOM     20  C   UNL     1       2.857  -0.652   0.913  1.00  0.00     0.027 A 
ATOM     21  C   UNL     1       3.577  -1.925  -1.381  1.00  0.00     0.027 A 
ATOM     22  C   UNL     1       3.873   0.985   0.243  1.00  0.00     0.016 A 
ATOM     23  C   UNL     1       4.609  -0.404  -2.023  1.00  0.00     0.016 A 
BRANCH  19  24
ATOM     24  N   UNL     1       1.412  -2.722   0.016  1.00  0.00    -0.322 N 
ATOM     25  C   UNL     1       0.023  -2.483  -0.068  1.00  0.00     0.256 C 
ATOM     26  O   UNL     1      -0.663  -3.504  -0.247  1.00  0.00    -0.269 OA
ATOM     27  H   UNL     1       1.599  -3.687   0.071  1.00  0.00     0.170 HD
BRANCH  25  28
ATOM     28  C   UNL     1      -0.799  -1.204  -0.017  1.00  0.00     0.049 A 
ATOM     29  C   UNL     1      -0.170  -0.303  -2.270  1.00  0.00     0.053 C 
ATOM     30  C   UNL     1      -0.776  -0.132  -0.928  1.00  0.00     0.039 A 
ATOM     31  C   UNL     1      -1.544   1.048  -0.688  1.00  0.00     0.273 A 
ATOM     32  C   UNL     1      -1.952  -1.236   0.794  1.00  0.00     0.014 A 
ATOM     33  C   UNL     1      -2.598   1.028   0.212  1.00  0.00     0.086 A 
ATOM     34  C   UNL     1      -2.861  -0.160   0.874  1.00  0.00     0.008 A 
BRANCH  31  35
ATOM     35  N   UNL     1      -1.239   2.356  -1.312  1.00  0.00     0.063 N 
ATOM     36  O   UNL     1      -1.293   3.349  -0.570  1.00  0.00    -0.258 OA
ATOM     37  O   UNL     1      -0.980   2.399  -2.520  1.00  0.00    -0.258 OA
ENDBRANCH  31  35
ENDBRANCH  25  28
ENDBRANCH  19  24
ENDBRANCH  15  18
ENDBRANCH   9  14
ENDBRANCH   6   8
ENDBRANCH   5   6
ENDBRANCH   4   5
ENDBRANCH   3   4
ENDBRANCH   2   3
ENDBRANCH   1   2
BRANCH   1  38
ATOM     38  C   UNL     1       6.946  -2.926  -0.176  1.00  0.00     0.188 C 
BRANCH  38  39
ATOM     39  O   UNL     1       5.596  -3.411  -0.301  1.00  0.00    -0.376 OA
BRANCH  39  40
ATOM     40  C   UNL     1       5.066  -3.944  -1.568  1.00  0.00     0.202 C 
BRANCH  40  41
ATOM     41  C   UNL     1       4.737  -3.042  -3.091  1.00  0.00     0.261 C 
BRANCH  41  42
ATOM     42  O   UNL     1       3.455  -1.847  -3.508  1.00  0.00    -0.460 OA
BRANCH  42  43
ATOM     43  C   UNL     1       2.617  -0.581  -2.829  1.00  0.00     0.338 C 
ATOM     44  O   UNL     1       2.049   0.100  -3.678  1.00  0.00    -0.246 OA
BRANCH  43  45
ATOM     45  C   UNL     1       2.826  -0.077  -1.006  1.00  0.00     0.060 A 
ATOM     46  C   UNL     1       1.839   0.963   0.084  1.00  0.00     0.016 A 
ATOM     47  C   UNL     1       4.513  -0.760  -0.074  1.00  0.00     0.016 A 
ATOM     48  C   UNL     1       2.563   1.188   1.762  1.00  0.00     0.010 A 
ATOM     49  C   UNL     1       5.060  -0.379   1.372  1.00  0.00     0.010 A 
ATOM     50  C   UNL     1       4.320   0.640   2.258  1.00  0.00    -0.014 A 
BRANCH  50  51
ATOM     51  C   UNL     1       5.555   0.866   3.575  1.00  0.00     0.031 A 
ATOM     52  C   UNL     1       5.183   0.918   5.336  1.00  0.00     0.074 A 
ATOM     53  C   UNL     1       6.889   0.849   3.242  1.00  0.00     0.049 A 
ATOM     54  N   UNL     1       5.829   1.634   6.218  1.00  0.00    -0.248 NA
ATOM     55  C   UNL     1       3.851   0.482   6.089  1.00  0.00     0.031 C 
ATOM     56  C   UNL     1       7.938   0.346   4.128  1.00  0.00     0.029 A 
ATOM     57  N   UNL     1       7.609   1.117   2.048  1.00  0.00    -0.354 N 
ATOM     58  C   UNL     1       5.174   1.378   7.438  1.00  0.00     0.074 A 
ATOM     59  C   UNL     1       3.806   1.232   7.174  1.00  0.00     0.031 C 
ATOM     60  C   UNL     1       9.136   0.450   3.529  1.00  0.00     0.029 A 
ATOM     61  C   UNL     1       8.979   1.266   2.337  1.00  0.00     0.049 A 
ATOM     62  H   UNL     1       7.210   1.189   1.151  1.00  0.00     0.167 HD
ATOM     63  C   UNL     1       5.852   0.691   8.399  1.00  0.00     0.034 A 
ATOM     64  C   UNL     1       9.815   2.315   2.035  1.00  0.00     0.034 A 
ATOM     65  C   UNL     1       7.281   0.861   8.115  1.00  0.00     0.049 A 
ATOM     66  C   UNL     1      10.097   3.099   3.341  1.00  0.00     0.074 A 
ATOM     67  C   UNL     1       8.305   0.034   7.702  1.00  0.00     0.029 A 
ATOM     68  N   UNL     1       7.692   2.151   7.787  1.00  0.00    -0.354 N 
ATOM     69  N   UNL     1       9.905   2.623   4.548  1.00  0.00    -0.248 NA
ATOM     70  C   UNL     1      10.592   4.473   3.406  1.00  0.00     0.031 C 
ATOM     71  C   UNL     1       9.315   0.861   7.094  1.00  0.00     0.029 A 
ATOM     72  C   UNL     1       8.915   2.188   7.148  1.00  0.00     0.049 A 
ATOM     73  H   UNL     1       7.163   2.956   7.990  1.00  0.00     0.167 HD
ATOM     74  C   UNL     1       9.922   3.639   5.468  1.00  0.00     0.074 A 
ATOM     75  C   UNL     1      10.485   4.747   4.716  1.00  0.00     0.031 C 
ATOM     76  C   UNL     1       9.413   3.511   6.739  1.00  0.00     0.034 A 
BRANCH  63  77
ATOM     77  C   UNL     1       5.218  -0.317   9.401  1.00  0.00     0.023 A 
ATOM     78  C   UNL     1       6.121  -0.842  10.340  1.00  0.00     0.012 A 
ATOM     79  C   UNL     1       3.878  -0.848   9.499  1.00  0.00     0.148 A 
ATOM     80  C   UNL     1       5.752  -1.789  11.308  1.00  0.00     0.002 A 
ATOM     81  C   UNL     1       3.494  -1.751  10.508  1.00  0.00     0.091 A 
ATOM     82  F   UNL     1       2.944  -0.575   8.585  1.00  0.00    -0.205 F 
ATOM     83  C   UNL     1       4.439  -2.229  11.410  1.00  0.00     0.022 A 
BRANCH  81  84
ATOM     84  S   UNL     1       1.799  -2.373  10.722  1.00  0.00     0.127 S 
ATOM     85  O   UNL     1       1.986  -3.824  10.654  1.00  0.00    -0.237 OA
ATOM     86  O   UNL     1       1.447  -1.874  12.051  1.00  0.00    -0.237 OA
ATOM     87  O   UNL     1       1.004  -1.819   9.632  1.00  0.00    -0.744 OA
ENDBRANCH  81  84
ENDBRANCH  63  77
BRANCH  64  88
ATOM     88  C   UNL     1       9.702   2.908   0.655  1.00  0.00     0.023 A 
ATOM     89  C   UNL     1       9.670   2.020  -0.448  1.00  0.00     0.012 A 
ATOM     90  C   UNL     1       9.129   4.147   0.455  1.00  0.00     0.148 A 
ATOM     91  C   UNL     1       8.762   2.221  -1.496  1.00  0.00     0.002 A 
ATOM     92  C   UNL     1       7.995   4.177  -0.317  1.00  0.00     0.091 A 
ATOM     93  F   UNL     1       9.453   5.226   1.170  1.00  0.00    -0.205 F 
ATOM     94  C   UNL     1       7.830   3.244  -1.357  1.00  0.00     0.022 A 
BRANCH  92  95
ATOM     95  S   UNL     1       6.545   4.412   0.784  1.00  0.00     0.127 S 
ATOM     96  O   UNL     1       5.736   5.373   0.045  1.00  0.00    -0.237 OA
ATOM     97  O   UNL     1       6.092   3.024   0.806  1.00  0.00    -0.237 OA
ATOM     98  O   UNL     1       7.090   4.882   2.047  1.00  0.00    -0.744 OA
ENDBRANCH  92  95
ENDBRANCH  64  88
BRANCH  76  99
ATOM     99  C   UNL     1       9.294   4.660   7.754  1.00  0.00     0.023 A 
ATOM    100  C   UNL     1       9.417   6.015   7.403  1.00  0.00     0.012 A 
ATOM    101  C   UNL     1       8.988   4.412   9.123  1.00  0.00     0.148 A 
ATOM    102  C   UNL     1       9.427   7.036   8.362  1.00  0.00     0.002 A 
ATOM    103  C   UNL     1       8.799   5.444  10.032  1.00  0.00     0.091 A 
ATOM    104  F   UNL     1       8.933   3.161   9.600  1.00  0.00    -0.205 F 
ATOM    105  C   UNL     1       9.100   6.753   9.678  1.00  0.00     0.022 A 
BRANCH 103 106
ATOM    106  S   UNL     1       8.046   5.138  11.635  1.00  0.00     0.127 S 
ATOM    107  O   UNL     1       9.216   5.003  12.499  1.00  0.00    -0.237 OA
ATOM    108  O   UNL     1       7.267   6.359  11.852  1.00  0.00    -0.237 OA
ATOM    109  O   UNL     1       7.233   3.942  11.459  1.00  0.00    -0.744 OA
ENDBRANCH 103 106
ENDBRANCH  76  99
ENDBRANCH  50  51
ENDBRANCH  43  45
ENDBRANCH  42  43
ENDBRANCH  41  42
ENDBRANCH  40  41
ENDBRANCH  39  40
ENDBRANCH  38  39
ENDBRANCH   1  38
TORSDOF 25
