REMARK SMILES C[NH+](C)Cc1noc(CCCCC(=O)OCCOCCOCCOC(=O)c2ccc(-c3c4nc(c(-c5cccc(S(=O)(=O)[O-])c5F)c5ccc([nH]5)c(-c5cccc(S(=O)(=O)[O-])c5F)c5nc(c(-c6cccc(S(=O)(=O)[O-])c6F)c6ccc3[nH]6)C=C5)C=C4)cc2)n1
REMARK SMILES IDX 18 1 17 2 16 3 15 4 13 5 14 6 12 7 11 8 10 9 9 10 8 11 5 12
REMARK SMILES IDX 6 13 90 14 7 15 4 16 2 17 1 18 3 19 19 21 20 22 21 23 22 24
REMARK SMILES IDX 23 25 24 26 25 27 26 28 27 29 28 30 89 31 29 32 88 33 30 34
REMARK SMILES IDX 31 35 32 36 82 37 33 38 87 39 81 40 83 41 34 42 86 43 80 44
REMARK SMILES IDX 79 45 35 47 67 48 47 49 66 50 48 51 51 52 65 53 84 54 49 55
REMARK SMILES IDX 50 56 64 58 85 59 52 60 36 61 37 62 45 63 38 64 40 65 46 66
REMARK SMILES IDX 39 67 41 68 42 69 43 70 44 71 68 72 69 73 77 74 70 75 72 76
REMARK SMILES IDX 78 77 71 78 73 79 74 80 75 81 76 82 53 83 54 84 62 85 55 86
REMARK SMILES IDX 57 87 63 88 56 89 58 90 59 91 60 92 61 93
REMARK H PARENT 2 20 83 46 51 57
REMARK Flexibility Score: inf
ROOT
ATOM      1  O   UNL     1      -2.582  -4.670  -9.841  1.00  0.00    -0.376 OA
ENDROOT
BRANCH   1   2
ATOM      2  C   UNL     1      -2.027  -5.869  -9.303  1.00  0.00     0.202 C 
BRANCH   2   3
ATOM      3  C   UNL     1      -0.769  -5.697  -8.441  1.00  0.00     0.261 C 
BRANCH   3   4
ATOM      4  O   UNL     1      -0.989  -4.835  -7.306  1.00  0.00    -0.463 OA
BRANCH   4   5
ATOM      5  C   UNL     1      -0.024  -3.907  -7.083  1.00  0.00     0.305 C 
ATOM      6  O   UNL     1       1.072  -3.891  -7.631  1.00  0.00    -0.252 OA
BRANCH   5   7
ATOM      7  C   UNL     1      -0.458  -2.808  -6.135  1.00  0.00     0.123 C 
BRANCH   7   8
ATOM      8  C   UNL     1      -1.544  -3.103  -5.101  1.00  0.00     0.012 C 
BRANCH   8   9
ATOM      9  C   UNL     1      -1.398  -4.381  -4.267  1.00  0.00     0.010 C 
BRANCH   9  10
ATOM     10  C   UNL     1      -0.012  -4.648  -3.686  1.00  0.00     0.100 C 
BRANCH  10  11
ATOM     11  C   UNL     1       0.396  -3.648  -2.673  1.00  0.00     0.226 A 
ATOM     12  C   UNL     1       0.907  -2.514  -0.990  1.00  0.00     0.226 A 
ATOM     13  N   UNL     1       1.432  -1.814  -2.007  1.00  0.00    -0.056 NA
ATOM     14  N   UNL     1       0.257  -3.669  -1.367  1.00  0.00    -0.191 NA
ATOM     15  O   UNL     1       1.080  -2.560  -3.127  1.00  0.00    -0.339 OA
BRANCH  12  16
ATOM     16  C   UNL     1       1.128  -2.154   0.449  1.00  0.00     0.344 C 
BRANCH  16  17
ATOM     17  N   UNL     1       0.475  -0.918   0.929  1.00  0.00    -0.333 N 
ATOM     18  C   UNL     1       0.991   0.288   0.286  1.00  0.00     0.332 C 
ATOM     19  C   UNL     1      -0.981  -0.981   0.842  1.00  0.00     0.332 C 
ATOM     20  H   UNL     1       0.717  -0.854   1.917  1.00  0.00     0.348 HD
ENDBRANCH  16  17
ENDBRANCH  12  16
ENDBRANCH  10  11
ENDBRANCH   9  10
ENDBRANCH   8   9
ENDBRANCH   7   8
ENDBRANCH   5   7
ENDBRANCH   4   5
ENDBRANCH   3   4
ENDBRANCH   2   3
ENDBRANCH   1   2
BRANCH   1  21
ATOM     21  C   UNL     1      -3.046  -3.700  -8.909  1.00  0.00     0.188 C 
BRANCH  21  22
ATOM     22  C   UNL     1      -4.199  -4.139  -8.004  1.00  0.00     0.188 C 
BRANCH  22  23
ATOM     23  O   UNL     1      -4.043  -5.403  -7.367  1.00  0.00    -0.376 OA
BRANCH  23  24
ATOM     24  C   UNL     1      -5.122  -5.802  -6.513  1.00  0.00     0.202 C 
BRANCH  24  25
ATOM     25  C   UNL     1      -6.534  -5.782  -7.138  1.00  0.00     0.261 C 
BRANCH  25  26
ATOM     26  O   UNL     1      -7.012  -4.479  -7.535  1.00  0.00    -0.460 OA
BRANCH  26  27
ATOM     27  C   UNL     1      -6.974  -3.483  -6.619  1.00  0.00     0.338 C 
ATOM     28  O   UNL     1      -6.825  -3.616  -5.415  1.00  0.00    -0.246 OA
BRANCH  27  29
ATOM     29  C   UNL     1      -6.860  -2.186  -7.341  1.00  0.00     0.060 A 
ATOM     30  C   UNL     1      -5.991  -1.214  -6.823  1.00  0.00     0.016 A 
ATOM     31  C   UNL     1      -7.516  -1.953  -8.554  1.00  0.00     0.016 A 
ATOM     32  C   UNL     1      -5.800  -0.003  -7.497  1.00  0.00     0.010 A 
ATOM     33  C   UNL     1      -7.334  -0.735  -9.220  1.00  0.00     0.010 A 
ATOM     34  C   UNL     1      -6.496   0.258  -8.684  1.00  0.00    -0.014 A 
BRANCH  34  35
ATOM     35  C   UNL     1      -6.491   1.621  -9.276  1.00  0.00     0.031 A 
ATOM     36  C   UNL     1      -7.638   2.542  -8.959  1.00  0.00     0.074 A 
ATOM     37  C   UNL     1      -5.511   2.038 -10.099  1.00  0.00     0.049 A 
ATOM     38  N   UNL     1      -7.884   3.746  -9.406  1.00  0.00    -0.248 NA
ATOM     39  C   UNL     1      -8.642   2.034  -8.010  1.00  0.00     0.031 C 
ATOM     40  C   UNL     1      -4.336   1.260 -10.485  1.00  0.00     0.029 A 
ATOM     41  N   UNL     1      -5.371   3.222 -10.784  1.00  0.00    -0.354 N 
ATOM     42  C   UNL     1      -9.082   4.129  -8.817  1.00  0.00     0.074 A 
ATOM     43  C   UNL     1      -9.517   3.027  -7.986  1.00  0.00     0.031 C 
ATOM     44  C   UNL     1      -3.611   1.974 -11.365  1.00  0.00     0.029 A 
ATOM     45  C   UNL     1      -4.284   3.247 -11.628  1.00  0.00     0.049 A 
ATOM     46  H   UNL     1      -5.990   3.981 -10.681  1.00  0.00     0.167 HD
ATOM     47  C   UNL     1      -9.758   5.295  -8.942  1.00  0.00     0.034 A 
ATOM     48  C   UNL     1      -3.895   4.174 -12.529  1.00  0.00     0.034 A 
ATOM     49  C   UNL     1      -9.331   6.401  -9.755  1.00  0.00     0.049 A 
ATOM     50  C   UNL     1      -4.696   5.443 -12.693  1.00  0.00     0.074 A 
ATOM     51  C   UNL     1      -9.929   7.640  -9.901  1.00  0.00     0.029 A 
ATOM     52  N   UNL     1      -8.216   6.396 -10.577  1.00  0.00    -0.354 N 
ATOM     53  N   UNL     1      -5.756   5.845 -12.033  1.00  0.00    -0.248 NA
ATOM     54  C   UNL     1      -4.232   6.398 -13.713  1.00  0.00     0.031 C 
ATOM     55  C   UNL     1      -9.192   8.374 -10.837  1.00  0.00     0.029 A 
ATOM     56  C   UNL     1      -8.120   7.602 -11.252  1.00  0.00     0.049 A 
ATOM     57  H   UNL     1      -7.584   5.646 -10.668  1.00  0.00     0.167 HD
ATOM     58  C   UNL     1      -6.067   7.105 -12.538  1.00  0.00     0.074 A 
ATOM     59  C   UNL     1      -5.069   7.412 -13.540  1.00  0.00     0.031 C 
ATOM     60  C   UNL     1      -7.098   7.925 -12.214  1.00  0.00     0.034 A 
BRANCH  47  61
ATOM     61  C   UNL     1     -11.034   5.443  -8.159  1.00  0.00     0.023 A 
ATOM     62  C   UNL     1     -10.977   5.639  -6.764  1.00  0.00     0.012 A 
ATOM     63  C   UNL     1     -12.283   5.437  -8.809  1.00  0.00     0.148 A 
ATOM     64  C   UNL     1     -12.146   5.796  -6.023  1.00  0.00     0.002 A 
ATOM     65  C   UNL     1     -13.442   5.636  -8.069  1.00  0.00     0.091 A 
ATOM     66  F   UNL     1     -12.316   5.223 -10.132  1.00  0.00    -0.205 F 
ATOM     67  C   UNL     1     -13.377   5.805  -6.676  1.00  0.00     0.022 A 
BRANCH  65  68
ATOM     68  S   UNL     1     -15.067   5.737  -8.826  1.00  0.00     0.127 S 
ATOM     69  O   UNL     1     -15.670   4.476  -8.396  1.00  0.00    -0.237 OA
ATOM     70  O   UNL     1     -15.629   6.929  -8.192  1.00  0.00    -0.237 OA
ATOM     71  O   UNL     1     -14.835   5.863 -10.258  1.00  0.00    -0.744 OA
ENDBRANCH  65  68
ENDBRANCH  47  61
BRANCH  48  72
ATOM     72  C   UNL     1      -2.672   3.949 -13.354  1.00  0.00     0.023 A 
ATOM     73  C   UNL     1      -1.538   4.759 -13.152  1.00  0.00     0.012 A 
ATOM     74  C   UNL     1      -2.633   2.947 -14.344  1.00  0.00     0.148 A 
ATOM     75  C   UNL     1      -0.397   4.595 -13.940  1.00  0.00     0.002 A 
ATOM     76  C   UNL     1      -1.475   2.753 -15.088  1.00  0.00     0.091 A 
ATOM     77  F   UNL     1      -3.731   2.204 -14.538  1.00  0.00    -0.205 F 
ATOM     78  C   UNL     1      -0.361   3.587 -14.899  1.00  0.00     0.022 A 
BRANCH  76  79
ATOM     79  S   UNL     1      -1.298   1.408 -16.265  1.00  0.00     0.127 S 
ATOM     80  O   UNL     1      -1.264   2.126 -17.536  1.00  0.00    -0.237 OA
ATOM     81  O   UNL     1      -0.023   0.818 -15.856  1.00  0.00    -0.237 OA
ATOM     82  O   UNL     1      -2.454   0.548 -16.055  1.00  0.00    -0.744 OA
ENDBRANCH  76  79
ENDBRANCH  48  72
BRANCH  60  83
ATOM     83  C   UNL     1      -7.204   9.250 -12.928  1.00  0.00     0.023 A 
ATOM     84  C   UNL     1      -7.610   9.284 -14.277  1.00  0.00     0.012 A 
ATOM     85  C   UNL     1      -6.986  10.463 -12.243  1.00  0.00     0.148 A 
ATOM     86  C   UNL     1      -7.770  10.501 -14.941  1.00  0.00     0.002 A 
ATOM     87  C   UNL     1      -7.193  11.673 -12.897  1.00  0.00     0.091 A 
ATOM     88  F   UNL     1      -6.587  10.411 -10.964  1.00  0.00    -0.205 F 
ATOM     89  C   UNL     1      -7.573  11.694 -14.249  1.00  0.00     0.022 A 
BRANCH  87  90
ATOM     90  S   UNL     1      -7.056  13.259 -12.064  1.00  0.00     0.127 S 
ATOM     91  O   UNL     1      -5.837  13.805 -12.660  1.00  0.00    -0.237 OA
ATOM     92  O   UNL     1      -8.289  13.933 -12.473  1.00  0.00    -0.237 OA
ATOM     93  O   UNL     1      -6.974  12.960 -10.640  1.00  0.00    -0.744 OA
ENDBRANCH  87  90
ENDBRANCH  60  83
ENDBRANCH  34  35
ENDBRANCH  27  29
ENDBRANCH  26  27
ENDBRANCH  25  26
ENDBRANCH  24  25
ENDBRANCH  23  24
ENDBRANCH  22  23
ENDBRANCH  21  22
ENDBRANCH   1  21
TORSDOF 26
