REMARK SMILES CCc1c(Cl)ccc2c1C=C(C(=O)OCCOCCOCCOC(=O)c1ccc(-c3c4nc(c(-c5cccc(S(=O)(=O)[O-])c5F)c5ccc([nH]5)c(-c5cccc(S(=O)(=O)[O-])c5F)c5nc(c(-c6cccc(S(=O)(=O)[O-])c6F)c6ccc3[nH]6)C=C5)C=C4)cc1)[C@@H](C(F)(F)F)O2
REMARK SMILES IDX 19 1 18 2 17 3 16 4 15 5 14 6 12 7 13 8 11 9 3 10 4 11 9 12
REMARK SMILES IDX 5 13 6 14 8 15 10 16 7 17 94 18 89 19 2 20 1 21 90 22 91 23
REMARK SMILES IDX 92 24 93 25 20 26 21 27 22 28 23 29 24 30 25 31 26 32 27 33
REMARK SMILES IDX 88 34 28 35 87 36 29 37 30 38 31 39 81 40 32 41 86 42 80 43
REMARK SMILES IDX 82 44 33 45 85 46 79 47 78 48 34 50 66 51 46 52 65 53 47 54
REMARK SMILES IDX 50 55 64 56 83 57 48 58 49 59 63 61 84 62 51 63 35 64 36 65
REMARK SMILES IDX 44 66 37 67 39 68 45 69 38 70 40 71 41 72 42 73 43 74 67 75
REMARK SMILES IDX 68 76 76 77 69 78 71 79 77 80 70 81 72 82 73 83 74 84 75 85
REMARK SMILES IDX 52 86 53 87 61 88 54 89 56 90 62 91 55 92 57 93 58 94 59 95
REMARK SMILES IDX 60 96
REMARK H PARENT 82 49 50 60
REMARK Flexibility Score: inf
ROOT
ATOM      1  C   UNL     1       1.081  -3.501   6.233  1.00  0.00     0.188 C 
ENDROOT
BRANCH   1   2
ATOM      2  C   UNL     1       1.585  -4.523   5.190  1.00  0.00     0.188 C 
BRANCH   2   3
ATOM      3  O   UNL     1       2.256  -5.629   5.744  1.00  0.00    -0.376 OA
BRANCH   3   4
ATOM      4  C   UNL     1       3.666  -5.654   5.854  1.00  0.00     0.202 C 
BRANCH   4   5
ATOM      5  C   UNL     1       4.571  -4.412   5.939  1.00  0.00     0.261 C 
BRANCH   5   6
ATOM      6  O   UNL     1       3.968  -3.135   5.733  1.00  0.00    -0.460 OA
BRANCH   6   7
ATOM      7  C   UNL     1       4.182  -2.551   4.529  1.00  0.00     0.338 C 
ATOM      8  O   UNL     1       4.787  -3.029   3.586  1.00  0.00    -0.246 OA
BRANCH   7   9
ATOM      9  C   UNL     1       3.460  -1.262   4.500  1.00  0.00     0.087 C 
ATOM     10  C   UNL     1       0.998   0.553   2.361  1.00  0.00    -0.019 A 
ATOM     11  C   UNL     1       0.431   1.849   2.346  1.00  0.00     0.045 A 
ATOM     12  C   UNL     1       1.921   0.237   3.395  1.00  0.00     0.022 A 
ATOM     13  Cl  UNL     1      -0.663   2.373   1.111  1.00  0.00    -0.084 Cl
ATOM     14  C   UNL     1       0.725   2.780   3.343  1.00  0.00     0.024 A 
ATOM     15  C   UNL     1       2.154   1.169   4.421  1.00  0.00     0.128 A 
ATOM     16  C   UNL     1       2.685  -1.011   3.436  1.00  0.00     0.027 C 
ATOM     17  C   UNL     1       1.566   2.432   4.391  1.00  0.00     0.048 A 
ATOM     18  O   UNL     1       2.954   0.952   5.506  1.00  0.00    -0.475 OA
ATOM     19  C   UNL     1       3.594  -0.335   5.676  1.00  0.00     0.316 C 
BRANCH  10  20
ATOM     20  C   UNL     1       0.591  -0.461   1.305  1.00  0.00     0.034 C 
ATOM     21  C   UNL     1       1.353  -0.316  -0.003  1.00  0.00     0.009 C 
ENDBRANCH  10  20
BRANCH  19  22
ATOM     22  C   UNL     1       5.056  -0.067   6.069  1.00  0.00     0.430 C 
ATOM     23  F   UNL     1       5.130   0.789   7.120  1.00  0.00    -0.167 F 
ATOM     24  F   UNL     1       5.700  -1.194   6.454  1.00  0.00    -0.167 F 
ATOM     25  F   UNL     1       5.765   0.477   5.056  1.00  0.00    -0.167 F 
ENDBRANCH  19  22
ENDBRANCH   7   9
ENDBRANCH   6   7
ENDBRANCH   5   6
ENDBRANCH   4   5
ENDBRANCH   3   4
ENDBRANCH   2   3
ENDBRANCH   1   2
BRANCH   1  26
ATOM     26  O   UNL     1       1.289  -3.744   7.620  1.00  0.00    -0.376 OA
BRANCH  26  27
ATOM     27  C   UNL     1       0.931  -5.011   8.163  1.00  0.00     0.202 C 
BRANCH  27  28
ATOM     28  C   UNL     1      -0.496  -5.542   7.969  1.00  0.00     0.261 C 
BRANCH  28  29
ATOM     29  O   UNL     1      -0.916  -5.625   6.598  1.00  0.00    -0.460 OA
BRANCH  29  30
ATOM     30  C   UNL     1      -1.939  -4.803   6.248  1.00  0.00     0.338 C 
ATOM     31  O   UNL     1      -2.552  -4.041   6.975  1.00  0.00    -0.246 OA
BRANCH  30  32
ATOM     32  C   UNL     1      -2.074  -4.811   4.777  1.00  0.00     0.060 A 
ATOM     33  C   UNL     1      -2.277  -6.001   4.077  1.00  0.00     0.016 A 
ATOM     34  C   UNL     1      -1.988  -3.589   4.093  1.00  0.00     0.016 A 
ATOM     35  C   UNL     1      -2.419  -5.962   2.687  1.00  0.00     0.010 A 
ATOM     36  C   UNL     1      -2.110  -3.556   2.703  1.00  0.00     0.010 A 
ATOM     37  C   UNL     1      -2.347  -4.741   1.993  1.00  0.00    -0.014 A 
BRANCH  37  38
ATOM     38  C   UNL     1      -2.708  -4.686   0.556  1.00  0.00     0.031 A 
ATOM     39  C   UNL     1      -1.675  -4.641  -0.527  1.00  0.00     0.074 A 
ATOM     40  C   UNL     1      -4.017  -4.656   0.241  1.00  0.00     0.049 A 
ATOM     41  N   UNL     1      -1.852  -4.700  -1.821  1.00  0.00    -0.248 NA
ATOM     42  C   UNL     1      -0.270  -4.506  -0.116  1.00  0.00     0.031 C 
ATOM     43  C   UNL     1      -5.111  -4.625   1.214  1.00  0.00     0.029 A 
ATOM     44  N   UNL     1      -4.649  -4.641  -0.975  1.00  0.00    -0.354 N 
ATOM     45  C   UNL     1      -0.587  -4.616  -2.386  1.00  0.00     0.074 A 
ATOM     46  C   UNL     1       0.352  -4.477  -1.290  1.00  0.00     0.031 C 
ATOM     47  C   UNL     1      -6.280  -4.605   0.557  1.00  0.00     0.029 A 
ATOM     48  C   UNL     1      -6.019  -4.620  -0.880  1.00  0.00     0.049 A 
ATOM     49  H   UNL     1      -4.168  -4.644  -1.834  1.00  0.00     0.167 HD
ATOM     50  C   UNL     1      -0.245  -4.678  -3.695  1.00  0.00     0.034 A 
ATOM     51  C   UNL     1      -6.966  -4.629  -1.838  1.00  0.00     0.034 A 
ATOM     52  C   UNL     1      -1.182  -4.831  -4.777  1.00  0.00     0.049 A 
ATOM     53  C   UNL     1      -6.557  -4.716  -3.278  1.00  0.00     0.074 A 
ATOM     54  C   UNL     1      -0.914  -4.980  -6.128  1.00  0.00     0.029 A 
ATOM     55  N   UNL     1      -2.561  -4.839  -4.643  1.00  0.00    -0.354 N 
ATOM     56  N   UNL     1      -5.351  -4.802  -3.784  1.00  0.00    -0.248 NA
ATOM     57  C   UNL     1      -7.634  -4.743  -4.278  1.00  0.00     0.031 C 
ATOM     58  C   UNL     1      -2.131  -5.065  -6.811  1.00  0.00     0.029 A 
ATOM     59  C   UNL     1      -3.157  -4.979  -5.885  1.00  0.00     0.049 A 
ATOM     60  H   UNL     1      -3.046  -4.758  -3.790  1.00  0.00     0.167 HD
ATOM     61  C   UNL     1      -5.523  -4.912  -5.158  1.00  0.00     0.074 A 
ATOM     62  C   UNL     1      -6.950  -4.898  -5.406  1.00  0.00     0.031 C 
ATOM     63  C   UNL     1      -4.577  -5.004  -6.123  1.00  0.00     0.034 A 
BRANCH  50  64
ATOM     64  C   UNL     1       1.216  -4.662  -4.051  1.00  0.00     0.023 A 
ATOM     65  C   UNL     1       1.959  -5.853  -3.919  1.00  0.00     0.012 A 
ATOM     66  C   UNL     1       1.812  -3.533  -4.645  1.00  0.00     0.148 A 
ATOM     67  C   UNL     1       3.276  -5.920  -4.370  1.00  0.00     0.002 A 
ATOM     68  C   UNL     1       3.118  -3.616  -5.116  1.00  0.00     0.091 A 
ATOM     69  F   UNL     1       1.087  -2.411  -4.752  1.00  0.00    -0.205 F 
ATOM     70  C   UNL     1       3.851  -4.807  -4.978  1.00  0.00     0.022 A 
BRANCH  68  71
ATOM     71  S   UNL     1       3.936  -2.262  -5.968  1.00  0.00     0.127 S 
ATOM     72  O   UNL     1       5.005  -1.928  -5.028  1.00  0.00    -0.237 OA
ATOM     73  O   UNL     1       4.388  -2.904  -7.203  1.00  0.00    -0.237 OA
ATOM     74  O   UNL     1       2.925  -1.230  -6.149  1.00  0.00    -0.744 OA
ENDBRANCH  68  71
ENDBRANCH  50  64
BRANCH  51  75
ATOM     75  C   UNL     1      -8.396  -4.649  -1.435  1.00  0.00     0.023 A 
ATOM     76  C   UNL     1      -9.109  -5.860  -1.498  1.00  0.00     0.012 A 
ATOM     77  C   UNL     1      -9.018  -3.502  -0.906  1.00  0.00     0.148 A 
ATOM     78  C   UNL     1     -10.426  -5.928  -1.045  1.00  0.00     0.002 A 
ATOM     79  C   UNL     1     -10.317  -3.587  -0.422  1.00  0.00     0.091 A 
ATOM     80  F   UNL     1      -8.311  -2.364  -0.858  1.00  0.00    -0.205 F 
ATOM     81  C   UNL     1     -11.025  -4.796  -0.498  1.00  0.00     0.022 A 
BRANCH  79  82
ATOM     82  S   UNL     1     -11.138  -2.215   0.396  1.00  0.00     0.127 S 
ATOM     83  O   UNL     1     -12.250  -1.949  -0.514  1.00  0.00    -0.237 OA
ATOM     84  O   UNL     1     -11.517  -2.814   1.675  1.00  0.00    -0.237 OA
ATOM     85  O   UNL     1     -10.143  -1.156   0.492  1.00  0.00    -0.744 OA
ENDBRANCH  79  82
ENDBRANCH  51  75
BRANCH  63  86
ATOM     86  C   UNL     1      -5.034  -5.097  -7.553  1.00  0.00     0.023 A 
ATOM     87  C   UNL     1      -5.449  -3.928  -8.220  1.00  0.00     0.012 A 
ATOM     88  C   UNL     1      -4.941  -6.309  -8.265  1.00  0.00     0.148 A 
ATOM     89  C   UNL     1      -5.772  -3.964  -9.575  1.00  0.00     0.002 A 
ATOM     90  C   UNL     1      -5.233  -6.331  -9.624  1.00  0.00     0.091 A 
ATOM     91  F   UNL     1      -4.553  -7.408  -7.604  1.00  0.00    -0.205 F 
ATOM     92  C   UNL     1      -5.652  -5.161 -10.279  1.00  0.00     0.022 A 
BRANCH  90  93
ATOM     93  S   UNL     1      -5.043  -7.804 -10.634  1.00  0.00     0.127 S 
ATOM     94  O   UNL     1      -6.428  -8.090 -11.008  1.00  0.00    -0.237 OA
ATOM     95  O   UNL     1      -4.203  -7.321 -11.730  1.00  0.00    -0.237 OA
ATOM     96  O   UNL     1      -4.415  -8.803  -9.780  1.00  0.00    -0.744 OA
ENDBRANCH  90  93
ENDBRANCH  63  86
ENDBRANCH  37  38
ENDBRANCH  30  32
ENDBRANCH  29  30
ENDBRANCH  28  29
ENDBRANCH  27  28
ENDBRANCH  26  27
ENDBRANCH   1  26
TORSDOF 22
