REMARK SMILES Cc1cc(C(=O)N[C@H]2C=C[C@H](C(=O)OCCOCCOCCOC(=O)c3ccc(-c4c5nc(c(-c6cccc(S(=O)(=O)[O-])c6F)c6ccc([nH]6)c(-c6cccc(S(=O)(=O)[O-])c6F)c6nc(c(-c7cccc(S(=O)(=O)[O-])c7F)c7ccc4[nH]7)C=C6)C=C5)cc3)C2)ccc1F
REMARK SMILES IDX 19 1 18 2 17 3 16 4 15 5 14 6 12 7 13 8 11 9 8 10 9 11 89 12
REMARK SMILES IDX 10 13 7 14 5 15 6 16 4 18 1 19 2 20 3 21 92 22 91 23 93 24
REMARK SMILES IDX 90 25 20 26 21 27 22 28 23 29 24 30 25 31 26 32 27 33 88 34
REMARK SMILES IDX 28 35 87 36 29 37 30 38 31 39 81 40 32 41 86 42 80 43 82 44
REMARK SMILES IDX 33 45 85 46 79 47 78 48 34 50 66 51 46 52 65 53 47 54 50 55
REMARK SMILES IDX 64 56 83 57 48 58 49 59 63 61 84 62 51 63 35 64 36 65 44 66
REMARK SMILES IDX 37 67 39 68 45 69 38 70 40 71 41 72 42 73 43 74 67 75 68 76
REMARK SMILES IDX 76 77 69 78 71 79 77 80 70 81 72 82 73 83 74 84 75 85 52 86
REMARK SMILES IDX 53 87 61 88 54 89 56 90 62 91 55 92 57 93 58 94 59 95 60 96
REMARK H PARENT 7 17 82 49 50 60
REMARK Flexibility Score: inf
ROOT
ATOM      1  C   UNL     1       1.090   5.649   3.322  1.00  0.00     0.188 C 
ENDROOT
BRANCH   1   2
ATOM      2  C   UNL     1       1.402   4.273   2.678  1.00  0.00     0.188 C 
BRANCH   2   3
ATOM      3  O   UNL     1       2.677   4.028   2.087  1.00  0.00    -0.376 OA
BRANCH   3   4
ATOM      4  C   UNL     1       3.153   4.986   1.141  1.00  0.00     0.202 C 
BRANCH   4   5
ATOM      5  C   UNL     1       2.213   5.358  -0.025  1.00  0.00     0.261 C 
BRANCH   5   6
ATOM      6  O   UNL     1       0.898   5.761   0.409  1.00  0.00    -0.463 OA
BRANCH   6   7
ATOM      7  C   UNL     1      -0.165   5.232  -0.249  1.00  0.00     0.312 C 
ATOM      8  O   UNL     1      -0.095   4.682  -1.342  1.00  0.00    -0.252 OA
BRANCH   7   9
ATOM      9  C   UNL     1      -1.424   5.242   0.641  1.00  0.00     0.124 C 
ATOM     10  C   UNL     1      -2.708   3.469  -0.338  1.00  0.00     0.106 C 
ATOM     11  C   UNL     1      -3.417   4.777  -0.514  1.00  0.00    -0.006 C 
ATOM     12  C   UNL     1      -1.863   3.790   0.897  1.00  0.00     0.048 C 
ATOM     13  C   UNL     1      -2.661   5.773  -0.025  1.00  0.00    -0.014 C 
BRANCH  10  14
ATOM     14  N   UNL     1      -3.598   2.357  -0.191  1.00  0.00    -0.346 N 
ATOM     15  C   UNL     1      -3.352   1.005  -0.270  1.00  0.00     0.251 C 
ATOM     16  O   UNL     1      -4.339   0.265  -0.293  1.00  0.00    -0.269 OA
ATOM     17  H   UNL     1      -4.534   2.598  -0.005  1.00  0.00     0.164 HD
BRANCH  15  18
ATOM     18  C   UNL     1      -1.984   0.373  -0.269  1.00  0.00     0.040 A 
ATOM     19  C   UNL     1       1.757   1.109  -0.536  1.00  0.00     0.047 C 
ATOM     20  C   UNL     1       0.468   0.352  -0.398  1.00  0.00    -0.015 A 
ATOM     21  C   UNL     1      -0.768   1.009  -0.553  1.00  0.00     0.020 A 
ATOM     22  C   UNL     1       0.473  -0.989  -0.026  1.00  0.00     0.126 A 
ATOM     23  C   UNL     1      -0.716  -1.671   0.189  1.00  0.00     0.040 A 
ATOM     24  F   UNL     1       1.635  -1.639   0.126  1.00  0.00    -0.207 F 
ATOM     25  C   UNL     1      -1.934  -0.991   0.079  1.00  0.00     0.017 A 
ENDBRANCH  15  18
ENDBRANCH  10  14
ENDBRANCH   7   9
ENDBRANCH   6   7
ENDBRANCH   5   6
ENDBRANCH   4   5
ENDBRANCH   3   4
ENDBRANCH   2   3
ENDBRANCH   1   2
BRANCH   1  26
ATOM     26  O   UNL     1       1.853   6.716   2.773  1.00  0.00    -0.376 OA
BRANCH  26  27
ATOM     27  C   UNL     1       2.465   7.570   3.741  1.00  0.00     0.202 C 
BRANCH  27  28
ATOM     28  C   UNL     1       3.664   6.984   4.505  1.00  0.00     0.261 C 
BRANCH  28  29
ATOM     29  O   UNL     1       3.621   5.562   4.633  1.00  0.00    -0.460 OA
BRANCH  29  30
ATOM     30  C   UNL     1       2.988   5.163   5.751  1.00  0.00     0.338 C 
ATOM     31  O   UNL     1       2.580   5.837   6.675  1.00  0.00    -0.246 OA
BRANCH  30  32
ATOM     32  C   UNL     1       2.749   3.712   5.708  1.00  0.00     0.060 A 
ATOM     33  C   UNL     1       1.421   3.381   6.061  1.00  0.00     0.016 A 
ATOM     34  C   UNL     1       3.848   3.023   6.201  1.00  0.00     0.016 A 
ATOM     35  C   UNL     1       1.210   2.688   7.226  1.00  0.00     0.010 A 
ATOM     36  C   UNL     1       3.644   2.375   7.389  1.00  0.00     0.010 A 
ATOM     37  C   UNL     1       2.347   2.345   7.934  1.00  0.00    -0.014 A 
BRANCH  37  38
ATOM     38  C   UNL     1       2.301   2.097   9.349  1.00  0.00     0.031 A 
ATOM     39  C   UNL     1       2.275   0.699   9.780  1.00  0.00     0.074 A 
ATOM     40  C   UNL     1       2.462   3.148  10.182  1.00  0.00     0.049 A 
ATOM     41  N   UNL     1       1.987   0.304  10.967  1.00  0.00    -0.248 NA
ATOM     42  C   UNL     1       2.475  -0.405   8.837  1.00  0.00     0.031 C 
ATOM     43  C   UNL     1       2.898   3.102  11.569  1.00  0.00     0.029 A 
ATOM     44  N   UNL     1       2.127   4.491   9.995  1.00  0.00    -0.354 N 
ATOM     45  C   UNL     1       2.392  -1.006  11.038  1.00  0.00     0.074 A 
ATOM     46  C   UNL     1       2.457  -1.448   9.668  1.00  0.00     0.031 C 
ATOM     47  C   UNL     1       2.542   4.253  12.169  1.00  0.00     0.029 A 
ATOM     48  C   UNL     1       1.670   4.953  11.241  1.00  0.00     0.049 A 
ATOM     49  H   UNL     1       2.198   5.009   9.160  1.00  0.00     0.167 HD
ATOM     50  C   UNL     1       2.841  -1.477  12.236  1.00  0.00     0.034 A 
ATOM     51  C   UNL     1       0.356   5.246  11.499  1.00  0.00     0.034 A 
ATOM     52  C   UNL     1       2.572  -0.510  13.304  1.00  0.00     0.049 A 
ATOM     53  C   UNL     1      -0.255   4.361  12.588  1.00  0.00     0.074 A 
ATOM     54  C   UNL     1       3.357   0.352  14.053  1.00  0.00     0.029 A 
ATOM     55  N   UNL     1       1.264  -0.100  13.511  1.00  0.00    -0.354 N 
ATOM     56  N   UNL     1       0.310   3.274  13.041  1.00  0.00    -0.248 NA
ATOM     57  C   UNL     1      -1.583   4.565  13.169  1.00  0.00     0.031 C 
ATOM     58  C   UNL     1       2.497   1.299  14.688  1.00  0.00     0.029 A 
ATOM     59  C   UNL     1       1.192   0.995  14.346  1.00  0.00     0.049 A 
ATOM     60  H   UNL     1       0.479  -0.539  13.110  1.00  0.00     0.167 HD
ATOM     61  C   UNL     1      -0.492   2.681  13.974  1.00  0.00     0.074 A 
ATOM     62  C   UNL     1      -1.692   3.498  13.982  1.00  0.00     0.031 C 
ATOM     63  C   UNL     1      -0.116   1.556  14.651  1.00  0.00     0.034 A 
BRANCH  50  64
ATOM     64  C   UNL     1       3.759  -2.680  12.384  1.00  0.00     0.023 A 
ATOM     65  C   UNL     1       4.103  -3.537  11.311  1.00  0.00     0.012 A 
ATOM     66  C   UNL     1       4.405  -2.958  13.608  1.00  0.00     0.148 A 
ATOM     67  C   UNL     1       5.050  -4.562  11.415  1.00  0.00     0.002 A 
ATOM     68  C   UNL     1       5.367  -3.969  13.707  1.00  0.00     0.091 A 
ATOM     69  F   UNL     1       4.108  -2.243  14.700  1.00  0.00    -0.205 F 
ATOM     70  C   UNL     1       5.697  -4.771  12.615  1.00  0.00     0.022 A 
BRANCH  68  71
ATOM     71  S   UNL     1       6.227  -4.208  15.263  1.00  0.00     0.127 S 
ATOM     72  O   UNL     1       6.936  -2.945  15.435  1.00  0.00    -0.237 OA
ATOM     73  O   UNL     1       5.144  -4.496  16.197  1.00  0.00    -0.237 OA
ATOM     74  O   UNL     1       7.099  -5.353  14.988  1.00  0.00    -0.744 OA
ENDBRANCH  68  71
ENDBRANCH  50  64
BRANCH  51  75
ATOM     75  C   UNL     1      -0.408   5.753  10.325  1.00  0.00     0.023 A 
ATOM     76  C   UNL     1      -1.255   4.887   9.611  1.00  0.00     0.012 A 
ATOM     77  C   UNL     1      -0.010   6.969   9.726  1.00  0.00     0.148 A 
ATOM     78  C   UNL     1      -1.604   5.172   8.287  1.00  0.00     0.002 A 
ATOM     79  C   UNL     1      -0.325   7.226   8.396  1.00  0.00     0.091 A 
ATOM     80  F   UNL     1       0.735   7.829  10.439  1.00  0.00    -0.205 F 
ATOM     81  C   UNL     1      -1.105   6.317   7.667  1.00  0.00     0.022 A 
BRANCH  79  82
ATOM     82  S   UNL     1       0.394   8.643   7.555  1.00  0.00     0.127 S 
ATOM     83  O   UNL     1      -0.419   9.751   8.047  1.00  0.00    -0.237 OA
ATOM     84  O   UNL     1       1.794   8.649   7.960  1.00  0.00    -0.237 OA
ATOM     85  O   UNL     1       0.176   8.327   6.142  1.00  0.00    -0.744 OA
ENDBRANCH  79  82
ENDBRANCH  51  75
BRANCH  63  86
ATOM     86  C   UNL     1      -0.998   0.841  15.637  1.00  0.00     0.023 A 
ATOM     87  C   UNL     1      -0.987  -0.575  15.674  1.00  0.00     0.012 A 
ATOM     88  C   UNL     1      -1.798   1.498  16.580  1.00  0.00     0.148 A 
ATOM     89  C   UNL     1      -1.775  -1.304  16.563  1.00  0.00     0.002 A 
ATOM     90  C   UNL     1      -2.636   0.768  17.422  1.00  0.00     0.091 A 
ATOM     91  F   UNL     1      -1.737   2.834  16.689  1.00  0.00    -0.205 F 
ATOM     92  C   UNL     1      -2.624  -0.631  17.426  1.00  0.00     0.022 A 
BRANCH  90  93
ATOM     93  S   UNL     1      -3.830   1.652  18.422  1.00  0.00     0.127 S 
ATOM     94  O   UNL     1      -2.999   2.424  19.338  1.00  0.00    -0.237 OA
ATOM     95  O   UNL     1      -4.578   2.411  17.422  1.00  0.00    -0.237 OA
ATOM     96  O   UNL     1      -4.601   0.582  19.057  1.00  0.00    -0.744 OA
ENDBRANCH  90  93
ENDBRANCH  63  86
ENDBRANCH  37  38
ENDBRANCH  30  32
ENDBRANCH  29  30
ENDBRANCH  28  29
ENDBRANCH  27  28
ENDBRANCH  26  27
ENDBRANCH   1  26
TORSDOF 22
