REMARK SMILES C[C@]([NH2+]C[C@H]1Cc2ccccc2O1)(C(=O)OCCOCCOCCOC(=O)c1ccc(-c2c3nc(c(-c4cccc(S(=O)(=O)[O-])c4F)c4ccc([nH]4)c(-c4cccc(S(=O)(=O)[O-])c4F)c4nc(c(-c5cccc(S(=O)(=O)[O-])c5F)c5ccc2[nH]5)C=C4)C=C3)cc1)C(F)(F)F
REMARK SMILES IDX 20 1 19 2 18 3 17 4 16 5 14 6 15 7 2 8 1 9 91 10 92 11 93 12
REMARK SMILES IDX 94 13 3 14 4 17 5 18 6 19 13 20 7 21 12 22 8 23 11 24 9 25
REMARK SMILES IDX 10 26 21 27 22 28 23 29 24 30 25 31 26 32 27 33 28 34 29 35
REMARK SMILES IDX 90 36 30 37 89 38 31 39 32 40 33 41 83 42 34 43 88 44 82 45
REMARK SMILES IDX 84 46 35 47 87 48 81 49 80 50 36 52 68 53 48 54 67 55 49 56
REMARK SMILES IDX 52 57 66 58 85 59 50 60 51 61 65 63 86 64 53 65 37 66 38 67
REMARK SMILES IDX 46 68 39 69 41 70 47 71 40 72 42 73 43 74 44 75 45 76 69 77
REMARK SMILES IDX 70 78 78 79 71 80 73 81 79 82 72 83 74 84 75 85 76 86 77 87
REMARK SMILES IDX 54 88 55 89 63 90 56 91 58 92 64 93 57 94 59 95 60 96 61 97
REMARK SMILES IDX 62 98
REMARK H PARENT 3 15 3 16 84 51 52 62
REMARK Flexibility Score: inf
ROOT
ATOM      1  C   UNL     1      -2.317   1.022   1.606  1.00  0.00     0.188 C 
ENDROOT
BRANCH   1   2
ATOM      2  O   UNL     1      -3.670   1.125   1.186  1.00  0.00    -0.376 OA
BRANCH   2   3
ATOM      3  C   UNL     1      -4.011   0.809  -0.157  1.00  0.00     0.202 C 
BRANCH   3   4
ATOM      4  C   UNL     1      -3.137   1.267  -1.341  1.00  0.00     0.261 C 
BRANCH   4   5
ATOM      5  O   UNL     1      -1.719   1.025  -1.234  1.00  0.00    -0.458 OA
BRANCH   5   6
ATOM      6  C   UNL     1      -0.921   2.135  -1.190  1.00  0.00     0.377 C 
ATOM      7  O   UNL     1      -1.360   3.276  -1.278  1.00  0.00    -0.244 OA
BRANCH   6   8
ATOM      8  C   UNL     1       0.584   1.808  -1.119  1.00  0.00     0.287 C 
ATOM      9  C   UNL     1       1.185   2.381  -2.415  1.00  0.00     0.103 C 
BRANCH   8  10
ATOM     10  C   UNL     1       1.097   2.615   0.101  1.00  0.00     0.455 C 
ATOM     11  F   UNL     1       0.533   2.195   1.260  1.00  0.00    -0.164 F 
ATOM     12  F   UNL     1       2.439   2.454   0.245  1.00  0.00    -0.164 F 
ATOM     13  F   UNL     1       0.882   3.942  -0.007  1.00  0.00    -0.164 F 
ENDBRANCH   8  10
BRANCH   8  14
ATOM     14  N   UNL     1       0.833   0.314  -0.965  1.00  0.00    -0.322 N 
ATOM     15  H   UNL     1       0.073  -0.183  -1.429  1.00  0.00     0.347 HD
ATOM     16  H   UNL     1       0.882   0.135   0.038  1.00  0.00     0.347 HD
BRANCH  14  17
ATOM     17  C   UNL     1       2.095  -0.164  -1.526  1.00  0.00     0.307 C 
BRANCH  17  18
ATOM     18  C   UNL     1       2.653  -1.511  -0.991  1.00  0.00     0.232 C 
ATOM     19  C   UNL     1       1.689  -2.708  -0.974  1.00  0.00     0.090 C 
ATOM     20  O   UNL     1       3.753  -1.868  -1.889  1.00  0.00    -0.484 OA
ATOM     21  C   UNL     1       1.944  -3.223  -2.340  1.00  0.00    -0.002 A 
ATOM     22  C   UNL     1       3.145  -2.701  -2.797  1.00  0.00     0.123 A 
ATOM     23  C   UNL     1       1.206  -4.094  -3.118  1.00  0.00     0.007 A 
ATOM     24  C   UNL     1       3.631  -2.972  -4.058  1.00  0.00     0.047 A 
ATOM     25  C   UNL     1       1.675  -4.379  -4.403  1.00  0.00     0.001 A 
ATOM     26  C   UNL     1       2.872  -3.811  -4.876  1.00  0.00     0.004 A 
ENDBRANCH  17  18
ENDBRANCH  14  17
ENDBRANCH   8  14
ENDBRANCH   6   8
ENDBRANCH   5   6
ENDBRANCH   4   5
ENDBRANCH   3   4
ENDBRANCH   2   3
ENDBRANCH   1   2
BRANCH   1  27
ATOM     27  C   UNL     1      -1.554  -0.283   1.319  1.00  0.00     0.188 C 
BRANCH  27  28
ATOM     28  O   UNL     1      -2.238  -1.186   0.476  1.00  0.00    -0.376 OA
BRANCH  28  29
ATOM     29  C   UNL     1      -2.854  -2.310   1.088  1.00  0.00     0.202 C 
BRANCH  29  30
ATOM     30  C   UNL     1      -3.592  -2.218   2.444  1.00  0.00     0.261 C 
BRANCH  30  31
ATOM     31  O   UNL     1      -3.090  -1.300   3.427  1.00  0.00    -0.460 OA
BRANCH  31  32
ATOM     32  C   UNL     1      -2.032  -1.698   4.167  1.00  0.00     0.338 C 
ATOM     33  O   UNL     1      -1.460  -2.780   4.092  1.00  0.00    -0.246 OA
BRANCH  32  34
ATOM     34  C   UNL     1      -1.512  -0.527   4.909  1.00  0.00     0.060 A 
ATOM     35  C   UNL     1      -0.208  -0.085   4.637  1.00  0.00     0.016 A 
ATOM     36  C   UNL     1      -2.288   0.127   5.869  1.00  0.00     0.016 A 
ATOM     37  C   UNL     1       0.344   0.969   5.364  1.00  0.00     0.010 A 
ATOM     38  C   UNL     1      -1.723   1.169   6.615  1.00  0.00     0.010 A 
ATOM     39  C   UNL     1      -0.387   1.558   6.402  1.00  0.00    -0.014 A 
BRANCH  39  40
ATOM     40  C   UNL     1       0.334   2.373   7.413  1.00  0.00     0.031 A 
ATOM     41  C   UNL     1       0.764   1.693   8.689  1.00  0.00     0.074 A 
ATOM     42  C   UNL     1       0.647   3.664   7.202  1.00  0.00     0.049 A 
ATOM     43  N   UNL     1       1.425   2.176   9.708  1.00  0.00    -0.248 NA
ATOM     44  C   UNL     1       0.397   0.273   8.831  1.00  0.00     0.031 C 
ATOM     45  C   UNL     1       0.314   4.433   6.005  1.00  0.00     0.029 A 
ATOM     46  N   UNL     1       1.310   4.559   8.005  1.00  0.00    -0.354 N 
ATOM     47  C   UNL     1       1.522   1.135  10.624  1.00  0.00     0.074 A 
ATOM     48  C   UNL     1       0.842  -0.003  10.047  1.00  0.00     0.031 C 
ATOM     49  C   UNL     1       0.757   5.694   6.162  1.00  0.00     0.029 A 
ATOM     50  C   UNL     1       1.386   5.825   7.476  1.00  0.00     0.049 A 
ATOM     51  H   UNL     1       1.695   4.317   8.879  1.00  0.00     0.167 HD
ATOM     52  C   UNL     1       2.132   1.118  11.832  1.00  0.00     0.034 A 
ATOM     53  C   UNL     1       1.895   6.960   7.999  1.00  0.00     0.034 A 
ATOM     54  C   UNL     1       2.823   2.241  12.401  1.00  0.00     0.049 A 
ATOM     55  C   UNL     1       2.548   6.921   9.359  1.00  0.00     0.074 A 
ATOM     56  C   UNL     1       3.512   2.309  13.599  1.00  0.00     0.029 A 
ATOM     57  N   UNL     1       2.900   3.498  11.823  1.00  0.00    -0.354 N 
ATOM     58  N   UNL     1       2.728   5.901  10.164  1.00  0.00    -0.248 NA
ATOM     59  C   UNL     1       3.105   8.185   9.864  1.00  0.00     0.031 C 
ATOM     60  C   UNL     1       3.969   3.620  13.765  1.00  0.00     0.029 A 
ATOM     61  C   UNL     1       3.612   4.354  12.645  1.00  0.00     0.049 A 
ATOM     62  H   UNL     1       2.506   3.745  10.955  1.00  0.00     0.167 HD
ATOM     63  C   UNL     1       3.463   6.388  11.242  1.00  0.00     0.074 A 
ATOM     64  C   UNL     1       3.704   7.792  10.980  1.00  0.00     0.031 C 
ATOM     65  C   UNL     1       3.895   5.735  12.349  1.00  0.00     0.034 A 
BRANCH  52  66
ATOM     66  C   UNL     1       2.075  -0.163  12.623  1.00  0.00     0.023 A 
ATOM     67  C   UNL     1       2.815  -1.288  12.203  1.00  0.00     0.012 A 
ATOM     68  C   UNL     1       1.318  -0.238  13.808  1.00  0.00     0.148 A 
ATOM     69  C   UNL     1       2.772  -2.477  12.929  1.00  0.00     0.002 A 
ATOM     70  C   UNL     1       1.321  -1.410  14.554  1.00  0.00     0.091 A 
ATOM     71  F   UNL     1       0.602   0.834  14.177  1.00  0.00    -0.205 F 
ATOM     72  C   UNL     1       2.035  -2.534  14.109  1.00  0.00     0.022 A 
BRANCH  70  73
ATOM     73  S   UNL     1       0.471  -1.555  16.129  1.00  0.00     0.127 S 
ATOM     74  O   UNL     1      -0.612  -2.478  15.796  1.00  0.00    -0.237 OA
ATOM     75  O   UNL     1       1.513  -2.121  16.987  1.00  0.00    -0.237 OA
ATOM     76  O   UNL     1       0.054  -0.207  16.488  1.00  0.00    -0.744 OA
ENDBRANCH  70  73
ENDBRANCH  52  66
BRANCH  53  77
ATOM     77  C   UNL     1       1.848   8.233   7.223  1.00  0.00     0.023 A 
ATOM     78  C   UNL     1       3.045   8.807   6.751  1.00  0.00     0.012 A 
ATOM     79  C   UNL     1       0.626   8.886   6.966  1.00  0.00     0.148 A 
ATOM     80  C   UNL     1       3.031  10.026   6.072  1.00  0.00     0.002 A 
ATOM     81  C   UNL     1       0.614  10.072   6.241  1.00  0.00     0.091 A 
ATOM     82  F   UNL     1      -0.500   8.333   7.438  1.00  0.00    -0.205 F 
ATOM     83  C   UNL     1       1.816  10.654   5.810  1.00  0.00     0.022 A 
BRANCH  81  84
ATOM     84  S   UNL     1      -0.907  10.896   5.761  1.00  0.00     0.127 S 
ATOM     85  O   UNL     1      -0.840  12.128   6.543  1.00  0.00    -0.237 OA
ATOM     86  O   UNL     1      -0.712  11.070   4.321  1.00  0.00    -0.237 OA
ATOM     87  O   UNL     1      -1.983   9.982   6.119  1.00  0.00    -0.744 OA
ENDBRANCH  81  84
ENDBRANCH  53  77
BRANCH  65  88
ATOM     88  C   UNL     1       4.739   6.502  13.337  1.00  0.00     0.023 A 
ATOM     89  C   UNL     1       4.167   7.519  14.127  1.00  0.00     0.012 A 
ATOM     90  C   UNL     1       6.096   6.166  13.524  1.00  0.00     0.148 A 
ATOM     91  C   UNL     1       4.942   8.221  15.051  1.00  0.00     0.002 A 
ATOM     92  C   UNL     1       6.847   6.830  14.486  1.00  0.00     0.091 A 
ATOM     93  F   UNL     1       6.630   5.207  12.755  1.00  0.00    -0.205 F 
ATOM     94  C   UNL     1       6.277   7.869  15.239  1.00  0.00     0.022 A 
BRANCH  92  95
ATOM     95  S   UNL     1       8.541   6.372  14.867  1.00  0.00     0.127 S 
ATOM     96  O   UNL     1       9.291   7.473  14.266  1.00  0.00    -0.237 OA
ATOM     97  O   UNL     1       8.540   6.362  16.331  1.00  0.00    -0.237 OA
ATOM     98  O   UNL     1       8.750   5.065  14.257  1.00  0.00    -0.744 OA
ENDBRANCH  92  95
ENDBRANCH  65  88
ENDBRANCH  39  40
ENDBRANCH  32  34
ENDBRANCH  31  32
ENDBRANCH  30  31
ENDBRANCH  29  30
ENDBRANCH  28  29
ENDBRANCH  27  28
ENDBRANCH   1  27
TORSDOF 24
