REMARK SMILES Cc1cc(OC(F)(F)F)cc2c1O[C@H](C(F)(F)F)C(C(=O)OCCOCCOCCOC(=O)c1ccc(-c3c4nc(c(-c5cccc(S(=O)(=O)[O-])c5F)c5ccc([nH]5)c(-c5cccc(S(=O)(=O)[O-])c5F)c5nc(c(-c6cccc(S(=O)(=O)[O-])c6F)c6ccc3[nH]6)C=C5)C=C4)cc1)=C2
REMARK SMILES IDX 27 1 26 2 25 3 24 4 23 5 22 6 20 7 21 8 19 9 1 10 2 11 3 12
REMARK SMILES IDX 12 13 4 14 11 15 13 16 10 17 97 18 14 19 5 20 6 21 7 22 8 23
REMARK SMILES IDX 9 24 15 25 16 26 17 27 18 28 28 29 29 30 30 31 31 32 32 33
REMARK SMILES IDX 33 34 34 35 35 36 96 37 36 38 95 39 37 40 38 41 39 42 89 43
REMARK SMILES IDX 40 44 94 45 88 46 90 47 41 48 93 49 87 50 86 51 42 53 74 54
REMARK SMILES IDX 54 55 73 56 55 57 58 58 72 59 91 60 56 61 57 62 71 64 92 65
REMARK SMILES IDX 59 66 43 67 44 68 52 69 45 70 47 71 53 72 46 73 48 74 49 75
REMARK SMILES IDX 50 76 51 77 75 78 76 79 84 80 77 81 79 82 85 83 78 84 80 85
REMARK SMILES IDX 81 86 82 87 83 88 60 89 61 90 69 91 62 92 64 93 70 94 63 95
REMARK SMILES IDX 65 96 66 97 67 98 68 99
REMARK H PARENT 90 52 58 63
REMARK Flexibility Score: inf
ROOT
ATOM      1  C   UNL     1       4.977  -6.030  -0.034  1.00  0.00     0.188 C 
ENDROOT
BRANCH   1   2
ATOM      2  C   UNL     1       4.422  -7.414  -0.432  1.00  0.00     0.188 C 
BRANCH   2   3
ATOM      3  O   UNL     1       5.272  -8.086  -1.336  1.00  0.00    -0.376 OA
BRANCH   3   4
ATOM      4  C   UNL     1       4.892  -8.210  -2.690  1.00  0.00     0.202 C 
BRANCH   4   5
ATOM      5  C   UNL     1       4.415  -6.993  -3.501  1.00  0.00     0.261 C 
BRANCH   5   6
ATOM      6  O   UNL     1       3.809  -5.923  -2.767  1.00  0.00    -0.460 OA
BRANCH   6   7
ATOM      7  C   UNL     1       2.461  -5.917  -2.684  1.00  0.00     0.338 C 
ATOM      8  O   UNL     1       1.699  -6.754  -3.139  1.00  0.00    -0.246 OA
BRANCH   7   9
ATOM      9  C   UNL     1       2.042  -4.758  -1.867  1.00  0.00     0.087 C 
ATOM     10  C   UNL     1       1.203  -0.059  -0.010  1.00  0.00     0.048 C 
ATOM     11  C   UNL     1       0.704  -1.443   0.305  1.00  0.00    -0.005 A 
ATOM     12  C   UNL     1      -0.314  -1.616   1.258  1.00  0.00     0.054 A 
ATOM     13  C   UNL     1       1.201  -2.562  -0.384  1.00  0.00     0.131 A 
ATOM     14  C   UNL     1      -0.820  -2.886   1.537  1.00  0.00     0.130 A 
ATOM     15  C   UNL     1       0.683  -3.833  -0.128  1.00  0.00     0.021 A 
ATOM     16  O   UNL     1       2.190  -2.328  -1.297  1.00  0.00    -0.475 OA
ATOM     17  C   UNL     1      -0.306  -3.991   0.850  1.00  0.00     0.058 A 
ATOM     18  C   UNL     1       1.129  -4.975  -0.912  1.00  0.00     0.027 C 
ATOM     19  C   UNL     1       2.672  -3.414  -2.130  1.00  0.00     0.316 C 
BRANCH  14  20
ATOM     20  O   UNL     1      -1.804  -3.186   2.436  1.00  0.00    -0.406 OA
BRANCH  20  21
ATOM     21  C   UNL     1      -2.555  -2.111   2.976  1.00  0.00     0.573 C 
ATOM     22  F   UNL     1      -1.783  -1.320   3.752  1.00  0.00    -0.132 F 
ATOM     23  F   UNL     1      -3.109  -1.364   1.994  1.00  0.00    -0.132 F 
ATOM     24  F   UNL     1      -3.553  -2.607   3.737  1.00  0.00    -0.132 F 
ENDBRANCH  20  21
ENDBRANCH  14  20
BRANCH  19  25
ATOM     25  C   UNL     1       2.538  -2.978  -3.596  1.00  0.00     0.430 C 
ATOM     26  F   UNL     1       3.090  -1.755  -3.796  1.00  0.00    -0.167 F 
ATOM     27  F   UNL     1       3.172  -3.826  -4.439  1.00  0.00    -0.167 F 
ATOM     28  F   UNL     1       1.247  -2.906  -3.991  1.00  0.00    -0.167 F 
ENDBRANCH  19  25
ENDBRANCH   7   9
ENDBRANCH   6   7
ENDBRANCH   5   6
ENDBRANCH   4   5
ENDBRANCH   3   4
ENDBRANCH   2   3
ENDBRANCH   1   2
BRANCH   1  29
ATOM     29  O   UNL     1       6.284  -5.655  -0.461  1.00  0.00    -0.376 OA
BRANCH  29  30
ATOM     30  C   UNL     1       7.354  -6.579  -0.273  1.00  0.00     0.202 C 
BRANCH  30  31
ATOM     31  C   UNL     1       7.631  -7.113   1.139  1.00  0.00     0.261 C 
BRANCH  31  32
ATOM     32  O   UNL     1       6.505  -7.746   1.770  1.00  0.00    -0.460 OA
BRANCH  32  33
ATOM     33  C   UNL     1       6.051  -7.142   2.897  1.00  0.00     0.338 C 
ATOM     34  O   UNL     1       6.507  -6.150   3.439  1.00  0.00    -0.246 OA
BRANCH  33  35
ATOM     35  C   UNL     1       4.769  -7.753   3.300  1.00  0.00     0.060 A 
ATOM     36  C   UNL     1       3.605  -6.976   3.220  1.00  0.00     0.016 A 
ATOM     37  C   UNL     1       4.724  -9.049   3.814  1.00  0.00     0.016 A 
ATOM     38  C   UNL     1       2.388  -7.492   3.661  1.00  0.00     0.010 A 
ATOM     39  C   UNL     1       3.510  -9.550   4.295  1.00  0.00     0.010 A 
ATOM     40  C   UNL     1       2.345  -8.765   4.244  1.00  0.00    -0.014 A 
BRANCH  40  41
ATOM     41  C   UNL     1       1.133  -9.180   4.986  1.00  0.00     0.031 A 
ATOM     42  C   UNL     1       1.013  -8.777   6.431  1.00  0.00     0.074 A 
ATOM     43  C   UNL     1       0.156  -9.889   4.393  1.00  0.00     0.049 A 
ATOM     44  N   UNL     1       0.056  -9.033   7.282  1.00  0.00    -0.248 NA
ATOM     45  C   UNL     1       2.112  -7.967   6.989  1.00  0.00     0.031 C 
ATOM     46  C   UNL     1       0.141 -10.309   2.993  1.00  0.00     0.029 A 
ATOM     47  N   UNL     1      -1.014 -10.390   4.908  1.00  0.00    -0.354 N 
ATOM     48  C   UNL     1       0.438  -8.428   8.472  1.00  0.00     0.074 A 
ATOM     49  C   UNL     1       1.713  -7.789   8.241  1.00  0.00     0.031 C 
ATOM     50  C   UNL     1      -0.977 -11.023   2.765  1.00  0.00     0.029 A 
ATOM     51  C   UNL     1      -1.746 -11.124   4.004  1.00  0.00     0.049 A 
ATOM     52  H   UNL     1      -1.302 -10.238   5.837  1.00  0.00     0.167 HD
ATOM     53  C   UNL     1      -0.223  -8.394   9.650  1.00  0.00     0.034 A 
ATOM     54  C   UNL     1      -2.897 -11.806   4.167  1.00  0.00     0.034 A 
ATOM     55  C   UNL     1      -1.492  -9.021   9.884  1.00  0.00     0.049 A 
ATOM     56  C   UNL     1      -3.576 -11.807   5.513  1.00  0.00     0.074 A 
ATOM     57  C   UNL     1      -2.239  -9.027  11.048  1.00  0.00     0.029 A 
ATOM     58  N   UNL     1      -2.194  -9.757   8.947  1.00  0.00    -0.354 N 
ATOM     59  N   UNL     1      -3.243 -11.161   6.604  1.00  0.00    -0.248 NA
ATOM     60  C   UNL     1      -4.798 -12.617   5.647  1.00  0.00     0.031 C 
ATOM     61  C   UNL     1      -3.395  -9.775  10.816  1.00  0.00     0.029 A 
ATOM     62  C   UNL     1      -3.367 -10.226   9.505  1.00  0.00     0.049 A 
ATOM     63  H   UNL     1      -1.901  -9.921   8.021  1.00  0.00     0.167 HD
ATOM     64  C   UNL     1      -4.229 -11.458   7.539  1.00  0.00     0.074 A 
ATOM     65  C   UNL     1      -5.176 -12.338   6.888  1.00  0.00     0.031 C 
ATOM     66  C   UNL     1      -4.331 -11.048   8.826  1.00  0.00     0.034 A 
BRANCH  53  67
ATOM     67  C   UNL     1       0.381  -7.614  10.780  1.00  0.00     0.023 A 
ATOM     68  C   UNL     1       0.177  -6.221  10.829  1.00  0.00     0.012 A 
ATOM     69  C   UNL     1       1.028  -8.265  11.845  1.00  0.00     0.148 A 
ATOM     70  C   UNL     1       0.606  -5.485  11.931  1.00  0.00     0.002 A 
ATOM     71  C   UNL     1       1.429  -7.529  12.952  1.00  0.00     0.091 A 
ATOM     72  F   UNL     1       1.214  -9.590  11.763  1.00  0.00    -0.205 F 
ATOM     73  C   UNL     1       1.221  -6.139  12.996  1.00  0.00     0.022 A 
BRANCH  71  74
ATOM     74  S   UNL     1       2.184  -8.278  14.399  1.00  0.00     0.127 S 
ATOM     75  O   UNL     1       3.470  -7.582  14.455  1.00  0.00    -0.237 OA
ATOM     76  O   UNL     1       1.244  -7.911  15.457  1.00  0.00    -0.237 OA
ATOM     77  O   UNL     1       2.273  -9.704  14.117  1.00  0.00    -0.744 OA
ENDBRANCH  71  74
ENDBRANCH  53  67
BRANCH  54  78
ATOM     78  C   UNL     1      -3.518 -12.515   3.014  1.00  0.00     0.023 A 
ATOM     79  C   UNL     1      -4.689 -11.987   2.437  1.00  0.00     0.012 A 
ATOM     80  C   UNL     1      -2.965 -13.700   2.493  1.00  0.00     0.148 A 
ATOM     81  C   UNL     1      -5.311 -12.638   1.371  1.00  0.00     0.002 A 
ATOM     82  C   UNL     1      -3.571 -14.325   1.409  1.00  0.00     0.091 A 
ATOM     83  F   UNL     1      -1.860 -14.191   3.071  1.00  0.00    -0.205 F 
ATOM     84  C   UNL     1      -4.749 -13.802   0.853  1.00  0.00     0.022 A 
BRANCH  82  85
ATOM     85  S   UNL     1      -2.881 -15.785   0.622  1.00  0.00     0.127 S 
ATOM     86  O   UNL     1      -3.879 -16.801   0.949  1.00  0.00    -0.237 OA
ATOM     87  O   UNL     1      -2.849 -15.382  -0.784  1.00  0.00    -0.237 OA
ATOM     88  O   UNL     1      -1.568 -15.976   1.224  1.00  0.00    -0.744 OA
ENDBRANCH  82  85
ENDBRANCH  54  78
BRANCH  66  89
ATOM     89  C   UNL     1      -5.511 -11.508   9.636  1.00  0.00     0.023 A 
ATOM     90  C   UNL     1      -5.494 -12.795  10.206  1.00  0.00     0.012 A 
ATOM     91  C   UNL     1      -6.547 -10.612   9.965  1.00  0.00     0.148 A 
ATOM     92  C   UNL     1      -6.495 -13.185  11.094  1.00  0.00     0.002 A 
ATOM     93  C   UNL     1      -7.521 -10.995  10.877  1.00  0.00     0.091 A 
ATOM     94  F   UNL     1      -6.536  -9.393   9.405  1.00  0.00    -0.205 F 
ATOM     95  C   UNL     1      -7.499 -12.282  11.440  1.00  0.00     0.022 A 
BRANCH  93  96
ATOM     96  S   UNL     1      -8.807  -9.878  11.451  1.00  0.00     0.127 S 
ATOM     97  O   UNL     1     -10.012 -10.516  10.922  1.00  0.00    -0.237 OA
ATOM     98  O   UNL     1      -8.661  -9.960  12.904  1.00  0.00    -0.237 OA
ATOM     99  O   UNL     1      -8.496  -8.575  10.879  1.00  0.00    -0.744 OA
ENDBRANCH  93  96
ENDBRANCH  66  89
ENDBRANCH  40  41
ENDBRANCH  33  35
ENDBRANCH  32  33
ENDBRANCH  31  32
ENDBRANCH  30  31
ENDBRANCH  29  30
ENDBRANCH   1  29
TORSDOF 23
