REMARK SMILES Cc1nc2scc(C)n2c1CNc1ccc(C(=O)OCCOCCOCCOC(=O)c2ccc(-c3c4nc(c(-c5cccc(S(=O)(=O)[O-])c5F)c5ccc([nH]5)c(-c5cccc(S(=O)(=O)[O-])c5F)c5nc(c(-c6cccc(S(=O)(=O)[O-])c6F)c6ccc3[nH]6)C=C5)C=C4)cc2)cc1
REMARK SMILES IDX 23 1 22 2 21 3 20 4 19 5 17 6 18 7 16 8 13 9 14 10 95 11
REMARK SMILES IDX 15 12 94 13 12 14 11 16 10 17 1 18 2 19 3 20 4 21 9 22 5 23
REMARK SMILES IDX 7 24 6 25 8 26 24 27 25 28 26 29 27 30 28 31 29 32 30 33
REMARK SMILES IDX 31 34 32 35 93 36 33 37 92 38 34 39 35 40 36 41 86 42 37 43
REMARK SMILES IDX 91 44 85 45 87 46 38 47 90 48 84 49 83 50 39 52 71 53 51 54
REMARK SMILES IDX 70 55 52 56 55 57 69 58 88 59 53 60 54 61 68 63 89 64 56 65
REMARK SMILES IDX 40 66 41 67 49 68 42 69 44 70 50 71 43 72 45 73 46 74 47 75
REMARK SMILES IDX 48 76 72 77 73 78 81 79 74 80 76 81 82 82 75 83 77 84 78 85
REMARK SMILES IDX 79 86 80 87 57 88 58 89 66 90 59 91 61 92 67 93 60 94 62 95
REMARK SMILES IDX 63 96 64 97 65 98
REMARK H PARENT 12 15 87 51 55 62
REMARK Flexibility Score: inf
ROOT
ATOM      1  C   UNL     1      -0.735  -6.284   8.836  1.00  0.00     0.188 C 
ENDROOT
BRANCH   1   2
ATOM      2  O   UNL     1      -1.487  -6.684   9.975  1.00  0.00    -0.376 OA
BRANCH   2   3
ATOM      3  C   UNL     1      -2.899  -6.814   9.871  1.00  0.00     0.202 C 
BRANCH   3   4
ATOM      4  C   UNL     1      -3.736  -5.657   9.287  1.00  0.00     0.261 C 
BRANCH   4   5
ATOM      5  O   UNL     1      -3.237  -5.097   8.060  1.00  0.00    -0.460 OA
BRANCH   5   6
ATOM      6  C   UNL     1      -2.812  -3.817   8.114  1.00  0.00     0.338 C 
ATOM      7  O   UNL     1      -2.956  -3.029   9.041  1.00  0.00    -0.246 OA
BRANCH   6   8
ATOM      8  C   UNL     1      -1.963  -3.510   6.943  1.00  0.00     0.060 A 
ATOM      9  C   UNL     1      -0.346  -2.691   4.795  1.00  0.00     0.034 A 
ATOM     10  C   UNL     1       0.087  -2.521   6.113  1.00  0.00     0.026 A 
ATOM     11  C   UNL     1      -1.535  -3.402   4.572  1.00  0.00     0.026 A 
ATOM     12  C   UNL     1      -0.731  -2.891   7.180  1.00  0.00     0.018 A 
ATOM     13  C   UNL     1      -2.340  -3.824   5.637  1.00  0.00     0.018 A 
BRANCH   9  14
ATOM     14  N   UNL     1       0.305  -1.996   3.787  1.00  0.00    -0.379 N 
ATOM     15  H   UNL     1       1.289  -1.988   3.752  1.00  0.00     0.160 HD
BRANCH  14  16
ATOM     16  C   UNL     1      -0.460  -1.282   2.782  1.00  0.00     0.169 C 
BRANCH  16  17
ATOM     17  C   UNL     1       0.008   0.104   2.516  1.00  0.00     0.066 A 
ATOM     18  C   UNL     1       0.967  -0.013   0.093  1.00  0.00     0.069 C 
ATOM     19  C   UNL     1       0.599   0.645   1.370  1.00  0.00     0.062 A 
ATOM     20  N   UNL     1       0.820   2.000   1.504  1.00  0.00    -0.224 NA
ATOM     21  C   UNL     1       0.372   2.263   2.696  1.00  0.00     0.194 A 
ATOM     22  N   UNL     1      -0.140   1.184   3.365  1.00  0.00    -0.290 N 
ATOM     23  S   UNL     1       0.242   3.730   3.611  1.00  0.00    -0.105 S 
ATOM     24  C   UNL     1      -0.651   1.494   4.625  1.00  0.00     0.032 A 
ATOM     25  C   UNL     1      -0.523   2.809   4.898  1.00  0.00     0.090 A 
ATOM     26  C   UNL     1      -1.274   0.529   5.564  1.00  0.00     0.066 C 
ENDBRANCH  16  17
ENDBRANCH  14  16
ENDBRANCH   9  14
ENDBRANCH   6   8
ENDBRANCH   5   6
ENDBRANCH   4   5
ENDBRANCH   3   4
ENDBRANCH   2   3
ENDBRANCH   1   2
BRANCH   1  27
ATOM     27  C   UNL     1      -1.049  -6.870   7.436  1.00  0.00     0.188 C 
BRANCH  27  28
ATOM     28  O   UNL     1      -2.281  -7.568   7.348  1.00  0.00    -0.376 OA
BRANCH  28  29
ATOM     29  C   UNL     1      -2.269  -8.965   7.085  1.00  0.00     0.202 C 
BRANCH  29  30
ATOM     30  C   UNL     1      -1.534  -9.911   8.037  1.00  0.00     0.261 C 
BRANCH  30  31
ATOM     31  O   UNL     1      -0.383  -9.350   8.634  1.00  0.00    -0.460 OA
BRANCH  31  32
ATOM     32  C   UNL     1       0.706  -9.297   7.853  1.00  0.00     0.338 C 
ATOM     33  O   UNL     1       0.771  -9.578   6.657  1.00  0.00    -0.246 OA
BRANCH  32  34
ATOM     34  C   UNL     1       1.835  -8.853   8.672  1.00  0.00     0.060 A 
ATOM     35  C   UNL     1       3.037  -8.618   8.002  1.00  0.00     0.016 A 
ATOM     36  C   UNL     1       1.766  -9.060  10.057  1.00  0.00     0.016 A 
ATOM     37  C   UNL     1       4.197  -8.944   8.657  1.00  0.00     0.010 A 
ATOM     38  C   UNL     1       2.917  -9.422  10.698  1.00  0.00     0.010 A 
ATOM     39  C   UNL     1       4.085  -9.480   9.941  1.00  0.00    -0.014 A 
BRANCH  39  40
ATOM     40  C   UNL     1       5.181 -10.283  10.427  1.00  0.00     0.031 A 
ATOM     41  C   UNL     1       6.199  -9.529  11.165  1.00  0.00     0.074 A 
ATOM     42  C   UNL     1       5.152 -11.623  10.288  1.00  0.00     0.049 A 
ATOM     43  N   UNL     1       7.420  -9.303  10.816  1.00  0.00    -0.248 NA
ATOM     44  C   UNL     1       5.756  -8.807  12.366  1.00  0.00     0.031 C 
ATOM     45  C   UNL     1       4.011 -12.441   9.851  1.00  0.00     0.029 A 
ATOM     46  N   UNL     1       6.080 -12.548  10.652  1.00  0.00    -0.354 N 
ATOM     47  C   UNL     1       7.961  -8.610  11.890  1.00  0.00     0.074 A 
ATOM     48  C   UNL     1       6.859  -8.132  12.682  1.00  0.00     0.031 C 
ATOM     49  C   UNL     1       4.229 -13.725  10.206  1.00  0.00     0.029 A 
ATOM     50  C   UNL     1       5.562 -13.831  10.770  1.00  0.00     0.049 A 
ATOM     51  H   UNL     1       7.026 -12.330  10.816  1.00  0.00     0.167 HD
ATOM     52  C   UNL     1       9.265  -8.753  12.235  1.00  0.00     0.034 A 
ATOM     53  C   UNL     1       6.159 -14.886  11.370  1.00  0.00     0.034 A 
ATOM     54  C   UNL     1      10.035  -9.394  11.207  1.00  0.00     0.049 A 
ATOM     55  C   UNL     1       7.606 -14.594  11.469  1.00  0.00     0.074 A 
ATOM     56  C   UNL     1      10.473  -9.067   9.944  1.00  0.00     0.029 A 
ATOM     57  N   UNL     1      10.162 -10.752  11.350  1.00  0.00    -0.354 N 
ATOM     58  N   UNL     1       8.399 -14.514  10.437  1.00  0.00    -0.248 NA
ATOM     59  C   UNL     1       8.147 -14.057  12.711  1.00  0.00     0.031 C 
ATOM     60  C   UNL     1      10.636 -10.304   9.256  1.00  0.00     0.029 A 
ATOM     61  C   UNL     1      10.279 -11.342  10.119  1.00  0.00     0.049 A 
ATOM     62  H   UNL     1      10.168 -11.232  12.209  1.00  0.00     0.167 HD
ATOM     63  C   UNL     1       9.330 -13.550  10.793  1.00  0.00     0.074 A 
ATOM     64  C   UNL     1       9.242 -13.452  12.242  1.00  0.00     0.031 C 
ATOM     65  C   UNL     1       9.850 -12.703   9.858  1.00  0.00     0.034 A 
BRANCH  52  66
ATOM     66  C   UNL     1       9.758  -8.692  13.655  1.00  0.00     0.023 A 
ATOM     67  C   UNL     1      11.144  -8.546  13.857  1.00  0.00     0.012 A 
ATOM     68  C   UNL     1       8.972  -9.020  14.784  1.00  0.00     0.148 A 
ATOM     69  C   UNL     1      11.717  -8.719  15.120  1.00  0.00     0.002 A 
ATOM     70  C   UNL     1       9.531  -9.090  16.052  1.00  0.00     0.091 A 
ATOM     71  F   UNL     1       7.702  -9.414  14.630  1.00  0.00    -0.205 F 
ATOM     72  C   UNL     1      10.909  -8.967  16.224  1.00  0.00     0.022 A 
BRANCH  70  73
ATOM     73  S   UNL     1       8.489  -9.321  17.495  1.00  0.00     0.127 S 
ATOM     74  O   UNL     1       8.556 -10.766  17.683  1.00  0.00    -0.237 OA
ATOM     75  O   UNL     1       9.185  -8.530  18.510  1.00  0.00    -0.237 OA
ATOM     76  O   UNL     1       7.194  -8.773  17.106  1.00  0.00    -0.744 OA
ENDBRANCH  70  73
ENDBRANCH  52  66
BRANCH  53  77
ATOM     77  C   UNL     1       5.540 -16.049  12.037  1.00  0.00     0.023 A 
ATOM     78  C   UNL     1       6.244 -17.265  12.117  1.00  0.00     0.012 A 
ATOM     79  C   UNL     1       4.361 -15.903  12.802  1.00  0.00     0.148 A 
ATOM     80  C   UNL     1       5.802 -18.295  12.955  1.00  0.00     0.002 A 
ATOM     81  C   UNL     1       3.920 -16.933  13.626  1.00  0.00     0.091 A 
ATOM     82  F   UNL     1       3.723 -14.725  12.784  1.00  0.00    -0.205 F 
ATOM     83  C   UNL     1       4.646 -18.128  13.714  1.00  0.00     0.022 A 
BRANCH  81  84
ATOM     84  S   UNL     1       2.449 -16.787  14.649  1.00  0.00     0.127 S 
ATOM     85  O   UNL     1       1.724 -18.013  14.312  1.00  0.00    -0.237 OA
ATOM     86  O   UNL     1       3.018 -16.762  15.993  1.00  0.00    -0.237 OA
ATOM     87  O   UNL     1       1.785 -15.562  14.221  1.00  0.00    -0.744 OA
ENDBRANCH  81  84
ENDBRANCH  53  77
BRANCH  65  88
ATOM     88  C   UNL     1       9.716 -13.105   8.413  1.00  0.00     0.023 A 
ATOM     89  C   UNL     1       8.462 -13.148   7.769  1.00  0.00     0.012 A 
ATOM     90  C   UNL     1      10.880 -13.310   7.654  1.00  0.00     0.148 A 
ATOM     91  C   UNL     1       8.370 -13.417   6.402  1.00  0.00     0.002 A 
ATOM     92  C   UNL     1      10.787 -13.531   6.285  1.00  0.00     0.091 A 
ATOM     93  F   UNL     1      12.065 -13.259   8.283  1.00  0.00    -0.205 F 
ATOM     94  C   UNL     1       9.533 -13.596   5.658  1.00  0.00     0.022 A 
BRANCH  92  95
ATOM     95  S   UNL     1      12.247 -13.639   5.248  1.00  0.00     0.127 S 
ATOM     96  O   UNL     1      12.339 -15.075   4.993  1.00  0.00    -0.237 OA
ATOM     97  O   UNL     1      11.868 -12.835   4.085  1.00  0.00    -0.237 OA
ATOM     98  O   UNL     1      13.336 -13.068   6.032  1.00  0.00    -0.744 OA
ENDBRANCH  92  95
ENDBRANCH  65  88
ENDBRANCH  39  40
ENDBRANCH  32  34
ENDBRANCH  31  32
ENDBRANCH  30  31
ENDBRANCH  29  30
ENDBRANCH  28  29
ENDBRANCH  27  28
ENDBRANCH   1  27
TORSDOF 23
