REMARK SMILES Cc1ccc(C(c2ccccc2)(c2ccccc2)n2cnc(C[C@H]([NH3+])C(=O)OCCOCCOCCOC(=O)c3ccc(-c4c5nc(c(-c6cccc(S(=O)(=O)[O-])c6F)c6ccc([nH]6)c(-c6cccc(S(=O)(=O)[O-])c6F)c6nc(c(-c7cccc(S(=O)(=O)[O-])c7F)c7ccc4[nH]7)C=C6)C=C5)cc3)c2)cc1
REMARK SMILES IDX 32 1 31 2 30 3 29 4 28 5 26 6 27 7 24 8 23 9 22 10 19 11
REMARK SMILES IDX 20 12 103 13 21 14 6 15 5 16 1 17 2 18 3 19 105 20 4 21
REMARK SMILES IDX 104 22 7 23 8 24 12 25 9 26 11 27 10 28 13 29 14 30 18 31
REMARK SMILES IDX 15 32 17 33 16 34 25 35 33 39 34 40 35 41 36 42 37 43 38 44
REMARK SMILES IDX 39 45 40 46 41 47 102 48 42 49 101 50 43 51 44 52 45 53
REMARK SMILES IDX 95 54 46 55 100 56 94 57 96 58 47 59 99 60 93 61 92 62 48 64
REMARK SMILES IDX 80 65 60 66 79 67 61 68 64 69 78 70 97 71 62 72 63 73 77 75
REMARK SMILES IDX 98 76 65 77 49 78 50 79 58 80 51 81 53 82 59 83 52 84 54 85
REMARK SMILES IDX 55 86 56 87 57 88 81 89 82 90 90 91 83 92 85 93 91 94 84 95
REMARK SMILES IDX 86 96 87 97 88 98 89 99 66 100 67 101 75 102 68 103 70 104
REMARK SMILES IDX 76 105 69 106 71 107 72 108 73 109 74 110
REMARK H PARENT 25 36 25 37 25 38 96 63 64 74
REMARK Flexibility Score: inf
ROOT
ATOM      1  C   UNL     1      -7.574  -5.382   5.383  1.00  0.00     0.188 C 
ENDROOT
BRANCH   1   2
ATOM      2  O   UNL     1      -8.806  -6.079   5.504  1.00  0.00    -0.376 OA
BRANCH   2   3
ATOM      3  C   UNL     1      -9.015  -6.971   4.454  1.00  0.00     0.202 C 
BRANCH   3   4
ATOM      4  C   UNL     1      -8.034  -6.688   3.357  1.00  0.00     0.261 C 
BRANCH   4   5
ATOM      5  O   UNL     1      -8.261  -5.172   2.377  1.00  0.00    -0.459 OA
BRANCH   5   6
ATOM      6  C   UNL     1      -8.280  -4.662   0.789  1.00  0.00     0.365 C 
ATOM      7  O   UNL     1      -9.425  -4.429   0.404  1.00  0.00    -0.245 OA
BRANCH   6   8
ATOM      8  C   UNL     1      -7.015  -4.249  -0.390  1.00  0.00     0.297 C 
BRANCH   8   9
ATOM      9  C   UNL     1      -6.541  -5.061  -1.615  1.00  0.00     0.135 C 
BRANCH   9  10
ATOM     10  C   UNL     1      -7.597  -5.597  -2.456  1.00  0.00     0.065 A 
ATOM     11  N   UNL     1      -8.951  -5.633  -4.148  1.00  0.00    -0.319 N 
ATOM     12  C   UNL     1      -9.610  -5.726  -2.950  1.00  0.00     0.201 A 
ATOM     13  C   UNL     1      -7.616  -5.696  -3.828  1.00  0.00     0.112 A 
ATOM     14  N   UNL     1      -8.810  -5.817  -1.931  1.00  0.00    -0.241 NA
BRANCH  11  15
ATOM     15  C   UNL     1      -9.567  -5.290  -5.481  1.00  0.00     0.121 C 
BRANCH  15  16
ATOM     16  C   UNL     1      -9.784  -6.703  -6.236  1.00  0.00    -0.013 A 
ATOM     17  C   UNL     1     -10.379 -11.521  -8.286  1.00  0.00     0.044 C 
ATOM     18  C   UNL     1     -10.226 -10.142  -7.761  1.00  0.00    -0.051 A 
ATOM     19  C   UNL     1     -10.582  -9.908  -6.034  1.00  0.00     0.004 A 
ATOM     20  C   UNL     1      -9.681  -8.721  -8.671  1.00  0.00     0.004 A 
ATOM     21  C   UNL     1     -10.387  -8.065  -5.249  1.00  0.00     0.007 A 
ATOM     22  C   UNL     1      -9.479  -7.083  -7.933  1.00  0.00     0.007 A 
ENDBRANCH  15  16
BRANCH  15  23
ATOM     23  C   UNL     1     -10.987  -4.592  -5.162  1.00  0.00    -0.013 A 
ATOM     24  C   UNL     1     -11.124  -3.535  -4.216  1.00  0.00     0.007 A 
ATOM     25  C   UNL     1     -12.199  -5.155  -5.600  1.00  0.00     0.007 A 
ATOM     26  C   UNL     1     -12.366  -3.091  -3.739  1.00  0.00     0.000 A 
ATOM     27  C   UNL     1     -13.444  -4.742  -5.093  1.00  0.00     0.000 A 
ATOM     28  C   UNL     1     -13.529  -3.706  -4.170  1.00  0.00     0.000 A 
ENDBRANCH  15  23
BRANCH  15  29
ATOM     29  C   UNL     1      -8.516  -4.306  -6.157  1.00  0.00    -0.013 A 
ATOM     30  C   UNL     1      -7.484  -4.808  -6.974  1.00  0.00     0.007 A 
ATOM     31  C   UNL     1      -8.307  -2.980  -5.702  1.00  0.00     0.007 A 
ATOM     32  C   UNL     1      -6.360  -4.057  -7.343  1.00  0.00     0.000 A 
ATOM     33  C   UNL     1      -7.163  -2.234  -6.031  1.00  0.00     0.000 A 
ATOM     34  C   UNL     1      -6.192  -2.770  -6.861  1.00  0.00     0.000 A 
ENDBRANCH  15  29
ENDBRANCH  11  15
ENDBRANCH   9  10
ENDBRANCH   8   9
BRANCH   8  35
ATOM     35  N   UNL     1      -5.739  -3.478  -0.117  1.00  0.00    -0.346 N 
ATOM     36  H   UNL     1      -4.958  -4.129  -0.043  1.00  0.00     0.345 HD
ATOM     37  H   UNL     1      -5.835  -2.961   0.757  1.00  0.00     0.345 HD
ATOM     38  H   UNL     1      -5.566  -2.824  -0.881  1.00  0.00     0.345 HD
ENDBRANCH   8  35
ENDBRANCH   6   8
ENDBRANCH   5   6
ENDBRANCH   4   5
ENDBRANCH   3   4
ENDBRANCH   2   3
ENDBRANCH   1   2
BRANCH   1  39
ATOM     39  C   UNL     1      -6.236  -5.801   6.316  1.00  0.00     0.188 C 
BRANCH  39  40
ATOM     40  O   UNL     1      -6.380  -6.976   7.026  1.00  0.00    -0.376 OA
BRANCH  40  41
ATOM     41  C   UNL     1      -7.594  -6.718   7.677  1.00  0.00     0.202 C 
BRANCH  41  42
ATOM     42  C   UNL     1      -8.012  -5.075   7.840  1.00  0.00     0.261 C 
BRANCH  42  43
ATOM     43  O   UNL     1      -7.226  -3.699   7.067  1.00  0.00    -0.460 OA
BRANCH  43  44
ATOM     44  C   UNL     1      -6.414  -3.042   6.005  1.00  0.00     0.338 C 
ATOM     45  O   UNL     1      -6.492  -1.806   6.030  1.00  0.00    -0.246 OA
BRANCH  44  46
ATOM     46  C   UNL     1      -5.623  -3.613   4.582  1.00  0.00     0.060 A 
ATOM     47  C   UNL     1      -6.166  -3.090   3.454  1.00  0.00     0.016 A 
ATOM     48  C   UNL     1      -4.786  -4.742   4.215  1.00  0.00     0.016 A 
ATOM     49  C   UNL     1      -6.339  -3.956   2.338  1.00  0.00     0.010 A 
ATOM     50  C   UNL     1      -5.033  -5.674   3.078  1.00  0.00     0.010 A 
ATOM     51  C   UNL     1      -5.991  -5.388   2.118  1.00  0.00    -0.014 A 
BRANCH  51  52
ATOM     52  C   UNL     1      -6.848  -6.713   1.185  1.00  0.00     0.031 A 
ATOM     53  C   UNL     1      -5.897  -7.438   0.346  1.00  0.00     0.074 A 
ATOM     54  C   UNL     1      -8.298  -7.227   1.056  1.00  0.00     0.049 A 
ATOM     55  N   UNL     1      -6.288  -8.087  -0.684  1.00  0.00    -0.248 NA
ATOM     56  C   UNL     1      -4.447  -7.278   0.407  1.00  0.00     0.031 C 
ATOM     57  C   UNL     1      -8.874  -8.641   1.139  1.00  0.00     0.029 A 
ATOM     58  N   UNL     1      -9.540  -6.632   1.521  1.00  0.00    -0.354 N 
ATOM     59  C   UNL     1      -5.184  -8.717  -1.175  1.00  0.00     0.074 A 
ATOM     60  C   UNL     1      -4.075  -7.957  -0.680  1.00  0.00     0.031 C 
ATOM     61  C   UNL     1     -10.210  -8.650   1.501  1.00  0.00     0.029 A 
ATOM     62  C   UNL     1     -10.729  -7.281   1.629  1.00  0.00     0.049 A 
ATOM     63  H   UNL     1      -9.518  -5.682   1.779  1.00  0.00     0.167 HD
ATOM     64  C   UNL     1      -5.355  -9.972  -1.654  1.00  0.00     0.034 A 
ATOM     65  C   UNL     1     -11.806  -6.577   1.123  1.00  0.00     0.034 A 
ATOM     66  C   UNL     1      -6.792 -10.373  -1.518  1.00  0.00     0.049 A 
ATOM     67  C   UNL     1     -11.792  -7.060  -0.300  1.00  0.00     0.074 A 
ATOM     68  C   UNL     1      -7.460 -11.258  -0.686  1.00  0.00     0.029 A 
ATOM     69  N   UNL     1      -7.802  -9.546  -2.030  1.00  0.00    -0.354 N 
ATOM     70  N   UNL     1     -10.899  -7.939  -0.665  1.00  0.00    -0.248 NA
ATOM     71  C   UNL     1     -12.725  -6.766  -1.357  1.00  0.00     0.031 C 
ATOM     72  C   UNL     1      -8.872 -11.045  -0.834  1.00  0.00     0.029 A 
ATOM     73  C   UNL     1      -9.079  -9.977  -1.694  1.00  0.00     0.049 A 
ATOM     74  H   UNL     1      -7.625  -8.743  -2.572  1.00  0.00     0.167 HD
ATOM     75  C   UNL     1     -11.070  -8.414  -1.884  1.00  0.00     0.074 A 
ATOM     76  C   UNL     1     -12.233  -7.587  -2.309  1.00  0.00     0.031 C 
ATOM     77  C   UNL     1     -10.227  -9.391  -2.376  1.00  0.00     0.034 A 
BRANCH  64  78
ATOM     78  C   UNL     1      -4.218 -10.946  -1.933  1.00  0.00     0.023 A 
ATOM     79  C   UNL     1      -4.611 -12.258  -2.260  1.00  0.00     0.012 A 
ATOM     80  C   UNL     1      -2.813 -10.717  -1.897  1.00  0.00     0.148 A 
ATOM     81  C   UNL     1      -3.692 -13.287  -2.483  1.00  0.00     0.002 A 
ATOM     82  C   UNL     1      -1.890 -11.747  -2.108  1.00  0.00     0.091 A 
ATOM     83  F   UNL     1      -2.319  -9.501  -1.681  1.00  0.00    -0.205 F 
ATOM     84  C   UNL     1      -2.331 -13.036  -2.398  1.00  0.00     0.022 A 
BRANCH  82  85
ATOM     85  S   UNL     1      -0.101 -11.508  -1.996  1.00  0.00     0.127 S 
ATOM     86  O   UNL     1       0.275 -12.498  -0.985  1.00  0.00    -0.237 OA
ATOM     87  O   UNL     1       0.344 -11.830  -3.351  1.00  0.00    -0.237 OA
ATOM     88  O   UNL     1       0.116 -10.126  -1.585  1.00  0.00    -0.744 OA
ENDBRANCH  82  85
ENDBRANCH  64  78
BRANCH  65  89
ATOM     89  C   UNL     1     -12.006  -5.122   1.671  1.00  0.00     0.023 A 
ATOM     90  C   UNL     1     -12.084  -5.048   3.088  1.00  0.00     0.012 A 
ATOM     91  C   UNL     1     -11.717  -3.896   1.008  1.00  0.00     0.148 A 
ATOM     92  C   UNL     1     -11.599  -3.945   3.812  1.00  0.00     0.002 A 
ATOM     93  C   UNL     1     -11.142  -2.818   1.736  1.00  0.00     0.091 A 
ATOM     94  F   UNL     1     -11.856  -3.825  -0.325  1.00  0.00    -0.205 F 
ATOM     95  C   UNL     1     -11.048  -2.868   3.135  1.00  0.00     0.022 A 
BRANCH  93  96
ATOM     96  S   UNL     1     -10.131  -1.493   0.967  1.00  0.00     0.127 S 
ATOM     97  O   UNL     1     -10.883  -0.292   1.329  1.00  0.00    -0.237 OA
ATOM     98  O   UNL     1      -8.845  -1.621   1.666  1.00  0.00    -0.237 OA
ATOM     99  O   UNL     1     -10.077  -1.762  -0.463  1.00  0.00    -0.744 OA
ENDBRANCH  93  96
ENDBRANCH  65  89
BRANCH  77 100
ATOM    100  C   UNL     1     -10.362  -9.746  -3.809  1.00  0.00     0.023 A 
ATOM    101  C   UNL     1     -12.008  -9.457  -4.390  1.00  0.00     0.012 A 
ATOM    102  C   UNL     1      -8.903  -9.507  -4.810  1.00  0.00     0.148 A 
ATOM    103  C   UNL     1     -12.361  -8.726  -5.910  1.00  0.00     0.002 A 
ATOM    104  C   UNL     1      -9.100  -8.799  -6.453  1.00  0.00     0.091 A 
ATOM    105  F   UNL     1      -7.735 -10.000  -4.390  1.00  0.00    -0.205 F 
ATOM    106  C   UNL     1     -10.990  -8.344  -7.001  1.00  0.00     0.022 A 
BRANCH 104 107
ATOM    107  S   UNL     1      -7.297  -9.133  -7.334  1.00  0.00     0.127 S 
ATOM    108  O   UNL     1      -7.489 -10.389  -8.066  1.00  0.00    -0.237 OA
ATOM    109  O   UNL     1      -7.024  -7.967  -8.174  1.00  0.00    -0.237 OA
ATOM    110  O   UNL     1      -6.373  -9.240  -6.213  1.00  0.00    -0.744 OA
ENDBRANCH 104 107
ENDBRANCH  77 100
ENDBRANCH  51  52
ENDBRANCH  44  46
ENDBRANCH  43  44
ENDBRANCH  42  43
ENDBRANCH  41  42
ENDBRANCH  40  41
ENDBRANCH  39  40
ENDBRANCH   1  39
TORSDOF 27
