REMARK SMILES O=C(CCn1ccnc1)N[C@H]1C=C[C@H](C(=O)OCCOCCOCCOC(=O)c2ccc(-c3c4nc(c(-c5cccc(S(=O)(=O)[O-])c5F)c5ccc([nH]5)c(-c5cccc(S(=O)(=O)[O-])c5F)c5nc(c(-c6cccc(S(=O)(=O)[O-])c6F)c6ccc3[nH]6)C=C5)C=C4)cc2)C1
REMARK SMILES IDX 21 1 20 2 19 3 18 4 17 5 15 6 16 7 14 8 11 9 12 10 92 11
REMARK SMILES IDX 13 12 10 13 1 14 2 15 3 17 4 18 5 19 6 20 9 21 7 22 8 23
REMARK SMILES IDX 22 24 23 25 24 26 25 27 26 28 27 29 28 30 29 31 30 32 91 33
REMARK SMILES IDX 31 34 90 35 32 36 33 37 34 38 84 39 35 40 89 41 83 42 85 43
REMARK SMILES IDX 36 44 88 45 82 46 81 47 37 49 69 50 49 51 68 52 50 53 53 54
REMARK SMILES IDX 67 55 86 56 51 57 52 58 66 60 87 61 54 62 38 63 39 64 47 65
REMARK SMILES IDX 40 66 42 67 48 68 41 69 43 70 44 71 45 72 46 73 70 74 71 75
REMARK SMILES IDX 79 76 72 77 74 78 80 79 73 80 75 81 76 82 77 83 78 84 55 85
REMARK SMILES IDX 56 86 64 87 57 88 59 89 65 90 58 91 60 92 61 93 62 94 63 95
REMARK H PARENT 10 16 85 48 53 59
REMARK Flexibility Score: inf
ROOT
ATOM      1  C   UNL     1      -0.150   6.402  -3.318  1.00  0.00     0.188 C 
ENDROOT
BRANCH   1   2
ATOM      2  O   UNL     1      -0.274   6.859  -4.645  1.00  0.00    -0.376 OA
BRANCH   2   3
ATOM      3  C   UNL     1      -0.051   6.000  -5.751  1.00  0.00     0.202 C 
BRANCH   3   4
ATOM      4  C   UNL     1       0.727   4.673  -5.677  1.00  0.00     0.261 C 
BRANCH   4   5
ATOM      5  O   UNL     1       0.578   3.953  -4.454  1.00  0.00    -0.463 OA
BRANCH   5   6
ATOM      6  C   UNL     1       1.708   3.731  -3.727  1.00  0.00     0.312 C 
ATOM      7  O   UNL     1       2.845   3.982  -4.110  1.00  0.00    -0.252 OA
BRANCH   6   8
ATOM      8  C   UNL     1       1.374   3.265  -2.309  1.00  0.00     0.124 C 
ATOM      9  C   UNL     1       2.148   1.008  -2.030  1.00  0.00     0.106 C 
ATOM     10  C   UNL     1       0.668   1.029  -2.102  1.00  0.00    -0.006 C 
ATOM     11  C   UNL     1       2.512   2.454  -1.698  1.00  0.00     0.048 C 
ATOM     12  C   UNL     1       0.234   2.284  -2.250  1.00  0.00    -0.014 C 
BRANCH   9  13
ATOM     13  N   UNL     1       2.689   0.081  -1.073  1.00  0.00    -0.350 N 
ATOM     14  O   UNL     1       1.142   0.248   0.617  1.00  0.00    -0.275 OA
ATOM     15  C   UNL     1       2.238  -0.126   0.206  1.00  0.00     0.222 C 
ATOM     16  H   UNL     1       3.459  -0.459  -1.364  1.00  0.00     0.164 HD
BRANCH  15  17
ATOM     17  C   UNL     1       3.213  -0.767   1.180  1.00  0.00     0.122 C 
BRANCH  17  18
ATOM     18  C   UNL     1       4.236  -1.742   0.612  1.00  0.00     0.133 C 
BRANCH  18  19
ATOM     19  N   UNL     1       5.299  -1.165  -0.194  1.00  0.00    -0.337 N 
ATOM     20  C   UNL     1       5.779   0.116  -0.165  1.00  0.00     0.107 A 
ATOM     21  C   UNL     1       5.863  -1.786  -1.276  1.00  0.00     0.199 A 
ATOM     22  C   UNL     1       6.549   0.235  -1.300  1.00  0.00     0.130 A 
ATOM     23  N   UNL     1       6.599  -0.954  -1.976  1.00  0.00    -0.245 NA
ENDBRANCH  18  19
ENDBRANCH  17  18
ENDBRANCH  15  17
ENDBRANCH   9  13
ENDBRANCH   6   8
ENDBRANCH   5   6
ENDBRANCH   4   5
ENDBRANCH   3   4
ENDBRANCH   2   3
ENDBRANCH   1   2
BRANCH   1  24
ATOM     24  C   UNL     1      -1.229   5.485  -2.707  1.00  0.00     0.188 C 
BRANCH  24  25
ATOM     25  O   UNL     1      -1.947   4.541  -3.474  1.00  0.00    -0.376 OA
BRANCH  25  26
ATOM     26  C   UNL     1      -2.908   4.892  -4.454  1.00  0.00     0.202 C 
BRANCH  26  27
ATOM     27  C   UNL     1      -3.712   6.188  -4.463  1.00  0.00     0.261 C 
BRANCH  27  28
ATOM     28  O   UNL     1      -3.135   7.263  -3.763  1.00  0.00    -0.460 OA
BRANCH  28  29
ATOM     29  C   UNL     1      -3.580   7.372  -2.498  1.00  0.00     0.338 C 
ATOM     30  O   UNL     1      -4.236   6.546  -1.865  1.00  0.00    -0.246 OA
BRANCH  29  31
ATOM     31  C   UNL     1      -3.179   8.667  -1.973  1.00  0.00     0.060 A 
ATOM     32  C   UNL     1      -3.254   8.844  -0.590  1.00  0.00     0.016 A 
ATOM     33  C   UNL     1      -3.074   9.735  -2.875  1.00  0.00     0.016 A 
ATOM     34  C   UNL     1      -3.495  10.111  -0.125  1.00  0.00     0.010 A 
ATOM     35  C   UNL     1      -3.339  10.993  -2.411  1.00  0.00     0.010 A 
ATOM     36  C   UNL     1      -3.648  11.138  -1.062  1.00  0.00    -0.014 A 
BRANCH  36  37
ATOM     37  C   UNL     1      -4.113  12.419  -0.592  1.00  0.00     0.031 A 
ATOM     38  C   UNL     1      -3.049  13.180   0.086  1.00  0.00     0.074 A 
ATOM     39  C   UNL     1      -5.358  12.852  -0.863  1.00  0.00     0.049 A 
ATOM     40  N   UNL     1      -2.958  13.440   1.346  1.00  0.00    -0.248 NA
ATOM     41  C   UNL     1      -1.838  13.498  -0.687  1.00  0.00     0.031 C 
ATOM     42  C   UNL     1      -6.344  12.246  -1.766  1.00  0.00     0.029 A 
ATOM     43  N   UNL     1      -5.952  14.019  -0.500  1.00  0.00    -0.354 N 
ATOM     44  C   UNL     1      -1.802  14.202   1.466  1.00  0.00     0.074 A 
ATOM     45  C   UNL     1      -1.042  13.982   0.266  1.00  0.00     0.031 C 
ATOM     46  C   UNL     1      -7.280  13.171  -2.080  1.00  0.00     0.029 A 
ATOM     47  C   UNL     1      -7.028  14.374  -1.307  1.00  0.00     0.049 A 
ATOM     48  H   UNL     1      -5.650  14.562   0.263  1.00  0.00     0.167 HD
ATOM     49  C   UNL     1      -1.727  15.202   2.383  1.00  0.00     0.034 A 
ATOM     50  C   UNL     1      -7.596  15.603  -1.394  1.00  0.00     0.034 A 
ATOM     51  C   UNL     1      -2.756  15.070   3.384  1.00  0.00     0.049 A 
ATOM     52  C   UNL     1      -7.194  16.362  -0.186  1.00  0.00     0.074 A 
ATOM     53  C   UNL     1      -3.113  14.103   4.301  1.00  0.00     0.029 A 
ATOM     54  N   UNL     1      -3.844  15.899   3.251  1.00  0.00    -0.354 N 
ATOM     55  N   UNL     1      -7.595  16.062   1.017  1.00  0.00    -0.248 NA
ATOM     56  C   UNL     1      -5.989  17.174  -0.260  1.00  0.00     0.031 C 
ATOM     57  C   UNL     1      -4.537  14.145   4.348  1.00  0.00     0.029 A 
ATOM     58  C   UNL     1      -4.973  15.172   3.508  1.00  0.00     0.049 A 
ATOM     59  H   UNL     1      -3.815  16.854   3.012  1.00  0.00     0.167 HD
ATOM     60  C   UNL     1      -6.463  16.229   1.806  1.00  0.00     0.074 A 
ATOM     61  C   UNL     1      -5.548  17.027   0.993  1.00  0.00     0.031 C 
ATOM     62  C   UNL     1      -6.261  15.452   2.910  1.00  0.00     0.034 A 
BRANCH  49  63
ATOM     63  C   UNL     1      -1.028  16.521   2.147  1.00  0.00     0.023 A 
ATOM     64  C   UNL     1      -0.941  17.398   3.250  1.00  0.00     0.012 A 
ATOM     65  C   UNL     1      -0.725  17.061   0.874  1.00  0.00     0.148 A 
ATOM     66  C   UNL     1      -0.638  18.752   3.087  1.00  0.00     0.002 A 
ATOM     67  C   UNL     1      -0.345  18.389   0.727  1.00  0.00     0.091 A 
ATOM     68  F   UNL     1      -0.932  16.345  -0.233  1.00  0.00    -0.205 F 
ATOM     69  C   UNL     1      -0.335  19.248   1.825  1.00  0.00     0.022 A 
BRANCH  67  70
ATOM     70  S   UNL     1       0.098  19.068  -0.878  1.00  0.00     0.127 S 
ATOM     71  O   UNL     1      -1.052  19.922  -1.160  1.00  0.00    -0.237 OA
ATOM     72  O   UNL     1       1.339  19.778  -0.566  1.00  0.00    -0.237 OA
ATOM     73  O   UNL     1       0.275  17.920  -1.758  1.00  0.00    -0.744 OA
ENDBRANCH  67  70
ENDBRANCH  49  63
BRANCH  50  74
ATOM     74  C   UNL     1      -8.230  16.267  -2.556  1.00  0.00     0.023 A 
ATOM     75  C   UNL     1      -9.127  17.334  -2.351  1.00  0.00     0.012 A 
ATOM     76  C   UNL     1      -7.757  16.037  -3.868  1.00  0.00     0.148 A 
ATOM     77  C   UNL     1      -9.524  18.158  -3.413  1.00  0.00     0.002 A 
ATOM     78  C   UNL     1      -8.161  16.852  -4.921  1.00  0.00     0.091 A 
ATOM     79  F   UNL     1      -6.844  15.077  -4.064  1.00  0.00    -0.205 F 
ATOM     80  C   UNL     1      -9.036  17.922  -4.695  1.00  0.00     0.022 A 
BRANCH  78  81
ATOM     81  S   UNL     1      -7.558  16.624  -6.601  1.00  0.00     0.127 S 
ATOM     82  O   UNL     1      -8.807  16.550  -7.360  1.00  0.00    -0.237 OA
ATOM     83  O   UNL     1      -6.784  17.845  -6.813  1.00  0.00    -0.237 OA
ATOM     84  O   UNL     1      -6.789  15.387  -6.587  1.00  0.00    -0.744 OA
ENDBRANCH  78  81
ENDBRANCH  50  74
BRANCH  62  85
ATOM     85  C   UNL     1      -7.418  14.629   3.417  1.00  0.00     0.023 A 
ATOM     86  C   UNL     1      -7.994  13.580   2.670  1.00  0.00     0.012 A 
ATOM     87  C   UNL     1      -7.816  14.813   4.751  1.00  0.00     0.148 A 
ATOM     88  C   UNL     1      -8.961  12.746   3.239  1.00  0.00     0.002 A 
ATOM     89  C   UNL     1      -8.740  13.953   5.328  1.00  0.00     0.091 A 
ATOM     90  F   UNL     1      -7.255  15.814   5.447  1.00  0.00    -0.205 F 
ATOM     91  C   UNL     1      -9.324  12.923   4.573  1.00  0.00     0.022 A 
BRANCH  89  92
ATOM     92  S   UNL     1      -9.145  14.053   7.072  1.00  0.00     0.127 S 
ATOM     93  O   UNL     1     -10.474  14.658   7.043  1.00  0.00    -0.237 OA
ATOM     94  O   UNL     1      -9.120  12.647   7.482  1.00  0.00    -0.237 OA
ATOM     95  O   UNL     1      -8.098  14.865   7.681  1.00  0.00    -0.744 OA
ENDBRANCH  89  92
ENDBRANCH  62  85
ENDBRANCH  36  37
ENDBRANCH  29  31
ENDBRANCH  28  29
ENDBRANCH  27  28
ENDBRANCH  26  27
ENDBRANCH  25  26
ENDBRANCH  24  25
ENDBRANCH   1  24
TORSDOF 24
