REMARK SMILES Cc1ccc(-c2c(C(=O)OCCOCCOCCOC(=O)c3ccc(-c4c5nc(c(-c6cccc(S(=O)(=O)[O-])c6F)c6ccc([nH]6)c(-c6cccc(S(=O)(=O)[O-])c6F)c6nc(c(-c7cccc(S(=O)(=O)[O-])c7F)c7ccc4[nH]7)C=C6)C=C5)cc3)nnn2Cc2c(F)cccc2Cl)cc1
REMARK SMILES IDX 15 1 14 2 13 3 12 4 11 5 10 6 8 7 9 8 7 9 6 10 87 11 85 12
REMARK SMILES IDX 86 13 5 14 1 15 2 16 3 17 98 18 4 19 97 20 88 21 89 22 90 23
REMARK SMILES IDX 95 24 91 25 92 26 94 27 96 28 93 29 16 30 17 31 18 32 19 33
REMARK SMILES IDX 20 34 21 35 22 36 23 37 84 38 24 39 83 40 25 41 26 42 27 43
REMARK SMILES IDX 77 44 28 45 82 46 76 47 78 48 29 49 81 50 75 51 74 52 30 54
REMARK SMILES IDX 62 55 42 56 61 57 43 58 46 59 60 60 79 61 44 62 45 63 59 65
REMARK SMILES IDX 80 66 47 67 31 68 32 69 40 70 33 71 35 72 41 73 34 74 36 75
REMARK SMILES IDX 37 76 38 77 39 78 63 79 64 80 72 81 65 82 67 83 73 84 66 85
REMARK SMILES IDX 68 86 69 87 70 88 71 89 48 90 49 91 57 92 50 93 52 94 58 95
REMARK SMILES IDX 51 96 53 97 54 98 55 99 56 100
REMARK H PARENT 78 53 46 64
REMARK Flexibility Score: inf
ROOT
ATOM      1  C   UNL     1      -3.522   0.285   7.074  1.00  0.00     0.188 C 
ENDROOT
BRANCH   1   2
ATOM      2  C   UNL     1      -3.468  -1.110   6.465  1.00  0.00     0.188 C 
BRANCH   2   3
ATOM      3  O   UNL     1      -2.329  -1.764   5.849  1.00  0.00    -0.376 OA
BRANCH   3   4
ATOM      4  C   UNL     1      -1.165  -1.186   5.197  1.00  0.00     0.202 C 
BRANCH   4   5
ATOM      5  C   UNL     1      -0.724  -1.080   3.504  1.00  0.00     0.261 C 
BRANCH   5   6
ATOM      6  O   UNL     1      -1.305  -0.121   2.366  1.00  0.00    -0.458 OA
BRANCH   6   7
ATOM      7  C   UNL     1      -2.293  -0.264   1.385  1.00  0.00     0.361 C 
ATOM      8  O   UNL     1      -2.876  -1.304   1.074  1.00  0.00    -0.244 OA
BRANCH   7   9
ATOM      9  C   UNL     1      -2.790   0.851   0.588  1.00  0.00     0.198 A 
ATOM     10  C   UNL     1      -2.155   1.242  -0.574  1.00  0.00     0.104 A 
ATOM     11  N   UNL     1      -3.179   1.510  -1.441  1.00  0.00    -0.239 N 
ATOM     12  N   UNL     1      -4.138   1.146   0.445  1.00  0.00    -0.122 NA
ATOM     13  N   UNL     1      -4.335   1.661  -0.764  1.00  0.00    -0.066 NA
BRANCH  10  14
ATOM     14  C   UNL     1      -0.740   1.189  -0.787  1.00  0.00     0.002 A 
ATOM     15  C   UNL     1       3.417   1.262   0.161  1.00  0.00     0.044 C 
ATOM     16  C   UNL     1       1.958   1.271  -0.163  1.00  0.00    -0.051 A 
ATOM     17  C   UNL     1       1.281   0.053  -0.202  1.00  0.00     0.004 A 
ATOM     18  C   UNL     1       1.282   2.450  -0.483  1.00  0.00     0.004 A 
ATOM     19  C   UNL     1      -0.054  -0.004  -0.556  1.00  0.00     0.011 A 
ATOM     20  C   UNL     1      -0.072   2.412  -0.780  1.00  0.00     0.011 A 
ENDBRANCH  10  14
BRANCH  11  21
ATOM     21  C   UNL     1      -3.191   1.628  -2.893  1.00  0.00     0.187 C 
BRANCH  21  22
ATOM     22  C   UNL     1      -2.451   0.542  -3.637  1.00  0.00     0.028 A 
ATOM     23  C   UNL     1      -1.536   0.933  -4.623  1.00  0.00     0.129 A 
ATOM     24  C   UNL     1      -2.647  -0.837  -3.457  1.00  0.00     0.049 A 
ATOM     25  F   UNL     1      -1.387   2.236  -4.910  1.00  0.00    -0.207 F 
ATOM     26  C   UNL     1      -0.781   0.013  -5.346  1.00  0.00     0.040 A 
ATOM     27  C   UNL     1      -1.872  -1.770  -4.161  1.00  0.00     0.021 A 
ATOM     28  Cl  UNL     1      -3.876  -1.470  -2.428  1.00  0.00    -0.084 Cl
ATOM     29  C   UNL     1      -0.930  -1.345  -5.096  1.00  0.00     0.005 A 
ENDBRANCH  21  22
ENDBRANCH  11  21
ENDBRANCH   7   9
ENDBRANCH   6   7
ENDBRANCH   5   6
ENDBRANCH   4   5
ENDBRANCH   3   4
ENDBRANCH   2   3
ENDBRANCH   1   2
BRANCH   1  30
ATOM     30  O   UNL     1      -2.486   1.091   6.580  1.00  0.00    -0.376 OA
BRANCH  30  31
ATOM     31  C   UNL     1      -2.381   2.363   7.184  1.00  0.00     0.202 C 
BRANCH  31  32
ATOM     32  C   UNL     1      -3.529   3.337   6.849  1.00  0.00     0.261 C 
BRANCH  32  33
ATOM     33  O   UNL     1      -3.784   3.394   5.426  1.00  0.00    -0.460 OA
BRANCH  33  34
ATOM     34  C   UNL     1      -5.035   2.991   4.991  1.00  0.00     0.338 C 
ATOM     35  O   UNL     1      -6.072   3.447   5.440  1.00  0.00    -0.246 OA
BRANCH  34  36
ATOM     36  C   UNL     1      -4.904   1.774   4.103  1.00  0.00     0.060 A 
ATOM     37  C   UNL     1      -5.878   0.815   3.767  1.00  0.00     0.016 A 
ATOM     38  C   UNL     1      -3.636   1.384   3.861  1.00  0.00     0.016 A 
ATOM     39  C   UNL     1      -5.532  -0.569   3.357  1.00  0.00     0.010 A 
ATOM     40  C   UNL     1      -3.423   0.008   3.733  1.00  0.00     0.010 A 
ATOM     41  C   UNL     1      -4.242  -1.081   3.399  1.00  0.00    -0.014 A 
BRANCH  41  42
ATOM     42  C   UNL     1      -3.662  -2.603   3.323  1.00  0.00     0.031 A 
ATOM     43  C   UNL     1      -2.678  -3.287   2.278  1.00  0.00     0.074 A 
ATOM     44  C   UNL     1      -3.863  -3.482   4.330  1.00  0.00     0.049 A 
ATOM     45  N   UNL     1      -1.417  -3.631   2.455  1.00  0.00    -0.248 NA
ATOM     46  C   UNL     1      -3.130  -3.647   0.915  1.00  0.00     0.031 C 
ATOM     47  C   UNL     1      -3.201  -4.773   4.583  1.00  0.00     0.029 A 
ATOM     48  N   UNL     1      -4.880  -3.478   5.283  1.00  0.00    -0.354 N 
ATOM     49  C   UNL     1      -0.836  -4.012   1.221  1.00  0.00     0.074 A 
ATOM     50  C   UNL     1      -1.969  -3.899   0.291  1.00  0.00     0.031 C 
ATOM     51  C   UNL     1      -4.055  -5.554   5.271  1.00  0.00     0.029 A 
ATOM     52  C   UNL     1      -5.308  -4.814   5.319  1.00  0.00     0.049 A 
ATOM     53  H   UNL     1      -5.219  -2.717   5.808  1.00  0.00     0.167 HD
ATOM     54  C   UNL     1      -0.085  -5.157   1.105  1.00  0.00     0.034 A 
ATOM     55  C   UNL     1      -6.461  -5.122   4.659  1.00  0.00     0.034 A 
ATOM     56  C   UNL     1      -0.782  -6.298   1.656  1.00  0.00     0.049 A 
ATOM     57  C   UNL     1      -6.199  -6.141   3.572  1.00  0.00     0.074 A 
ATOM     58  C   UNL     1      -0.716  -6.992   2.844  1.00  0.00     0.029 A 
ATOM     59  N   UNL     1      -1.917  -6.736   0.999  1.00  0.00    -0.354 N 
ATOM     60  N   UNL     1      -5.040  -6.337   2.994  1.00  0.00    -0.248 NA
ATOM     61  C   UNL     1      -7.199  -7.112   3.155  1.00  0.00     0.031 C 
ATOM     62  C   UNL     1      -1.958  -7.680   2.986  1.00  0.00     0.029 A 
ATOM     63  C   UNL     1      -2.728  -7.450   1.854  1.00  0.00     0.049 A 
ATOM     64  H   UNL     1      -2.119  -6.561   0.051  1.00  0.00     0.167 HD
ATOM     65  C   UNL     1      -5.111  -7.424   2.166  1.00  0.00     0.074 A 
ATOM     66  C   UNL     1      -6.482  -7.883   2.322  1.00  0.00     0.031 C 
ATOM     67  C   UNL     1      -4.055  -7.868   1.415  1.00  0.00     0.034 A 
BRANCH  54  68
ATOM     68  C   UNL     1       1.370  -5.168   0.619  1.00  0.00     0.023 A 
ATOM     69  C   UNL     1       2.134  -6.351   0.769  1.00  0.00     0.012 A 
ATOM     70  C   UNL     1       2.043  -4.075   0.013  1.00  0.00     0.148 A 
ATOM     71  C   UNL     1       3.489  -6.434   0.401  1.00  0.00     0.002 A 
ATOM     72  C   UNL     1       3.409  -4.148  -0.334  1.00  0.00     0.091 A 
ATOM     73  F   UNL     1       1.340  -2.966  -0.241  1.00  0.00    -0.205 F 
ATOM     74  C   UNL     1       4.131  -5.329  -0.136  1.00  0.00     0.022 A 
BRANCH  72  75
ATOM     75  S   UNL     1       4.348  -2.772  -1.042  1.00  0.00     0.127 S 
ATOM     76  O   UNL     1       5.077  -2.267   0.122  1.00  0.00    -0.237 OA
ATOM     77  O   UNL     1       5.194  -3.422  -2.044  1.00  0.00    -0.237 OA
ATOM     78  O   UNL     1       3.360  -1.863  -1.603  1.00  0.00    -0.744 OA
ENDBRANCH  72  75
ENDBRANCH  54  68
BRANCH  55  79
ATOM     79  C   UNL     1      -7.482  -4.007   4.688  1.00  0.00     0.023 A 
ATOM     80  C   UNL     1      -7.706  -3.384   5.954  1.00  0.00     0.012 A 
ATOM     81  C   UNL     1      -8.000  -3.359   3.555  1.00  0.00     0.148 A 
ATOM     82  C   UNL     1      -8.261  -2.107   6.072  1.00  0.00     0.002 A 
ATOM     83  C   UNL     1      -8.622  -2.103   3.689  1.00  0.00     0.091 A 
ATOM     84  F   UNL     1      -7.836  -3.927   2.352  1.00  0.00    -0.205 F 
ATOM     85  C   UNL     1      -8.703  -1.457   4.934  1.00  0.00     0.022 A 
BRANCH  83  86
ATOM     86  S   UNL     1      -9.207  -1.190   2.244  1.00  0.00     0.127 S 
ATOM     87  O   UNL     1      -9.273   0.190   2.729  1.00  0.00    -0.237 OA
ATOM     88  O   UNL     1      -8.186  -1.426   1.235  1.00  0.00    -0.237 OA
ATOM     89  O   UNL     1     -10.508  -1.812   2.013  1.00  0.00    -0.744 OA
ENDBRANCH  83  86
ENDBRANCH  55  79
BRANCH  67  90
ATOM     90  C   UNL     1      -4.210  -8.730   0.169  1.00  0.00     0.023 A 
ATOM     91  C   UNL     1      -5.463  -8.909  -0.451  1.00  0.00     0.012 A 
ATOM     92  C   UNL     1      -3.090  -9.239  -0.537  1.00  0.00     0.148 A 
ATOM     93  C   UNL     1      -5.620  -9.630  -1.637  1.00  0.00     0.002 A 
ATOM     94  C   UNL     1      -3.237  -9.831  -1.790  1.00  0.00     0.091 A 
ATOM     95  F   UNL     1      -1.861  -9.157  -0.008  1.00  0.00    -0.205 F 
ATOM     96  C   UNL     1      -4.502 -10.073  -2.322  1.00  0.00     0.022 A 
BRANCH  94  97
ATOM     97  S   UNL     1      -1.803 -10.104  -2.843  1.00  0.00     0.127 S 
ATOM     98  O   UNL     1      -1.389 -11.450  -2.458  1.00  0.00    -0.237 OA
ATOM     99  O   UNL     1      -2.371 -10.003  -4.189  1.00  0.00    -0.237 OA
ATOM    100  O   UNL     1      -0.893  -9.017  -2.503  1.00  0.00    -0.744 OA
ENDBRANCH  94  97
ENDBRANCH  67  90
ENDBRANCH  41  42
ENDBRANCH  34  36
ENDBRANCH  33  34
ENDBRANCH  32  33
ENDBRANCH  31  32
ENDBRANCH  30  31
ENDBRANCH   1  30
TORSDOF 23
