REMARK SMILES Cn1ccc(-c2n[nH]c(=O)n2-c2ccc(C(=O)OCCOCCOCCOC(=O)c3ccc(-c4c5nc(c(-c6cccc(S(=O)(=O)[O-])c6F)c6ccc([nH]6)c(-c6cccc(S(=O)(=O)[O-])c6F)c6nc(c(-c7cccc(S(=O)(=O)[O-])c7F)c7ccc4[nH]7)C=C6)C=C5)cc3)cc2)n1
REMARK SMILES IDX 23 1 22 2 21 3 20 4 19 5 18 6 16 7 17 8 15 9 12 10 13 11
REMARK SMILES IDX 94 12 14 13 93 14 11 15 6 16 7 17 8 18 9 19 10 21 5 22 1 23
REMARK SMILES IDX 2 24 3 25 95 26 4 27 24 28 25 29 26 30 27 31 28 32 29 33
REMARK SMILES IDX 30 34 31 35 92 36 32 37 91 38 33 39 34 40 35 41 85 42 36 43
REMARK SMILES IDX 90 44 84 45 86 46 37 47 89 48 83 49 82 50 38 52 70 53 50 54
REMARK SMILES IDX 69 55 51 56 54 57 68 58 87 59 52 60 53 61 67 63 88 64 55 65
REMARK SMILES IDX 39 66 40 67 48 68 41 69 43 70 49 71 42 72 44 73 45 74 46 75
REMARK SMILES IDX 47 76 71 77 72 78 80 79 73 80 75 81 81 82 74 83 76 84 77 85
REMARK SMILES IDX 78 86 79 87 56 88 57 89 65 90 58 91 60 92 66 93 59 94 61 95
REMARK SMILES IDX 62 96 63 97 64 98
REMARK H PARENT 8 20 86 51 54 62
REMARK Flexibility Score: inf
ROOT
ATOM      1  C   UNL     1       1.699   3.562   6.963  1.00  0.00     0.188 C 
ENDROOT
BRANCH   1   2
ATOM      2  C   UNL     1       0.772   4.801   6.980  1.00  0.00     0.188 C 
BRANCH   2   3
ATOM      3  O   UNL     1      -0.248   4.937   7.962  1.00  0.00    -0.376 OA
BRANCH   3   4
ATOM      4  C   UNL     1      -1.026   3.811   8.342  1.00  0.00     0.202 C 
BRANCH   4   5
ATOM      5  C   UNL     1      -1.725   2.955   7.269  1.00  0.00     0.261 C 
BRANCH   5   6
ATOM      6  O   UNL     1      -0.908   2.583   6.147  1.00  0.00    -0.460 OA
BRANCH   6   7
ATOM      7  C   UNL     1      -1.242   3.127   4.955  1.00  0.00     0.338 C 
ATOM      8  O   UNL     1      -2.235   3.786   4.697  1.00  0.00    -0.246 OA
BRANCH   7   9
ATOM      9  C   UNL     1      -0.136   2.936   3.990  1.00  0.00     0.060 A 
ATOM     10  C   UNL     1       1.837   2.650   2.019  1.00  0.00     0.052 A 
ATOM     11  C   UNL     1       1.294   3.909   2.280  1.00  0.00     0.028 A 
ATOM     12  C   UNL     1       1.470   1.563   2.835  1.00  0.00     0.028 A 
ATOM     13  C   UNL     1       0.283   4.043   3.237  1.00  0.00     0.018 A 
ATOM     14  C   UNL     1       0.496   1.703   3.827  1.00  0.00     0.018 A 
BRANCH  10  15
ATOM     15  N   UNL     1       2.671   2.452   0.905  1.00  0.00    -0.242 N 
ATOM     16  C   UNL     1       2.616   1.446  -0.016  1.00  0.00     0.189 A 
ATOM     17  N   UNL     1       3.570   1.454  -0.908  1.00  0.00    -0.150 NA
ATOM     18  N   UNL     1       4.272   2.592  -0.604  1.00  0.00    -0.226 N 
ATOM     19  C   UNL     1       3.704   3.254   0.488  1.00  0.00     0.348 A 
ATOM     20  H   UNL     1       5.070   2.901  -1.090  1.00  0.00     0.195 HD
ATOM     21  O   UNL     1       4.106   4.314   0.946  1.00  0.00    -0.246 OA
BRANCH  16  22
ATOM     22  C   UNL     1       1.509   0.507  -0.087  1.00  0.00     0.130 A 
ATOM     23  C   UNL     1      -1.943  -0.054   0.004  1.00  0.00     0.173 C 
ATOM     24  N   UNL     1      -0.506  -0.171  -0.068  1.00  0.00    -0.275 N 
ATOM     25  C   UNL     1       0.233  -1.306  -0.209  1.00  0.00     0.109 A 
ATOM     26  N   UNL     1       0.238   0.940  -0.001  1.00  0.00    -0.170 NA
ATOM     27  C   UNL     1       1.547  -0.899  -0.259  1.00  0.00     0.054 A 
ENDBRANCH  16  22
ENDBRANCH  10  15
ENDBRANCH   7   9
ENDBRANCH   6   7
ENDBRANCH   5   6
ENDBRANCH   4   5
ENDBRANCH   3   4
ENDBRANCH   2   3
ENDBRANCH   1   2
BRANCH   1  28
ATOM     28  O   UNL     1       1.283   2.496   7.801  1.00  0.00    -0.376 OA
BRANCH  28  29
ATOM     29  C   UNL     1       2.078   2.171   8.933  1.00  0.00     0.202 C 
BRANCH  29  30
ATOM     30  C   UNL     1       2.373   3.245   9.979  1.00  0.00     0.261 C 
BRANCH  30  31
ATOM     31  O   UNL     1       2.573   4.545   9.460  1.00  0.00    -0.460 OA
BRANCH  31  32
ATOM     32  C   UNL     1       3.784   4.774   8.917  1.00  0.00     0.338 C 
ATOM     33  O   UNL     1       4.618   3.945   8.598  1.00  0.00    -0.246 OA
BRANCH  32  34
ATOM     34  C   UNL     1       3.959   6.224   8.823  1.00  0.00     0.060 A 
ATOM     35  C   UNL     1       4.997   6.703   8.018  1.00  0.00     0.016 A 
ATOM     36  C   UNL     1       3.298   7.030   9.761  1.00  0.00     0.016 A 
ATOM     37  C   UNL     1       5.530   7.937   8.315  1.00  0.00     0.010 A 
ATOM     38  C   UNL     1       3.853   8.239  10.080  1.00  0.00     0.010 A 
ATOM     39  C   UNL     1       5.014   8.629   9.412  1.00  0.00    -0.014 A 
BRANCH  39  40
ATOM     40  C   UNL     1       5.764   9.746   9.940  1.00  0.00     0.031 A 
ATOM     41  C   UNL     1       5.442  11.051   9.330  1.00  0.00     0.074 A 
ATOM     42  C   UNL     1       6.527   9.566  11.037  1.00  0.00     0.049 A 
ATOM     43  N   UNL     1       6.247  11.883   8.756  1.00  0.00    -0.248 NA
ATOM     44  C   UNL     1       4.021  11.423   9.236  1.00  0.00     0.031 C 
ATOM     45  C   UNL     1       6.596   8.350  11.863  1.00  0.00     0.029 A 
ATOM     46  N   UNL     1       7.243  10.473  11.758  1.00  0.00    -0.354 N 
ATOM     47  C   UNL     1       5.457  12.989   8.452  1.00  0.00     0.074 A 
ATOM     48  C   UNL     1       4.090  12.565   8.556  1.00  0.00     0.031 C 
ATOM     49  C   UNL     1       7.077   8.674  13.081  1.00  0.00     0.029 A 
ATOM     50  C   UNL     1       7.441  10.079  13.078  1.00  0.00     0.049 A 
ATOM     51  H   UNL     1       7.585  11.317  11.384  1.00  0.00     0.167 HD
ATOM     52  C   UNL     1       5.976  14.243   8.453  1.00  0.00     0.034 A 
ATOM     53  C   UNL     1       7.763  10.881  14.121  1.00  0.00     0.034 A 
ATOM     54  C   UNL     1       7.411  14.229   8.328  1.00  0.00     0.049 A 
ATOM     55  C   UNL     1       8.276  12.155  13.568  1.00  0.00     0.074 A 
ATOM     56  C   UNL     1       8.311  13.720   7.414  1.00  0.00     0.029 A 
ATOM     57  N   UNL     1       8.133  14.530   9.455  1.00  0.00    -0.354 N 
ATOM     58  N   UNL     1       9.406  12.277  12.929  1.00  0.00    -0.248 NA
ATOM     59  C   UNL     1       7.345  13.260  13.405  1.00  0.00     0.031 C 
ATOM     60  C   UNL     1       9.461  13.365   8.176  1.00  0.00     0.029 A 
ATOM     61  C   UNL     1       9.211  13.691   9.511  1.00  0.00     0.049 A 
ATOM     62  H   UNL     1       7.914  15.231  10.111  1.00  0.00     0.167 HD
ATOM     63  C   UNL     1       9.155  13.238  11.958  1.00  0.00     0.074 A 
ATOM     64  C   UNL     1       7.935  13.906  12.396  1.00  0.00     0.031 C 
ATOM     65  C   UNL     1       9.785  13.195  10.746  1.00  0.00     0.034 A 
BRANCH  52  66
ATOM     66  C   UNL     1       5.237  15.459   8.974  1.00  0.00     0.023 A 
ATOM     67  C   UNL     1       5.859  16.712   8.785  1.00  0.00     0.012 A 
ATOM     68  C   UNL     1       4.142  15.419   9.872  1.00  0.00     0.148 A 
ATOM     69  C   UNL     1       5.464  17.844   9.505  1.00  0.00     0.002 A 
ATOM     70  C   UNL     1       3.697  16.567  10.517  1.00  0.00     0.091 A 
ATOM     71  F   UNL     1       3.598  14.255  10.233  1.00  0.00    -0.205 F 
ATOM     72  C   UNL     1       4.377  17.774  10.367  1.00  0.00     0.022 A 
BRANCH  70  73
ATOM     73  S   UNL     1       2.258  16.523  11.593  1.00  0.00     0.127 S 
ATOM     74  O   UNL     1       2.880  16.424  12.909  1.00  0.00    -0.237 OA
ATOM     75  O   UNL     1       1.620  17.807  11.303  1.00  0.00    -0.237 OA
ATOM     76  O   UNL     1       1.487  15.366  11.151  1.00  0.00    -0.744 OA
ENDBRANCH  70  73
ENDBRANCH  52  66
BRANCH  53  77
ATOM     77  C   UNL     1       7.443  10.717  15.559  1.00  0.00     0.023 A 
ATOM     78  C   UNL     1       8.221  11.388  16.521  1.00  0.00     0.012 A 
ATOM     79  C   UNL     1       6.250  10.091  15.989  1.00  0.00     0.148 A 
ATOM     80  C   UNL     1       7.819  11.448  17.860  1.00  0.00     0.002 A 
ATOM     81  C   UNL     1       5.868  10.130  17.327  1.00  0.00     0.091 A 
ATOM     82  F   UNL     1       5.440   9.537  15.077  1.00  0.00    -0.205 F 
ATOM     83  C   UNL     1       6.645  10.819  18.264  1.00  0.00     0.022 A 
BRANCH  81  84
ATOM     84  S   UNL     1       4.375   9.316  17.913  1.00  0.00     0.127 S 
ATOM     85  O   UNL     1       4.827   8.707  19.165  1.00  0.00    -0.237 OA
ATOM     86  O   UNL     1       3.459  10.441  18.078  1.00  0.00    -0.237 OA
ATOM     87  O   UNL     1       4.023   8.351  16.879  1.00  0.00    -0.744 OA
ENDBRANCH  81  84
ENDBRANCH  53  77
BRANCH  65  88
ATOM     88  C   UNL     1      10.997  12.308  10.601  1.00  0.00     0.023 A 
ATOM     89  C   UNL     1      10.918  10.909  10.760  1.00  0.00     0.012 A 
ATOM     90  C   UNL     1      12.191  12.869  10.114  1.00  0.00     0.148 A 
ATOM     91  C   UNL     1      12.012  10.092  10.467  1.00  0.00     0.002 A 
ATOM     92  C   UNL     1      13.261  12.048   9.777  1.00  0.00     0.091 A 
ATOM     93  F   UNL     1      12.252  14.201   9.960  1.00  0.00    -0.205 F 
ATOM     94  C   UNL     1      13.179  10.660   9.962  1.00  0.00     0.022 A 
BRANCH  92  95
ATOM     95  S   UNL     1      14.734  12.707   8.989  1.00  0.00     0.127 S 
ATOM     96  O   UNL     1      15.668  12.796  10.109  1.00  0.00    -0.237 OA
ATOM     97  O   UNL     1      15.059  11.675   8.003  1.00  0.00    -0.237 OA
ATOM     98  O   UNL     1      14.330  13.979   8.400  1.00  0.00    -0.744 OA
ENDBRANCH  92  95
ENDBRANCH  65  88
ENDBRANCH  39  40
ENDBRANCH  32  34
ENDBRANCH  31  32
ENDBRANCH  30  31
ENDBRANCH  29  30
ENDBRANCH  28  29
ENDBRANCH   1  28
TORSDOF 22
