REMARK SMILES CN(CC(C)(C)O)S(=O)(=O)CCCC(=O)OCCOCCOCCOC(=O)c1ccc(-c2c3nc(c(-c4cccc(S(=O)(=O)[O-])c4F)c4ccc([nH]4)c(-c4cccc(S(=O)(=O)[O-])c4F)c4nc(c(-c5cccc(S(=O)(=O)[O-])c5F)c5ccc2[nH]5)C=C4)C=C3)cc1
REMARK SMILES IDX 18 1 17 2 16 3 14 4 15 5 13 6 12 7 11 8 8 9 9 10 10 11 2 12
REMARK SMILES IDX 1 13 3 14 4 15 5 16 6 17 7 18 19 20 20 21 21 22 22 23 23 24
REMARK SMILES IDX 24 25 25 26 26 27 27 28 28 29 29 30 90 31 30 32 89 33 31 34
REMARK SMILES IDX 32 35 33 36 83 37 34 38 88 39 82 40 84 41 35 42 87 43 81 44
REMARK SMILES IDX 80 45 36 47 68 48 48 49 67 50 49 51 52 52 66 53 85 54 50 55
REMARK SMILES IDX 51 56 65 58 86 59 53 60 37 61 38 62 46 63 39 64 41 65 47 66
REMARK SMILES IDX 40 67 42 68 43 69 44 70 45 71 69 72 70 73 78 74 71 75 73 76
REMARK SMILES IDX 79 77 72 78 74 79 75 80 76 81 77 82 54 83 55 84 63 85 56 86
REMARK SMILES IDX 58 87 64 88 57 89 59 90 60 91 61 92 62 93
REMARK H PARENT 7 19 84 46 52 57
REMARK Flexibility Score: inf
ROOT
ATOM      1  C   UNL     1      -3.956  -0.836  -4.344  1.00  0.00     0.202 C 
ENDROOT
BRANCH   1   2
ATOM      2  C   UNL     1      -2.976  -1.108  -3.190  1.00  0.00     0.261 C 
BRANCH   2   3
ATOM      3  O   UNL     1      -1.588  -0.808  -3.486  1.00  0.00    -0.463 OA
BRANCH   3   4
ATOM      4  C   UNL     1      -0.661  -1.658  -2.983  1.00  0.00     0.305 C 
ATOM      5  O   UNL     1      -0.939  -2.590  -2.236  1.00  0.00    -0.252 OA
BRANCH   4   6
ATOM      6  C   UNL     1       0.778  -1.414  -3.429  1.00  0.00     0.124 C 
BRANCH   6   7
ATOM      7  C   UNL     1       1.332  -0.125  -4.052  1.00  0.00     0.029 C 
BRANCH   7   8
ATOM      8  C   UNL     1       0.992   1.228  -3.447  1.00  0.00     0.155 C 
BRANCH   8   9
ATOM      9  S   UNL     1       1.689   1.531  -1.828  1.00  0.00     0.213 S 
ATOM     10  O   UNL     1       1.468   2.921  -1.502  1.00  0.00    -0.212 OA
ATOM     11  O   UNL     1       3.039   1.003  -1.822  1.00  0.00    -0.212 OA
BRANCH   9  12
ATOM     12  N   UNL     1       0.756   0.588  -0.808  1.00  0.00    -0.202 NA
ATOM     13  C   UNL     1       1.374   0.130   0.447  1.00  0.00     0.124 C 
BRANCH  12  14
ATOM     14  C   UNL     1      -0.726   0.632  -0.798  1.00  0.00     0.136 C 
BRANCH  14  15
ATOM     15  C   UNL     1      -1.465   1.700   0.031  1.00  0.00     0.073 C 
ATOM     16  C   UNL     1      -1.308   3.116  -0.527  1.00  0.00     0.043 C 
ATOM     17  C   UNL     1      -2.964   1.345   0.002  1.00  0.00     0.043 C 
BRANCH  15  18
ATOM     18  O   UNL     1      -1.052   1.657   1.397  1.00  0.00    -0.389 OA
ATOM     19  H   UNL     1      -0.109   1.876   1.456  1.00  0.00     0.211 HD
ENDBRANCH  15  18
ENDBRANCH  14  15
ENDBRANCH  12  14
ENDBRANCH   9  12
ENDBRANCH   8   9
ENDBRANCH   7   8
ENDBRANCH   6   7
ENDBRANCH   4   6
ENDBRANCH   3   4
ENDBRANCH   2   3
ENDBRANCH   1   2
BRANCH   1  20
ATOM     20  O   UNL     1      -3.701  -1.451  -5.600  1.00  0.00    -0.376 OA
BRANCH  20  21
ATOM     21  C   UNL     1      -2.384  -1.381  -6.133  1.00  0.00     0.188 C 
BRANCH  21  22
ATOM     22  C   UNL     1      -1.669  -0.019  -6.101  1.00  0.00     0.188 C 
BRANCH  22  23
ATOM     23  O   UNL     1      -2.457   1.055  -5.636  1.00  0.00    -0.376 OA
BRANCH  23  24
ATOM     24  C   UNL     1      -2.808   2.052  -6.577  1.00  0.00     0.202 C 
BRANCH  24  25
ATOM     25  C   UNL     1      -3.456   1.634  -7.910  1.00  0.00     0.261 C 
BRANCH  25  26
ATOM     26  O   UNL     1      -2.890   0.500  -8.590  1.00  0.00    -0.460 OA
BRANCH  26  27
ATOM     27  C   UNL     1      -1.697   0.653  -9.222  1.00  0.00     0.338 C 
ATOM     28  O   UNL     1      -1.044   1.672  -9.296  1.00  0.00    -0.246 OA
BRANCH  27  29
ATOM     29  C   UNL     1      -1.202  -0.715  -9.546  1.00  0.00     0.060 A 
ATOM     30  C   UNL     1       0.008  -1.156  -8.985  1.00  0.00     0.016 A 
ATOM     31  C   UNL     1      -1.975  -1.592 -10.309  1.00  0.00     0.016 A 
ATOM     32  C   UNL     1       0.436  -2.475  -9.172  1.00  0.00     0.010 A 
ATOM     33  C   UNL     1      -1.527  -2.901 -10.523  1.00  0.00     0.010 A 
ATOM     34  C   UNL     1      -0.317  -3.351  -9.963  1.00  0.00    -0.014 A 
BRANCH  34  35
ATOM     35  C   UNL     1       0.206  -4.694 -10.328  1.00  0.00     0.031 A 
ATOM     36  C   UNL     1       0.869  -4.866 -11.667  1.00  0.00     0.074 A 
ATOM     37  C   UNL     1       0.046  -5.758  -9.518  1.00  0.00     0.049 A 
ATOM     38  N   UNL     1       1.285  -5.958 -12.252  1.00  0.00    -0.248 NA
ATOM     39  C   UNL     1       1.088  -3.640 -12.454  1.00  0.00     0.031 C 
ATOM     40  C   UNL     1      -0.566  -5.729  -8.191  1.00  0.00     0.029 A 
ATOM     41  N   UNL     1       0.351  -7.084  -9.719  1.00  0.00    -0.354 N 
ATOM     42  C   UNL     1       1.775  -5.561 -13.490  1.00  0.00     0.074 A 
ATOM     43  C   UNL     1       1.617  -4.125 -13.568  1.00  0.00     0.031 C 
ATOM     44  C   UNL     1      -0.638  -6.987  -7.717  1.00  0.00     0.029 A 
ATOM     45  C   UNL     1      -0.112  -7.912  -8.720  1.00  0.00     0.049 A 
ATOM     46  H   UNL     1       0.852  -7.410 -10.501  1.00  0.00     0.167 HD
ATOM     47  C   UNL     1       2.309  -6.322 -14.473  1.00  0.00     0.034 A 
ATOM     48  C   UNL     1      -0.152  -9.259  -8.647  1.00  0.00     0.034 A 
ATOM     49  C   UNL     1       2.482  -7.747 -14.394  1.00  0.00     0.049 A 
ATOM     50  C   UNL     1       0.410 -10.084  -9.780  1.00  0.00     0.074 A 
ATOM     51  C   UNL     1       3.075  -8.590 -15.318  1.00  0.00     0.029 A 
ATOM     52  N   UNL     1       2.041  -8.544 -13.351  1.00  0.00    -0.354 N 
ATOM     53  N   UNL     1       0.996  -9.686 -10.884  1.00  0.00    -0.248 NA
ATOM     54  C   UNL     1       0.326 -11.548  -9.647  1.00  0.00     0.031 C 
ATOM     55  C   UNL     1       2.951  -9.902 -14.855  1.00  0.00     0.029 A 
ATOM     56  C   UNL     1       2.321  -9.873 -13.623  1.00  0.00     0.049 A 
ATOM     57  H   UNL     1       1.595  -8.215 -12.537  1.00  0.00     0.167 HD
ATOM     58  C   UNL     1       1.373 -10.845 -11.558  1.00  0.00     0.074 A 
ATOM     59  C   UNL     1       0.979 -11.961 -10.725  1.00  0.00     0.031 C 
ATOM     60  C   UNL     1       1.972 -10.976 -12.767  1.00  0.00     0.034 A 
BRANCH  47  61
ATOM     61  C   UNL     1       2.755  -5.637 -15.735  1.00  0.00     0.023 A 
ATOM     62  C   UNL     1       3.941  -4.877 -15.740  1.00  0.00     0.012 A 
ATOM     63  C   UNL     1       2.050  -5.834 -16.939  1.00  0.00     0.148 A 
ATOM     64  C   UNL     1       4.412  -4.311 -16.924  1.00  0.00     0.002 A 
ATOM     65  C   UNL     1       2.549  -5.305 -18.122  1.00  0.00     0.091 A 
ATOM     66  F   UNL     1       0.913  -6.544 -16.903  1.00  0.00    -0.205 F 
ATOM     67  C   UNL     1       3.725  -4.537 -18.115  1.00  0.00     0.022 A 
BRANCH  65  68
ATOM     68  S   UNL     1       1.785  -5.606 -19.718  1.00  0.00     0.127 S 
ATOM     69  O   UNL     1       1.349  -4.262 -20.094  1.00  0.00    -0.237 OA
ATOM     70  O   UNL     1       2.908  -6.124 -20.500  1.00  0.00    -0.237 OA
ATOM     71  O   UNL     1       0.711  -6.561 -19.480  1.00  0.00    -0.744 OA
ENDBRANCH  65  68
ENDBRANCH  47  61
BRANCH  48  72
ATOM     72  C   UNL     1      -0.768  -9.938  -7.467  1.00  0.00     0.023 A 
ATOM     73  C   UNL     1       0.032 -10.722  -6.614  1.00  0.00     0.012 A 
ATOM     74  C   UNL     1      -2.151  -9.845  -7.213  1.00  0.00     0.148 A 
ATOM     75  C   UNL     1      -0.539 -11.437  -5.559  1.00  0.00     0.002 A 
ATOM     76  C   UNL     1      -2.704 -10.509  -6.125  1.00  0.00     0.091 A 
ATOM     77  F   UNL     1      -2.903  -9.115  -8.050  1.00  0.00    -0.205 F 
ATOM     78  C   UNL     1      -1.904 -11.323  -5.309  1.00  0.00     0.022 A 
BRANCH  76  79
ATOM     79  S   UNL     1      -4.428 -10.324  -5.659  1.00  0.00     0.127 S 
ATOM     80  O   UNL     1      -4.977 -11.629  -6.016  1.00  0.00    -0.237 OA
ATOM     81  O   UNL     1      -4.327 -10.069  -4.222  1.00  0.00    -0.237 OA
ATOM     82  O   UNL     1      -4.924  -9.194  -6.434  1.00  0.00    -0.744 OA
ENDBRANCH  76  79
ENDBRANCH  48  72
BRANCH  60  83
ATOM     83  C   UNL     1       2.276 -12.368 -13.261  1.00  0.00     0.023 A 
ATOM     84  C   UNL     1       1.226 -13.211 -13.678  1.00  0.00     0.012 A 
ATOM     85  C   UNL     1       3.608 -12.813 -13.389  1.00  0.00     0.148 A 
ATOM     86  C   UNL     1       1.493 -14.484 -14.180  1.00  0.00     0.002 A 
ATOM     87  C   UNL     1       3.870 -14.063 -13.939  1.00  0.00     0.091 A 
ATOM     88  F   UNL     1       4.594 -12.002 -12.979  1.00  0.00    -0.205 F 
ATOM     89  C   UNL     1       2.813 -14.905 -14.322  1.00  0.00     0.022 A 
BRANCH  87  90
ATOM     90  S   UNL     1       5.537 -14.655 -14.250  1.00  0.00     0.127 S 
ATOM     91  O   UNL     1       5.649 -15.749 -13.286  1.00  0.00    -0.237 OA
ATOM     92  O   UNL     1       5.458 -15.079 -15.648  1.00  0.00    -0.237 OA
ATOM     93  O   UNL     1       6.420 -13.522 -14.008  1.00  0.00    -0.744 OA
ENDBRANCH  87  90
ENDBRANCH  60  83
ENDBRANCH  34  35
ENDBRANCH  27  29
ENDBRANCH  26  27
ENDBRANCH  25  26
ENDBRANCH  24  25
ENDBRANCH  23  24
ENDBRANCH  22  23
ENDBRANCH  21  22
ENDBRANCH  20  21
ENDBRANCH   1  20
TORSDOF 27
