REMARK SMILES C[C@H](C(=O)OCCOCCOCCOC(=O)c1ccc(-c2c3nc(c(-c4cccc(S(=O)(=O)[O-])c4F)c4ccc([nH]4)c(-c4cccc(S(=O)(=O)[O-])c4F)c4nc(c(-c5cccc(S(=O)(=O)[O-])c5F)c5ccc2[nH]5)C=C4)C=C3)cc1)[C@H](C)[NH+]1CC[NH+](CCO)CC1
REMARK SMILES IDX 9 1 8 2 7 3 6 4 5 5 3 6 4 7 2 8 1 9 80 10 81 11 82 12 83 13
REMARK SMILES IDX 90 14 84 16 89 17 85 18 86 20 87 21 88 22 10 24 11 25 12 26
REMARK SMILES IDX 13 27 14 28 15 29 16 30 17 31 18 32 79 33 19 34 78 35 20 36
REMARK SMILES IDX 21 37 22 38 72 39 23 40 77 41 71 42 73 43 24 44 76 45 70 46
REMARK SMILES IDX 69 47 25 49 57 50 37 51 56 52 38 53 41 54 55 55 74 56 39 57
REMARK SMILES IDX 40 58 54 60 75 61 42 62 26 63 27 64 35 65 28 66 30 67 36 68
REMARK SMILES IDX 29 69 31 70 32 71 33 72 34 73 58 74 59 75 67 76 60 77 62 78
REMARK SMILES IDX 68 79 61 80 63 81 64 82 65 83 66 84 43 85 44 86 52 87 45 88
REMARK SMILES IDX 47 89 53 90 46 91 48 92 49 93 50 94 51 95
REMARK H PARENT 82 15 85 19 88 23 73 48 41 59
REMARK Flexibility Score: inf
ROOT
ATOM      1  C   UNL     1       1.833   0.094   1.417  1.00  0.00     0.188 C 
ENDROOT
BRANCH   1   2
ATOM      2  O   UNL     1       2.222   0.698   2.644  1.00  0.00    -0.376 OA
BRANCH   2   3
ATOM      3  C   UNL     1       2.262   2.115   2.647  1.00  0.00     0.202 C 
BRANCH   3   4
ATOM      4  C   UNL     1       0.885   2.774   2.753  1.00  0.00     0.261 C 
BRANCH   4   5
ATOM      5  O   UNL     1      -0.095   2.357   1.789  1.00  0.00    -0.463 OA
BRANCH   5   6
ATOM      6  C   UNL     1       0.128   2.679   0.489  1.00  0.00     0.314 C 
ATOM      7  O   UNL     1       1.131   3.250   0.087  1.00  0.00    -0.252 OA
BRANCH   6   8
ATOM      8  C   UNL     1      -1.097   2.351  -0.359  1.00  0.00     0.154 C 
ATOM      9  C   UNL     1      -1.599   3.736  -0.779  1.00  0.00     0.026 C 
BRANCH   8  10
ATOM     10  C   UNL     1      -0.855   1.214  -1.423  1.00  0.00     0.195 C 
ATOM     11  C   UNL     1       0.523   1.228  -2.104  1.00  0.00     0.076 C 
BRANCH  10  12
ATOM     12  N   UNL     1      -1.855   0.978  -2.460  1.00  0.00    -0.323 N 
ATOM     13  C   UNL     1      -2.663  -0.232  -2.508  1.00  0.00     0.324 C 
ATOM     14  C   UNL     1      -2.332   2.021  -3.336  1.00  0.00     0.324 C 
ATOM     15  H   UNL     1      -0.920   0.732  -2.785  1.00  0.00     0.348 HD
ATOM     16  C   UNL     1      -4.194   0.031  -2.401  1.00  0.00     0.324 C 
ATOM     17  C   UNL     1      -3.776   2.389  -2.953  1.00  0.00     0.324 C 
ATOM     18  N   UNL     1      -4.721   1.274  -2.978  1.00  0.00    -0.324 N 
ATOM     19  H   UNL     1      -5.444   1.497  -2.294  1.00  0.00     0.348 HD
BRANCH  18  20
ATOM     20  C   UNL     1      -5.565   1.205  -4.167  1.00  0.00     0.291 C 
BRANCH  20  21
ATOM     21  C   UNL     1      -4.886   1.074  -5.537  1.00  0.00     0.217 C 
BRANCH  21  22
ATOM     22  O   UNL     1      -4.502  -0.267  -5.792  1.00  0.00    -0.391 OA
ATOM     23  H   UNL     1      -3.869  -0.557  -5.116  1.00  0.00     0.210 HD
ENDBRANCH  21  22
ENDBRANCH  20  21
ENDBRANCH  18  20
ENDBRANCH  10  12
ENDBRANCH   8  10
ENDBRANCH   6   8
ENDBRANCH   5   6
ENDBRANCH   4   5
ENDBRANCH   3   4
ENDBRANCH   2   3
ENDBRANCH   1   2
BRANCH   1  24
ATOM     24  C   UNL     1       0.468  -0.613   1.515  1.00  0.00     0.188 C 
BRANCH  24  25
ATOM     25  O   UNL     1       0.118  -1.380   2.664  1.00  0.00    -0.376 OA
BRANCH  25  26
ATOM     26  C   UNL     1       1.141  -1.801   3.547  1.00  0.00     0.202 C 
BRANCH  26  27
ATOM     27  C   UNL     1       2.063  -2.922   3.054  1.00  0.00     0.261 C 
BRANCH  27  28
ATOM     28  O   UNL     1       2.424  -2.867   1.665  1.00  0.00    -0.460 OA
BRANCH  28  29
ATOM     29  C   UNL     1       1.590  -3.518   0.818  1.00  0.00     0.338 C 
ATOM     30  O   UNL     1       0.591  -4.153   1.124  1.00  0.00    -0.246 OA
BRANCH  29  31
ATOM     31  C   UNL     1       1.980  -3.252  -0.589  1.00  0.00     0.060 A 
ATOM     32  C   UNL     1       0.968  -2.993  -1.524  1.00  0.00     0.016 A 
ATOM     33  C   UNL     1       3.312  -3.314  -1.005  1.00  0.00     0.016 A 
ATOM     34  C   UNL     1       1.278  -2.843  -2.880  1.00  0.00     0.010 A 
ATOM     35  C   UNL     1       3.620  -3.181  -2.365  1.00  0.00     0.010 A 
ATOM     36  C   UNL     1       2.602  -2.981  -3.316  1.00  0.00    -0.014 A 
BRANCH  36  37
ATOM     37  C   UNL     1       2.907  -3.090  -4.767  1.00  0.00     0.031 A 
ATOM     38  C   UNL     1       3.038  -4.459  -5.382  1.00  0.00     0.074 A 
ATOM     39  C   UNL     1       3.093  -1.999  -5.534  1.00  0.00     0.049 A 
ATOM     40  N   UNL     1       3.333  -4.792  -6.612  1.00  0.00    -0.248 NA
ATOM     41  C   UNL     1       2.807  -5.604  -4.487  1.00  0.00     0.031 C 
ATOM     42  C   UNL     1       3.000  -0.616  -5.075  1.00  0.00     0.029 A 
ATOM     43  N   UNL     1       3.434  -1.893  -6.861  1.00  0.00    -0.354 N 
ATOM     44  C   UNL     1       3.341  -6.182  -6.638  1.00  0.00     0.074 A 
ATOM     45  C   UNL     1       3.036  -6.629  -5.295  1.00  0.00     0.031 C 
ATOM     46  C   UNL     1       3.314   0.202  -6.095  1.00  0.00     0.029 A 
ATOM     47  C   UNL     1       3.651  -0.599  -7.272  1.00  0.00     0.049 A 
ATOM     48  H   UNL     1       3.515  -2.670  -7.461  1.00  0.00     0.167 HD
ATOM     49  C   UNL     1       3.566  -7.015  -7.682  1.00  0.00     0.034 A 
ATOM     50  C   UNL     1       4.093  -0.117  -8.453  1.00  0.00     0.034 A 
ATOM     51  C   UNL     1       3.876  -6.582  -9.018  1.00  0.00     0.049 A 
ATOM     52  C   UNL     1       4.381  -1.067  -9.591  1.00  0.00     0.074 A 
ATOM     53  C   UNL     1       4.084  -7.358 -10.146  1.00  0.00     0.029 A 
ATOM     54  N   UNL     1       4.045  -5.263  -9.405  1.00  0.00    -0.354 N 
ATOM     55  N   UNL     1       4.255  -2.371  -9.634  1.00  0.00    -0.248 NA
ATOM     56  C   UNL     1       4.841  -0.471 -10.856  1.00  0.00     0.031 C 
ATOM     57  C   UNL     1       4.413  -6.509 -11.207  1.00  0.00     0.029 A 
ATOM     58  C   UNL     1       4.371  -5.202 -10.750  1.00  0.00     0.049 A 
ATOM     59  H   UNL     1       3.947  -4.484  -8.812  1.00  0.00     0.167 HD
ATOM     60  C   UNL     1       4.580  -2.745 -10.935  1.00  0.00     0.074 A 
ATOM     61  C   UNL     1       4.891  -1.529 -11.655  1.00  0.00     0.031 C 
ATOM     62  C   UNL     1       4.625  -3.987 -11.481  1.00  0.00     0.034 A 
BRANCH  49  63
ATOM     63  C   UNL     1       3.465  -8.495  -7.421  1.00  0.00     0.023 A 
ATOM     64  C   UNL     1       2.200  -9.079  -7.207  1.00  0.00     0.012 A 
ATOM     65  C   UNL     1       4.611  -9.314  -7.437  1.00  0.00     0.148 A 
ATOM     66  C   UNL     1       2.080 -10.448  -6.976  1.00  0.00     0.002 A 
ATOM     67  C   UNL     1       4.478 -10.685  -7.251  1.00  0.00     0.091 A 
ATOM     68  F   UNL     1       5.807  -8.737  -7.623  1.00  0.00    -0.205 F 
ATOM     69  C   UNL     1       3.216 -11.252  -7.008  1.00  0.00     0.022 A 
BRANCH  67  70
ATOM     70  S   UNL     1       5.871 -11.814  -7.350  1.00  0.00     0.127 S 
ATOM     71  O   UNL     1       6.026 -12.215  -5.953  1.00  0.00    -0.237 OA
ATOM     72  O   UNL     1       5.356 -12.862  -8.232  1.00  0.00    -0.237 OA
ATOM     73  O   UNL     1       6.975 -11.044  -7.905  1.00  0.00    -0.744 OA
ENDBRANCH  67  70
ENDBRANCH  49  63
BRANCH  50  74
ATOM     74  C   UNL     1       4.273   1.352  -8.638  1.00  0.00     0.023 A 
ATOM     75  C   UNL     1       3.423   2.053  -9.516  1.00  0.00     0.012 A 
ATOM     76  C   UNL     1       5.288   2.053  -7.959  1.00  0.00     0.148 A 
ATOM     77  C   UNL     1       3.603   3.419  -9.740  1.00  0.00     0.002 A 
ATOM     78  C   UNL     1       5.427   3.424  -8.145  1.00  0.00     0.091 A 
ATOM     79  F   UNL     1       6.098   1.364  -7.142  1.00  0.00    -0.205 F 
ATOM     80  C   UNL     1       4.598   4.105  -9.049  1.00  0.00     0.022 A 
BRANCH  78  81
ATOM     81  S   UNL     1       6.602   4.412  -7.213  1.00  0.00     0.127 S 
ATOM     82  O   UNL     1       7.540   4.822  -8.255  1.00  0.00    -0.237 OA
ATOM     83  O   UNL     1       5.748   5.482  -6.696  1.00  0.00    -0.237 OA
ATOM     84  O   UNL     1       7.142   3.525  -6.192  1.00  0.00    -0.744 OA
ENDBRANCH  78  81
ENDBRANCH  50  74
BRANCH  62  85
ATOM     85  C   UNL     1       4.981  -4.110 -12.943  1.00  0.00     0.023 A 
ATOM     86  C   UNL     1       6.302  -3.872 -13.371  1.00  0.00     0.012 A 
ATOM     87  C   UNL     1       4.022  -4.545 -13.881  1.00  0.00     0.148 A 
ATOM     88  C   UNL     1       6.655  -4.032 -14.712  1.00  0.00     0.002 A 
ATOM     89  C   UNL     1       4.392  -4.751 -15.205  1.00  0.00     0.091 A 
ATOM     90  F   UNL     1       2.765  -4.752 -13.461  1.00  0.00    -0.205 F 
ATOM     91  C   UNL     1       5.705  -4.482 -15.625  1.00  0.00     0.022 A 
BRANCH  89  92
ATOM     92  S   UNL     1       3.263  -5.422 -16.432  1.00  0.00     0.127 S 
ATOM     93  O   UNL     1       3.012  -4.255 -17.276  1.00  0.00    -0.237 OA
ATOM     94  O   UNL     1       4.072  -6.466 -17.061  1.00  0.00    -0.237 OA
ATOM     95  O   UNL     1       2.110  -5.915 -15.691  1.00  0.00    -0.744 OA
ENDBRANCH  89  92
ENDBRANCH  62  85
ENDBRANCH  36  37
ENDBRANCH  29  31
ENDBRANCH  28  29
ENDBRANCH  27  28
ENDBRANCH  26  27
ENDBRANCH  25  26
ENDBRANCH  24  25
ENDBRANCH   1  24
TORSDOF 25
