REMARK SMILES COc1cccc(C2=NN3[C@@H](c4ccc(OC)c(OC)c4C(=O)OCCOCCOCCOC(=O)c4ccc(-c5c6nc(c(-c7cccc(S(=O)(=O)[O-])c7F)c7ccc([nH]7)c(-c7cccc(S(=O)(=O)[O-])c7F)c7nc(c(-c8cccc(S(=O)(=O)[O-])c8F)c8ccc5[nH]8)C=C7)C=C6)cc4)Oc4c(OC)cccc4[C@@H]3C2)c1
REMARK SMILES IDX 28 1 27 2 26 3 25 4 24 5 22 6 23 7 21 8 12 9 13 10 14 11
REMARK SMILES IDX 18 12 15 13 11 14 8 15 9 16 109 17 10 18 108 19 107 20 99 21
REMARK SMILES IDX 100 22 106 23 101 24 105 25 104 26 7 27 3 28 4 29 110 30
REMARK SMILES IDX 5 31 6 32 2 33 1 34 102 35 103 36 19 37 20 38 16 39 17 40
REMARK SMILES IDX 29 41 30 42 31 43 32 44 33 45 34 46 35 47 36 48 37 49 98 50
REMARK SMILES IDX 38 51 97 52 39 53 40 54 41 55 91 56 42 57 96 58 90 59 92 60
REMARK SMILES IDX 43 61 95 62 89 63 88 64 44 66 76 67 56 68 75 69 57 70 60 71
REMARK SMILES IDX 74 72 93 73 58 74 59 75 73 77 94 78 61 79 45 80 46 81 54 82
REMARK SMILES IDX 47 83 49 84 55 85 48 86 50 87 51 88 52 89 53 90 77 91 78 92
REMARK SMILES IDX 86 93 79 94 81 95 87 96 80 97 82 98 83 99 84 100 85 101
REMARK SMILES IDX 62 102 63 103 71 104 64 105 66 106 72 107 65 108 67 109
REMARK SMILES IDX 68 110 69 111 70 112
REMARK H PARENT 92 65 60 76
REMARK Flexibility Score: inf
ROOT
ATOM      1  C   UNL     1       6.799  -3.938   4.461  1.00  0.00     0.188 C 
ENDROOT
BRANCH   1   2
ATOM      2  O   UNL     1       5.481  -4.241   4.882  1.00  0.00    -0.376 OA
BRANCH   2   3
ATOM      3  C   UNL     1       5.200  -4.273   6.269  1.00  0.00     0.202 C 
BRANCH   3   4
ATOM      4  C   UNL     1       5.573  -3.069   7.147  1.00  0.00     0.261 C 
BRANCH   4   5
ATOM      5  O   UNL     1       6.641  -2.291   6.606  1.00  0.00    -0.460 OA
BRANCH   5   6
ATOM      6  C   UNL     1       7.710  -1.978   7.372  1.00  0.00     0.342 C 
ATOM      7  O   UNL     1       7.936  -2.399   8.480  1.00  0.00    -0.246 OA
BRANCH   6   8
ATOM      8  C   UNL     1       8.614  -1.112   6.535  1.00  0.00     0.114 A 
ATOM      9  C   UNL     1       8.127   0.069   5.872  1.00  0.00     0.033 A 
ATOM     10  C   UNL     1       9.065   0.908   5.259  1.00  0.00     0.014 A 
ATOM     11  C   UNL     1      10.426   0.587   5.281  1.00  0.00     0.051 A 
ATOM     12  C   UNL     1       9.984  -1.467   6.476  1.00  0.00     0.175 A 
ATOM     13  C   UNL     1      10.897  -0.595   5.867  1.00  0.00     0.161 A 
BRANCH   9  14
ATOM     14  C   UNL     1       6.692   0.541   6.073  1.00  0.00     0.321 C 
ATOM     15  C   UNL     1       4.122   1.947   4.116  1.00  0.00     0.070 C 
ATOM     16  N   UNL     1       5.005   0.985   4.215  1.00  0.00    -0.178 NA
ATOM     17  C   UNL     1       4.587   3.217   4.781  1.00  0.00     0.090 C 
ATOM     18  N   UNL     1       6.035   1.488   5.078  1.00  0.00    -0.246 NA
ATOM     19  C   UNL     1       5.429   2.600   5.869  1.00  0.00     0.146 C 
ATOM     20  C   UNL     1       4.713   2.013   7.083  1.00  0.00     0.023 A 
ATOM     21  O   UNL     1       6.839   1.120   7.400  1.00  0.00    -0.460 OA
ATOM     22  C   UNL     1       5.571   1.267   7.889  1.00  0.00     0.169 A 
ATOM     23  C   UNL     1       3.358   1.938   7.380  1.00  0.00     0.010 A 
ATOM     24  C   UNL     1       5.178   0.529   8.998  1.00  0.00     0.161 A 
ATOM     25  C   UNL     1       2.917   1.145   8.455  1.00  0.00     0.004 A 
ATOM     26  C   UNL     1       3.824   0.456   9.274  1.00  0.00     0.050 A 
BRANCH  15  27
ATOM     27  C   UNL     1       2.753   1.915   3.496  1.00  0.00     0.001 A 
ATOM     28  C   UNL     1       1.102   1.281   1.829  1.00  0.00     0.119 A 
ATOM     29  C   UNL     1       0.145   2.092   2.454  1.00  0.00     0.046 A 
ATOM     30  C   UNL     1       2.406   1.166   2.360  1.00  0.00     0.056 A 
ATOM     31  C   UNL     1       0.464   2.800   3.595  1.00  0.00     0.005 A 
ATOM     32  C   UNL     1       1.758   2.718   4.095  1.00  0.00     0.010 A 
BRANCH  28  33
ATOM     33  O   UNL     1       0.604   0.721   0.685  1.00  0.00    -0.497 OA
ATOM     34  C   UNL     1       1.324  -0.340   0.087  1.00  0.00     0.278 C 
ENDBRANCH  28  33
ENDBRANCH  15  27
BRANCH  24  35
ATOM     35  O   UNL     1       6.153  -0.203   9.603  1.00  0.00    -0.493 OA
ATOM     36  C   UNL     1       6.029  -0.376  11.003  1.00  0.00     0.278 C 
ENDBRANCH  24  35
ENDBRANCH   9  14
BRANCH  12  37
ATOM     37  O   UNL     1      10.450  -2.595   7.103  1.00  0.00    -0.492 OA
ATOM     38  C   UNL     1      10.127  -3.793   6.392  1.00  0.00     0.278 C 
ENDBRANCH  12  37
BRANCH  13  39
ATOM     39  O   UNL     1      12.263  -0.702   5.810  1.00  0.00    -0.493 OA
ATOM     40  C   UNL     1      12.846  -1.996   5.885  1.00  0.00     0.278 C 
ENDBRANCH  13  39
ENDBRANCH   6   8
ENDBRANCH   5   6
ENDBRANCH   4   5
ENDBRANCH   3   4
ENDBRANCH   2   3
ENDBRANCH   1   2
BRANCH   1  41
ATOM     41  C   UNL     1       6.883  -2.571   3.750  1.00  0.00     0.188 C 
BRANCH  41  42
ATOM     42  O   UNL     1       5.736  -1.963   3.178  1.00  0.00    -0.376 OA
BRANCH  42  43
ATOM     43  C   UNL     1       4.713  -2.768   2.631  1.00  0.00     0.202 C 
BRANCH  43  44
ATOM     44  C   UNL     1       5.067  -3.639   1.422  1.00  0.00     0.261 C 
BRANCH  44  45
ATOM     45  O   UNL     1       6.333  -4.312   1.494  1.00  0.00    -0.460 OA
BRANCH  45  46
ATOM     46  C   UNL     1       7.353  -3.713   0.826  1.00  0.00     0.338 C 
ATOM     47  O   UNL     1       7.294  -2.701   0.148  1.00  0.00    -0.246 OA
BRANCH  46  48
ATOM     48  C   UNL     1       8.627  -4.386   1.169  1.00  0.00     0.060 A 
ATOM     49  C   UNL     1       9.692  -3.613   1.660  1.00  0.00     0.016 A 
ATOM     50  C   UNL     1       8.789  -5.757   0.968  1.00  0.00     0.016 A 
ATOM     51  C   UNL     1      10.928  -4.203   1.928  1.00  0.00     0.010 A 
ATOM     52  C   UNL     1      10.036  -6.341   1.207  1.00  0.00     0.010 A 
ATOM     53  C   UNL     1      11.119  -5.562   1.656  1.00  0.00    -0.014 A 
BRANCH  53  54
ATOM     54  C   UNL     1      12.487  -6.136   1.648  1.00  0.00     0.031 A 
ATOM     55  C   UNL     1      13.195  -6.273   0.327  1.00  0.00     0.074 A 
ATOM     56  C   UNL     1      13.078  -6.562   2.778  1.00  0.00     0.049 A 
ATOM     57  N   UNL     1      14.342  -6.837   0.055  1.00  0.00    -0.248 NA
ATOM     58  C   UNL     1      12.510  -5.704  -0.847  1.00  0.00     0.031 C 
ATOM     59  C   UNL     1      12.502  -6.476   4.118  1.00  0.00     0.029 A 
ATOM     60  N   UNL     1      14.285  -7.190   2.969  1.00  0.00    -0.354 N 
ATOM     61  C   UNL     1      14.498  -6.731  -1.322  1.00  0.00     0.074 A 
ATOM     62  C   UNL     1      13.329  -6.046  -1.830  1.00  0.00     0.031 C 
ATOM     63  C   UNL     1      13.336  -7.070   4.989  1.00  0.00     0.029 A 
ATOM     64  C   UNL     1      14.487  -7.607   4.263  1.00  0.00     0.049 A 
ATOM     65  H   UNL     1      14.941  -7.328   2.248  1.00  0.00     0.167 HD
ATOM     66  C   UNL     1      15.523  -7.159  -2.094  1.00  0.00     0.034 A 
ATOM     67  C   UNL     1      15.467  -8.368   4.792  1.00  0.00     0.034 A 
ATOM     68  C   UNL     1      16.691  -7.824  -1.587  1.00  0.00     0.049 A 
ATOM     69  C   UNL     1      16.587  -8.855   3.905  1.00  0.00     0.074 A 
ATOM     70  C   UNL     1      17.808  -8.248  -2.284  1.00  0.00     0.029 A 
ATOM     71  N   UNL     1      16.888  -8.178  -0.262  1.00  0.00    -0.354 N 
ATOM     72  N   UNL     1      16.777  -8.649   2.625  1.00  0.00    -0.248 NA
ATOM     73  C   UNL     1      17.643  -9.656   4.544  1.00  0.00     0.031 C 
ATOM     74  C   UNL     1      18.665  -8.893  -1.386  1.00  0.00     0.029 A 
ATOM     75  C   UNL     1      18.101  -8.829  -0.122  1.00  0.00     0.049 A 
ATOM     76  H   UNL     1      16.258  -7.993   0.472  1.00  0.00     0.167 HD
ATOM     77  C   UNL     1      17.992  -9.255   2.315  1.00  0.00     0.074 A 
ATOM     78  C   UNL     1      18.500  -9.825   3.545  1.00  0.00     0.031 C 
ATOM     79  C   UNL     1      18.625  -9.339   1.119  1.00  0.00     0.034 A 
BRANCH  66  80
ATOM     80  C   UNL     1      15.433  -6.917  -3.577  1.00  0.00     0.023 A 
ATOM     81  C   UNL     1      15.592  -5.613  -4.087  1.00  0.00     0.012 A 
ATOM     82  C   UNL     1      15.253  -7.992  -4.469  1.00  0.00     0.148 A 
ATOM     83  C   UNL     1      15.544  -5.379  -5.461  1.00  0.00     0.002 A 
ATOM     84  C   UNL     1      15.254  -7.758  -5.838  1.00  0.00     0.091 A 
ATOM     85  F   UNL     1      15.081  -9.221  -3.961  1.00  0.00    -0.205 F 
ATOM     86  C   UNL     1      15.388  -6.451  -6.335  1.00  0.00     0.022 A 
BRANCH  84  87
ATOM     87  S   UNL     1      15.142  -9.081  -7.047  1.00  0.00     0.127 S 
ATOM     88  O   UNL     1      13.817  -8.845  -7.620  1.00  0.00    -0.237 OA
ATOM     89  O   UNL     1      16.257  -8.774  -7.942  1.00  0.00    -0.237 OA
ATOM     90  O   UNL     1      15.284 -10.323  -6.300  1.00  0.00    -0.744 OA
ENDBRANCH  84  87
ENDBRANCH  66  80
BRANCH  67  91
ATOM     91  C   UNL     1      15.445  -8.717   6.241  1.00  0.00     0.023 A 
ATOM     92  C   UNL     1      16.424  -8.184   7.103  1.00  0.00     0.012 A 
ATOM     93  C   UNL     1      14.461  -9.576   6.768  1.00  0.00     0.148 A 
ATOM     94  C   UNL     1      16.444  -8.528   8.455  1.00  0.00     0.002 A 
ATOM     95  C   UNL     1      14.453  -9.870   8.127  1.00  0.00     0.091 A 
ATOM     96  F   UNL     1      13.550 -10.087   5.929  1.00  0.00    -0.205 F 
ATOM     97  C   UNL     1      15.454  -9.362   8.969  1.00  0.00     0.022 A 
BRANCH  95  98
ATOM     98  S   UNL     1      13.147 -10.834   8.895  1.00  0.00     0.127 S 
ATOM     99  O   UNL     1      13.851 -12.065   9.247  1.00  0.00    -0.237 OA
ATOM    100  O   UNL     1      12.778  -9.989  10.031  1.00  0.00    -0.237 OA
ATOM    101  O   UNL     1      12.108 -10.967   7.883  1.00  0.00    -0.744 OA
ENDBRANCH  95  98
ENDBRANCH  67  91
BRANCH  79 102
ATOM    102  C   UNL     1      19.972 -10.017   1.075  1.00  0.00     0.023 A 
ATOM    103  C   UNL     1      20.066 -11.416   1.204  1.00  0.00     0.012 A 
ATOM    104  C   UNL     1      21.136  -9.267   0.810  1.00  0.00     0.148 A 
ATOM    105  C   UNL     1      21.302 -12.055   1.101  1.00  0.00     0.002 A 
ATOM    106  C   UNL     1      22.355  -9.916   0.657  1.00  0.00     0.091 A 
ATOM    107  F   UNL     1      21.028  -7.934   0.705  1.00  0.00    -0.205 F 
ATOM    108  C   UNL     1      22.442 -11.308   0.815  1.00  0.00     0.022 A 
BRANCH 106 109
ATOM    109  S   UNL     1      23.857  -9.049   0.188  1.00  0.00     0.127 S 
ATOM    110  O   UNL     1      24.637  -9.114   1.423  1.00  0.00    -0.237 OA
ATOM    111  O   UNL     1      24.369  -9.882  -0.901  1.00  0.00    -0.237 OA
ATOM    112  O   UNL     1      23.442  -7.712  -0.218  1.00  0.00    -0.744 OA
ENDBRANCH 106 109
ENDBRANCH  79 102
ENDBRANCH  53  54
ENDBRANCH  46  48
ENDBRANCH  45  46
ENDBRANCH  44  45
ENDBRANCH  43  44
ENDBRANCH  42  43
ENDBRANCH  41  42
ENDBRANCH   1  41
TORSDOF 26
