REMARK SMILES CC(C)(C)[C@@H]1CC(C(=O)OCCOCCOCCOC(=O)c2ccc(-c3c4nc(c(-c5cccc(S(=O)(=O)[O-])c5F)c5ccc([nH]5)c(-c5cccc(S(=O)(=O)[O-])c5F)c5nc(c(-c6cccc(S(=O)(=O)[O-])c6F)c6ccc3[nH]6)C=C5)C=C4)cc2)C[C@@H](C(C)(C)C)C1
REMARK SMILES IDX 15 1 14 2 13 3 12 4 11 5 10 6 8 7 9 8 7 9 5 10 6 11 91 12
REMARK SMILES IDX 86 13 85 14 2 15 1 16 3 17 4 18 87 19 88 20 89 21 90 22
REMARK SMILES IDX 16 23 17 24 18 25 19 26 20 27 21 28 22 29 23 30 84 31 24 32
REMARK SMILES IDX 83 33 25 34 26 35 27 36 77 37 28 38 82 39 76 40 78 41 29 42
REMARK SMILES IDX 81 43 75 44 74 45 30 47 62 48 42 49 61 50 43 51 46 52 60 53
REMARK SMILES IDX 79 54 44 55 45 56 59 58 80 59 47 60 31 61 32 62 40 63 33 64
REMARK SMILES IDX 35 65 41 66 34 67 36 68 37 69 38 70 39 71 63 72 64 73 72 74
REMARK SMILES IDX 65 75 67 76 73 77 66 78 68 79 69 80 70 81 71 82 48 83 49 84
REMARK SMILES IDX 57 85 50 86 52 87 58 88 51 89 53 90 54 91 55 92 56 93
REMARK H PARENT 78 46 46 57
REMARK Flexibility Score: inf
ROOT
ATOM      1  C   UNL     1       2.902  -5.780  -3.287  1.00  0.00     0.188 C 
ENDROOT
BRANCH   1   2
ATOM      2  C   UNL     1       3.432  -5.239  -4.617  1.00  0.00     0.188 C 
BRANCH   2   3
ATOM      3  O   UNL     1       4.737  -5.670  -4.992  1.00  0.00    -0.376 OA
BRANCH   3   4
ATOM      4  C   UNL     1       5.791  -5.409  -4.068  1.00  0.00     0.202 C 
BRANCH   4   5
ATOM      5  C   UNL     1       6.089  -3.932  -3.769  1.00  0.00     0.261 C 
BRANCH   5   6
ATOM      6  O   UNL     1       4.947  -3.188  -3.291  1.00  0.00    -0.463 OA
BRANCH   6   7
ATOM      7  C   UNL     1       4.652  -2.063  -3.997  1.00  0.00     0.309 C 
ATOM      8  O   UNL     1       5.373  -1.601  -4.875  1.00  0.00    -0.252 OA
BRANCH   7   9
ATOM      9  C   UNL     1       3.257  -1.499  -3.695  1.00  0.00     0.100 C 
ATOM     10  C   UNL     1       1.365  -0.981  -2.046  1.00  0.00    -0.005 C 
ATOM     11  C   UNL     1       2.744  -1.668  -2.250  1.00  0.00     0.019 C 
ATOM     12  C   UNL     1       1.459   0.496  -2.478  1.00  0.00     0.008 C 
ATOM     13  C   UNL     1       1.956   0.743  -3.912  1.00  0.00    -0.005 C 
ATOM     14  C   UNL     1       3.268  -0.023  -4.122  1.00  0.00     0.019 C 
BRANCH  10  15
ATOM     15  C   UNL     1       0.706  -1.131  -0.614  1.00  0.00    -0.035 C 
ATOM     16  C   UNL     1       1.173  -0.052   0.385  1.00  0.00     0.011 C 
ATOM     17  C   UNL     1       0.986  -2.509   0.011  1.00  0.00     0.011 C 
ATOM     18  C   UNL     1      -0.832  -0.998  -0.759  1.00  0.00     0.011 C 
ENDBRANCH  10  15
BRANCH  13  19
ATOM     19  C   UNL     1       0.893   0.652  -5.076  1.00  0.00    -0.035 C 
ATOM     20  C   UNL     1       1.493   1.271  -6.364  1.00  0.00     0.011 C 
ATOM     21  C   UNL     1       0.420  -0.763  -5.443  1.00  0.00     0.011 C 
ATOM     22  C   UNL     1      -0.355   1.488  -4.713  1.00  0.00     0.011 C 
ENDBRANCH  13  19
ENDBRANCH   7   9
ENDBRANCH   6   7
ENDBRANCH   5   6
ENDBRANCH   4   5
ENDBRANCH   3   4
ENDBRANCH   2   3
ENDBRANCH   1   2
BRANCH   1  23
ATOM     23  O   UNL     1       3.766  -5.580  -2.172  1.00  0.00    -0.376 OA
BRANCH  23  24
ATOM     24  C   UNL     1       3.296  -6.056  -0.909  1.00  0.00     0.202 C 
BRANCH  24  25
ATOM     25  C   UNL     1       2.830  -7.524  -0.860  1.00  0.00     0.261 C 
BRANCH  25  26
ATOM     26  O   UNL     1       1.691  -7.829  -1.689  1.00  0.00    -0.460 OA
BRANCH  26  27
ATOM     27  C   UNL     1       0.587  -7.058  -1.548  1.00  0.00     0.338 C 
ATOM     28  O   UNL     1       0.350  -6.298  -0.623  1.00  0.00    -0.246 OA
BRANCH  27  29
ATOM     29  C   UNL     1      -0.171  -7.085  -2.827  1.00  0.00     0.060 A 
ATOM     30  C   UNL     1      -0.771  -5.895  -3.266  1.00  0.00     0.016 A 
ATOM     31  C   UNL     1      -0.236  -8.232  -3.626  1.00  0.00     0.016 A 
ATOM     32  C   UNL     1      -1.479  -5.865  -4.471  1.00  0.00     0.010 A 
ATOM     33  C   UNL     1      -0.950  -8.202  -4.828  1.00  0.00     0.010 A 
ATOM     34  C   UNL     1      -1.609  -7.030  -5.238  1.00  0.00    -0.014 A 
BRANCH  34  35
ATOM     35  C   UNL     1      -2.600  -7.085  -6.343  1.00  0.00     0.031 A 
ATOM     36  C   UNL     1      -3.952  -7.682  -6.054  1.00  0.00     0.074 A 
ATOM     37  C   UNL     1      -2.322  -6.634  -7.579  1.00  0.00     0.049 A 
ATOM     38  N   UNL     1      -4.969  -7.862  -6.855  1.00  0.00    -0.248 NA
ATOM     39  C   UNL     1      -4.183  -8.142  -4.674  1.00  0.00     0.031 C 
ATOM     40  C   UNL     1      -1.058  -6.038  -8.002  1.00  0.00     0.029 A 
ATOM     41  N   UNL     1      -3.092  -6.638  -8.719  1.00  0.00    -0.354 N 
ATOM     42  C   UNL     1      -5.948  -8.482  -6.088  1.00  0.00     0.074 A 
ATOM     43  C   UNL     1      -5.400  -8.657  -4.761  1.00  0.00     0.031 C 
ATOM     44  C   UNL     1      -1.126  -5.763  -9.317  1.00  0.00     0.029 A 
ATOM     45  C   UNL     1      -2.430  -6.181  -9.833  1.00  0.00     0.049 A 
ATOM     46  H   UNL     1      -4.029  -6.940  -8.735  1.00  0.00     0.167 HD
ATOM     47  C   UNL     1      -7.198  -8.859  -6.445  1.00  0.00     0.034 A 
ATOM     48  C   UNL     1      -2.821  -6.127 -11.124  1.00  0.00     0.034 A 
ATOM     49  C   UNL     1      -7.759  -8.675  -7.755  1.00  0.00     0.049 A 
ATOM     50  C   UNL     1      -4.211  -6.575 -11.505  1.00  0.00     0.074 A 
ATOM     51  C   UNL     1      -9.038  -8.972  -8.189  1.00  0.00     0.029 A 
ATOM     52  N   UNL     1      -7.073  -8.168  -8.846  1.00  0.00    -0.354 N 
ATOM     53  N   UNL     1      -5.174  -7.028 -10.739  1.00  0.00    -0.248 NA
ATOM     54  C   UNL     1      -4.580  -6.473 -12.926  1.00  0.00     0.031 C 
ATOM     55  C   UNL     1      -9.116  -8.674  -9.554  1.00  0.00     0.029 A 
ATOM     56  C   UNL     1      -7.895  -8.161  -9.960  1.00  0.00     0.049 A 
ATOM     57  H   UNL     1      -6.138  -7.859  -8.832  1.00  0.00     0.167 HD
ATOM     58  C   UNL     1      -6.268  -7.232 -11.576  1.00  0.00     0.074 A 
ATOM     59  C   UNL     1      -5.856  -6.836 -12.906  1.00  0.00     0.031 C 
ATOM     60  C   UNL     1      -7.498  -7.716 -11.271  1.00  0.00     0.034 A 
BRANCH  47  61
ATOM     61  C   UNL     1      -8.054  -9.499  -5.386  1.00  0.00     0.023 A 
ATOM     62  C   UNL     1      -8.580  -8.711  -4.341  1.00  0.00     0.012 A 
ATOM     63  C   UNL     1      -8.365 -10.871  -5.444  1.00  0.00     0.148 A 
ATOM     64  C   UNL     1      -9.373  -9.287  -3.350  1.00  0.00     0.002 A 
ATOM     65  C   UNL     1      -9.193 -11.428  -4.478  1.00  0.00     0.091 A 
ATOM     66  F   UNL     1      -7.831 -11.607  -6.429  1.00  0.00    -0.205 F 
ATOM     67  C   UNL     1      -9.687 -10.642  -3.424  1.00  0.00     0.022 A 
BRANCH  65  68
ATOM     68  S   UNL     1      -9.715 -13.145  -4.532  1.00  0.00     0.127 S 
ATOM     69  O   UNL     1      -8.916 -13.730  -3.457  1.00  0.00    -0.237 OA
ATOM     70  O   UNL     1     -11.146 -13.042  -4.242  1.00  0.00    -0.237 OA
ATOM     71  O   UNL     1      -9.402 -13.615  -5.874  1.00  0.00    -0.744 OA
ENDBRANCH  65  68
ENDBRANCH  47  61
BRANCH  48  72
ATOM     72  C   UNL     1      -1.887  -5.602 -12.161  1.00  0.00     0.023 A 
ATOM     73  C   UNL     1      -2.153  -4.364 -12.777  1.00  0.00     0.012 A 
ATOM     74  C   UNL     1      -0.733  -6.320 -12.530  1.00  0.00     0.148 A 
ATOM     75  C   UNL     1      -1.299  -3.861 -13.760  1.00  0.00     0.002 A 
ATOM     76  C   UNL     1       0.141  -5.789 -13.471  1.00  0.00     0.091 A 
ATOM     77  F   UNL     1      -0.510  -7.506 -11.946  1.00  0.00    -0.205 F 
ATOM     78  C   UNL     1      -0.148  -4.567 -14.099  1.00  0.00     0.022 A 
BRANCH  76  79
ATOM     79  S   UNL     1       1.705  -6.569 -13.887  1.00  0.00     0.127 S 
ATOM     80  O   UNL     1       1.482  -6.965 -15.275  1.00  0.00    -0.237 OA
ATOM     81  O   UNL     1       2.647  -5.464 -13.704  1.00  0.00    -0.237 OA
ATOM     82  O   UNL     1       1.865  -7.662 -12.938  1.00  0.00    -0.744 OA
ENDBRANCH  76  79
ENDBRANCH  48  72
BRANCH  60  83
ATOM     83  C   UNL     1      -8.518  -7.817 -12.379  1.00  0.00     0.023 A 
ATOM     84  C   UNL     1      -8.387  -8.814 -13.366  1.00  0.00     0.012 A 
ATOM     85  C   UNL     1      -9.656  -6.984 -12.387  1.00  0.00     0.148 A 
ATOM     86  C   UNL     1      -9.356  -8.962 -14.359  1.00  0.00     0.002 A 
ATOM     87  C   UNL     1     -10.641  -7.168 -13.352  1.00  0.00     0.091 A 
ATOM     88  F   UNL     1      -9.757  -6.030 -11.450  1.00  0.00    -0.205 F 
ATOM     89  C   UNL     1     -10.487  -8.149 -14.345  1.00  0.00     0.022 A 
BRANCH  87  90
ATOM     90  S   UNL     1     -12.176  -6.234 -13.353  1.00  0.00     0.127 S 
ATOM     91  O   UNL     1     -11.982  -5.343 -14.496  1.00  0.00    -0.237 OA
ATOM     92  O   UNL     1     -13.178  -7.280 -13.558  1.00  0.00    -0.237 OA
ATOM     93  O   UNL     1     -12.247  -5.577 -12.055  1.00  0.00    -0.744 OA
ENDBRANCH  87  90
ENDBRANCH  60  83
ENDBRANCH  34  35
ENDBRANCH  27  29
ENDBRANCH  26  27
ENDBRANCH  25  26
ENDBRANCH  24  25
ENDBRANCH  23  24
ENDBRANCH   1  23
TORSDOF 22
