REMARK SMILES O=C(Nc1c(F)cc(F)cc1F)N[C@H]1C=C[C@@H](C(=O)OCCOCCOCCOC(=O)c2ccc(-c3c4nc(c(-c5cccc(S(=O)(=O)[O-])c5F)c5ccc([nH]5)c(-c5cccc(S(=O)(=O)[O-])c5F)c5nc(c(-c6cccc(S(=O)(=O)[O-])c6F)c6ccc3[nH]6)C=C5)C=C4)cc2)C1
REMARK SMILES IDX 25 1 24 2 23 3 22 4 21 5 20 6 18 7 19 8 17 9 14 10 15 11
REMARK SMILES IDX 95 12 16 13 13 14 1 15 2 16 3 17 4 20 5 21 11 22 6 23 7 24
REMARK SMILES IDX 10 25 12 26 8 27 9 28 26 29 27 30 28 31 29 32 30 33 31 34
REMARK SMILES IDX 32 35 33 36 94 37 34 38 93 39 35 40 36 41 37 42 87 43 38 44
REMARK SMILES IDX 92 45 86 46 88 47 39 48 91 49 85 50 84 51 40 53 72 54 52 55
REMARK SMILES IDX 71 56 53 57 56 58 70 59 89 60 54 61 55 62 69 64 90 65 57 66
REMARK SMILES IDX 41 67 42 68 50 69 43 70 45 71 51 72 44 73 46 74 47 75 48 76
REMARK SMILES IDX 49 77 73 78 74 79 82 80 75 81 77 82 83 83 76 84 78 85 79 86
REMARK SMILES IDX 80 87 81 88 58 89 59 90 67 91 60 92 62 93 68 94 61 95 63 96
REMARK SMILES IDX 64 97 65 98 66 99
REMARK H PARENT 3 18 13 19 88 52 56 63
REMARK Flexibility Score: inf
ROOT
ATOM      1  C   UNL     1       4.942  -2.170   5.475  1.00  0.00     0.188 C 
ENDROOT
BRANCH   1   2
ATOM      2  C   UNL     1       4.914  -3.493   6.256  1.00  0.00     0.188 C 
BRANCH   2   3
ATOM      3  O   UNL     1       6.125  -4.224   6.386  1.00  0.00    -0.376 OA
BRANCH   3   4
ATOM      4  C   UNL     1       6.894  -4.488   5.217  1.00  0.00     0.202 C 
BRANCH   4   5
ATOM      5  C   UNL     1       6.192  -4.984   3.939  1.00  0.00     0.261 C 
BRANCH   5   6
ATOM      6  O   UNL     1       5.079  -4.173   3.500  1.00  0.00    -0.463 OA
BRANCH   6   7
ATOM      7  C   UNL     1       3.983  -4.848   3.065  1.00  0.00     0.312 C 
ATOM      8  O   UNL     1       3.944  -6.070   2.947  1.00  0.00    -0.252 OA
BRANCH   7   9
ATOM      9  C   UNL     1       2.750  -3.968   2.802  1.00  0.00     0.124 C 
ATOM     10  C   UNL     1       2.061  -2.000   1.464  1.00  0.00     0.107 C 
ATOM     11  C   UNL     1       1.832  -3.275   0.735  1.00  0.00    -0.006 C 
ATOM     12  C   UNL     1       2.897  -2.445   2.671  1.00  0.00     0.048 C 
ATOM     13  C   UNL     1       2.177  -4.340   1.464  1.00  0.00    -0.014 C 
BRANCH  10  14
ATOM     14  N   UNL     1       2.813  -1.101   0.633  1.00  0.00    -0.332 N 
ATOM     15  O   UNL     1       1.074   0.158  -0.112  1.00  0.00    -0.248 OA
ATOM     16  C   UNL     1       2.281  -0.069  -0.062  1.00  0.00     0.319 C 
ATOM     17  N   UNL     1       3.143   0.829  -0.621  1.00  0.00    -0.303 N 
ATOM     18  H   UNL     1       2.700   1.622  -1.000  1.00  0.00     0.172 HD
ATOM     19  H   UNL     1       3.785  -1.245   0.565  1.00  0.00     0.165 HD
BRANCH  17  20
ATOM     20  C   UNL     1       4.548   0.842  -0.762  1.00  0.00     0.115 A 
ATOM     21  C   UNL     1       5.375  -0.285  -0.792  1.00  0.00     0.152 A 
ATOM     22  C   UNL     1       5.165   2.093  -0.893  1.00  0.00     0.152 A 
ATOM     23  F   UNL     1       4.860  -1.523  -0.780  1.00  0.00    -0.204 F 
ATOM     24  C   UNL     1       6.760  -0.177  -0.872  1.00  0.00     0.081 A 
ATOM     25  C   UNL     1       6.549   2.224  -0.965  1.00  0.00     0.081 A 
ATOM     26  F   UNL     1       4.414   3.205  -0.909  1.00  0.00    -0.204 F 
ATOM     27  C   UNL     1       7.335   1.081  -0.942  1.00  0.00     0.129 A 
ATOM     28  F   UNL     1       8.668   1.192  -1.000  1.00  0.00    -0.207 F 
ENDBRANCH  17  20
ENDBRANCH  10  14
ENDBRANCH   7   9
ENDBRANCH   6   7
ENDBRANCH   5   6
ENDBRANCH   4   5
ENDBRANCH   3   4
ENDBRANCH   2   3
ENDBRANCH   1   2
BRANCH   1  29
ATOM     29  O   UNL     1       6.151  -1.873   4.819  1.00  0.00    -0.376 OA
BRANCH  29  30
ATOM     30  C   UNL     1       7.021  -0.904   5.376  1.00  0.00     0.202 C 
BRANCH  30  31
ATOM     31  C   UNL     1       7.151  -0.631   6.889  1.00  0.00     0.261 C 
BRANCH  31  32
ATOM     32  O   UNL     1       6.035  -0.934   7.735  1.00  0.00    -0.460 OA
BRANCH  32  33
ATOM     33  C   UNL     1       5.065   0.003   7.837  1.00  0.00     0.338 C 
ATOM     34  O   UNL     1       5.028   1.083   7.261  1.00  0.00    -0.246 OA
BRANCH  33  35
ATOM     35  C   UNL     1       3.929  -0.600   8.568  1.00  0.00     0.060 A 
ATOM     36  C   UNL     1       2.707  -0.781   7.902  1.00  0.00     0.016 A 
ATOM     37  C   UNL     1       4.072  -0.998   9.898  1.00  0.00     0.016 A 
ATOM     38  C   UNL     1       1.618  -1.339   8.572  1.00  0.00     0.010 A 
ATOM     39  C   UNL     1       2.972  -1.532  10.575  1.00  0.00     0.010 A 
ATOM     40  C   UNL     1       1.732  -1.676   9.925  1.00  0.00    -0.014 A 
BRANCH  40  41
ATOM     41  C   UNL     1       0.517  -1.995  10.715  1.00  0.00     0.031 A 
ATOM     42  C   UNL     1      -0.086  -0.909  11.565  1.00  0.00     0.074 A 
ATOM     43  C   UNL     1      -0.033  -3.222  10.697  1.00  0.00     0.049 A 
ATOM     44  N   UNL     1      -1.092  -0.967  12.396  1.00  0.00    -0.248 NA
ATOM     45  C   UNL     1       0.538   0.422  11.466  1.00  0.00     0.031 C 
ATOM     46  C   UNL     1       0.444  -4.354   9.907  1.00  0.00     0.029 A 
ATOM     47  N   UNL     1      -1.103  -3.725  11.397  1.00  0.00    -0.354 N 
ATOM     48  C   UNL     1      -1.200   0.304  12.947  1.00  0.00     0.074 A 
ATOM     49  C   UNL     1      -0.153   1.111  12.361  1.00  0.00     0.031 C 
ATOM     50  C   UNL     1      -0.307  -5.432  10.193  1.00  0.00     0.029 A 
ATOM     51  C   UNL     1      -1.297  -5.074  11.209  1.00  0.00     0.049 A 
ATOM     52  H   UNL     1      -1.676  -3.174  11.978  1.00  0.00     0.167 HD
ATOM     53  C   UNL     1      -2.095   0.763  13.853  1.00  0.00     0.034 A 
ATOM     54  C   UNL     1      -2.151  -5.925  11.812  1.00  0.00     0.034 A 
ATOM     55  C   UNL     1      -3.143  -0.037  14.426  1.00  0.00     0.049 A 
ATOM     56  C   UNL     1      -3.116  -5.398  12.844  1.00  0.00     0.074 A 
ATOM     57  C   UNL     1      -4.128   0.349  15.319  1.00  0.00     0.029 A 
ATOM     58  N   UNL     1      -3.333  -1.388  14.181  1.00  0.00    -0.354 N 
ATOM     59  N   UNL     1      -3.277  -4.171  13.278  1.00  0.00    -0.248 NA
ATOM     60  C   UNL     1      -4.040  -6.370  13.449  1.00  0.00     0.031 C 
ATOM     61  C   UNL     1      -4.888  -0.778  15.644  1.00  0.00     0.029 A 
ATOM     62  C   UNL     1      -4.408  -1.855  14.917  1.00  0.00     0.049 A 
ATOM     63  H   UNL     1      -2.784  -1.934  13.573  1.00  0.00     0.167 HD
ATOM     64  C   UNL     1      -4.343  -4.216  14.171  1.00  0.00     0.074 A 
ATOM     65  C   UNL     1      -4.801  -5.589  14.204  1.00  0.00     0.031 C 
ATOM     66  C   UNL     1      -4.889  -3.213  14.904  1.00  0.00     0.034 A 
BRANCH  53  67
ATOM     67  C   UNL     1      -1.983   2.203  14.277  1.00  0.00     0.023 A 
ATOM     68  C   UNL     1      -2.328   3.231  13.376  1.00  0.00     0.012 A 
ATOM     69  C   UNL     1      -1.583   2.536  15.586  1.00  0.00     0.148 A 
ATOM     70  C   UNL     1      -2.243   4.569  13.760  1.00  0.00     0.002 A 
ATOM     71  C   UNL     1      -1.547   3.869  15.976  1.00  0.00     0.091 A 
ATOM     72  F   UNL     1      -1.236   1.546  16.420  1.00  0.00    -0.205 F 
ATOM     73  C   UNL     1      -1.864   4.887  15.061  1.00  0.00     0.022 A 
BRANCH  71  74
ATOM     74  S   UNL     1      -1.151   4.378  17.652  1.00  0.00     0.127 S 
ATOM     75  O   UNL     1       0.143   5.032  17.463  1.00  0.00    -0.237 OA
ATOM     76  O   UNL     1      -2.254   5.286  17.965  1.00  0.00    -0.237 OA
ATOM     77  O   UNL     1      -1.122   3.159  18.447  1.00  0.00    -0.744 OA
ENDBRANCH  71  74
ENDBRANCH  53  67
BRANCH  54  78
ATOM     78  C   UNL     1      -2.150  -7.371  11.447  1.00  0.00     0.023 A 
ATOM     79  C   UNL     1      -3.257  -7.922  10.773  1.00  0.00     0.012 A 
ATOM     80  C   UNL     1      -1.058  -8.202  11.767  1.00  0.00     0.148 A 
ATOM     81  C   UNL     1      -3.293  -9.281  10.456  1.00  0.00     0.002 A 
ATOM     82  C   UNL     1      -1.075  -9.541  11.398  1.00  0.00     0.091 A 
ATOM     83  F   UNL     1      -0.021  -7.662  12.423  1.00  0.00    -0.205 F 
ATOM     84  C   UNL     1      -2.199 -10.088  10.760  1.00  0.00     0.022 A 
BRANCH  82  85
ATOM     85  S   UNL     1       0.334 -10.628  11.640  1.00  0.00     0.127 S 
ATOM     86  O   UNL     1      -0.178 -11.563  12.639  1.00  0.00    -0.237 OA
ATOM     87  O   UNL     1       0.509 -11.192  10.301  1.00  0.00    -0.237 OA
ATOM     88  O   UNL     1       1.424  -9.770  12.081  1.00  0.00    -0.744 OA
ENDBRANCH  82  85
ENDBRANCH  54  78
BRANCH  66  89
ATOM     89  C   UNL     1      -6.082  -3.539  15.768  1.00  0.00     0.023 A 
ATOM     90  C   UNL     1      -5.926  -4.318  16.931  1.00  0.00     0.012 A 
ATOM     91  C   UNL     1      -7.351  -3.004  15.462  1.00  0.00     0.148 A 
ATOM     92  C   UNL     1      -7.019  -4.592  17.754  1.00  0.00     0.002 A 
ATOM     93  C   UNL     1      -8.423  -3.235  16.315  1.00  0.00     0.091 A 
ATOM     94  F   UNL     1      -7.485  -2.276  14.343  1.00  0.00    -0.205 F 
ATOM     95  C   UNL     1      -8.262  -4.041  17.453  1.00  0.00     0.022 A 
BRANCH  93  96
ATOM     96  S   UNL     1     -10.036  -2.485  16.064  1.00  0.00     0.127 S 
ATOM     97  O   UNL     1     -10.845  -3.641  15.679  1.00  0.00    -0.237 OA
ATOM     98  O   UNL     1     -10.336  -1.944  17.390  1.00  0.00    -0.237 OA
ATOM     99  O   UNL     1      -9.856  -1.478  15.026  1.00  0.00    -0.744 OA
ENDBRANCH  93  96
ENDBRANCH  66  89
ENDBRANCH  40  41
ENDBRANCH  33  35
ENDBRANCH  32  33
ENDBRANCH  31  32
ENDBRANCH  30  31
ENDBRANCH  29  30
ENDBRANCH   1  29
TORSDOF 22
