REMARK SMILES COc1ccc(CCn2cc(C(=O)OCCOCCOCCOC(=O)c3ccc(-c4c5nc(c(-c6cccc(S(=O)(=O)[O-])c6F)c6ccc([nH]6)c(-c6cccc(S(=O)(=O)[O-])c6F)c6nc(c(-c7cccc(S(=O)(=O)[O-])c7F)c7ccc4[nH]7)C=C6)C=C5)cc3)c(=O)[nH]c2=O)cc1
REMARK SMILES IDX 18 1 17 2 16 3 15 4 14 5 12 6 13 7 11 8 9 9 10 10 92 11
REMARK SMILES IDX 91 12 93 13 89 14 90 16 8 17 7 18 6 19 3 20 4 21 95 22 5 23
REMARK SMILES IDX 94 24 2 25 1 26 19 27 20 28 21 29 22 30 23 31 24 32 25 33
REMARK SMILES IDX 26 34 27 35 88 36 28 37 87 38 29 39 30 40 31 41 81 42 32 43
REMARK SMILES IDX 86 44 80 45 82 46 33 47 85 48 79 49 78 50 34 52 66 53 46 54
REMARK SMILES IDX 65 55 47 56 50 57 64 58 83 59 48 60 49 61 63 63 84 64 51 65
REMARK SMILES IDX 35 66 36 67 44 68 37 69 39 70 45 71 38 72 40 73 41 74 42 75
REMARK SMILES IDX 43 76 67 77 68 78 76 79 69 80 71 81 77 82 70 83 72 84 73 85
REMARK SMILES IDX 74 86 75 87 52 88 53 89 61 90 54 91 56 92 62 93 55 94 57 95
REMARK SMILES IDX 58 96 59 97 60 98
REMARK H PARENT 91 15 82 51 50 62
REMARK Flexibility Score: inf
ROOT
ATOM      1  C   UNL     1      -3.786   2.751  -4.423  1.00  0.00     0.188 C 
ENDROOT
BRANCH   1   2
ATOM      2  O   UNL     1      -3.843   1.551  -5.187  1.00  0.00    -0.376 OA
BRANCH   2   3
ATOM      3  C   UNL     1      -2.665   0.787  -5.390  1.00  0.00     0.202 C 
BRANCH   3   4
ATOM      4  C   UNL     1      -1.466   1.466  -6.063  1.00  0.00     0.261 C 
BRANCH   4   5
ATOM      5  O   UNL     1      -1.054   2.687  -5.424  1.00  0.00    -0.459 OA
BRANCH   5   6
ATOM      6  C   UNL     1      -1.006   3.789  -6.216  1.00  0.00     0.345 C 
ATOM      7  O   UNL     1      -1.125   3.815  -7.431  1.00  0.00    -0.246 OA
BRANCH   6   8
ATOM      8  C   UNL     1      -0.766   4.994  -5.407  1.00  0.00     0.141 A 
ATOM      9  N   UNL     1       0.722   6.344  -4.117  1.00  0.00    -0.299 N 
ATOM     10  C   UNL     1       0.413   5.175  -4.796  1.00  0.00     0.112 A 
ATOM     11  C   UNL     1      -0.178   7.402  -4.030  1.00  0.00     0.328 A 
ATOM     12  N   UNL     1      -1.381   7.202  -4.653  1.00  0.00    -0.273 N 
ATOM     13  O   UNL     1       0.054   8.451  -3.435  1.00  0.00    -0.248 OA
ATOM     14  C   UNL     1      -1.774   6.066  -5.306  1.00  0.00     0.268 A 
ATOM     15  H   UNL     1      -2.024   7.947  -4.629  1.00  0.00     0.175 HD
ATOM     16  O   UNL     1      -2.921   5.937  -5.716  1.00  0.00    -0.268 OA
BRANCH   9  17
ATOM     17  C   UNL     1       2.046   6.506  -3.505  1.00  0.00     0.132 C 
BRANCH  17  18
ATOM     18  C   UNL     1       2.062   6.313  -1.979  1.00  0.00     0.057 C 
BRANCH  18  19
ATOM     19  C   UNL     1       1.746   4.895  -1.572  1.00  0.00    -0.046 A 
ATOM     20  C   UNL     1       1.087   2.225  -1.044  1.00  0.00     0.118 A 
ATOM     21  C   UNL     1       0.102   3.206  -1.032  1.00  0.00     0.046 A 
ATOM     22  C   UNL     1       2.412   2.573  -1.296  1.00  0.00     0.046 A 
ATOM     23  C   UNL     1       0.425   4.536  -1.286  1.00  0.00     0.007 A 
ATOM     24  C   UNL     1       2.742   3.908  -1.553  1.00  0.00     0.007 A 
BRANCH  20  25
ATOM     25  O   UNL     1       0.677   0.926  -0.936  1.00  0.00    -0.497 OA
ATOM     26  C   UNL     1       1.241   0.262   0.188  1.00  0.00     0.278 C 
ENDBRANCH  20  25
ENDBRANCH  18  19
ENDBRANCH  17  18
ENDBRANCH   9  17
ENDBRANCH   6   8
ENDBRANCH   5   6
ENDBRANCH   4   5
ENDBRANCH   3   4
ENDBRANCH   2   3
ENDBRANCH   1   2
BRANCH   1  27
ATOM     27  C   UNL     1      -2.908   2.808  -3.158  1.00  0.00     0.188 C 
BRANCH  27  28
ATOM     28  O   UNL     1      -2.492   1.539  -2.681  1.00  0.00    -0.376 OA
BRANCH  28  29
ATOM     29  C   UNL     1      -3.040   1.107  -1.445  1.00  0.00     0.202 C 
BRANCH  29  30
ATOM     30  C   UNL     1      -4.525   0.743  -1.487  1.00  0.00     0.261 C 
BRANCH  30  31
ATOM     31  O   UNL     1      -5.409   1.815  -1.851  1.00  0.00    -0.460 OA
BRANCH  31  32
ATOM     32  C   UNL     1      -5.448   2.905  -1.048  1.00  0.00     0.338 C 
ATOM     33  O   UNL     1      -4.815   3.093  -0.029  1.00  0.00    -0.246 OA
BRANCH  32  34
ATOM     34  C   UNL     1      -6.266   3.922  -1.740  1.00  0.00     0.060 A 
ATOM     35  C   UNL     1      -5.700   5.165  -2.050  1.00  0.00     0.016 A 
ATOM     36  C   UNL     1      -7.579   3.626  -2.113  1.00  0.00     0.016 A 
ATOM     37  C   UNL     1      -6.458   6.123  -2.729  1.00  0.00     0.010 A 
ATOM     38  C   UNL     1      -8.336   4.589  -2.780  1.00  0.00     0.010 A 
ATOM     39  C   UNL     1      -7.789   5.849  -3.074  1.00  0.00    -0.014 A 
BRANCH  39  40
ATOM     40  C   UNL     1      -8.662   6.910  -3.632  1.00  0.00     0.031 A 
ATOM     41  C   UNL     1      -9.635   7.603  -2.719  1.00  0.00     0.074 A 
ATOM     42  C   UNL     1      -8.631   7.215  -4.942  1.00  0.00     0.049 A 
ATOM     43  N   UNL     1     -10.539   8.505  -2.999  1.00  0.00    -0.248 NA
ATOM     44  C   UNL     1      -9.584   7.222  -1.297  1.00  0.00     0.031 C 
ATOM     45  C   UNL     1      -7.742   6.611  -5.932  1.00  0.00     0.029 A 
ATOM     46  N   UNL     1      -9.399   8.093  -5.668  1.00  0.00    -0.354 N 
ATOM     47  C   UNL     1     -11.184   8.780  -1.800  1.00  0.00     0.074 A 
ATOM     48  C   UNL     1     -10.575   7.940  -0.790  1.00  0.00     0.031 C 
ATOM     49  C   UNL     1      -8.039   7.109  -7.145  1.00  0.00     0.029 A 
ATOM     50  C   UNL     1      -9.152   8.049  -7.020  1.00  0.00     0.049 A 
ATOM     51  H   UNL     1     -10.063   8.695  -5.260  1.00  0.00     0.167 HD
ATOM     52  C   UNL     1     -12.181   9.662  -1.556  1.00  0.00     0.034 A 
ATOM     53  C   UNL     1      -9.771   8.676  -8.041  1.00  0.00     0.034 A 
ATOM     54  C   UNL     1     -12.779  10.503  -2.557  1.00  0.00     0.049 A 
ATOM     55  C   UNL     1     -10.902   9.630  -7.748  1.00  0.00     0.074 A 
ATOM     56  C   UNL     1     -13.755  11.470  -2.396  1.00  0.00     0.029 A 
ATOM     57  N   UNL     1     -12.474  10.464  -3.909  1.00  0.00    -0.354 N 
ATOM     58  N   UNL     1     -11.408   9.984  -6.591  1.00  0.00    -0.248 NA
ATOM     59  C   UNL     1     -11.528  10.294  -8.902  1.00  0.00     0.031 C 
ATOM     60  C   UNL     1     -14.063  11.994  -3.656  1.00  0.00     0.029 A 
ATOM     61  C   UNL     1     -13.256  11.376  -4.598  1.00  0.00     0.049 A 
ATOM     62  H   UNL     1     -11.800   9.876  -4.318  1.00  0.00     0.167 HD
ATOM     63  C   UNL     1     -12.385  10.933  -6.874  1.00  0.00     0.074 A 
ATOM     64  C   UNL     1     -12.386  11.115  -8.311  1.00  0.00     0.031 C 
ATOM     65  C   UNL     1     -13.217  11.585  -6.023  1.00  0.00     0.034 A 
BRANCH  52  66
ATOM     66  C   UNL     1     -12.675   9.777  -0.138  1.00  0.00     0.023 A 
ATOM     67  C   UNL     1     -11.865  10.399   0.834  1.00  0.00     0.012 A 
ATOM     68  C   UNL     1     -13.955   9.312   0.223  1.00  0.00     0.148 A 
ATOM     69  C   UNL     1     -12.305  10.525   2.151  1.00  0.00     0.002 A 
ATOM     70  C   UNL     1     -14.404   9.481   1.528  1.00  0.00     0.091 A 
ATOM     71  F   UNL     1     -14.701   8.702  -0.709  1.00  0.00    -0.205 F 
ATOM     72  C   UNL     1     -13.577  10.075   2.495  1.00  0.00     0.022 A 
BRANCH  70  73
ATOM     73  S   UNL     1     -16.055   9.004   2.051  1.00  0.00     0.127 S 
ATOM     74  O   UNL     1     -15.774   7.835   2.884  1.00  0.00    -0.237 OA
ATOM     75  O   UNL     1     -16.497  10.187   2.791  1.00  0.00    -0.237 OA
ATOM     76  O   UNL     1     -16.802   8.738   0.830  1.00  0.00    -0.744 OA
ENDBRANCH  70  73
ENDBRANCH  52  66
BRANCH  53  77
ATOM     77  C   UNL     1      -9.313   8.450  -9.442  1.00  0.00     0.023 A 
ATOM     78  C   UNL     1      -8.667   9.492 -10.136  1.00  0.00     0.012 A 
ATOM     79  C   UNL     1      -9.504   7.211 -10.085  1.00  0.00     0.148 A 
ATOM     80  C   UNL     1      -8.245   9.314 -11.454  1.00  0.00     0.002 A 
ATOM     81  C   UNL     1      -9.035   7.024 -11.381  1.00  0.00     0.091 A 
ATOM     82  F   UNL     1     -10.139   6.240  -9.415  1.00  0.00    -0.205 F 
ATOM     83  C   UNL     1      -8.419   8.079 -12.072  1.00  0.00     0.022 A 
BRANCH  81  84
ATOM     84  S   UNL     1      -9.120   5.439 -12.222  1.00  0.00     0.127 S 
ATOM     85  O   UNL     1     -10.092   5.713 -13.277  1.00  0.00    -0.237 OA
ATOM     86  O   UNL     1      -7.742   5.270 -12.684  1.00  0.00    -0.237 OA
ATOM     87  O   UNL     1      -9.541   4.478 -11.212  1.00  0.00    -0.744 OA
ENDBRANCH  81  84
ENDBRANCH  53  77
BRANCH  65  88
ATOM     88  C   UNL     1     -14.187  12.581  -6.609  1.00  0.00     0.023 A 
ATOM     89  C   UNL     1     -15.297  12.126  -7.348  1.00  0.00     0.012 A 
ATOM     90  C   UNL     1     -14.041  13.961  -6.361  1.00  0.00     0.148 A 
ATOM     91  C   UNL     1     -16.230  13.030  -7.857  1.00  0.00     0.002 A 
ATOM     92  C   UNL     1     -15.001  14.851  -6.829  1.00  0.00     0.091 A 
ATOM     93  F   UNL     1     -12.971  14.377  -5.669  1.00  0.00    -0.205 F 
ATOM     94  C   UNL     1     -16.088  14.389  -7.588  1.00  0.00     0.022 A 
BRANCH  92  95
ATOM     95  S   UNL     1     -14.955  16.608  -6.451  1.00  0.00     0.127 S 
ATOM     96  O   UNL     1     -14.600  17.183  -7.748  1.00  0.00    -0.237 OA
ATOM     97  O   UNL     1     -16.330  16.869  -6.024  1.00  0.00    -0.237 OA
ATOM     98  O   UNL     1     -13.956  16.768  -5.403  1.00  0.00    -0.744 OA
ENDBRANCH  92  95
ENDBRANCH  65  88
ENDBRANCH  39  40
ENDBRANCH  32  34
ENDBRANCH  31  32
ENDBRANCH  30  31
ENDBRANCH  29  30
ENDBRANCH  28  29
ENDBRANCH  27  28
ENDBRANCH   1  27
TORSDOF 24
