REMARK SMILES CCCN1CCC[C@@]2(CCN(c3ccc(C(=O)OCCOCCOCCOC(=O)c4ccc(-c5c6nc(c(-c7cccc(S(=O)(=O)[O-])c7F)c7ccc([nH]7)c(-c7cccc(S(=O)(=O)[O-])c7F)c7nc(c(-c8cccc(S(=O)(=O)[O-])c8F)c8ccc5[nH]8)C=C7)C=C6)cc4)cn3)C2)C1=O
REMARK SMILES IDX 22 1 21 2 20 3 19 4 18 5 16 6 17 7 15 8 12 9 13 10 94 11
REMARK SMILES IDX 14 12 93 13 11 14 4 15 5 16 96 17 6 18 8 19 97 20 7 21 9 22
REMARK SMILES IDX 95 23 10 24 3 25 2 26 1 27 23 28 24 29 25 30 26 31 27 32
REMARK SMILES IDX 28 33 29 34 30 35 31 36 92 37 32 38 91 39 33 40 34 41 35 42
REMARK SMILES IDX 85 43 36 44 90 45 84 46 86 47 37 48 89 49 83 50 82 51 38 53
REMARK SMILES IDX 70 54 50 55 69 56 51 57 54 58 68 59 87 60 52 61 53 62 67 64
REMARK SMILES IDX 88 65 55 66 39 67 40 68 48 69 41 70 43 71 49 72 42 73 44 74
REMARK SMILES IDX 45 75 46 76 47 77 71 78 72 79 80 80 73 81 75 82 81 83 74 84
REMARK SMILES IDX 76 85 77 86 78 87 79 88 56 89 57 90 65 91 58 92 60 93 66 94
REMARK SMILES IDX 59 95 61 96 62 97 63 98 64 99
REMARK H PARENT 86 52 54 63
REMARK Flexibility Score: inf
ROOT
ATOM      1  C   UNL     1       8.618   7.083  -6.327  1.00  0.00     0.188 C 
ENDROOT
BRANCH   1   2
ATOM      2  O   UNL     1       9.945   7.468  -6.039  1.00  0.00    -0.376 OA
BRANCH   2   3
ATOM      3  C   UNL     1      10.833   6.584  -5.378  1.00  0.00     0.202 C 
BRANCH   3   4
ATOM      4  C   UNL     1      10.393   5.483  -4.397  1.00  0.00     0.261 C 
BRANCH   4   5
ATOM      5  O   UNL     1       9.175   4.797  -4.707  1.00  0.00    -0.460 OA
BRANCH   5   6
ATOM      6  C   UNL     1       8.151   5.008  -3.843  1.00  0.00     0.339 C 
ATOM      7  O   UNL     1       8.175   5.676  -2.821  1.00  0.00    -0.246 OA
BRANCH   6   8
ATOM      8  C   UNL     1       6.918   4.425  -4.386  1.00  0.00     0.078 A 
ATOM      9  C   UNL     1       4.507   3.467  -5.319  1.00  0.00     0.128 A 
ATOM     10  C   UNL     1       5.654   2.673  -5.406  1.00  0.00     0.048 A 
ATOM     11  N   UNL     1       4.558   4.724  -4.838  1.00  0.00    -0.238 NA
ATOM     12  C   UNL     1       6.878   3.156  -4.950  1.00  0.00     0.021 A 
ATOM     13  C   UNL     1       5.748   5.171  -4.361  1.00  0.00     0.129 A 
BRANCH   9  14
ATOM     14  N   UNL     1       3.285   2.882  -5.607  1.00  0.00    -0.356 N 
ATOM     15  N   UNL     1       0.370   1.566  -2.553  1.00  0.00    -0.342 N 
ATOM     16  C   UNL     1       0.020   0.179  -2.796  1.00  0.00     0.119 C 
ATOM     17  C   UNL     1       0.508   2.423  -3.647  1.00  0.00     0.230 C 
ATOM     18  C   UNL     1       1.008  -0.457  -3.752  1.00  0.00     0.023 C 
ATOM     19  C   UNL     1       1.278   1.824  -4.836  1.00  0.00     0.069 C 
ATOM     20  O   UNL     1       0.239   3.620  -3.577  1.00  0.00    -0.274 OA
ATOM     21  C   UNL     1       0.974   0.332  -5.061  1.00  0.00     0.021 C 
ATOM     22  C   UNL     1       1.048   2.651  -6.120  1.00  0.00     0.040 C 
ATOM     23  C   UNL     1       2.784   2.029  -4.527  1.00  0.00     0.135 C 
ATOM     24  C   UNL     1       2.180   3.683  -6.114  1.00  0.00     0.119 C 
BRANCH  15  25
ATOM     25  C   UNL     1       0.778   2.088  -1.248  1.00  0.00     0.119 C 
BRANCH  25  26
ATOM     26  C   UNL     1       0.304   1.376   0.017  1.00  0.00     0.018 C 
ATOM     27  C   UNL     1       1.192   0.208   0.437  1.00  0.00     0.006 C 
ENDBRANCH  25  26
ENDBRANCH  15  25
ENDBRANCH   9  14
ENDBRANCH   6   8
ENDBRANCH   5   6
ENDBRANCH   4   5
ENDBRANCH   3   4
ENDBRANCH   2   3
ENDBRANCH   1   2
BRANCH   1  28
ATOM     28  C   UNL     1       8.369   5.922  -7.310  1.00  0.00     0.188 C 
BRANCH  28  29
ATOM     29  O   UNL     1       9.470   5.159  -7.748  1.00  0.00    -0.376 OA
BRANCH  29  30
ATOM     30  C   UNL     1      10.400   5.710  -8.664  1.00  0.00     0.202 C 
BRANCH  30  31
ATOM     31  C   UNL     1      10.202   6.985  -9.511  1.00  0.00     0.261 C 
BRANCH  31  32
ATOM     32  O   UNL     1       9.206   7.925  -9.106  1.00  0.00    -0.460 OA
BRANCH  32  33
ATOM     33  C   UNL     1       8.073   7.935  -9.851  1.00  0.00     0.338 C 
ATOM     34  O   UNL     1       7.806   7.212 -10.796  1.00  0.00    -0.246 OA
BRANCH  33  35
ATOM     35  C   UNL     1       7.104   8.857  -9.229  1.00  0.00     0.060 A 
ATOM     36  C   UNL     1       5.955   8.325  -8.627  1.00  0.00     0.016 A 
ATOM     37  C   UNL     1       7.314  10.235  -9.265  1.00  0.00     0.016 A 
ATOM     38  C   UNL     1       5.001   9.176  -8.071  1.00  0.00     0.010 A 
ATOM     39  C   UNL     1       6.344  11.087  -8.728  1.00  0.00     0.010 A 
ATOM     40  C   UNL     1       5.171  10.563  -8.153  1.00  0.00    -0.014 A 
BRANCH  40  41
ATOM     41  C   UNL     1       4.059  11.470  -7.778  1.00  0.00     0.031 A 
ATOM     42  C   UNL     1       3.211  12.065  -8.869  1.00  0.00     0.074 A 
ATOM     43  C   UNL     1       3.814  11.773  -6.491  1.00  0.00     0.049 A 
ATOM     44  N   UNL     1       2.229  12.923  -8.781  1.00  0.00    -0.248 NA
ATOM     45  C   UNL     1       3.517  11.639 -10.245  1.00  0.00     0.031 C 
ATOM     46  C   UNL     1       4.557  11.254  -5.344  1.00  0.00     0.029 A 
ATOM     47  N   UNL     1       2.884  12.618  -5.937  1.00  0.00    -0.354 N 
ATOM     48  C   UNL     1       1.820  13.165 -10.086  1.00  0.00     0.074 A 
ATOM     49  C   UNL     1       2.667  12.372 -10.950  1.00  0.00     0.031 C 
ATOM     50  C   UNL     1       4.075  11.818  -4.223  1.00  0.00     0.029 A 
ATOM     51  C   UNL     1       3.012  12.758  -4.575  1.00  0.00     0.049 A 
ATOM     52  H   UNL     1       2.193  13.080  -6.465  1.00  0.00     0.167 HD
ATOM     53  C   UNL     1       0.822  13.967 -10.527  1.00  0.00     0.034 A 
ATOM     54  C   UNL     1       2.364  13.572  -3.718  1.00  0.00     0.034 A 
ATOM     55  C   UNL     1      -0.027  14.747  -9.667  1.00  0.00     0.049 A 
ATOM     56  C   UNL     1       1.279  14.481  -4.238  1.00  0.00     0.074 A 
ATOM     57  C   UNL     1      -1.096  15.553 -10.016  1.00  0.00     0.029 A 
ATOM     58  N   UNL     1       0.106  14.834  -8.290  1.00  0.00    -0.354 N 
ATOM     59  N   UNL     1       0.828  14.616  -5.462  1.00  0.00    -0.248 NA
ATOM     60  C   UNL     1       0.592  15.329  -3.252  1.00  0.00     0.031 C 
ATOM     61  C   UNL     1      -1.583  16.161  -8.854  1.00  0.00     0.029 A 
ATOM     62  C   UNL     1      -0.848  15.696  -7.776  1.00  0.00     0.049 A 
ATOM     63  H   UNL     1       0.780  14.354  -7.756  1.00  0.00     0.167 HD
ATOM     64  C   UNL     1      -0.219  15.530  -5.386  1.00  0.00     0.074 A 
ATOM     65  C   UNL     1      -0.347  15.902  -3.992  1.00  0.00     0.031 C 
ATOM     66  C   UNL     1      -0.999  16.023  -6.380  1.00  0.00     0.034 A 
BRANCH  53  67
ATOM     67  C   UNL     1       0.586  14.038 -12.014  1.00  0.00     0.023 A 
ATOM     68  C   UNL     1       0.030  12.933 -12.690  1.00  0.00     0.012 A 
ATOM     69  C   UNL     1       0.862  15.219 -12.730  1.00  0.00     0.148 A 
ATOM     70  C   UNL     1      -0.215  12.990 -14.062  1.00  0.00     0.002 A 
ATOM     71  C   UNL     1       0.569  15.286 -14.087  1.00  0.00     0.091 A 
ATOM     72  F   UNL     1       1.409  16.252 -12.073  1.00  0.00    -0.205 F 
ATOM     73  C   UNL     1       0.044  14.169 -14.757  1.00  0.00     0.022 A 
BRANCH  71  74
ATOM     74  S   UNL     1       0.789  16.783 -15.054  1.00  0.00     0.127 S 
ATOM     75  O   UNL     1       1.890  16.404 -15.939  1.00  0.00    -0.237 OA
ATOM     76  O   UNL     1      -0.509  16.912 -15.717  1.00  0.00    -0.237 OA
ATOM     77  O   UNL     1       1.094  17.840 -14.100  1.00  0.00    -0.744 OA
ENDBRANCH  71  74
ENDBRANCH  53  67
BRANCH  54  78
ATOM     78  C   UNL     1       2.708  13.556  -2.267  1.00  0.00     0.023 A 
ATOM     79  C   UNL     1       1.772  13.069  -1.334  1.00  0.00     0.012 A 
ATOM     80  C   UNL     1       3.954  14.024  -1.808  1.00  0.00     0.148 A 
ATOM     81  C   UNL     1       2.056  13.082   0.032  1.00  0.00     0.002 A 
ATOM     82  C   UNL     1       4.253  13.982  -0.451  1.00  0.00     0.091 A 
ATOM     83  F   UNL     1       4.825  14.498  -2.709  1.00  0.00    -0.205 F 
ATOM     84  C   UNL     1       3.299  13.529   0.473  1.00  0.00     0.022 A 
BRANCH  82  85
ATOM     85  S   UNL     1       5.868  14.427   0.197  1.00  0.00     0.127 S 
ATOM     86  O   UNL     1       5.564  15.642   0.949  1.00  0.00    -0.237 OA
ATOM     87  O   UNL     1       6.195  13.261   1.018  1.00  0.00    -0.237 OA
ATOM     88  O   UNL     1       6.726  14.605  -0.966  1.00  0.00    -0.744 OA
ENDBRANCH  82  85
ENDBRANCH  54  78
BRANCH  66  89
ATOM     89  C   UNL     1      -2.097  16.986  -6.003  1.00  0.00     0.023 A 
ATOM     90  C   UNL     1      -1.780  18.292  -5.579  1.00  0.00     0.012 A 
ATOM     91  C   UNL     1      -3.451  16.616  -6.140  1.00  0.00     0.148 A 
ATOM     92  C   UNL     1      -2.789  19.200  -5.260  1.00  0.00     0.002 A 
ATOM     93  C   UNL     1      -4.451  17.543  -5.872  1.00  0.00     0.091 A 
ATOM     94  F   UNL     1      -3.736  15.366  -6.532  1.00  0.00    -0.205 F 
ATOM     95  C   UNL     1      -4.123  18.830  -5.417  1.00  0.00     0.022 A 
BRANCH  93  96
ATOM     96  S   UNL     1      -6.192  17.191  -6.142  1.00  0.00     0.127 S 
ATOM     97  O   UNL     1      -6.700  17.129  -4.772  1.00  0.00    -0.237 OA
ATOM     98  O   UNL     1      -6.630  18.362  -6.902  1.00  0.00    -0.237 OA
ATOM     99  O   UNL     1      -6.242  15.937  -6.882  1.00  0.00    -0.744 OA
ENDBRANCH  93  96
ENDBRANCH  66  89
ENDBRANCH  40  41
ENDBRANCH  33  35
ENDBRANCH  32  33
ENDBRANCH  31  32
ENDBRANCH  30  31
ENDBRANCH  29  30
ENDBRANCH  28  29
ENDBRANCH   1  28
TORSDOF 23
