REMARK SMILES NS(=O)(=O)c1ccc(-c2cc(Cl)cc3c2O[C@H](C(F)(F)F)C(C(=O)OCCOCCOCCOC(=O)c2ccc(-c4c5nc(c(-c6cccc(S(=O)(=O)[O-])c6F)c6ccc([nH]6)c(-c6cccc(S(=O)(=O)[O-])c6F)c6nc(c(-c7cccc(S(=O)(=O)[O-])c7F)c7ccc4[nH]7)C=C6)C=C5)cc2)=C3)cc1
REMARK SMILES IDX 29 1 28 2 27 3 26 4 25 5 23 6 24 7 22 8 9 9 10 10 15 11
REMARK SMILES IDX 11 12 14 13 16 14 12 15 13 16 100 17 17 18 8 19 5 20 6 21
REMARK SMILES IDX 102 22 7 23 101 24 2 25 3 26 4 27 1 28 18 31 19 32 20 33
REMARK SMILES IDX 21 34 30 35 31 36 32 37 33 38 34 39 35 40 36 41 37 42 38 43
REMARK SMILES IDX 99 44 39 45 98 46 40 47 41 48 42 49 92 50 43 51 97 52 91 53
REMARK SMILES IDX 93 54 44 55 96 56 90 57 89 58 45 60 77 61 57 62 76 63 58 64
REMARK SMILES IDX 61 65 75 66 94 67 59 68 60 69 74 71 95 72 62 73 46 74 47 75
REMARK SMILES IDX 55 76 48 77 50 78 56 79 49 80 51 81 52 82 53 83 54 84 78 85
REMARK SMILES IDX 79 86 87 87 80 88 82 89 88 90 81 91 83 92 84 93 85 94 86 95
REMARK SMILES IDX 63 96 64 97 72 98 65 99 67 100 73 101 66 102 68 103 69 104
REMARK SMILES IDX 70 105 71 106
REMARK H PARENT 1 29 1 30 93 59 61 70
REMARK Flexibility Score: inf
ROOT
ATOM      1  C   UNL     1       4.934   0.101 -11.100  1.00  0.00     0.188 C 
ENDROOT
BRANCH   1   2
ATOM      2  O   UNL     1       4.417   0.056 -12.420  1.00  0.00    -0.376 OA
BRANCH   2   3
ATOM      3  C   UNL     1       3.797   1.244 -12.901  1.00  0.00     0.202 C 
BRANCH   3   4
ATOM      4  C   UNL     1       4.696   2.484 -12.880  1.00  0.00     0.261 C 
BRANCH   4   5
ATOM      5  O   UNL     1       4.810   3.000 -11.531  1.00  0.00    -0.460 OA
BRANCH   5   6
ATOM      6  C   UNL     1       3.860   3.897 -11.186  1.00  0.00     0.338 C 
ATOM      7  O   UNL     1       3.070   4.412 -11.965  1.00  0.00    -0.246 OA
BRANCH   6   8
ATOM      8  C   UNL     1       3.778   4.074  -9.714  1.00  0.00     0.087 C 
ATOM      9  C   UNL     1       2.784   1.363  -6.728  1.00  0.00     0.026 A 
ATOM     10  C   UNL     1       1.931   0.395  -7.301  1.00  0.00     0.033 A 
ATOM     11  C   UNL     1       3.100   2.449  -7.545  1.00  0.00     0.135 A 
ATOM     12  C   UNL     1       1.320   0.561  -8.542  1.00  0.00     0.042 A 
ATOM     13  C   UNL     1       2.292   2.722  -8.667  1.00  0.00     0.019 A 
ATOM     14  O   UNL     1       4.233   3.236  -7.398  1.00  0.00    -0.475 OA
ATOM     15  Cl  UNL     1       0.396  -0.704  -9.240  1.00  0.00    -0.084 Cl
ATOM     16  C   UNL     1       1.433   1.769  -9.198  1.00  0.00     0.032 A 
ATOM     17  C   UNL     1       2.485   4.011  -9.354  1.00  0.00     0.027 C 
ATOM     18  C   UNL     1       4.823   3.530  -8.744  1.00  0.00     0.316 C 
BRANCH   9  19
ATOM     19  C   UNL     1       3.017   1.206  -5.274  1.00  0.00    -0.015 A 
ATOM     20  C   UNL     1       2.733   0.334  -2.588  1.00  0.00     0.082 A 
ATOM     21  C   UNL     1       3.670  -0.271  -3.429  1.00  0.00     0.022 A 
ATOM     22  C   UNL     1       1.972   1.405  -3.053  1.00  0.00     0.022 A 
ATOM     23  C   UNL     1       3.811   0.170  -4.756  1.00  0.00     0.010 A 
ATOM     24  C   UNL     1       2.122   1.837  -4.382  1.00  0.00     0.010 A 
BRANCH  20  25
ATOM     25  S   UNL     1       2.507  -0.299  -0.947  1.00  0.00     0.238 S 
ATOM     26  O   UNL     1       3.749  -0.869  -0.490  1.00  0.00    -0.207 OA
ATOM     27  O   UNL     1       1.235  -0.973  -0.870  1.00  0.00    -0.207 OA
BRANCH  25  28
ATOM     28  N   UNL     1       2.308   1.086  -0.001  1.00  0.00    -0.225 NA
ATOM     29  H   UNL     1       2.169   0.816   0.973  1.00  0.00     0.137 HD
ATOM     30  H   UNL     1       1.494   1.607  -0.328  1.00  0.00     0.137 HD
ENDBRANCH  25  28
ENDBRANCH  20  25
ENDBRANCH   9  19
BRANCH  18  31
ATOM     31  C   UNL     1       5.989   4.518  -8.640  1.00  0.00     0.430 C 
ATOM     32  F   UNL     1       5.608   5.716  -8.144  1.00  0.00    -0.167 F 
ATOM     33  F   UNL     1       6.983   4.041  -7.856  1.00  0.00    -0.167 F 
ATOM     34  F   UNL     1       6.537   4.750  -9.861  1.00  0.00    -0.167 F 
ENDBRANCH  18  31
ENDBRANCH   6   8
ENDBRANCH   5   6
ENDBRANCH   4   5
ENDBRANCH   3   4
ENDBRANCH   2   3
ENDBRANCH   1   2
BRANCH   1  35
ATOM     35  C   UNL     1       6.443   0.417 -11.002  1.00  0.00     0.188 C 
BRANCH  35  36
ATOM     36  O   UNL     1       7.251   0.407 -12.174  1.00  0.00    -0.376 OA
BRANCH  36  37
ATOM     37  C   UNL     1       7.112  -0.652 -13.113  1.00  0.00     0.202 C 
BRANCH  37  38
ATOM     38  C   UNL     1       7.372  -2.081 -12.628  1.00  0.00     0.261 C 
BRANCH  38  39
ATOM     39  O   UNL     1       6.465  -2.516 -11.599  1.00  0.00    -0.460 OA
BRANCH  39  40
ATOM     40  C   UNL     1       7.048  -2.813 -10.413  1.00  0.00     0.338 C 
ATOM     41  O   UNL     1       8.238  -2.761 -10.150  1.00  0.00    -0.246 OA
BRANCH  40  42
ATOM     42  C   UNL     1       6.028  -3.050  -9.370  1.00  0.00     0.060 A 
ATOM     43  C   UNL     1       6.144  -2.311  -8.189  1.00  0.00     0.016 A 
ATOM     44  C   UNL     1       5.054  -4.047  -9.484  1.00  0.00     0.016 A 
ATOM     45  C   UNL     1       5.326  -2.608  -7.101  1.00  0.00     0.010 A 
ATOM     46  C   UNL     1       4.235  -4.346  -8.382  1.00  0.00     0.010 A 
ATOM     47  C   UNL     1       4.386  -3.648  -7.174  1.00  0.00    -0.014 A 
BRANCH  47  48
ATOM     48  C   UNL     1       3.753  -4.106  -5.906  1.00  0.00     0.031 A 
ATOM     49  C   UNL     1       4.565  -4.975  -4.991  1.00  0.00     0.074 A 
ATOM     50  C   UNL     1       2.510  -3.734  -5.548  1.00  0.00     0.049 A 
ATOM     51  N   UNL     1       4.306  -5.360  -3.771  1.00  0.00    -0.248 NA
ATOM     52  C   UNL     1       5.827  -5.501  -5.539  1.00  0.00     0.031 C 
ATOM     53  C   UNL     1       1.599  -2.985  -6.398  1.00  0.00     0.029 A 
ATOM     54  N   UNL     1       1.806  -3.902  -4.378  1.00  0.00    -0.354 N 
ATOM     55  C   UNL     1       5.329  -6.236  -3.432  1.00  0.00     0.074 A 
ATOM     56  C   UNL     1       6.244  -6.279  -4.551  1.00  0.00     0.031 C 
ATOM     57  C   UNL     1       0.498  -2.665  -5.696  1.00  0.00     0.029 A 
ATOM     58  C   UNL     1       0.602  -3.225  -4.352  1.00  0.00     0.049 A 
ATOM     59  H   UNL     1       2.130  -4.453  -3.629  1.00  0.00     0.167 HD
ATOM     60  C   UNL     1       5.470  -6.971  -2.306  1.00  0.00     0.034 A 
ATOM     61  C   UNL     1      -0.293  -3.058  -3.351  1.00  0.00     0.034 A 
ATOM     62  C   UNL     1       4.550  -6.931  -1.203  1.00  0.00     0.049 A 
ATOM     63  C   UNL     1      -0.011  -3.749  -2.031  1.00  0.00     0.074 A 
ATOM     64  C   UNL     1       4.590  -7.651  -0.024  1.00  0.00     0.029 A 
ATOM     65  N   UNL     1       3.418  -6.131  -1.148  1.00  0.00    -0.354 N 
ATOM     66  N   UNL     1       1.028  -4.472  -1.678  1.00  0.00    -0.248 NA
ATOM     67  C   UNL     1      -1.025  -3.610  -0.974  1.00  0.00     0.031 C 
ATOM     68  C   UNL     1       3.470  -7.301   0.737  1.00  0.00     0.029 A 
ATOM     69  C   UNL     1       2.747  -6.342   0.043  1.00  0.00     0.049 A 
ATOM     70  H   UNL     1       3.134  -5.506  -1.853  1.00  0.00     0.167 HD
ATOM     71  C   UNL     1       0.803  -4.852  -0.356  1.00  0.00     0.074 A 
ATOM     72  C   UNL     1      -0.450  -4.243   0.041  1.00  0.00     0.031 C 
ATOM     73  C   UNL     1       1.537  -5.668   0.444  1.00  0.00     0.034 A 
BRANCH  60  74
ATOM     74  C   UNL     1       6.641  -7.912  -2.241  1.00  0.00     0.023 A 
ATOM     75  C   UNL     1       7.940  -7.407  -2.031  1.00  0.00     0.012 A 
ATOM     76  C   UNL     1       6.452  -9.300  -2.386  1.00  0.00     0.148 A 
ATOM     77  C   UNL     1       9.037  -8.268  -2.000  1.00  0.00     0.002 A 
ATOM     78  C   UNL     1       7.544 -10.155  -2.312  1.00  0.00     0.091 A 
ATOM     79  F   UNL     1       5.213  -9.756  -2.619  1.00  0.00    -0.205 F 
ATOM     80  C   UNL     1       8.838  -9.641  -2.130  1.00  0.00     0.022 A 
BRANCH  78  81
ATOM     81  S   UNL     1       7.380 -11.941  -2.407  1.00  0.00     0.127 S 
ATOM     82  O   UNL     1       7.924 -12.218  -3.735  1.00  0.00    -0.237 OA
ATOM     83  O   UNL     1       8.223 -12.388  -1.297  1.00  0.00    -0.237 OA
ATOM     84  O   UNL     1       5.961 -12.223  -2.240  1.00  0.00    -0.744 OA
ENDBRANCH  78  81
ENDBRANCH  60  74
BRANCH  61  85
ATOM     85  C   UNL     1      -1.465  -2.126  -3.503  1.00  0.00     0.023 A 
ATOM     86  C   UNL     1      -1.554  -0.995  -2.663  1.00  0.00     0.012 A 
ATOM     87  C   UNL     1      -2.474  -2.302  -4.469  1.00  0.00     0.148 A 
ATOM     88  C   UNL     1      -2.603  -0.079  -2.760  1.00  0.00     0.002 A 
ATOM     89  C   UNL     1      -3.489  -1.353  -4.606  1.00  0.00     0.091 A 
ATOM     90  F   UNL     1      -2.431  -3.394  -5.246  1.00  0.00    -0.205 F 
ATOM     91  C   UNL     1      -3.565  -0.250  -3.744  1.00  0.00     0.022 A 
BRANCH  89  92
ATOM     92  S   UNL     1      -4.687  -1.417  -5.945  1.00  0.00     0.127 S 
ATOM     93  O   UNL     1      -5.868  -1.945  -5.269  1.00  0.00    -0.237 OA
ATOM     94  O   UNL     1      -4.783  -0.010  -6.341  1.00  0.00    -0.237 OA
ATOM     95  O   UNL     1      -4.084  -2.278  -6.954  1.00  0.00    -0.744 OA
ENDBRANCH  89  92
ENDBRANCH  61  85
BRANCH  73  96
ATOM     96  C   UNL     1       1.015  -5.969   1.830  1.00  0.00     0.023 A 
ATOM     97  C   UNL     1      -0.127  -6.783   1.977  1.00  0.00     0.012 A 
ATOM     98  C   UNL     1       1.718  -5.557   2.980  1.00  0.00     0.148 A 
ATOM     99  C   UNL     1      -0.580  -7.154   3.243  1.00  0.00     0.002 A 
ATOM    100  C   UNL     1       1.289  -5.973   4.238  1.00  0.00     0.091 A 
ATOM    101  F   UNL     1       2.796  -4.774   2.830  1.00  0.00    -0.205 F 
ATOM    102  C   UNL     1       0.135  -6.761   4.371  1.00  0.00     0.022 A 
BRANCH 100 103
ATOM    103  S   UNL     1       2.216  -5.605   5.734  1.00  0.00     0.127 S 
ATOM    104  O   UNL     1       1.458  -4.486   6.290  1.00  0.00    -0.237 OA
ATOM    105  O   UNL     1       2.103  -6.853   6.491  1.00  0.00    -0.237 OA
ATOM    106  O   UNL     1       3.570  -5.294   5.294  1.00  0.00    -0.744 OA
ENDBRANCH 100 103
ENDBRANCH  73  96
ENDBRANCH  47  48
ENDBRANCH  40  42
ENDBRANCH  39  40
ENDBRANCH  38  39
ENDBRANCH  37  38
ENDBRANCH  36  37
ENDBRANCH  35  36
ENDBRANCH   1  35
TORSDOF 24
