REMARK SMILES C[C@@H](C(=O)OCCOCCOCCOC(=O)c1ccc(-c2c3nc(c(-c4cccc(S(=O)(=O)[O-])c4F)c4ccc([nH]4)c(-c4cccc(S(=O)(=O)[O-])c4F)c4nc(c(-c5cccc(S(=O)(=O)[O-])c5F)c5ccc2[nH]5)C=C4)C=C3)cc1)c1ccc(=O)n(C(F)F)c1
REMARK SMILES IDX 10 1 9 2 8 3 7 4 6 5 5 6 3 7 4 8 2 9 1 10 80 11 81 12 89 13
REMARK SMILES IDX 82 14 85 15 83 16 84 17 86 18 87 19 88 20 11 21 12 22 13 23
REMARK SMILES IDX 14 24 15 25 16 26 17 27 18 28 79 29 19 30 78 31 20 32 21 33
REMARK SMILES IDX 22 34 72 35 23 36 77 37 71 38 73 39 24 40 76 41 70 42 69 43
REMARK SMILES IDX 25 45 57 46 37 47 56 48 38 49 41 50 55 51 74 52 39 53 40 54
REMARK SMILES IDX 54 56 75 57 42 58 26 59 27 60 35 61 28 62 30 63 36 64 29 65
REMARK SMILES IDX 31 66 32 67 33 68 34 69 58 70 59 71 67 72 60 73 62 74 68 75
REMARK SMILES IDX 61 76 63 77 64 78 65 79 66 80 43 81 44 82 52 83 45 84 47 85
REMARK SMILES IDX 53 86 46 87 48 88 49 89 50 90 51 91
REMARK H PARENT 73 44 41 55
REMARK Flexibility Score: inf
ROOT
ATOM      1  C   UNL     1       1.097  -2.657   1.015  1.00  0.00     0.188 C 
ENDROOT
BRANCH   1   2
ATOM      2  C   UNL     1       0.415  -3.777   0.218  1.00  0.00     0.188 C 
BRANCH   2   3
ATOM      3  O   UNL     1       1.194  -4.873  -0.228  1.00  0.00    -0.376 OA
BRANCH   3   4
ATOM      4  C   UNL     1       2.386  -4.618  -0.959  1.00  0.00     0.202 C 
BRANCH   4   5
ATOM      5  C   UNL     1       2.418  -3.539  -2.058  1.00  0.00     0.261 C 
BRANCH   5   6
ATOM      6  O   UNL     1       1.920  -2.245  -1.662  1.00  0.00    -0.463 OA
BRANCH   6   7
ATOM      7  C   UNL     1       1.126  -1.601  -2.559  1.00  0.00     0.313 C 
ATOM      8  O   UNL     1       0.886  -2.028  -3.684  1.00  0.00    -0.252 OA
BRANCH   7   9
ATOM      9  C   UNL     1       0.501  -0.290  -2.033  1.00  0.00     0.127 C 
ATOM     10  C   UNL     1       1.205   0.374  -0.837  1.00  0.00     0.025 C 
BRANCH   9  11
ATOM     11  C   UNL     1      -1.023  -0.325  -1.868  1.00  0.00    -0.017 A 
ATOM     12  C   UNL     1      -1.784  -1.560  -1.966  1.00  0.00     0.012 A 
ATOM     13  C   UNL     1      -1.722   0.814  -1.689  1.00  0.00     0.099 A 
ATOM     14  C   UNL     1      -3.120  -1.574  -1.871  1.00  0.00     0.072 A 
ATOM     15  N   UNL     1      -3.104   0.832  -1.598  1.00  0.00    -0.258 N 
ATOM     16  C   UNL     1      -3.878  -0.312  -1.692  1.00  0.00     0.254 A 
ATOM     17  O   UNL     1      -5.101  -0.349  -1.659  1.00  0.00    -0.269 OA
BRANCH  15  18
ATOM     18  C   UNL     1      -3.817   2.082  -1.533  1.00  0.00     0.451 C 
ATOM     19  F   UNL     1      -4.462   2.326  -2.700  1.00  0.00    -0.185 F 
ATOM     20  F   UNL     1      -4.724   2.101  -0.530  1.00  0.00    -0.185 F 
ENDBRANCH  15  18
ENDBRANCH   9  11
ENDBRANCH   7   9
ENDBRANCH   6   7
ENDBRANCH   5   6
ENDBRANCH   4   5
ENDBRANCH   3   4
ENDBRANCH   2   3
ENDBRANCH   1   2
BRANCH   1  21
ATOM     21  O   UNL     1       2.476  -2.780   1.250  1.00  0.00    -0.376 OA
BRANCH  21  22
ATOM     22  C   UNL     1       2.943  -3.533   2.354  1.00  0.00     0.202 C 
BRANCH  22  23
ATOM     23  C   UNL     1       2.076  -4.382   3.310  1.00  0.00     0.261 C 
BRANCH  23  24
ATOM     24  O   UNL     1       0.654  -4.347   3.179  1.00  0.00    -0.460 OA
BRANCH  24  25
ATOM     25  C   UNL     1      -0.002  -3.421   3.918  1.00  0.00     0.338 C 
ATOM     26  O   UNL     1       0.500  -2.584   4.655  1.00  0.00    -0.246 OA
BRANCH  25  27
ATOM     27  C   UNL     1      -1.424  -3.436   3.515  1.00  0.00     0.060 A 
ATOM     28  C   UNL     1      -1.968  -2.303   2.891  1.00  0.00     0.016 A 
ATOM     29  C   UNL     1      -2.216  -4.560   3.753  1.00  0.00     0.016 A 
ATOM     30  C   UNL     1      -3.315  -2.283   2.526  1.00  0.00     0.010 A 
ATOM     31  C   UNL     1      -3.570  -4.527   3.410  1.00  0.00     0.010 A 
ATOM     32  C   UNL     1      -4.134  -3.379   2.824  1.00  0.00    -0.014 A 
BRANCH  32  33
ATOM     33  C   UNL     1      -5.607  -3.267   2.689  1.00  0.00     0.031 A 
ATOM     34  C   UNL     1      -6.422  -2.979   3.920  1.00  0.00     0.074 A 
ATOM     35  C   UNL     1      -6.218  -3.438   1.504  1.00  0.00     0.049 A 
ATOM     36  N   UNL     1      -7.719  -2.909   4.059  1.00  0.00    -0.248 NA
ATOM     37  C   UNL     1      -5.669  -2.754   5.165  1.00  0.00     0.031 C 
ATOM     38  C   UNL     1      -5.542  -3.712   0.240  1.00  0.00     0.029 A 
ATOM     39  N   UNL     1      -7.552  -3.427   1.179  1.00  0.00    -0.354 N 
ATOM     40  C   UNL     1      -7.942  -2.677   5.410  1.00  0.00     0.074 A 
ATOM     41  C   UNL     1      -6.646  -2.619   6.050  1.00  0.00     0.031 C 
ATOM     42  C   UNL     1      -6.466  -3.848  -0.727  1.00  0.00     0.029 A 
ATOM     43  C   UNL     1      -7.799  -3.717  -0.142  1.00  0.00     0.049 A 
ATOM     44  H   UNL     1      -8.264  -3.229   1.830  1.00  0.00     0.167 HD
ATOM     45  C   UNL     1      -9.120  -2.525   6.060  1.00  0.00     0.034 A 
ATOM     46  C   UNL     1      -8.966  -3.885  -0.796  1.00  0.00     0.034 A 
ATOM     47  C   UNL     1     -10.407  -2.569   5.421  1.00  0.00     0.049 A 
ATOM     48  C   UNL     1     -10.264  -3.730  -0.043  1.00  0.00     0.074 A 
ATOM     49  C   UNL     1     -11.654  -2.380   5.991  1.00  0.00     0.029 A 
ATOM     50  N   UNL     1     -10.617  -2.836   4.078  1.00  0.00    -0.354 N 
ATOM     51  N   UNL     1     -10.461  -3.417   1.215  1.00  0.00    -0.248 NA
ATOM     52  C   UNL     1     -11.505  -3.934  -0.807  1.00  0.00     0.031 C 
ATOM     53  C   UNL     1     -12.621  -2.578   5.000  1.00  0.00     0.029 A 
ATOM     54  C   UNL     1     -11.975  -2.838   3.803  1.00  0.00     0.049 A 
ATOM     55  H   UNL     1      -9.907  -2.999   3.416  1.00  0.00     0.167 HD
ATOM     56  C   UNL     1     -11.841  -3.349   1.383  1.00  0.00     0.074 A 
ATOM     57  C   UNL     1     -12.432  -3.637   0.093  1.00  0.00     0.031 C 
ATOM     58  C   UNL     1     -12.554  -3.081   2.506  1.00  0.00     0.034 A 
BRANCH  45  59
ATOM     59  C   UNL     1      -9.069  -2.301   7.549  1.00  0.00     0.023 A 
ATOM     60  C   UNL     1      -8.599  -1.076   8.063  1.00  0.00     0.012 A 
ATOM     61  C   UNL     1      -9.529  -3.293   8.436  1.00  0.00     0.148 A 
ATOM     62  C   UNL     1      -8.553  -0.856   9.439  1.00  0.00     0.002 A 
ATOM     63  C   UNL     1      -9.527  -3.048   9.804  1.00  0.00     0.091 A 
ATOM     64  F   UNL     1      -9.951  -4.461   7.929  1.00  0.00    -0.205 F 
ATOM     65  C   UNL     1      -9.027  -1.836  10.307  1.00  0.00     0.022 A 
BRANCH  63  66
ATOM     66  S   UNL     1     -10.192  -4.213  10.997  1.00  0.00     0.127 S 
ATOM     67  O   UNL     1      -8.979  -4.656  11.684  1.00  0.00    -0.237 OA
ATOM     68  O   UNL     1     -11.070  -3.362  11.801  1.00  0.00    -0.237 OA
ATOM     69  O   UNL     1     -10.879  -5.237  10.223  1.00  0.00    -0.744 OA
ENDBRANCH  63  66
ENDBRANCH  45  59
BRANCH  46  70
ATOM     70  C   UNL     1      -8.970  -4.210  -2.252  1.00  0.00     0.023 A 
ATOM     71  C   UNL     1      -9.471  -3.270  -3.173  1.00  0.00     0.012 A 
ATOM     72  C   UNL     1      -8.485  -5.444  -2.728  1.00  0.00     0.148 A 
ATOM     73  C   UNL     1      -9.521  -3.565  -4.537  1.00  0.00     0.002 A 
ATOM     74  C   UNL     1      -8.482  -5.708  -4.093  1.00  0.00     0.091 A 
ATOM     75  F   UNL     1      -8.029  -6.334  -1.835  1.00  0.00    -0.205 F 
ATOM     76  C   UNL     1      -9.018  -4.779  -4.997  1.00  0.00     0.022 A 
BRANCH  74  77
ATOM     77  S   UNL     1      -7.739  -7.188  -4.787  1.00  0.00     0.127 S 
ATOM     78  O   UNL     1      -8.907  -7.896  -5.307  1.00  0.00    -0.237 OA
ATOM     79  O   UNL     1      -6.853  -6.630  -5.809  1.00  0.00    -0.237 OA
ATOM     80  O   UNL     1      -7.047  -7.841  -3.684  1.00  0.00    -0.744 OA
ENDBRANCH  74  77
ENDBRANCH  46  70
BRANCH  58  81
ATOM     81  C   UNL     1     -14.058  -3.040   2.395  1.00  0.00     0.023 A 
ATOM     82  C   UNL     1     -14.787  -4.229   2.200  1.00  0.00     0.012 A 
ATOM     83  C   UNL     1     -14.754  -1.825   2.564  1.00  0.00     0.148 A 
ATOM     84  C   UNL     1     -16.181  -4.206   2.138  1.00  0.00     0.002 A 
ATOM     85  C   UNL     1     -16.144  -1.817   2.555  1.00  0.00     0.091 A 
ATOM     86  F   UNL     1     -14.044  -0.700   2.736  1.00  0.00    -0.205 F 
ATOM     87  C   UNL     1     -16.859  -3.004   2.328  1.00  0.00     0.022 A 
BRANCH  85  88
ATOM     88  S   UNL     1     -17.105  -0.336   2.892  1.00  0.00     0.127 S 
ATOM     89  O   UNL     1     -17.686  -0.054   1.580  1.00  0.00    -0.237 OA
ATOM     90  O   UNL     1     -18.061  -0.809   3.893  1.00  0.00    -0.237 OA
ATOM     91  O   UNL     1     -16.158   0.657   3.381  1.00  0.00    -0.744 OA
ENDBRANCH  85  88
ENDBRANCH  58  81
ENDBRANCH  32  33
ENDBRANCH  25  27
ENDBRANCH  24  25
ENDBRANCH  23  24
ENDBRANCH  22  23
ENDBRANCH  21  22
ENDBRANCH   1  21
TORSDOF 22
