REMARK SMILES Cc1ccccc1/[NH+]=C1\S[C@@H](CC(=O)Nc2ccc(C(=O)OCCOCCOCCOC(=O)c3ccc(-c4c5nc(c(-c6cccc(S(=O)(=O)[O-])c6F)c6ccc([nH]6)c(-c6cccc(S(=O)(=O)[O-])c6F)c6nc(c(-c7cccc(S(=O)(=O)[O-])c7F)c7ccc4[nH]7)C=C6)C=C5)cc3)cc2)C(=O)N1C
REMARK SMILES IDX 26 1 25 2 24 3 23 4 22 5 20 6 21 7 19 8 16 9 17 10 98 11
REMARK SMILES IDX 18 12 97 13 15 14 13 15 14 16 12 18 11 19 8 20 9 21 10 23
REMARK SMILES IDX 101 24 99 25 102 26 100 27 7 28 1 29 2 30 3 31 4 32 6 33
REMARK SMILES IDX 5 34 27 35 28 36 29 37 30 38 31 39 32 40 33 41 34 42 35 43
REMARK SMILES IDX 96 44 36 45 95 46 37 47 38 48 39 49 89 50 40 51 94 52 88 53
REMARK SMILES IDX 90 54 41 55 93 56 87 57 86 58 42 60 74 61 54 62 73 63 55 64
REMARK SMILES IDX 58 65 72 66 91 67 56 68 57 69 71 71 92 72 59 73 43 74 44 75
REMARK SMILES IDX 52 76 45 77 47 78 53 79 46 80 48 81 49 82 50 83 51 84 75 85
REMARK SMILES IDX 76 86 84 87 77 88 79 89 85 90 78 91 80 92 81 93 82 94 83 95
REMARK SMILES IDX 60 96 61 97 69 98 62 99 64 100 70 101 63 102 65 103 66 104
REMARK SMILES IDX 67 105 68 106
REMARK H PARENT 15 17 8 22 90 59 58 70
REMARK Flexibility Score: inf
ROOT
ATOM      1  C   UNL     1       2.172   9.158  -1.764  1.00  0.00     0.188 C 
ENDROOT
BRANCH   1   2
ATOM      2  O   UNL     1       1.135   8.373  -2.325  1.00  0.00    -0.376 OA
BRANCH   2   3
ATOM      3  C   UNL     1       1.687   7.133  -2.837  1.00  0.00     0.202 C 
BRANCH   3   4
ATOM      4  C   UNL     1       1.758   5.909  -1.748  1.00  0.00     0.261 C 
BRANCH   4   5
ATOM      5  O   UNL     1       3.058   5.223  -1.206  1.00  0.00    -0.460 OA
BRANCH   5   6
ATOM      6  C   UNL     1       4.092   4.402  -1.570  1.00  0.00     0.338 C 
ATOM      7  O   UNL     1       4.178   3.631  -2.508  1.00  0.00    -0.246 OA
BRANCH   6   8
ATOM      8  C   UNL     1       5.311   4.462  -0.714  1.00  0.00     0.060 A 
ATOM      9  C   UNL     1       7.252   3.795   1.137  1.00  0.00     0.041 A 
ATOM     10  C   UNL     1       6.194   4.627   1.506  1.00  0.00     0.027 A 
ATOM     11  C   UNL     1       7.515   3.544  -0.202  1.00  0.00     0.027 A 
ATOM     12  C   UNL     1       5.215   4.957   0.575  1.00  0.00     0.018 A 
ATOM     13  C   UNL     1       6.529   3.873  -1.137  1.00  0.00     0.018 A 
BRANCH   9  14
ATOM     14  N   UNL     1       7.754   2.921   2.115  1.00  0.00    -0.326 N 
ATOM     15  C   UNL     1       7.044   1.810   2.539  1.00  0.00     0.226 C 
ATOM     16  O   UNL     1       7.277   1.304   3.639  1.00  0.00    -0.275 OA
ATOM     17  H   UNL     1       8.637   3.104   2.510  1.00  0.00     0.169 HD
BRANCH  15  18
ATOM     18  C   UNL     1       6.046   1.175   1.583  1.00  0.00     0.128 C 
BRANCH  18  19
ATOM     19  C   UNL     1       4.573   1.308   1.925  1.00  0.00     0.183 C 
ATOM     20  N   UNL     1       1.039   1.655   0.900  1.00  0.00    -0.234 N 
ATOM     21  C   UNL     1       2.306   1.826   0.923  1.00  0.00     0.319 C 
ATOM     22  H   UNL     1       0.533   2.487   1.047  1.00  0.00     0.313 HD
ATOM     23  S   UNL     1       3.634   0.846   0.457  1.00  0.00    -0.022 SA
ATOM     24  N   UNL     1       2.809   2.916   1.584  1.00  0.00    -0.193 N 
ATOM     25  C   UNL     1       3.954   2.645   2.316  1.00  0.00     0.324 C 
ATOM     26  C   UNL     1       2.010   4.107   1.801  1.00  0.00     0.301 C 
ATOM     27  O   UNL     1       4.321   3.298   3.290  1.00  0.00    -0.245 OA
BRANCH  20  28
ATOM     28  C   UNL     1       0.217   0.531   0.711  1.00  0.00     0.128 A 
ATOM     29  C   UNL     1       1.743  -1.353  -0.239  1.00  0.00     0.049 C 
ATOM     30  C   UNL     1       0.487  -0.807   0.366  1.00  0.00    -0.004 A 
ATOM     31  C   UNL     1      -0.522  -1.782   0.553  1.00  0.00     0.008 A 
ATOM     32  C   UNL     1      -1.800  -1.456   0.992  1.00  0.00     0.001 A 
ATOM     33  C   UNL     1      -1.108   0.831   1.105  1.00  0.00     0.052 A 
ATOM     34  C   UNL     1      -2.105  -0.134   1.240  1.00  0.00     0.004 A 
ENDBRANCH  20  28
ENDBRANCH  18  19
ENDBRANCH  15  18
ENDBRANCH   9  14
ENDBRANCH   6   8
ENDBRANCH   5   6
ENDBRANCH   4   5
ENDBRANCH   3   4
ENDBRANCH   2   3
ENDBRANCH   1   2
BRANCH   1  35
ATOM     35  C   UNL     1       1.735  10.447  -1.084  1.00  0.00     0.188 C 
BRANCH  35  36
ATOM     36  O   UNL     1       1.726  11.663  -1.834  1.00  0.00    -0.376 OA
BRANCH  36  37
ATOM     37  C   UNL     1       2.674  11.816  -2.888  1.00  0.00     0.202 C 
BRANCH  37  38
ATOM     38  C   UNL     1       4.183  11.880  -2.533  1.00  0.00     0.261 C 
BRANCH  38  39
ATOM     39  O   UNL     1       4.591  10.870  -1.594  1.00  0.00    -0.460 OA
BRANCH  39  40
ATOM     40  C   UNL     1       5.934  10.576  -1.581  1.00  0.00     0.338 C 
ATOM     41  O   UNL     1       6.833  11.392  -1.619  1.00  0.00    -0.246 OA
BRANCH  40  42
ATOM     42  C   UNL     1       6.019   9.107  -1.833  1.00  0.00     0.060 A 
ATOM     43  C   UNL     1       6.731   8.541  -2.868  1.00  0.00     0.016 A 
ATOM     44  C   UNL     1       5.110   8.287  -1.256  1.00  0.00     0.016 A 
ATOM     45  C   UNL     1       6.288   7.326  -3.500  1.00  0.00     0.010 A 
ATOM     46  C   UNL     1       4.596   7.240  -2.053  1.00  0.00     0.010 A 
ATOM     47  C   UNL     1       5.022   6.777  -3.306  1.00  0.00    -0.014 A 
BRANCH  47  48
ATOM     48  C   UNL     1       4.199   5.987  -4.494  1.00  0.00     0.031 A 
ATOM     49  C   UNL     1       3.272   4.663  -4.530  1.00  0.00     0.074 A 
ATOM     50  C   UNL     1       4.411   6.421  -5.765  1.00  0.00     0.049 A 
ATOM     51  N   UNL     1       3.612   3.454  -4.927  1.00  0.00    -0.248 NA
ATOM     52  C   UNL     1       1.826   4.627  -4.228  1.00  0.00     0.031 C 
ATOM     53  C   UNL     1       3.947   5.782  -6.998  1.00  0.00     0.029 A 
ATOM     54  N   UNL     1       5.348   7.345  -6.235  1.00  0.00    -0.354 N 
ATOM     55  C   UNL     1       2.503   2.587  -4.707  1.00  0.00     0.074 A 
ATOM     56  C   UNL     1       1.514   3.347  -4.021  1.00  0.00     0.031 C 
ATOM     57  C   UNL     1       4.885   6.001  -7.938  1.00  0.00     0.029 A 
ATOM     58  C   UNL     1       5.984   6.718  -7.304  1.00  0.00     0.049 A 
ATOM     59  H   UNL     1       5.521   8.248  -5.884  1.00  0.00     0.167 HD
ATOM     60  C   UNL     1       2.195   1.462  -5.427  1.00  0.00     0.034 A 
ATOM     61  C   UNL     1       7.307   6.372  -7.295  1.00  0.00     0.034 A 
ATOM     62  C   UNL     1       2.995   1.496  -6.625  1.00  0.00     0.049 A 
ATOM     63  C   UNL     1       7.521   4.899  -7.618  1.00  0.00     0.074 A 
ATOM     64  C   UNL     1       2.758   2.134  -7.830  1.00  0.00     0.029 A 
ATOM     65  N   UNL     1       4.338   1.225  -6.551  1.00  0.00    -0.354 N 
ATOM     66  N   UNL     1       6.580   3.993  -7.653  1.00  0.00    -0.248 NA
ATOM     67  C   UNL     1       8.834   4.334  -7.911  1.00  0.00     0.031 C 
ATOM     68  C   UNL     1       4.009   2.337  -8.451  1.00  0.00     0.029 A 
ATOM     69  C   UNL     1       4.981   1.760  -7.653  1.00  0.00     0.049 A 
ATOM     70  H   UNL     1       4.777   0.726  -5.825  1.00  0.00     0.167 HD
ATOM     71  C   UNL     1       7.137   2.749  -7.857  1.00  0.00     0.074 A 
ATOM     72  C   UNL     1       8.542   3.034  -8.079  1.00  0.00     0.031 C 
ATOM     73  C   UNL     1       6.414   1.587  -7.776  1.00  0.00     0.034 A 
BRANCH  60  74
ATOM     74  C   UNL     1       0.860   0.684  -5.342  1.00  0.00     0.023 A 
ATOM     75  C   UNL     1       0.308   0.193  -6.550  1.00  0.00     0.012 A 
ATOM     76  C   UNL     1       0.090   0.436  -4.173  1.00  0.00     0.148 A 
ATOM     77  C   UNL     1      -0.965  -0.389  -6.630  1.00  0.00     0.002 A 
ATOM     78  C   UNL     1      -1.207  -0.115  -4.261  1.00  0.00     0.091 A 
ATOM     79  F   UNL     1       0.608   0.735  -2.971  1.00  0.00    -0.205 F 
ATOM     80  C   UNL     1      -1.736  -0.516  -5.490  1.00  0.00     0.022 A 
BRANCH  78  81
ATOM     81  S   UNL     1      -2.326  -0.188  -2.844  1.00  0.00     0.127 S 
ATOM     82  O   UNL     1      -3.658  -0.144  -3.459  1.00  0.00    -0.237 OA
ATOM     83  O   UNL     1      -2.000  -1.478  -2.247  1.00  0.00    -0.237 OA
ATOM     84  O   UNL     1      -2.012   1.016  -2.084  1.00  0.00    -0.744 OA
ENDBRANCH  78  81
ENDBRANCH  60  74
BRANCH  61  85
ATOM     85  C   UNL     1       8.260   7.232  -6.490  1.00  0.00     0.023 A 
ATOM     86  C   UNL     1       8.148   8.642  -6.629  1.00  0.00     0.012 A 
ATOM     87  C   UNL     1       9.098   6.751  -5.460  1.00  0.00     0.148 A 
ATOM     88  C   UNL     1       8.775   9.530  -5.748  1.00  0.00     0.002 A 
ATOM     89  C   UNL     1       9.709   7.646  -4.565  1.00  0.00     0.091 A 
ATOM     90  F   UNL     1       9.217   5.430  -5.280  1.00  0.00    -0.205 F 
ATOM     91  C   UNL     1       9.560   9.033  -4.716  1.00  0.00     0.022 A 
BRANCH  89  92
ATOM     92  S   UNL     1      10.460   7.048  -3.031  1.00  0.00     0.127 S 
ATOM     93  O   UNL     1      10.338   8.201  -2.137  1.00  0.00    -0.237 OA
ATOM     94  O   UNL     1       9.628   5.915  -2.648  1.00  0.00    -0.237 OA
ATOM     95  O   UNL     1      11.821   6.748  -3.463  1.00  0.00    -0.744 OA
ENDBRANCH  89  92
ENDBRANCH  61  85
BRANCH  73  96
ATOM     96  C   UNL     1       6.947   0.156  -7.751  1.00  0.00     0.023 A 
ATOM     97  C   UNL     1       8.288  -0.147  -7.468  1.00  0.00     0.012 A 
ATOM     98  C   UNL     1       6.060  -0.959  -7.838  1.00  0.00     0.148 A 
ATOM     99  C   UNL     1       8.736  -1.465  -7.317  1.00  0.00     0.002 A 
ATOM    100  C   UNL     1       6.483  -2.251  -7.541  1.00  0.00     0.091 A 
ATOM    101  F   UNL     1       4.787  -0.786  -8.227  1.00  0.00    -0.205 F 
ATOM    102  C   UNL     1       7.830  -2.516  -7.317  1.00  0.00     0.022 A 
BRANCH 100 103
ATOM    103  S   UNL     1       5.276  -3.553  -7.233  1.00  0.00     0.127 S 
ATOM    104  O   UNL     1       5.022  -4.068  -8.576  1.00  0.00    -0.237 OA
ATOM    105  O   UNL     1       6.009  -4.471  -6.359  1.00  0.00    -0.237 OA
ATOM    106  O   UNL     1       4.169  -2.868  -6.577  1.00  0.00    -0.744 OA
ENDBRANCH 100 103
ENDBRANCH  73  96
ENDBRANCH  47  48
ENDBRANCH  40  42
ENDBRANCH  39  40
ENDBRANCH  38  39
ENDBRANCH  37  38
ENDBRANCH  36  37
ENDBRANCH  35  36
ENDBRANCH   1  35
TORSDOF 24
