REMARK SMILES CN(C)C(=O)C[NH+]1CCN(c2cc(C(=O)OCCOCCOCCOC(=O)c3ccc(-c4c5nc(c(-c6cccc(S(=O)(=O)[O-])c6F)c6ccc([nH]6)c(-c6cccc(S(=O)(=O)[O-])c6F)c6nc(c(-c7cccc(S(=O)(=O)[O-])c7F)c7ccc4[nH]7)C=C6)C=C5)cc3)c3cc(NC(=O)c4cccc(Cl)c4)ccc3n2)CC1
REMARK SMILES IDX 20 1 19 2 18 3 17 4 16 5 14 6 15 7 13 8 11 9 12 10 107 11
REMARK SMILES IDX 106 12 91 13 105 14 92 15 104 16 93 17 10 18 7 19 8 20
REMARK SMILES IDX 109 21 9 23 108 24 6 25 4 26 1 27 2 28 3 29 5 30 94 31 95 32
REMARK SMILES IDX 96 34 97 35 98 36 103 37 99 38 101 39 100 40 102 41 21 42
REMARK SMILES IDX 22 43 23 44 24 45 25 46 26 47 27 48 28 49 29 50 90 51 30 52
REMARK SMILES IDX 89 53 31 54 32 55 33 56 83 57 34 58 88 59 82 60 84 61 35 62
REMARK SMILES IDX 87 63 81 64 80 65 36 67 68 68 48 69 67 70 49 71 52 72 66 73
REMARK SMILES IDX 85 74 50 75 51 76 65 78 86 79 53 80 37 81 38 82 46 83 39 84
REMARK SMILES IDX 41 85 47 86 40 87 42 88 43 89 44 90 45 91 69 92 70 93 78 94
REMARK SMILES IDX 71 95 73 96 79 97 72 98 74 99 75 100 76 101 77 102 54 103
REMARK SMILES IDX 55 104 63 105 56 106 58 107 64 108 57 109 59 110 60 111
REMARK SMILES IDX 61 112 62 113
REMARK H PARENT 7 22 94 33 84 66 52 77
REMARK Flexibility Score: inf
ROOT
ATOM      1  C   UNL     1       0.851  10.323   6.242  1.00  0.00     0.188 C 
ENDROOT
BRANCH   1   2
ATOM      2  O   UNL     1       0.693  10.848   7.554  1.00  0.00    -0.376 OA
BRANCH   2   3
ATOM      3  C   UNL     1       1.879  11.229   8.252  1.00  0.00     0.202 C 
BRANCH   3   4
ATOM      4  C   UNL     1       3.053  10.243   8.204  1.00  0.00     0.261 C 
BRANCH   4   5
ATOM      5  O   UNL     1       3.549  10.051   6.860  1.00  0.00    -0.460 OA
BRANCH   5   6
ATOM      6  C   UNL     1       3.904   8.777   6.567  1.00  0.00     0.339 C 
ATOM      7  O   UNL     1       4.086   7.882   7.378  1.00  0.00    -0.246 OA
BRANCH   6   8
ATOM      8  C   UNL     1       3.850   8.497   5.111  1.00  0.00     0.073 A 
ATOM      9  C   UNL     1       3.085   6.946   3.455  1.00  0.00     0.130 A 
ATOM     10  C   UNL     1       3.023   7.433   4.744  1.00  0.00     0.063 A 
ATOM     11  N   UNL     1       3.967   7.437   2.566  1.00  0.00    -0.231 NA
ATOM     12  C   UNL     1       4.723   8.494   2.893  1.00  0.00     0.074 A 
ATOM     13  C   UNL     1       4.661   9.127   4.145  1.00  0.00     0.017 A 
ATOM     14  C   UNL     1       5.607   8.978   1.944  1.00  0.00     0.031 A 
ATOM     15  C   UNL     1       5.394  10.325   4.340  1.00  0.00     0.037 A 
ATOM     16  C   UNL     1       6.395  10.108   2.181  1.00  0.00     0.028 A 
ATOM     17  C   UNL     1       6.281  10.810   3.380  1.00  0.00     0.042 A 
BRANCH   9  18
ATOM     18  N   UNL     1       2.283   5.907   3.069  1.00  0.00    -0.345 N 
ATOM     19  N   UNL     1       0.917   4.203   1.115  1.00  0.00    -0.324 N 
ATOM     20  C   UNL     1       0.407   5.547   1.484  1.00  0.00     0.284 C 
ATOM     21  C   UNL     1       2.393   4.212   1.278  1.00  0.00     0.284 C 
ATOM     22  H   UNL     1       0.695   3.982   0.144  1.00  0.00     0.348 HD
ATOM     23  C   UNL     1       0.849   6.086   2.871  1.00  0.00     0.179 C 
ATOM     24  C   UNL     1       2.901   4.650   2.666  1.00  0.00     0.179 C 
BRANCH  19  25
ATOM     25  C   UNL     1       0.262   3.160   1.945  1.00  0.00     0.363 C 
BRANCH  25  26
ATOM     26  C   UNL     1       0.773   1.753   1.594  1.00  0.00     0.277 C 
ATOM     27  C   UNL     1       0.947  -0.103   0.037  1.00  0.00     0.146 C 
ATOM     28  N   UNL     1       0.378   1.183   0.389  1.00  0.00    -0.344 N 
ATOM     29  C   UNL     1      -0.430   1.876  -0.603  1.00  0.00     0.146 C 
ATOM     30  O   UNL     1       1.550   1.172   2.361  1.00  0.00    -0.268 OA
ENDBRANCH  25  26
ENDBRANCH  19  25
ENDBRANCH   9  18
BRANCH  17  31
ATOM     31  N   UNL     1       7.049  11.982   3.498  1.00  0.00    -0.322 N 
ATOM     32  C   UNL     1       7.254  12.884   4.514  1.00  0.00     0.255 C 
ATOM     33  H   UNL     1       7.547  12.203   2.678  1.00  0.00     0.170 HD
ATOM     34  O   UNL     1       7.820  13.950   4.268  1.00  0.00    -0.269 OA
BRANCH  32  35
ATOM     35  C   UNL     1       6.863  12.620   5.909  1.00  0.00     0.041 A 
ATOM     36  C   UNL     1       6.100  13.585   6.579  1.00  0.00     0.014 A 
ATOM     37  C   UNL     1       7.283  11.461   6.569  1.00  0.00     0.034 A 
ATOM     38  C   UNL     1       5.722  13.373   7.904  1.00  0.00     0.002 A 
ATOM     39  C   UNL     1       6.880  11.249   7.885  1.00  0.00     0.041 A 
ATOM     40  C   UNL     1       6.114  12.204   8.556  1.00  0.00     0.020 A 
ATOM     41  Cl  UNL     1       7.300   9.782   8.676  1.00  0.00    -0.084 Cl
ENDBRANCH  32  35
ENDBRANCH  17  31
ENDBRANCH   6   8
ENDBRANCH   5   6
ENDBRANCH   4   5
ENDBRANCH   3   4
ENDBRANCH   2   3
ENDBRANCH   1   2
BRANCH   1  42
ATOM     42  C   UNL     1       1.513  11.230   5.181  1.00  0.00     0.188 C 
BRANCH  42  43
ATOM     43  O   UNL     1       2.094  12.411   5.714  1.00  0.00    -0.376 OA
BRANCH  43  44
ATOM     44  C   UNL     1       1.469  13.626   5.319  1.00  0.00     0.202 C 
BRANCH  44  45
ATOM     45  C   UNL     1       0.023  13.871   5.791  1.00  0.00     0.261 C 
BRANCH  45  46
ATOM     46  O   UNL     1      -0.897  12.778   5.643  1.00  0.00    -0.460 OA
BRANCH  46  47
ATOM     47  C   UNL     1      -1.357  12.496   4.398  1.00  0.00     0.338 C 
ATOM     48  O   UNL     1      -1.083  13.077   3.375  1.00  0.00    -0.246 OA
BRANCH  47  49
ATOM     49  C   UNL     1      -2.059  11.186   4.483  1.00  0.00     0.060 A 
ATOM     50  C   UNL     1      -1.610  10.129   3.676  1.00  0.00     0.016 A 
ATOM     51  C   UNL     1      -3.082  10.974   5.411  1.00  0.00     0.016 A 
ATOM     52  C   UNL     1      -2.184   8.860   3.799  1.00  0.00     0.010 A 
ATOM     53  C   UNL     1      -3.678   9.711   5.508  1.00  0.00     0.010 A 
ATOM     54  C   UNL     1      -3.246   8.653   4.690  1.00  0.00    -0.014 A 
BRANCH  54  55
ATOM     55  C   UNL     1      -4.058   7.414   4.593  1.00  0.00     0.031 A 
ATOM     56  C   UNL     1      -5.263   7.446   3.691  1.00  0.00     0.074 A 
ATOM     57  C   UNL     1      -3.753   6.295   5.277  1.00  0.00     0.049 A 
ATOM     58  N   UNL     1      -6.158   6.522   3.466  1.00  0.00    -0.248 NA
ATOM     59  C   UNL     1      -5.482   8.694   2.938  1.00  0.00     0.031 C 
ATOM     60  C   UNL     1      -2.607   6.125   6.168  1.00  0.00     0.029 A 
ATOM     61  N   UNL     1      -4.411   5.089   5.344  1.00  0.00    -0.354 N 
ATOM     62  C   UNL     1      -7.054   7.079   2.562  1.00  0.00     0.074 A 
ATOM     63  C   UNL     1      -6.603   8.425   2.286  1.00  0.00     0.031 C 
ATOM     64  C   UNL     1      -2.662   4.899   6.721  1.00  0.00     0.029 A 
ATOM     65  C   UNL     1      -3.859   4.207   6.246  1.00  0.00     0.049 A 
ATOM     66  H   UNL     1      -5.203   4.877   4.799  1.00  0.00     0.167 HD
ATOM     67  C   UNL     1      -8.149   6.520   1.997  1.00  0.00     0.034 A 
ATOM     68  C   UNL     1      -4.293   2.996   6.657  1.00  0.00     0.034 A 
ATOM     69  C   UNL     1      -8.608   5.190   2.276  1.00  0.00     0.049 A 
ATOM     70  C   UNL     1      -5.559   2.423   6.061  1.00  0.00     0.074 A 
ATOM     71  C   UNL     1      -9.703   4.530   1.748  1.00  0.00     0.029 A 
ATOM     72  N   UNL     1      -8.009   4.320   3.173  1.00  0.00    -0.354 N 
ATOM     73  N   UNL     1      -6.335   2.921   5.128  1.00  0.00    -0.248 NA
ATOM     74  C   UNL     1      -5.991   1.105   6.554  1.00  0.00     0.031 C 
ATOM     75  C   UNL     1      -9.781   3.269   2.345  1.00  0.00     0.029 A 
ATOM     76  C   UNL     1      -8.712   3.130   3.216  1.00  0.00     0.049 A 
ATOM     77  H   UNL     1      -7.203   4.520   3.701  1.00  0.00     0.167 HD
ATOM     78  C   UNL     1      -7.315   1.960   4.891  1.00  0.00     0.074 A 
ATOM     79  C   UNL     1      -7.024   0.843   5.765  1.00  0.00     0.031 C 
ATOM     80  C   UNL     1      -8.368   2.000   4.039  1.00  0.00     0.034 A 
BRANCH  67  81
ATOM     81  C   UNL     1      -8.914   7.346   0.999  1.00  0.00     0.023 A 
ATOM     82  C   UNL     1      -8.365   7.573  -0.280  1.00  0.00     0.012 A 
ATOM     83  C   UNL     1     -10.193   7.847   1.304  1.00  0.00     0.148 A 
ATOM     84  C   UNL     1      -9.067   8.309  -1.232  1.00  0.00     0.002 A 
ATOM     85  C   UNL     1     -10.906   8.541   0.334  1.00  0.00     0.091 A 
ATOM     86  F   UNL     1     -10.684   7.639   2.534  1.00  0.00    -0.205 F 
ATOM     87  C   UNL     1     -10.341   8.782  -0.929  1.00  0.00     0.022 A 
BRANCH  85  88
ATOM     88  S   UNL     1     -12.583   9.128   0.596  1.00  0.00     0.127 S 
ATOM     89  O   UNL     1     -12.397  10.578   0.554  1.00  0.00    -0.237 OA
ATOM     90  O   UNL     1     -13.285   8.569  -0.559  1.00  0.00    -0.237 OA
ATOM     91  O   UNL     1     -13.001   8.594   1.884  1.00  0.00    -0.744 OA
ENDBRANCH  85  88
ENDBRANCH  67  81
BRANCH  68  92
ATOM     92  C   UNL     1      -3.534   2.216   7.680  1.00  0.00     0.023 A 
ATOM     93  C   UNL     1      -2.931   0.994   7.319  1.00  0.00     0.012 A 
ATOM     94  C   UNL     1      -3.450   2.649   9.018  1.00  0.00     0.148 A 
ATOM     95  C   UNL     1      -2.301   0.198   8.278  1.00  0.00     0.002 A 
ATOM     96  C   UNL     1      -2.774   1.877   9.957  1.00  0.00     0.091 A 
ATOM     97  F   UNL     1      -4.049   3.801   9.351  1.00  0.00    -0.205 F 
ATOM     98  C   UNL     1      -2.216   0.642   9.594  1.00  0.00     0.022 A 
BRANCH  96  99
ATOM     99  S   UNL     1      -2.523   2.423  11.650  1.00  0.00     0.127 S 
ATOM    100  O   UNL     1      -3.422   1.538  12.386  1.00  0.00    -0.237 OA
ATOM    101  O   UNL     1      -1.098   2.156  11.846  1.00  0.00    -0.237 OA
ATOM    102  O   UNL     1      -2.876   3.836  11.661  1.00  0.00    -0.744 OA
ENDBRANCH  96  99
ENDBRANCH  68  92
BRANCH  80 103
ATOM    103  C   UNL     1      -9.253   0.782   3.946  1.00  0.00     0.023 A 
ATOM    104  C   UNL     1     -10.128   0.460   5.002  1.00  0.00     0.012 A 
ATOM    105  C   UNL     1      -9.274   0.006   2.770  1.00  0.00     0.148 A 
ATOM    106  C   UNL     1     -10.984  -0.637   4.902  1.00  0.00     0.002 A 
ATOM    107  C   UNL     1     -10.167  -1.052   2.656  1.00  0.00     0.091 A 
ATOM    108  F   UNL     1      -8.424   0.321   1.781  1.00  0.00    -0.205 F 
ATOM    109  C   UNL     1     -11.013  -1.384   3.726  1.00  0.00     0.022 A 
BRANCH 107 110
ATOM    110  S   UNL     1     -10.347  -2.004   1.143  1.00  0.00     0.127 S 
ATOM    111  O   UNL     1      -9.766  -3.289   1.529  1.00  0.00    -0.237 OA
ATOM    112  O   UNL     1     -11.798  -2.021   0.958  1.00  0.00    -0.237 OA
ATOM    113  O   UNL     1      -9.615  -1.272   0.118  1.00  0.00    -0.744 OA
ENDBRANCH 107 110
ENDBRANCH  80 103
ENDBRANCH  54  55
ENDBRANCH  47  49
ENDBRANCH  46  47
ENDBRANCH  45  46
ENDBRANCH  44  45
ENDBRANCH  43  44
ENDBRANCH  42  43
ENDBRANCH   1  42
TORSDOF 25
