REMARK SMILES CC(=O)n1cc2c3c(cccc31)C(=O)C[C@@H]2C(=O)OCCOCCOCCOC(=O)c1ccc(-c2c3nc(c(-c4cccc(S(=O)(=O)[O-])c4F)c4ccc([nH]4)c(-c4cccc(S(=O)(=O)[O-])c4F)c4nc(c(-c5cccc(S(=O)(=O)[O-])c5F)c5ccc2[nH]5)C=C4)C=C3)cc1
REMARK SMILES IDX 24 1 23 2 22 3 21 4 20 5 19 6 17 7 18 8 16 9 4 10 5 11 12 12
REMARK SMILES IDX 6 13 7 14 11 15 8 16 10 17 15 18 9 19 13 20 14 21 2 22 1 23
REMARK SMILES IDX 3 24 25 25 26 26 27 27 28 28 29 29 30 30 31 31 32 32 93 33
REMARK SMILES IDX 33 34 92 35 34 36 35 37 36 38 86 39 37 40 91 41 85 42 87 43
REMARK SMILES IDX 38 44 90 45 84 46 83 47 39 49 71 50 51 51 70 52 52 53 55 54
REMARK SMILES IDX 69 55 88 56 53 57 54 58 68 60 89 61 56 62 40 63 41 64 49 65
REMARK SMILES IDX 42 66 44 67 50 68 43 69 45 70 46 71 47 72 48 73 72 74 73 75
REMARK SMILES IDX 81 76 74 77 76 78 82 79 75 80 77 81 78 82 79 83 80 84 57 85
REMARK SMILES IDX 58 86 66 87 59 88 61 89 67 90 60 91 62 92 63 93 64 94 65 95
REMARK H PARENT 87 48 55 59
REMARK Flexibility Score: inf
ROOT
ATOM      1  C   UNL     1       6.455   5.203  -4.461  1.00  0.00     0.188 C 
ENDROOT
BRANCH   1   2
ATOM      2  C   UNL     1       6.616   4.603  -3.066  1.00  0.00     0.188 C 
BRANCH   2   3
ATOM      3  O   UNL     1       7.327   3.368  -2.988  1.00  0.00    -0.376 OA
BRANCH   3   4
ATOM      4  C   UNL     1       7.156   2.446  -4.060  1.00  0.00     0.202 C 
BRANCH   4   5
ATOM      5  C   UNL     1       5.796   1.724  -4.135  1.00  0.00     0.261 C 
BRANCH   5   6
ATOM      6  O   UNL     1       4.631   2.571  -4.059  1.00  0.00    -0.463 OA
BRANCH   6   7
ATOM      7  C   UNL     1       4.188   2.825  -2.807  1.00  0.00     0.314 C 
ATOM      8  O   UNL     1       4.641   2.281  -1.801  1.00  0.00    -0.252 OA
BRANCH   7   9
ATOM      9  C   UNL     1       3.019   3.816  -2.723  1.00  0.00     0.139 C 
ATOM     10  N   UNL     1       0.314   1.452  -1.786  1.00  0.00    -0.287 N 
ATOM     11  C   UNL     1       1.625   1.884  -1.673  1.00  0.00     0.100 A 
ATOM     12  C   UNL     1      -0.372   2.394  -2.564  1.00  0.00     0.057 A 
ATOM     13  C   UNL     1       1.804   3.008  -2.434  1.00  0.00    -0.006 A 
ATOM     14  C   UNL     1       0.555   3.357  -2.938  1.00  0.00     0.015 A 
ATOM     15  C   UNL     1      -1.712   2.534  -2.957  1.00  0.00     0.027 A 
ATOM     16  C   UNL     1       0.209   4.475  -3.689  1.00  0.00     0.027 A 
ATOM     17  C   UNL     1      -2.068   3.692  -3.679  1.00  0.00     0.003 A 
ATOM     18  C   UNL     1       2.777   4.797  -3.904  1.00  0.00     0.101 C 
ATOM     19  C   UNL     1      -1.125   4.666  -4.034  1.00  0.00     0.012 A 
ATOM     20  C   UNL     1       1.342   5.375  -4.015  1.00  0.00     0.164 C 
ATOM     21  O   UNL     1       1.110   6.510  -4.421  1.00  0.00    -0.294 OA
BRANCH  10  22
ATOM     22  C   UNL     1      -0.206   0.286  -1.198  1.00  0.00     0.227 C 
ATOM     23  C   UNL     1       0.651  -0.297  -0.107  1.00  0.00     0.115 C 
ATOM     24  O   UNL     1      -1.293  -0.155  -1.547  1.00  0.00    -0.274 OA
ENDBRANCH  10  22
ENDBRANCH   7   9
ENDBRANCH   6   7
ENDBRANCH   5   6
ENDBRANCH   4   5
ENDBRANCH   3   4
ENDBRANCH   2   3
ENDBRANCH   1   2
BRANCH   1  25
ATOM     25  O   UNL     1       5.822   4.381  -5.428  1.00  0.00    -0.376 OA
BRANCH  25  26
ATOM     26  C   UNL     1       6.081   4.537  -6.828  1.00  0.00     0.202 C 
BRANCH  26  27
ATOM     27  C   UNL     1       7.324   5.242  -7.402  1.00  0.00     0.261 C 
BRANCH  27  28
ATOM     28  O   UNL     1       7.799   6.358  -6.682  1.00  0.00    -0.460 OA
BRANCH  28  29
ATOM     29  C   UNL     1       6.882   7.276  -6.309  1.00  0.00     0.338 C 
ATOM     30  O   UNL     1       5.759   7.409  -6.731  1.00  0.00    -0.246 OA
BRANCH  29  31
ATOM     31  C   UNL     1       7.486   8.021  -5.185  1.00  0.00     0.060 A 
ATOM     32  C   UNL     1       6.743   9.081  -4.678  1.00  0.00     0.016 A 
ATOM     33  C   UNL     1       8.839   7.828  -4.870  1.00  0.00     0.016 A 
ATOM     34  C   UNL     1       7.453  10.185  -4.296  1.00  0.00     0.010 A 
ATOM     35  C   UNL     1       9.550   8.928  -4.508  1.00  0.00     0.010 A 
ATOM     36  C   UNL     1       8.841  10.116  -4.415  1.00  0.00    -0.014 A 
BRANCH  36  37
ATOM     37  C   UNL     1       9.563  11.344  -4.594  1.00  0.00     0.031 A 
ATOM     38  C   UNL     1      10.028  11.889  -3.315  1.00  0.00     0.074 A 
ATOM     39  C   UNL     1       9.810  11.825  -5.829  1.00  0.00     0.049 A 
ATOM     40  N   UNL     1       9.454  12.814  -2.622  1.00  0.00    -0.248 NA
ATOM     41  C   UNL     1      11.074  11.145  -2.598  1.00  0.00     0.031 C 
ATOM     42  C   UNL     1       9.642  11.177  -7.136  1.00  0.00     0.029 A 
ATOM     43  N   UNL     1      10.399  12.996  -6.158  1.00  0.00    -0.354 N 
ATOM     44  C   UNL     1      10.253  12.936  -1.498  1.00  0.00     0.074 A 
ATOM     45  C   UNL     1      11.019  11.722  -1.398  1.00  0.00     0.031 C 
ATOM     46  C   UNL     1      10.367  11.854  -8.060  1.00  0.00     0.029 A 
ATOM     47  C   UNL     1      10.938  13.037  -7.439  1.00  0.00     0.049 A 
ATOM     48  H   UNL     1      10.443  13.761  -5.540  1.00  0.00     0.167 HD
ATOM     49  C   UNL     1      10.499  14.148  -0.938  1.00  0.00     0.034 A 
ATOM     50  C   UNL     1      11.873  13.929  -7.861  1.00  0.00     0.034 A 
ATOM     51  C   UNL     1       9.617  15.167  -1.435  1.00  0.00     0.049 A 
ATOM     52  C   UNL     1      11.818  15.072  -6.905  1.00  0.00     0.074 A 
ATOM     53  C   UNL     1       8.248  15.345  -1.442  1.00  0.00     0.029 A 
ATOM     54  N   UNL     1      10.116  15.977  -2.428  1.00  0.00    -0.354 N 
ATOM     55  N   UNL     1      10.778  15.849  -6.770  1.00  0.00    -0.248 NA
ATOM     56  C   UNL     1      12.729  15.040  -5.769  1.00  0.00     0.031 C 
ATOM     57  C   UNL     1       7.955  15.891  -2.725  1.00  0.00     0.029 A 
ATOM     58  C   UNL     1       9.160  16.075  -3.406  1.00  0.00     0.049 A 
ATOM     59  H   UNL     1      11.001  16.409  -2.436  1.00  0.00     0.167 HD
ATOM     60  C   UNL     1      10.668  16.048  -5.398  1.00  0.00     0.074 A 
ATOM     61  C   UNL     1      11.943  15.595  -4.841  1.00  0.00     0.031 C 
ATOM     62  C   UNL     1       9.455  16.260  -4.810  1.00  0.00     0.034 A 
BRANCH  49  63
ATOM     63  C   UNL     1      11.791  14.466  -0.251  1.00  0.00     0.023 A 
ATOM     64  C   UNL     1      11.806  15.528   0.667  1.00  0.00     0.012 A 
ATOM     65  C   UNL     1      13.034  13.906  -0.630  1.00  0.00     0.148 A 
ATOM     66  C   UNL     1      13.009  16.000   1.199  1.00  0.00     0.002 A 
ATOM     67  C   UNL     1      14.214  14.313  -0.031  1.00  0.00     0.091 A 
ATOM     68  F   UNL     1      13.096  13.070  -1.674  1.00  0.00    -0.205 F 
ATOM     69  C   UNL     1      14.210  15.377   0.871  1.00  0.00     0.022 A 
BRANCH  67  70
ATOM     70  S   UNL     1      15.774  13.501  -0.393  1.00  0.00     0.127 S 
ATOM     71  O   UNL     1      16.428  14.493  -1.241  1.00  0.00    -0.237 OA
ATOM     72  O   UNL     1      16.349  13.348   0.943  1.00  0.00    -0.237 OA
ATOM     73  O   UNL     1      15.413  12.242  -1.034  1.00  0.00    -0.744 OA
ENDBRANCH  67  70
ENDBRANCH  49  63
BRANCH  50  74
ATOM     74  C   UNL     1      13.056  13.722  -8.745  1.00  0.00     0.023 A 
ATOM     75  C   UNL     1      13.807  14.846  -9.155  1.00  0.00     0.012 A 
ATOM     76  C   UNL     1      13.635  12.446  -8.931  1.00  0.00     0.148 A 
ATOM     77  C   UNL     1      15.106  14.710  -9.665  1.00  0.00     0.002 A 
ATOM     78  C   UNL     1      14.923  12.315  -9.448  1.00  0.00     0.091 A 
ATOM     79  F   UNL     1      12.970  11.363  -8.512  1.00  0.00    -0.205 F 
ATOM     80  C   UNL     1      15.669  13.446  -9.799  1.00  0.00     0.022 A 
BRANCH  78  81
ATOM     81  S   UNL     1      15.717  10.711  -9.639  1.00  0.00     0.127 S 
ATOM     82  O   UNL     1      16.281  10.807 -10.986  1.00  0.00    -0.237 OA
ATOM     83  O   UNL     1      16.701  10.728  -8.561  1.00  0.00    -0.237 OA
ATOM     84  O   UNL     1      14.652   9.723  -9.509  1.00  0.00    -0.744 OA
ENDBRANCH  78  81
ENDBRANCH  50  74
BRANCH  62  85
ATOM     85  C   UNL     1       8.264  16.484  -5.706  1.00  0.00     0.023 A 
ATOM     86  C   UNL     1       7.672  15.444  -6.456  1.00  0.00     0.012 A 
ATOM     87  C   UNL     1       7.604  17.719  -5.614  1.00  0.00     0.148 A 
ATOM     88  C   UNL     1       6.444  15.636  -7.098  1.00  0.00     0.002 A 
ATOM     89  C   UNL     1       6.369  17.895  -6.223  1.00  0.00     0.091 A 
ATOM     90  F   UNL     1       8.180  18.684  -4.882  1.00  0.00    -0.205 F 
ATOM     91  C   UNL     1       5.785  16.857  -6.969  1.00  0.00     0.022 A 
BRANCH  89  92
ATOM     92  S   UNL     1       5.421  19.402  -6.009  1.00  0.00     0.127 S 
ATOM     93  O   UNL     1       5.431  19.962  -7.359  1.00  0.00    -0.237 OA
ATOM     94  O   UNL     1       4.123  18.891  -5.567  1.00  0.00    -0.237 OA
ATOM     95  O   UNL     1       6.129  20.188  -5.006  1.00  0.00    -0.744 OA
ENDBRANCH  89  92
ENDBRANCH  62  85
ENDBRANCH  36  37
ENDBRANCH  29  31
ENDBRANCH  28  29
ENDBRANCH  27  28
ENDBRANCH  26  27
ENDBRANCH  25  26
ENDBRANCH   1  25
TORSDOF 21
