REMARK SMILES CC(=O)Nc1cccc(-c2ccc(F)c(C(=O)OCCOCCOCCOC(=O)c3ccc(-c4c5nc(c(-c6cccc(S(=O)(=O)[O-])c6F)c6ccc([nH]6)c(-c6cccc(S(=O)(=O)[O-])c6F)c6nc(c(-c7cccc(S(=O)(=O)[O-])c7F)c7ccc4[nH]7)C=C6)C=C5)cc3)c2)c1
REMARK SMILES IDX 23 1 22 2 21 3 20 4 19 5 18 6 16 7 17 8 15 9 10 10 11 11
REMARK SMILES IDX 93 12 12 13 13 14 14 15 9 16 5 17 6 18 94 19 7 20 8 21 4 22
REMARK SMILES IDX 1 23 2 24 3 25 24 27 25 28 26 29 27 30 28 31 29 32 30 33
REMARK SMILES IDX 31 34 92 35 32 36 91 37 33 38 34 39 35 40 85 41 36 42 90 43
REMARK SMILES IDX 84 44 86 45 37 46 89 47 83 48 82 49 38 51 70 52 50 53 69 54
REMARK SMILES IDX 51 55 54 56 68 57 87 58 52 59 53 60 67 62 88 63 55 64 39 65
REMARK SMILES IDX 40 66 48 67 41 68 43 69 49 70 42 71 44 72 45 73 46 74 47 75
REMARK SMILES IDX 71 76 72 77 80 78 73 79 75 80 81 81 74 82 76 83 77 84 78 85
REMARK SMILES IDX 79 86 56 87 57 88 65 89 58 90 60 91 66 92 59 93 61 94 62 95
REMARK SMILES IDX 63 96 64 97
REMARK H PARENT 4 26 86 50 54 61
REMARK Flexibility Score: inf
ROOT
ATOM      1  C   UNL     1       8.922   0.065   3.052  1.00  0.00     0.188 C 
ENDROOT
BRANCH   1   2
ATOM      2  C   UNL     1       9.940   0.247   1.905  1.00  0.00     0.188 C 
BRANCH   2   3
ATOM      3  O   UNL     1      10.300   1.605   1.724  1.00  0.00    -0.376 OA
BRANCH   3   4
ATOM      4  C   UNL     1       9.900   2.253   0.533  1.00  0.00     0.202 C 
BRANCH   4   5
ATOM      5  C   UNL     1       8.401   2.341   0.205  1.00  0.00     0.261 C 
BRANCH   5   6
ATOM      6  O   UNL     1       7.625   1.202   0.596  1.00  0.00    -0.460 OA
BRANCH   6   7
ATOM      7  C   UNL     1       7.327   0.279  -0.347  1.00  0.00     0.341 C 
ATOM      8  O   UNL     1       7.609   0.319  -1.530  1.00  0.00    -0.246 OA
BRANCH   7   9
ATOM      9  C   UNL     1       6.623  -0.826   0.329  1.00  0.00     0.096 A 
ATOM     10  C   UNL     1       4.846  -1.601   1.827  1.00  0.00    -0.017 A 
ATOM     11  C   UNL     1       5.343  -2.907   1.684  1.00  0.00     0.012 A 
ATOM     12  C   UNL     1       5.519  -0.563   1.152  1.00  0.00     0.027 A 
ATOM     13  C   UNL     1       6.459  -3.168   0.878  1.00  0.00     0.041 A 
ATOM     14  C   UNL     1       7.087  -2.127   0.197  1.00  0.00     0.137 A 
ATOM     15  F   UNL     1       8.174  -2.400  -0.535  1.00  0.00    -0.206 F 
BRANCH  10  16
ATOM     16  C   UNL     1       3.630  -1.310   2.610  1.00  0.00    -0.016 A 
ATOM     17  C   UNL     1       1.476  -0.143   2.757  1.00  0.00     0.041 A 
ATOM     18  C   UNL     1       1.315  -0.623   4.058  1.00  0.00     0.026 A 
ATOM     19  C   UNL     1       2.636  -0.477   2.060  1.00  0.00     0.034 A 
ATOM     20  C   UNL     1       2.271  -1.473   4.619  1.00  0.00     0.003 A 
ATOM     21  C   UNL     1       3.417  -1.819   3.898  1.00  0.00     0.009 A 
BRANCH  17  22
ATOM     22  N   UNL     1       0.486   0.711   2.242  1.00  0.00    -0.326 N 
ATOM     23  C   UNL     1       0.687   0.260  -0.207  1.00  0.00     0.114 C 
ATOM     24  C   UNL     1       0.169   1.060   0.960  1.00  0.00     0.221 C 
ATOM     25  O   UNL     1      -0.605   2.004   0.776  1.00  0.00    -0.275 OA
ATOM     26  H   UNL     1      -0.079   1.134   2.928  1.00  0.00     0.169 HD
ENDBRANCH  17  22
ENDBRANCH  10  16
ENDBRANCH   7   9
ENDBRANCH   6   7
ENDBRANCH   5   6
ENDBRANCH   4   5
ENDBRANCH   3   4
ENDBRANCH   2   3
ENDBRANCH   1   2
BRANCH   1  27
ATOM     27  O   UNL     1       8.645   1.142   3.943  1.00  0.00    -0.376 OA
BRANCH  27  28
ATOM     28  C   UNL     1       9.717   1.947   4.416  1.00  0.00     0.202 C 
BRANCH  28  29
ATOM     29  C   UNL     1      10.842   1.278   5.214  1.00  0.00     0.261 C 
BRANCH  29  30
ATOM     30  O   UNL     1      11.412   0.115   4.596  1.00  0.00    -0.460 OA
BRANCH  30  31
ATOM     31  C   UNL     1      11.156  -1.061   5.223  1.00  0.00     0.338 C 
ATOM     32  O   UNL     1      10.523  -1.228   6.251  1.00  0.00    -0.246 OA
BRANCH  31  33
ATOM     33  C   UNL     1      11.614  -2.180   4.376  1.00  0.00     0.060 A 
ATOM     34  C   UNL     1      10.668  -3.129   3.965  1.00  0.00     0.016 A 
ATOM     35  C   UNL     1      12.957  -2.321   4.025  1.00  0.00     0.016 A 
ATOM     36  C   UNL     1      11.064  -4.228   3.205  1.00  0.00     0.010 A 
ATOM     37  C   UNL     1      13.356  -3.437   3.284  1.00  0.00     0.010 A 
ATOM     38  C   UNL     1      12.416  -4.404   2.887  1.00  0.00    -0.014 A 
BRANCH  38  39
ATOM     39  C   UNL     1      12.869  -5.656   2.238  1.00  0.00     0.031 A 
ATOM     40  C   UNL     1      13.405  -6.770   3.092  1.00  0.00     0.074 A 
ATOM     41  C   UNL     1      12.831  -5.788   0.901  1.00  0.00     0.049 A 
ATOM     42  N   UNL     1      13.887  -7.930   2.731  1.00  0.00    -0.248 NA
ATOM     43  C   UNL     1      13.397  -6.544   4.546  1.00  0.00     0.031 C 
ATOM     44  C   UNL     1      12.327  -4.782  -0.032  1.00  0.00     0.029 A 
ATOM     45  N   UNL     1      13.253  -6.816   0.096  1.00  0.00    -0.354 N 
ATOM     46  C   UNL     1      14.263  -8.565   3.908  1.00  0.00     0.074 A 
ATOM     47  C   UNL     1      13.959  -7.658   4.994  1.00  0.00     0.031 C 
ATOM     48  C   UNL     1      12.501  -5.229  -1.288  1.00  0.00     0.029 A 
ATOM     49  C   UNL     1      13.148  -6.540  -1.246  1.00  0.00     0.049 A 
ATOM     50  H   UNL     1      13.599  -7.669   0.446  1.00  0.00     0.167 HD
ATOM     51  C   UNL     1      14.801  -9.797   4.071  1.00  0.00     0.034 A 
ATOM     52  C   UNL     1      13.550  -7.253  -2.317  1.00  0.00     0.034 A 
ATOM     53  C   UNL     1      15.095 -10.701   2.993  1.00  0.00     0.049 A 
ATOM     54  C   UNL     1      14.200  -8.597  -2.109  1.00  0.00     0.074 A 
ATOM     55  C   UNL     1      15.572 -11.998   3.062  1.00  0.00     0.029 A 
ATOM     56  N   UNL     1      14.968 -10.393   1.647  1.00  0.00    -0.354 N 
ATOM     57  N   UNL     1      14.413  -9.248  -0.991  1.00  0.00    -0.248 NA
ATOM     58  C   UNL     1      14.647  -9.312  -3.314  1.00  0.00     0.031 C 
ATOM     59  C   UNL     1      15.763 -12.463   1.756  1.00  0.00     0.029 A 
ATOM     60  C   UNL     1      15.386 -11.463   0.874  1.00  0.00     0.049 A 
ATOM     61  H   UNL     1      14.630  -9.539   1.293  1.00  0.00     0.167 HD
ATOM     62  C   UNL     1      14.995 -10.457  -1.357  1.00  0.00     0.074 A 
ATOM     63  C   UNL     1      15.081 -10.458  -2.804  1.00  0.00     0.031 C 
ATOM     64  C   UNL     1      15.434 -11.469  -0.567  1.00  0.00     0.034 A 
BRANCH  51  65
ATOM     65  C   UNL     1      15.084 -10.245   5.480  1.00  0.00     0.023 A 
ATOM     66  C   UNL     1      14.013 -10.611   6.321  1.00  0.00     0.012 A 
ATOM     67  C   UNL     1      16.404 -10.331   5.962  1.00  0.00     0.148 A 
ATOM     68  C   UNL     1      14.250 -11.025   7.631  1.00  0.00     0.002 A 
ATOM     69  C   UNL     1      16.634 -10.780   7.257  1.00  0.00     0.091 A 
ATOM     70  F   UNL     1      17.406  -9.949   5.158  1.00  0.00    -0.205 F 
ATOM     71  C   UNL     1      15.559 -11.118   8.096  1.00  0.00     0.022 A 
BRANCH  69  72
ATOM     72  S   UNL     1      18.291 -10.995   7.917  1.00  0.00     0.127 S 
ATOM     73  O   UNL     1      18.425  -9.813   8.767  1.00  0.00    -0.237 OA
ATOM     74  O   UNL     1      18.175 -12.259   8.646  1.00  0.00    -0.237 OA
ATOM     75  O   UNL     1      19.173 -11.045   6.760  1.00  0.00    -0.744 OA
ENDBRANCH  69  72
ENDBRANCH  51  65
BRANCH  52  76
ATOM     76  C   UNL     1      13.315  -6.723  -3.689  1.00  0.00     0.023 A 
ATOM     77  C   UNL     1      12.349  -7.337  -4.508  1.00  0.00     0.012 A 
ATOM     78  C   UNL     1      14.018  -5.602  -4.172  1.00  0.00     0.148 A 
ATOM     79  C   UNL     1      12.097  -6.854  -5.793  1.00  0.00     0.002 A 
ATOM     80  C   UNL     1      13.728  -5.096  -5.434  1.00  0.00     0.091 A 
ATOM     81  F   UNL     1      14.946  -5.046  -3.382  1.00  0.00    -0.205 F 
ATOM     82  C   UNL     1      12.777  -5.728  -6.251  1.00  0.00     0.022 A 
BRANCH  80  83
ATOM     83  S   UNL     1      14.473  -3.589  -6.068  1.00  0.00     0.127 S 
ATOM     84  O   UNL     1      15.296  -4.100  -7.161  1.00  0.00    -0.237 OA
ATOM     85  O   UNL     1      13.297  -2.826  -6.487  1.00  0.00    -0.237 OA
ATOM     86  O   UNL     1      15.202  -3.008  -4.949  1.00  0.00    -0.744 OA
ENDBRANCH  80  83
ENDBRANCH  52  76
BRANCH  64  87
ATOM     87  C   UNL     1      16.050 -12.669  -1.241  1.00  0.00     0.023 A 
ATOM     88  C   UNL     1      17.340 -12.566  -1.796  1.00  0.00     0.012 A 
ATOM     89  C   UNL     1      15.390 -13.914  -1.254  1.00  0.00     0.148 A 
ATOM     90  C   UNL     1      17.954 -13.675  -2.377  1.00  0.00     0.002 A 
ATOM     91  C   UNL     1      16.026 -15.027  -1.794  1.00  0.00     0.091 A 
ATOM     92  F   UNL     1      14.155 -13.989  -0.736  1.00  0.00    -0.205 F 
ATOM     93  C   UNL     1      17.303 -14.907  -2.365  1.00  0.00     0.022 A 
BRANCH  91  94
ATOM     94  S   UNL     1      15.304 -16.671  -1.742  1.00  0.00     0.127 S 
ATOM     95  O   UNL     1      14.925 -16.875  -3.139  1.00  0.00    -0.237 OA
ATOM     96  O   UNL     1      16.428 -17.491  -1.289  1.00  0.00    -0.237 OA
ATOM     97  O   UNL     1      14.196 -16.593  -0.799  1.00  0.00    -0.744 OA
ENDBRANCH  91  94
ENDBRANCH  64  87
ENDBRANCH  38  39
ENDBRANCH  31  33
ENDBRANCH  30  31
ENDBRANCH  29  30
ENDBRANCH  28  29
ENDBRANCH  27  28
ENDBRANCH   1  27
TORSDOF 22
