REMARK SMILES COCCNS(=O)(=O)c1c[nH]c(C(=O)OCCOCCOCCOC(=O)c2ccc(-c3c4nc(c(-c5cccc(S(=O)(=O)[O-])c5F)c5ccc([nH]5)c(-c5cccc(S(=O)(=O)[O-])c5F)c5nc(c(-c6cccc(S(=O)(=O)[O-])c6F)c6ccc3[nH]6)C=C5)C=C4)cc2)c1
REMARK SMILES IDX 19 1 18 2 17 3 16 4 15 5 13 6 14 7 12 8 9 9 10 10 90 11
REMARK SMILES IDX 11 12 6 14 7 15 8 16 5 17 4 19 3 20 2 21 1 22 20 23 21 24
REMARK SMILES IDX 22 25 23 26 24 27 25 28 26 29 27 30 28 31 89 32 29 33 88 34
REMARK SMILES IDX 30 35 31 36 32 37 82 38 33 39 87 40 81 41 83 42 34 43 86 44
REMARK SMILES IDX 80 45 79 46 35 48 67 49 47 50 66 51 48 52 51 53 65 54 84 55
REMARK SMILES IDX 49 56 50 57 64 59 85 60 52 61 36 62 37 63 45 64 38 65 40 66
REMARK SMILES IDX 46 67 39 68 41 69 42 70 43 71 44 72 68 73 69 74 77 75 70 76
REMARK SMILES IDX 72 77 78 78 71 79 73 80 74 81 75 82 76 83 53 84 54 85 62 86
REMARK SMILES IDX 55 87 57 88 63 89 56 90 58 91 59 92 60 93 61 94
REMARK H PARENT 11 13 5 18 83 47 51 58
REMARK Flexibility Score: inf
ROOT
ATOM      1  C   UNL     1       0.064   3.940   9.005  1.00  0.00     0.188 C 
ENDROOT
BRANCH   1   2
ATOM      2  O   UNL     1       0.828   5.120   9.237  1.00  0.00    -0.376 OA
BRANCH   2   3
ATOM      3  C   UNL     1       0.792   6.202   8.329  1.00  0.00     0.202 C 
BRANCH   3   4
ATOM      4  C   UNL     1       1.673   6.035   7.085  1.00  0.00     0.261 C 
BRANCH   4   5
ATOM      5  O   UNL     1       1.556   4.758   6.442  1.00  0.00    -0.459 OA
BRANCH   5   6
ATOM      6  C   UNL     1       2.468   3.821   6.814  1.00  0.00     0.354 C 
ATOM      7  O   UNL     1       3.449   4.011   7.522  1.00  0.00    -0.244 OA
BRANCH   6   8
ATOM      8  C   UNL     1       2.085   2.523   6.305  1.00  0.00     0.126 A 
ATOM      9  C   UNL     1       1.177   0.746   5.219  1.00  0.00     0.100 A 
ATOM     10  C   UNL     1       2.007   0.272   6.215  1.00  0.00     0.104 A 
ATOM     11  C   UNL     1       1.195   2.161   5.305  1.00  0.00     0.057 A 
ATOM     12  N   UNL     1       2.560   1.350   6.852  1.00  0.00    -0.354 N 
ATOM     13  H   UNL     1       3.205   1.296   7.594  1.00  0.00     0.166 HD
BRANCH   9  14
ATOM     14  S   UNL     1       0.274  -0.192   4.085  1.00  0.00     0.242 S 
ATOM     15  O   UNL     1      -1.099   0.220   4.247  1.00  0.00    -0.207 OA
ATOM     16  O   UNL     1       0.708  -1.556   4.285  1.00  0.00    -0.207 OA
BRANCH  14  17
ATOM     17  N   UNL     1       0.773   0.224   2.522  1.00  0.00    -0.209 NA
ATOM     18  H   UNL     1       1.788   0.329   2.538  1.00  0.00     0.141 HD
BRANCH  17  19
ATOM     19  C   UNL     1       0.201   1.468   1.955  1.00  0.00     0.127 C 
BRANCH  19  20
ATOM     20  C   UNL     1       0.976   1.910   0.709  1.00  0.00     0.176 C 
BRANCH  20  21
ATOM     21  O   UNL     1       0.505   1.310  -0.500  1.00  0.00    -0.383 OA
ATOM     22  C   UNL     1       0.935  -0.028  -0.691  1.00  0.00     0.194 C 
ENDBRANCH  20  21
ENDBRANCH  19  20
ENDBRANCH  17  19
ENDBRANCH  14  17
ENDBRANCH   9  14
ENDBRANCH   6   8
ENDBRANCH   5   6
ENDBRANCH   4   5
ENDBRANCH   3   4
ENDBRANCH   2   3
ENDBRANCH   1   2
BRANCH   1  23
ATOM     23  C   UNL     1      -0.898   3.748   7.808  1.00  0.00     0.188 C 
BRANCH  23  24
ATOM     24  O   UNL     1      -1.302   4.920   7.115  1.00  0.00    -0.376 OA
BRANCH  24  25
ATOM     25  C   UNL     1      -2.676   5.273   7.235  1.00  0.00     0.202 C 
BRANCH  25  26
ATOM     26  C   UNL     1      -3.058   5.820   8.612  1.00  0.00     0.261 C 
BRANCH  26  27
ATOM     27  O   UNL     1      -2.836   4.914   9.690  1.00  0.00    -0.460 OA
BRANCH  27  28
ATOM     28  C   UNL     1      -3.546   3.772   9.609  1.00  0.00     0.338 C 
ATOM     29  O   UNL     1      -4.174   3.345   8.654  1.00  0.00    -0.246 OA
BRANCH  28  30
ATOM     30  C   UNL     1      -3.544   3.097  10.893  1.00  0.00     0.060 A 
ATOM     31  C   UNL     1      -3.616   1.701  10.885  1.00  0.00     0.016 A 
ATOM     32  C   UNL     1      -3.858   3.873  12.009  1.00  0.00     0.016 A 
ATOM     33  C   UNL     1      -4.172   1.074  11.977  1.00  0.00     0.010 A 
ATOM     34  C   UNL     1      -4.471   3.249  13.067  1.00  0.00     0.010 A 
ATOM     35  C   UNL     1      -4.663   1.864  13.023  1.00  0.00    -0.014 A 
BRANCH  35  36
ATOM     36  C   UNL     1      -5.359   1.202  14.128  1.00  0.00     0.031 A 
ATOM     37  C   UNL     1      -4.372   0.785  15.215  1.00  0.00     0.074 A 
ATOM     38  C   UNL     1      -6.709   1.041  13.962  1.00  0.00     0.049 A 
ATOM     39  N   UNL     1      -4.401  -0.249  15.997  1.00  0.00    -0.248 NA
ATOM     40  C   UNL     1      -3.095   1.539  15.369  1.00  0.00     0.031 C 
ATOM     41  C   UNL     1      -7.485   1.555  12.806  1.00  0.00     0.029 A 
ATOM     42  N   UNL     1      -7.703   0.434  14.701  1.00  0.00    -0.354 N 
ATOM     43  C   UNL     1      -3.316  -0.104  16.890  1.00  0.00     0.074 A 
ATOM     44  C   UNL     1      -2.451   0.886  16.336  1.00  0.00     0.031 C 
ATOM     45  C   UNL     1      -8.780   1.179  12.885  1.00  0.00     0.029 A 
ATOM     46  C   UNL     1      -8.991   0.425  14.107  1.00  0.00     0.049 A 
ATOM     47  H   UNL     1      -7.530   0.032  15.583  1.00  0.00     0.167 HD
ATOM     48  C   UNL     1      -3.310  -0.658  18.135  1.00  0.00     0.034 A 
ATOM     49  C   UNL     1     -10.144  -0.165  14.553  1.00  0.00     0.034 A 
ATOM     50  C   UNL     1      -4.543  -1.342  18.348  1.00  0.00     0.049 A 
ATOM     51  C   UNL     1      -9.853  -0.619  15.918  1.00  0.00     0.074 A 
ATOM     52  C   UNL     1      -5.057  -2.514  17.862  1.00  0.00     0.029 A 
ATOM     53  N   UNL     1      -5.553  -0.571  18.877  1.00  0.00    -0.354 N 
ATOM     54  N   UNL     1      -9.730   0.172  16.941  1.00  0.00    -0.248 NA
ATOM     55  C   UNL     1      -9.600  -2.045  16.160  1.00  0.00     0.031 C 
ATOM     56  C   UNL     1      -6.438  -2.255  17.767  1.00  0.00     0.029 A 
ATOM     57  C   UNL     1      -6.735  -1.016  18.351  1.00  0.00     0.049 A 
ATOM     58  H   UNL     1      -5.444   0.168  19.519  1.00  0.00     0.167 HD
ATOM     59  C   UNL     1      -9.012  -0.606  17.812  1.00  0.00     0.074 A 
ATOM     60  C   UNL     1      -9.280  -1.980  17.450  1.00  0.00     0.031 C 
ATOM     61  C   UNL     1      -7.859  -0.109  18.333  1.00  0.00     0.034 A 
BRANCH  48  62
ATOM     62  C   UNL     1      -2.448  -0.450  19.352  1.00  0.00     0.023 A 
ATOM     63  C   UNL     1      -2.567  -1.460  20.349  1.00  0.00     0.012 A 
ATOM     64  C   UNL     1      -1.798   0.741  19.714  1.00  0.00     0.148 A 
ATOM     65  C   UNL     1      -2.182  -1.254  21.670  1.00  0.00     0.002 A 
ATOM     66  C   UNL     1      -1.357   0.919  21.028  1.00  0.00     0.091 A 
ATOM     67  F   UNL     1      -1.688   1.735  18.828  1.00  0.00    -0.205 F 
ATOM     68  C   UNL     1      -1.585  -0.055  22.012  1.00  0.00     0.022 A 
BRANCH  66  69
ATOM     69  S   UNL     1      -0.478   2.393  21.559  1.00  0.00     0.127 S 
ATOM     70  O   UNL     1      -1.524   3.140  22.251  1.00  0.00    -0.237 OA
ATOM     71  O   UNL     1       0.550   1.833  22.440  1.00  0.00    -0.237 OA
ATOM     72  O   UNL     1       0.054   2.988  20.340  1.00  0.00    -0.744 OA
ENDBRANCH  66  69
ENDBRANCH  48  62
BRANCH  49  73
ATOM     73  C   UNL     1     -11.516  -0.504  14.012  1.00  0.00     0.023 A 
ATOM     74  C   UNL     1     -12.022  -0.057  12.785  1.00  0.00     0.012 A 
ATOM     75  C   UNL     1     -12.339  -1.438  14.717  1.00  0.00     0.148 A 
ATOM     76  C   UNL     1     -13.217  -0.583  12.251  1.00  0.00     0.002 A 
ATOM     77  C   UNL     1     -13.435  -2.058  14.130  1.00  0.00     0.091 A 
ATOM     78  F   UNL     1     -12.082  -1.720  15.998  1.00  0.00    -0.205 F 
ATOM     79  C   UNL     1     -13.894  -1.619  12.895  1.00  0.00     0.022 A 
BRANCH  77  80
ATOM     80  S   UNL     1     -14.175  -3.541  14.845  1.00  0.00     0.127 S 
ATOM     81  O   UNL     1     -15.590  -3.182  14.913  1.00  0.00    -0.237 OA
ATOM     82  O   UNL     1     -13.843  -4.545  13.834  1.00  0.00    -0.237 OA
ATOM     83  O   UNL     1     -13.526  -3.747  16.133  1.00  0.00    -0.744 OA
ENDBRANCH  77  80
ENDBRANCH  49  73
BRANCH  61  84
ATOM     84  C   UNL     1      -7.837   1.417  18.463  1.00  0.00     0.023 A 
ATOM     85  C   UNL     1      -8.870   2.011  19.221  1.00  0.00     0.012 A 
ATOM     86  C   UNL     1      -6.956   2.293  17.785  1.00  0.00     0.148 A 
ATOM     87  C   UNL     1      -9.046   3.397  19.277  1.00  0.00     0.002 A 
ATOM     88  C   UNL     1      -7.137   3.682  17.832  1.00  0.00     0.091 A 
ATOM     89  F   UNL     1      -5.952   1.769  17.085  1.00  0.00    -0.205 F 
ATOM     90  C   UNL     1      -8.184   4.232  18.580  1.00  0.00     0.022 A 
BRANCH  88  91
ATOM     91  S   UNL     1      -6.112   4.866  16.936  1.00  0.00     0.127 S 
ATOM     92  O   UNL     1      -7.075   5.502  16.035  1.00  0.00    -0.237 OA
ATOM     93  O   UNL     1      -5.633   5.737  18.007  1.00  0.00    -0.237 OA
ATOM     94  O   UNL     1      -5.080   4.090  16.262  1.00  0.00    -0.744 OA
ENDBRANCH  88  91
ENDBRANCH  61  84
ENDBRANCH  35  36
ENDBRANCH  28  30
ENDBRANCH  27  28
ENDBRANCH  26  27
ENDBRANCH  25  26
ENDBRANCH  24  25
ENDBRANCH  23  24
ENDBRANCH   1  23
TORSDOF 25
