REMARK SMILES O=C(OCCOCCOCCOC(=O)[C@]1(NC(=O)C2CCN(C(=O)C3CC3)CC2)CCCc2ccccc21)c1ccc(-c2c3nc(c(-c4cccc(S(=O)(=O)[O-])c4F)c4ccc([nH]4)c(-c4cccc(S(=O)(=O)[O-])c4F)c4nc(c(-c5cccc(S(=O)(=O)[O-])c5F)c5ccc2[nH]5)C=C4)C=C3)cc1
REMARK SMILES IDX 7 1 6 2 5 3 4 4 3 5 2 6 1 7 39 8 40 9 101 10 41 11 100 12
REMARK SMILES IDX 42 13 43 14 44 15 94 16 45 17 99 18 93 19 95 20 46 21 98 22
REMARK SMILES IDX 92 23 91 24 47 26 79 27 59 28 78 29 60 30 63 31 77 32 96 33
REMARK SMILES IDX 61 34 62 35 76 37 97 38 64 39 48 40 49 41 57 42 50 43 52 44
REMARK SMILES IDX 58 45 51 46 53 47 54 48 55 49 56 50 80 51 81 52 89 53 82 54
REMARK SMILES IDX 84 55 90 56 83 57 85 58 86 59 87 60 88 61 65 62 66 63 74 64
REMARK SMILES IDX 67 65 69 66 75 67 68 68 70 69 71 70 72 71 73 72 8 73 9 74
REMARK SMILES IDX 10 75 11 76 12 77 13 78 14 79 15 80 30 81 38 82 31 83 33 84
REMARK SMILES IDX 37 85 32 86 34 87 36 88 35 89 16 90 17 91 18 93 19 94 20 95
REMARK SMILES IDX 29 96 21 97 28 98 22 99 23 100 24 101 25 102 26 103 27 104
REMARK H PARENT 95 25 63 36 16 92
REMARK Flexibility Score: inf
ROOT
ATOM      1  C   UNL     1       2.914   2.004  -0.233  1.00  0.00     0.188 C 
ENDROOT
BRANCH   1   2
ATOM      2  O   UNL     1       4.244   1.614   0.096  1.00  0.00    -0.376 OA
BRANCH   2   3
ATOM      3  C   UNL     1       5.086   1.305  -1.014  1.00  0.00     0.202 C 
BRANCH   3   4
ATOM      4  C   UNL     1       4.697   0.085  -1.877  1.00  0.00     0.261 C 
BRANCH   4   5
ATOM      5  O   UNL     1       3.326  -0.347  -1.754  1.00  0.00    -0.460 OA
BRANCH   5   6
ATOM      6  C   UNL     1       2.820  -1.339  -0.970  1.00  0.00     0.338 C 
ATOM      7  O   UNL     1       1.661  -1.709  -1.145  1.00  0.00    -0.246 OA
BRANCH   6   8
ATOM      8  C   UNL     1       3.640  -2.002   0.081  1.00  0.00     0.060 A 
ATOM      9  C   UNL     1       4.691  -1.372   0.729  1.00  0.00     0.016 A 
ATOM     10  C   UNL     1       3.319  -3.297   0.488  1.00  0.00     0.016 A 
ATOM     11  C   UNL     1       5.561  -2.048   1.560  1.00  0.00     0.010 A 
ATOM     12  C   UNL     1       4.081  -3.925   1.485  1.00  0.00     0.010 A 
ATOM     13  C   UNL     1       5.256  -3.327   1.984  1.00  0.00    -0.014 A 
BRANCH  13  14
ATOM     14  C   UNL     1       6.201  -4.058   2.865  1.00  0.00     0.031 A 
ATOM     15  C   UNL     1       6.673  -5.410   2.422  1.00  0.00     0.074 A 
ATOM     16  C   UNL     1       6.689  -3.529   4.010  1.00  0.00     0.049 A 
ATOM     17  N   UNL     1       7.389  -6.281   3.075  1.00  0.00    -0.248 NA
ATOM     18  C   UNL     1       6.338  -5.817   1.044  1.00  0.00     0.031 C 
ATOM     19  C   UNL     1       6.522  -2.152   4.476  1.00  0.00     0.029 A 
ATOM     20  N   UNL     1       7.383  -4.118   5.042  1.00  0.00    -0.354 N 
ATOM     21  C   UNL     1       7.622  -7.310   2.178  1.00  0.00     0.074 A 
ATOM     22  C   UNL     1       6.862  -7.029   0.984  1.00  0.00     0.031 C 
ATOM     23  C   UNL     1       6.943  -2.047   5.745  1.00  0.00     0.029 A 
ATOM     24  C   UNL     1       7.390  -3.346   6.186  1.00  0.00     0.049 A 
ATOM     25  H   UNL     1       7.825  -4.995   4.972  1.00  0.00     0.167 HD
ATOM     26  C   UNL     1       8.483  -8.343   2.297  1.00  0.00     0.034 A 
ATOM     27  C   UNL     1       7.677  -3.657   7.461  1.00  0.00     0.034 A 
ATOM     28  C   UNL     1       9.257  -8.590   3.477  1.00  0.00     0.049 A 
ATOM     29  C   UNL     1       8.400  -4.944   7.681  1.00  0.00     0.074 A 
ATOM     30  C   UNL     1      10.172  -9.596   3.715  1.00  0.00     0.029 A 
ATOM     31  N   UNL     1       9.192  -7.819   4.630  1.00  0.00    -0.354 N 
ATOM     32  N   UNL     1       8.677  -5.876   6.803  1.00  0.00    -0.248 NA
ATOM     33  C   UNL     1       8.987  -5.156   9.007  1.00  0.00     0.031 C 
ATOM     34  C   UNL     1      10.635  -9.453   5.028  1.00  0.00     0.029 A 
ATOM     35  C   UNL     1      10.034  -8.339   5.594  1.00  0.00     0.049 A 
ATOM     36  H   UNL     1       8.629  -7.019   4.743  1.00  0.00     0.167 HD
ATOM     37  C   UNL     1       9.572  -6.723   7.429  1.00  0.00     0.074 A 
ATOM     38  C   UNL     1       9.753  -6.213   8.776  1.00  0.00     0.031 C 
ATOM     39  C   UNL     1      10.217  -7.798   6.917  1.00  0.00     0.034 A 
BRANCH  26  40
ATOM     40  C   UNL     1       8.646  -9.218   1.089  1.00  0.00     0.023 A 
ATOM     41  C   UNL     1       9.310  -8.714  -0.051  1.00  0.00     0.012 A 
ATOM     42  C   UNL     1       8.102 -10.512   1.061  1.00  0.00     0.148 A 
ATOM     43  C   UNL     1       9.387  -9.470  -1.219  1.00  0.00     0.002 A 
ATOM     44  C   UNL     1       8.221 -11.276  -0.093  1.00  0.00     0.091 A 
ATOM     45  F   UNL     1       7.453 -10.955   2.146  1.00  0.00    -0.205 F 
ATOM     46  C   UNL     1       8.847 -10.752  -1.238  1.00  0.00     0.022 A 
BRANCH  44  47
ATOM     47  S   UNL     1       7.601 -12.956  -0.208  1.00  0.00     0.127 S 
ATOM     48  O   UNL     1       6.601 -12.829  -1.268  1.00  0.00    -0.237 OA
ATOM     49  O   UNL     1       8.804 -13.694  -0.588  1.00  0.00    -0.237 OA
ATOM     50  O   UNL     1       7.067 -13.281   1.107  1.00  0.00    -0.744 OA
ENDBRANCH  44  47
ENDBRANCH  26  40
BRANCH  27  51
ATOM     51  C   UNL     1       7.377  -2.717   8.578  1.00  0.00     0.023 A 
ATOM     52  C   UNL     1       8.411  -1.974   9.176  1.00  0.00     0.012 A 
ATOM     53  C   UNL     1       6.061  -2.572   9.066  1.00  0.00     0.148 A 
ATOM     54  C   UNL     1       8.152  -1.147  10.271  1.00  0.00     0.002 A 
ATOM     55  C   UNL     1       5.805  -1.726  10.142  1.00  0.00     0.091 A 
ATOM     56  F   UNL     1       5.083  -3.274   8.474  1.00  0.00    -0.205 F 
ATOM     57  C   UNL     1       6.853  -1.024  10.755  1.00  0.00     0.022 A 
BRANCH  55  58
ATOM     58  S   UNL     1       4.150  -1.451  10.790  1.00  0.00     0.127 S 
ATOM     59  O   UNL     1       4.201  -2.179  12.055  1.00  0.00    -0.237 OA
ATOM     60  O   UNL     1       4.111   0.006  10.917  1.00  0.00    -0.237 OA
ATOM     61  O   UNL     1       3.244  -1.988   9.782  1.00  0.00    -0.744 OA
ENDBRANCH  55  58
ENDBRANCH  27  51
BRANCH  39  62
ATOM     62  C   UNL     1      11.224  -8.462   7.806  1.00  0.00     0.023 A 
ATOM     63  C   UNL     1      10.797  -9.197   8.928  1.00  0.00     0.012 A 
ATOM     64  C   UNL     1      12.595  -8.386   7.497  1.00  0.00     0.148 A 
ATOM     65  C   UNL     1      11.729  -9.816   9.756  1.00  0.00     0.002 A 
ATOM     66  C   UNL     1      13.511  -9.060   8.289  1.00  0.00     0.091 A 
ATOM     67  F   UNL     1      12.976  -7.654   6.440  1.00  0.00    -0.205 F 
ATOM     68  C   UNL     1      13.082  -9.760   9.429  1.00  0.00     0.022 A 
BRANCH  66  69
ATOM     69  S   UNL     1      15.254  -9.142   7.874  1.00  0.00     0.127 S 
ATOM     70  O   UNL     1      15.842  -8.268   8.888  1.00  0.00    -0.237 OA
ATOM     71  O   UNL     1      15.545 -10.565   8.049  1.00  0.00    -0.237 OA
ATOM     72  O   UNL     1      15.363  -8.668   6.501  1.00  0.00    -0.744 OA
ENDBRANCH  66  69
ENDBRANCH  39  62
ENDBRANCH  13  14
ENDBRANCH   6   8
ENDBRANCH   5   6
ENDBRANCH   4   5
ENDBRANCH   3   4
ENDBRANCH   2   3
ENDBRANCH   1   2
BRANCH   1  73
ATOM     73  C   UNL     1       2.255   2.777   0.903  1.00  0.00     0.188 C 
BRANCH  73  74
ATOM     74  O   UNL     1       2.860   3.998   1.308  1.00  0.00    -0.376 OA
BRANCH  74  75
ATOM     75  C   UNL     1       4.243   3.949   1.633  1.00  0.00     0.202 C 
BRANCH  75  76
ATOM     76  C   UNL     1       4.735   3.023   2.772  1.00  0.00     0.261 C 
BRANCH  76  77
ATOM     77  O   UNL     1       3.808   2.025   3.260  1.00  0.00    -0.461 OA
BRANCH  77  78
ATOM     78  C   UNL     1       3.454   2.140   4.573  1.00  0.00     0.336 C 
ATOM     79  O   UNL     1       3.902   3.039   5.286  1.00  0.00    -0.249 OA
BRANCH  78  80
ATOM     80  C   UNL     1       2.398   1.098   5.102  1.00  0.00     0.164 C 
ATOM     81  C   UNL     1       3.098   0.531   6.380  1.00  0.00     0.046 C 
ATOM     82  C   UNL     1       1.980  -0.071   4.169  1.00  0.00    -0.008 A 
ATOM     83  C   UNL     1       4.116  -0.526   6.022  1.00  0.00     0.008 C 
ATOM     84  C   UNL     1       2.418  -1.397   4.407  1.00  0.00    -0.042 A 
ATOM     85  C   UNL     1       1.022   0.105   3.149  1.00  0.00     0.007 A 
ATOM     86  C   UNL     1       3.374  -1.748   5.518  1.00  0.00     0.036 C 
ATOM     87  C   UNL     1       1.881  -2.475   3.681  1.00  0.00     0.004 A 
ATOM     88  C   UNL     1       0.510  -0.975   2.416  1.00  0.00     0.000 A 
ATOM     89  C   UNL     1       0.928  -2.268   2.693  1.00  0.00     0.000 A 
BRANCH  80  90
ATOM     90  N   UNL     1       1.156   1.726   5.652  1.00  0.00    -0.336 N 
ATOM     91  C   UNL     1       0.309   2.664   5.162  1.00  0.00     0.224 C 
ATOM     92  H   UNL     1       0.905   1.393   6.544  1.00  0.00     0.164 HD
ATOM     93  O   UNL     1      -0.860   2.662   5.550  1.00  0.00    -0.275 OA
BRANCH  91  94
ATOM     94  C   UNL     1       0.836   3.744   4.238  1.00  0.00     0.082 C 
ATOM     95  C   UNL     1       1.516   4.850   5.069  1.00  0.00     0.035 C 
ATOM     96  C   UNL     1      -0.265   4.267   3.301  1.00  0.00     0.035 C 
ATOM     97  C   UNL     1       0.531   5.882   5.606  1.00  0.00     0.120 C 
ATOM     98  C   UNL     1      -1.151   5.310   3.974  1.00  0.00     0.120 C 
ATOM     99  N   UNL     1      -0.301   6.364   4.509  1.00  0.00    -0.342 N 
ATOM    100  C   UNL     1       0.021   7.597   3.948  1.00  0.00     0.225 C 
ATOM    101  O   UNL     1       0.911   8.303   4.433  1.00  0.00    -0.275 OA
BRANCH 100 102
ATOM    102  C   UNL     1      -0.661   8.186   2.757  1.00  0.00     0.079 C 
ATOM    103  C   UNL     1      -1.239   7.471   1.570  1.00  0.00     0.014 C 
ATOM    104  C   UNL     1      -2.152   8.152   2.560  1.00  0.00     0.014 C 
ENDBRANCH 100 102
ENDBRANCH  91  94
ENDBRANCH  80  90
ENDBRANCH  78  80
ENDBRANCH  77  78
ENDBRANCH  76  77
ENDBRANCH  75  76
ENDBRANCH  74  75
ENDBRANCH  73  74
ENDBRANCH   1  73
TORSDOF 23
