REMARK SMILES CC(C)[C@H](C[C@H]1Cc2ccccc21)C(=O)OCCOCCOCCOC(=O)c1ccc(-c2c3nc(c(-c4cccc(S(=O)(=O)[O-])c4F)c4ccc([nH]4)c(-c4cccc(S(=O)(=O)[O-])c4F)c4nc(c(-c5cccc(S(=O)(=O)[O-])c5F)c5ccc2[nH]5)C=C4)C=C3)cc1
REMARK SMILES IDX 21 1 20 2 19 3 18 4 17 5 16 6 14 7 15 8 4 9 2 10 1 11 3 12
REMARK SMILES IDX 5 13 6 14 7 15 13 16 8 17 12 18 9 19 11 20 10 21 22 22 23 23
REMARK SMILES IDX 24 24 25 25 26 26 27 27 28 28 29 29 90 30 30 31 89 32 31 33
REMARK SMILES IDX 32 34 33 35 83 36 34 37 88 38 82 39 84 40 35 41 87 42 81 43
REMARK SMILES IDX 80 44 36 46 68 47 48 48 67 49 49 50 52 51 66 52 85 53 50 54
REMARK SMILES IDX 51 55 65 57 86 58 53 59 37 60 38 61 46 62 39 63 41 64 47 65
REMARK SMILES IDX 40 66 42 67 43 68 44 69 45 70 69 71 70 72 78 73 71 74 73 75
REMARK SMILES IDX 79 76 72 77 74 78 75 79 76 80 77 81 54 82 55 83 63 84 56 85
REMARK SMILES IDX 58 86 64 87 57 88 59 89 60 90 61 91 62 92
REMARK H PARENT 84 45 52 56
REMARK Flexibility Score: inf
ROOT
ATOM      1  C   UNL     1      -0.524   1.815   4.801  1.00  0.00     0.188 C 
ENDROOT
BRANCH   1   2
ATOM      2  C   UNL     1      -1.992   2.112   5.056  1.00  0.00     0.188 C 
BRANCH   2   3
ATOM      3  O   UNL     1      -2.768   1.134   5.736  1.00  0.00    -0.376 OA
BRANCH   3   4
ATOM      4  C   UNL     1      -2.317  -0.211   5.817  1.00  0.00     0.202 C 
BRANCH   4   5
ATOM      5  C   UNL     1      -2.430  -1.060   4.544  1.00  0.00     0.261 C 
BRANCH   5   6
ATOM      6  O   UNL     1      -1.346  -0.955   3.581  1.00  0.00    -0.463 OA
BRANCH   6   7
ATOM      7  C   UNL     1      -1.655  -0.314   2.420  1.00  0.00     0.309 C 
ATOM      8  O   UNL     1      -2.677   0.344   2.255  1.00  0.00    -0.252 OA
BRANCH   7   9
ATOM      9  C   UNL     1      -0.703  -0.602   1.250  1.00  0.00     0.102 C 
BRANCH   9  10
ATOM     10  C   UNL     1      -1.325  -1.811   0.485  1.00  0.00    -0.003 C 
ATOM     11  C   UNL     1      -0.725  -1.984  -0.911  1.00  0.00     0.008 C 
ATOM     12  C   UNL     1      -1.243  -3.131   1.260  1.00  0.00     0.008 C 
ENDBRANCH   9  10
BRANCH   9  13
ATOM     13  C   UNL     1       0.820  -0.753   1.498  1.00  0.00     0.024 C 
BRANCH  13  14
ATOM     14  C   UNL     1       1.496   0.485   2.068  1.00  0.00     0.025 C 
ATOM     15  C   UNL     1       3.054   0.483   2.295  1.00  0.00     0.044 C 
ATOM     16  C   UNL     1       1.753   1.693   1.194  1.00  0.00    -0.041 A 
ATOM     17  C   UNL     1       3.024   1.861   1.700  1.00  0.00    -0.044 A 
ATOM     18  C   UNL     1       1.184   2.633   0.366  1.00  0.00     0.004 A 
ATOM     19  C   UNL     1       3.751   3.015   1.516  1.00  0.00     0.004 A 
ATOM     20  C   UNL     1       1.921   3.801   0.117  1.00  0.00     0.000 A 
ATOM     21  C   UNL     1       3.176   4.008   0.723  1.00  0.00     0.000 A 
ENDBRANCH  13  14
ENDBRANCH   9  13
ENDBRANCH   7   9
ENDBRANCH   6   7
ENDBRANCH   5   6
ENDBRANCH   4   5
ENDBRANCH   3   4
ENDBRANCH   2   3
ENDBRANCH   1   2
BRANCH   1  22
ATOM     22  O   UNL     1       0.163   1.273   5.920  1.00  0.00    -0.376 OA
BRANCH  22  23
ATOM     23  C   UNL     1       1.468   1.803   6.130  1.00  0.00     0.202 C 
BRANCH  23  24
ATOM     24  C   UNL     1       1.371   3.135   6.879  1.00  0.00     0.261 C 
BRANCH  24  25
ATOM     25  O   UNL     1       0.815   4.187   6.068  1.00  0.00    -0.460 OA
BRANCH  25  26
ATOM     26  C   UNL     1       1.615   4.654   5.084  1.00  0.00     0.338 C 
ATOM     27  O   UNL     1       2.786   4.349   4.885  1.00  0.00    -0.246 OA
BRANCH  26  28
ATOM     28  C   UNL     1       0.784   5.443   4.161  1.00  0.00     0.060 A 
ATOM     29  C   UNL     1       0.363   4.846   2.971  1.00  0.00     0.016 A 
ATOM     30  C   UNL     1       0.412   6.750   4.457  1.00  0.00     0.016 A 
ATOM     31  C   UNL     1      -0.426   5.547   2.063  1.00  0.00     0.010 A 
ATOM     32  C   UNL     1      -0.376   7.458   3.541  1.00  0.00     0.010 A 
ATOM     33  C   UNL     1      -0.790   6.867   2.332  1.00  0.00    -0.014 A 
BRANCH  33  34
ATOM     34  C   UNL     1      -1.528   7.663   1.319  1.00  0.00     0.031 A 
ATOM     35  C   UNL     1      -0.825   8.798   0.632  1.00  0.00     0.074 A 
ATOM     36  C   UNL     1      -2.811   7.388   1.018  1.00  0.00     0.049 A 
ATOM     37  N   UNL     1      -1.323   9.759  -0.099  1.00  0.00    -0.248 NA
ATOM     38  C   UNL     1       0.638   8.854   0.790  1.00  0.00     0.031 C 
ATOM     39  C   UNL     1      -3.583   6.264   1.545  1.00  0.00     0.029 A 
ATOM     40  N   UNL     1      -3.700   8.060   0.214  1.00  0.00    -0.354 N 
ATOM     41  C   UNL     1      -0.249  10.576  -0.429  1.00  0.00     0.074 A 
ATOM     42  C   UNL     1       0.933   9.980   0.157  1.00  0.00     0.031 C 
ATOM     43  C   UNL     1      -4.841   6.341   1.079  1.00  0.00     0.029 A 
ATOM     44  C   UNL     1      -4.980   7.558   0.284  1.00  0.00     0.049 A 
ATOM     45  H   UNL     1      -3.448   8.823  -0.354  1.00  0.00     0.167 HD
ATOM     46  C   UNL     1      -0.253  11.720  -1.151  1.00  0.00     0.034 A 
ATOM     47  C   UNL     1      -6.143   8.059  -0.180  1.00  0.00     0.034 A 
ATOM     48  C   UNL     1      -1.425  12.280  -1.769  1.00  0.00     0.049 A 
ATOM     49  C   UNL     1      -6.134   9.370  -0.921  1.00  0.00     0.074 A 
ATOM     50  C   UNL     1      -1.527  13.420  -2.545  1.00  0.00     0.029 A 
ATOM     51  N   UNL     1      -2.699  11.742  -1.678  1.00  0.00    -0.354 N 
ATOM     52  N   UNL     1      -5.114  10.123  -1.255  1.00  0.00    -0.248 NA
ATOM     53  C   UNL     1      -7.437   9.901  -1.349  1.00  0.00     0.031 C 
ATOM     54  C   UNL     1      -2.869  13.586  -2.903  1.00  0.00     0.029 A 
ATOM     55  C   UNL     1      -3.599  12.536  -2.367  1.00  0.00     0.049 A 
ATOM     56  H   UNL     1      -2.931  10.917  -1.194  1.00  0.00     0.167 HD
ATOM     57  C   UNL     1      -5.649  11.208  -1.942  1.00  0.00     0.074 A 
ATOM     58  C   UNL     1      -7.080  10.998  -2.004  1.00  0.00     0.031 C 
ATOM     59  C   UNL     1      -5.016  12.293  -2.454  1.00  0.00     0.034 A 
BRANCH  46  60
ATOM     60  C   UNL     1       1.052  12.453  -1.307  1.00  0.00     0.023 A 
ATOM     61  C   UNL     1       2.034  11.966  -2.191  1.00  0.00     0.012 A 
ATOM     62  C   UNL     1       1.280  13.658  -0.612  1.00  0.00     0.148 A 
ATOM     63  C   UNL     1       3.234  12.654  -2.364  1.00  0.00     0.002 A 
ATOM     64  C   UNL     1       2.462  14.358  -0.819  1.00  0.00     0.091 A 
ATOM     65  F   UNL     1       0.344  14.088   0.246  1.00  0.00    -0.205 F 
ATOM     66  C   UNL     1       3.443  13.854  -1.687  1.00  0.00     0.022 A 
BRANCH  64  67
ATOM     67  S   UNL     1       2.791  15.947  -0.048  1.00  0.00     0.127 S 
ATOM     68  O   UNL     1       3.816  15.592   0.932  1.00  0.00    -0.237 OA
ATOM     69  O   UNL     1       3.276  16.743  -1.177  1.00  0.00    -0.237 OA
ATOM     70  O   UNL     1       1.522  16.394   0.508  1.00  0.00    -0.744 OA
ENDBRANCH  64  67
ENDBRANCH  46  60
BRANCH  47  71
ATOM     71  C   UNL     1      -7.421   7.334   0.077  1.00  0.00     0.023 A 
ATOM     72  C   UNL     1      -8.123   6.756  -0.997  1.00  0.00     0.012 A 
ATOM     73  C   UNL     1      -7.930   7.194   1.384  1.00  0.00     0.148 A 
ATOM     74  C   UNL     1      -9.316   6.065  -0.777  1.00  0.00     0.002 A 
ATOM     75  C   UNL     1      -9.086   6.453   1.603  1.00  0.00     0.091 A 
ATOM     76  F   UNL     1      -7.268   7.781   2.391  1.00  0.00    -0.205 F 
ATOM     77  C   UNL     1      -9.789   5.901   0.523  1.00  0.00     0.022 A 
BRANCH  75  78
ATOM     78  S   UNL     1      -9.688   6.082   3.255  1.00  0.00     0.127 S 
ATOM     79  O   UNL     1     -10.865   6.942   3.345  1.00  0.00    -0.237 OA
ATOM     80  O   UNL     1      -9.976   4.651   3.158  1.00  0.00    -0.237 OA
ATOM     81  O   UNL     1      -8.590   6.412   4.154  1.00  0.00    -0.744 OA
ENDBRANCH  75  78
ENDBRANCH  47  71
BRANCH  59  82
ATOM     82  C   UNL     1      -5.862  13.336  -3.137  1.00  0.00     0.023 A 
ATOM     83  C   UNL     1      -6.658  14.200  -2.359  1.00  0.00     0.012 A 
ATOM     84  C   UNL     1      -5.810  13.511  -4.533  1.00  0.00     0.148 A 
ATOM     85  C   UNL     1      -7.412  15.204  -2.964  1.00  0.00     0.002 A 
ATOM     86  C   UNL     1      -6.529  14.543  -5.125  1.00  0.00     0.091 A 
ATOM     87  F   UNL     1      -5.058  12.668  -5.256  1.00  0.00    -0.205 F 
ATOM     88  C   UNL     1      -7.339  15.383  -4.344  1.00  0.00     0.022 A 
BRANCH  86  89
ATOM     89  S   UNL     1      -6.428  14.906  -6.882  1.00  0.00     0.127 S 
ATOM     90  O   UNL     1      -7.744  14.476  -7.351  1.00  0.00    -0.237 OA
ATOM     91  O   UNL     1      -6.221  16.355  -6.888  1.00  0.00    -0.237 OA
ATOM     92  O   UNL     1      -5.301  14.133  -7.388  1.00  0.00    -0.744 OA
ENDBRANCH  86  89
ENDBRANCH  59  82
ENDBRANCH  33  34
ENDBRANCH  26  28
ENDBRANCH  25  26
ENDBRANCH  24  25
ENDBRANCH  23  24
ENDBRANCH  22  23
ENDBRANCH   1  22
TORSDOF 23
