REMARK SMILES Cc1oc2c(C)c3oc(=O)c(CC(=O)N[C@@H](CC(C)C)C(=O)OCCOCCOCCOC(=O)c4ccc(-c5c6nc(c(-c7cccc(S(=O)(=O)[O-])c7F)c7ccc([nH]7)c(-c7cccc(S(=O)(=O)[O-])c7F)c7nc(c(-c8cccc(S(=O)(=O)[O-])c8F)c8ccc5[nH]8)C=C7)C=C6)cc4)c(C)c3cc2c1C
REMARK SMILES IDX 27 1 26 2 25 3 24 4 23 5 21 6 22 7 16 8 15 9 13 10 14 11
REMARK SMILES IDX 12 13 11 14 1 15 2 16 3 17 103 18 4 19 102 20 104 21 5 22
REMARK SMILES IDX 101 23 6 24 7 25 100 26 8 27 98 28 9 29 99 30 10 31 17 32
REMARK SMILES IDX 18 33 19 34 20 35 28 36 29 37 30 38 31 39 32 40 33 41 34 42
REMARK SMILES IDX 35 43 36 44 97 45 37 46 96 47 38 48 39 49 40 50 90 51 41 52
REMARK SMILES IDX 95 53 89 54 91 55 42 56 94 57 88 58 87 59 43 61 75 62 55 63
REMARK SMILES IDX 74 64 56 65 59 66 73 67 92 68 57 69 58 70 72 72 93 73 60 74
REMARK SMILES IDX 44 75 45 76 53 77 46 78 48 79 54 80 47 81 49 82 50 83 51 84
REMARK SMILES IDX 52 85 76 86 77 87 85 88 78 89 80 90 86 91 79 92 81 93 82 94
REMARK SMILES IDX 83 95 84 96 61 97 62 98 70 99 63 100 65 101 71 102 64 103
REMARK SMILES IDX 66 104 67 105 68 106 69 107
REMARK H PARENT 15 12 91 60 59 71
REMARK Flexibility Score: inf
ROOT
ATOM      1  C   UNL     1      -0.893  11.113   7.866  1.00  0.00     0.188 C 
ENDROOT
BRANCH   1   2
ATOM      2  O   UNL     1      -1.074  11.250   9.274  1.00  0.00    -0.376 OA
BRANCH   2   3
ATOM      3  C   UNL     1      -0.073  10.775  10.163  1.00  0.00     0.202 C 
BRANCH   3   4
ATOM      4  C   UNL     1       0.188   9.271  10.142  1.00  0.00     0.261 C 
BRANCH   4   5
ATOM      5  O   UNL     1       0.632   8.803   8.857  1.00  0.00    -0.462 OA
BRANCH   5   6
ATOM      6  C   UNL     1       0.134   7.605   8.464  1.00  0.00     0.328 C 
ATOM      7  O   UNL     1      -0.590   6.896   9.156  1.00  0.00    -0.250 OA
BRANCH   6   8
ATOM      8  C   UNL     1       0.626   7.167   7.068  1.00  0.00     0.192 C 
BRANCH   8   9
ATOM      9  N   UNL     1       1.434   8.070   6.243  1.00  0.00    -0.342 N 
ATOM     10  C   UNL     1       1.202   8.598   5.007  1.00  0.00     0.225 C 
ATOM     11  O   UNL     1       2.112   9.244   4.484  1.00  0.00    -0.275 OA
ATOM     12  H   UNL     1       2.288   8.342   6.650  1.00  0.00     0.164 HD
BRANCH  10  13
ATOM     13  C   UNL     1      -0.145   8.443   4.309  1.00  0.00     0.143 C 
BRANCH  13  14
ATOM     14  C   UNL     1      -0.370   7.040   3.808  1.00  0.00     0.051 A 
ATOM     15  C   UNL     1       0.570  -0.636   0.386  1.00  0.00     0.088 C 
ATOM     16  C   UNL     1       0.561   0.723   0.965  1.00  0.00     0.105 A 
ATOM     17  O   UNL     1      -0.354   0.949   1.947  1.00  0.00    -0.461 OA
ATOM     18  C   UNL     1       1.284   1.871   0.697  1.00  0.00    -0.002 A 
ATOM     19  C   UNL     1      -0.263   2.264   2.291  1.00  0.00     0.141 A 
ATOM     20  C   UNL     1       0.732   2.877   1.544  1.00  0.00     0.025 A 
ATOM     21  C   UNL     1       2.375   2.058  -0.289  1.00  0.00     0.049 C 
ATOM     22  C   UNL     1      -1.059   2.911   3.238  1.00  0.00     0.036 A 
ATOM     23  C   UNL     1       0.975   4.250   1.736  1.00  0.00     0.024 A 
ATOM     24  C   UNL     1      -2.103   2.195   4.035  1.00  0.00     0.052 C 
ATOM     25  C   UNL     1      -0.811   4.295   3.347  1.00  0.00     0.145 A 
ATOM     26  C   UNL     1       0.179   4.981   2.632  1.00  0.00     0.022 A 
ATOM     27  O   UNL     1      -1.650   5.001   4.231  1.00  0.00    -0.422 OA
ATOM     28  C   UNL     1       0.389   6.421   2.878  1.00  0.00    -0.029 A 
ATOM     29  C   UNL     1      -1.537   6.360   4.424  1.00  0.00     0.340 A 
ATOM     30  C   UNL     1       1.469   7.124   2.091  1.00  0.00     0.046 C 
ATOM     31  O   UNL     1      -2.340   6.962   5.129  1.00  0.00    -0.246 OA
ENDBRANCH  13  14
ENDBRANCH  10  13
ENDBRANCH   8   9
BRANCH   8  32
ATOM     32  C   UNL     1       1.337   5.806   7.186  1.00  0.00     0.040 C 
BRANCH  32  33
ATOM     33  C   UNL     1       2.804   5.826   7.681  1.00  0.00    -0.015 C 
ATOM     34  C   UNL     1       3.034   6.621   8.966  1.00  0.00     0.007 C 
ATOM     35  C   UNL     1       3.279   4.385   7.884  1.00  0.00     0.007 C 
ENDBRANCH  32  33
ENDBRANCH   8  32
ENDBRANCH   6   8
ENDBRANCH   5   6
ENDBRANCH   4   5
ENDBRANCH   3   4
ENDBRANCH   2   3
ENDBRANCH   1   2
BRANCH   1  36
ATOM     36  C   UNL     1       0.516  11.224   7.261  1.00  0.00     0.188 C 
BRANCH  36  37
ATOM     37  O   UNL     1       1.450  11.915   8.070  1.00  0.00    -0.376 OA
BRANCH  37  38
ATOM     38  C   UNL     1       1.988  13.099   7.498  1.00  0.00     0.202 C 
BRANCH  38  39
ATOM     39  C   UNL     1       0.936  14.205   7.367  1.00  0.00     0.261 C 
BRANCH  39  40
ATOM     40  O   UNL     1      -0.007  13.977   6.304  1.00  0.00    -0.460 OA
BRANCH  40  41
ATOM     41  C   UNL     1       0.531  13.966   5.060  1.00  0.00     0.338 C 
ATOM     42  O   UNL     1       1.702  14.102   4.764  1.00  0.00    -0.246 OA
BRANCH  41  43
ATOM     43  C   UNL     1      -0.523  13.616   4.104  1.00  0.00     0.060 A 
ATOM     44  C   UNL     1      -0.629  12.303   3.629  1.00  0.00     0.016 A 
ATOM     45  C   UNL     1      -1.339  14.625   3.613  1.00  0.00     0.016 A 
ATOM     46  C   UNL     1      -1.575  11.992   2.651  1.00  0.00     0.010 A 
ATOM     47  C   UNL     1      -2.256  14.316   2.613  1.00  0.00     0.010 A 
ATOM     48  C   UNL     1      -2.386  13.001   2.123  1.00  0.00    -0.014 A 
BRANCH  48  49
ATOM     49  C   UNL     1      -3.328  12.695   1.012  1.00  0.00     0.031 A 
ATOM     50  C   UNL     1      -4.686  13.281   1.167  1.00  0.00     0.074 A 
ATOM     51  C   UNL     1      -2.869  12.560  -0.256  1.00  0.00     0.049 A 
ATOM     52  N   UNL     1      -4.849  14.541   0.914  1.00  0.00    -0.248 NA
ATOM     53  C   UNL     1      -5.834  12.674   1.832  1.00  0.00     0.031 C 
ATOM     54  C   UNL     1      -1.502  12.922  -0.664  1.00  0.00     0.029 A 
ATOM     55  N   UNL     1      -3.522  12.323  -1.452  1.00  0.00    -0.354 N 
ATOM     56  C   UNL     1      -6.019  14.951   1.512  1.00  0.00     0.074 A 
ATOM     57  C   UNL     1      -6.642  13.741   2.000  1.00  0.00     0.031 C 
ATOM     58  C   UNL     1      -1.460  13.035  -2.004  1.00  0.00     0.029 A 
ATOM     59  C   UNL     1      -2.736  12.611  -2.568  1.00  0.00     0.049 A 
ATOM     60  H   UNL     1      -4.445  11.986  -1.510  1.00  0.00     0.167 HD
ATOM     61  C   UNL     1      -6.338  16.274   1.561  1.00  0.00     0.034 A 
ATOM     62  C   UNL     1      -3.165  13.003  -3.796  1.00  0.00     0.034 A 
ATOM     63  C   UNL     1      -5.390  17.205   0.970  1.00  0.00     0.049 A 
ATOM     64  C   UNL     1      -3.700  14.385  -3.575  1.00  0.00     0.074 A 
ATOM     65  C   UNL     1      -4.879  18.464   1.218  1.00  0.00     0.029 A 
ATOM     66  N   UNL     1      -4.725  16.773  -0.143  1.00  0.00    -0.354 N 
ATOM     67  N   UNL     1      -2.969  15.466  -3.474  1.00  0.00    -0.248 NA
ATOM     68  C   UNL     1      -5.109  14.563  -3.196  1.00  0.00     0.031 C 
ATOM     69  C   UNL     1      -3.959  18.778   0.156  1.00  0.00     0.029 A 
ATOM     70  C   UNL     1      -3.961  17.728  -0.747  1.00  0.00     0.049 A 
ATOM     71  H   UNL     1      -4.791  15.850  -0.480  1.00  0.00     0.167 HD
ATOM     72  C   UNL     1      -3.751  16.351  -2.745  1.00  0.00     0.074 A 
ATOM     73  C   UNL     1      -5.097  15.816  -2.755  1.00  0.00     0.031 C 
ATOM     74  C   UNL     1      -3.246  17.330  -1.938  1.00  0.00     0.034 A 
BRANCH  61  75
ATOM     75  C   UNL     1      -7.684  16.765   1.945  1.00  0.00     0.023 A 
ATOM     76  C   UNL     1      -8.524  17.114   0.865  1.00  0.00     0.012 A 
ATOM     77  C   UNL     1      -8.098  17.041   3.257  1.00  0.00     0.148 A 
ATOM     78  C   UNL     1      -9.743  17.748   1.074  1.00  0.00     0.002 A 
ATOM     79  C   UNL     1      -9.323  17.678   3.461  1.00  0.00     0.091 A 
ATOM     80  F   UNL     1      -7.282  16.719   4.270  1.00  0.00    -0.205 F 
ATOM     81  C   UNL     1     -10.141  18.036   2.373  1.00  0.00     0.022 A 
BRANCH  79  82
ATOM     82  S   UNL     1      -9.947  18.119   5.088  1.00  0.00     0.127 S 
ATOM     83  O   UNL     1      -9.903  19.579   5.047  1.00  0.00    -0.237 OA
ATOM     84  O   UNL     1     -11.295  17.549   5.061  1.00  0.00    -0.237 OA
ATOM     85  O   UNL     1      -9.045  17.492   6.045  1.00  0.00    -0.744 OA
ENDBRANCH  79  82
ENDBRANCH  61  75
BRANCH  62  86
ATOM     86  C   UNL     1      -3.795  11.958  -4.660  1.00  0.00     0.023 A 
ATOM     87  C   UNL     1      -3.083  10.742  -4.815  1.00  0.00     0.012 A 
ATOM     88  C   UNL     1      -5.000  12.091  -5.371  1.00  0.00     0.148 A 
ATOM     89  C   UNL     1      -3.588   9.678  -5.565  1.00  0.00     0.002 A 
ATOM     90  C   UNL     1      -5.540  11.003  -6.057  1.00  0.00     0.091 A 
ATOM     91  F   UNL     1      -5.614  13.277  -5.403  1.00  0.00    -0.205 F 
ATOM     92  C   UNL     1      -4.835   9.797  -6.162  1.00  0.00     0.022 A 
BRANCH  90  93
ATOM     93  S   UNL     1      -7.190  11.039  -6.770  1.00  0.00     0.127 S 
ATOM     94  O   UNL     1      -6.939  10.612  -8.145  1.00  0.00    -0.237 OA
ATOM     95  O   UNL     1      -7.884  10.059  -5.936  1.00  0.00    -0.237 OA
ATOM     96  O   UNL     1      -7.656  12.411  -6.625  1.00  0.00    -0.744 OA
ENDBRANCH  90  93
ENDBRANCH  62  86
BRANCH  74  97
ATOM     97  C   UNL     1      -1.892  17.854  -2.279  1.00  0.00     0.023 A 
ATOM     98  C   UNL     1      -1.709  18.383  -3.574  1.00  0.00     0.012 A 
ATOM     99  C   UNL     1      -0.827  17.900  -1.363  1.00  0.00     0.148 A 
ATOM    100  C   UNL     1      -0.495  18.941  -3.961  1.00  0.00     0.002 A 
ATOM    101  C   UNL     1       0.380  18.478  -1.748  1.00  0.00     0.091 A 
ATOM    102  F   UNL     1      -1.002  17.383  -0.138  1.00  0.00    -0.205 F 
ATOM    103  C   UNL     1       0.548  18.994  -3.045  1.00  0.00     0.022 A 
BRANCH 101 104
ATOM    104  S   UNL     1       1.786  18.645  -0.643  1.00  0.00     0.127 S 
ATOM    105  O   UNL     1       2.852  17.989  -1.403  1.00  0.00    -0.237 OA
ATOM    106  O   UNL     1       1.919  20.099  -0.546  1.00  0.00    -0.237 OA
ATOM    107  O   UNL     1       1.415  17.975   0.595  1.00  0.00    -0.744 OA
ENDBRANCH 101 104
ENDBRANCH  74  97
ENDBRANCH  48  49
ENDBRANCH  41  43
ENDBRANCH  40  41
ENDBRANCH  39  40
ENDBRANCH  38  39
ENDBRANCH  37  38
ENDBRANCH  36  37
ENDBRANCH   1  36
TORSDOF 25
