REMARK SMILES O=C(OCCOCCOCCOC(=O)c1ccc(-c2c3nc(c(-c4cccc(S(=O)(=O)[O-])c4F)c4ccc([nH]4)c(-c4cccc(S(=O)(=O)[O-])c4F)c4nc(c(-c5cccc(S(=O)(=O)[O-])c5F)c5ccc2[nH]5)C=C4)C=C3)cc1)C1=NN(c2ccc(S(=O)(=O)[O-])cc2)C(=O)/C1=C/Nc1ccccc1
REMARK SMILES IDX 8 1 7 2 6 3 5 4 4 5 3 6 2 7 1 8 78 9 79 10 93 11 80 12 91 13
REMARK SMILES IDX 94 14 92 15 81 16 82 17 90 18 83 19 89 20 84 21 85 22 86 23
REMARK SMILES IDX 87 24 88 25 95 26 96 28 97 29 101 30 98 31 100 32 99 33 9 34
REMARK SMILES IDX 10 35 11 36 12 37 13 38 14 39 15 40 16 41 77 42 17 43 76 44
REMARK SMILES IDX 18 45 19 46 20 47 70 48 21 49 75 50 69 51 71 52 22 53 74 54
REMARK SMILES IDX 68 55 67 56 23 58 55 59 35 60 54 61 36 62 39 63 53 64 72 65
REMARK SMILES IDX 37 66 38 67 52 69 73 70 40 71 24 72 25 73 33 74 26 75 28 76
REMARK SMILES IDX 34 77 27 78 29 79 30 80 31 81 32 82 56 83 57 84 65 85 58 86
REMARK SMILES IDX 60 87 66 88 59 89 61 90 62 91 63 92 64 93 41 94 42 95 50 96
REMARK SMILES IDX 43 97 45 98 51 99 44 100 46 101 47 102 48 103 49 104
REMARK H PARENT 95 27 71 57 39 68
REMARK Flexibility Score: inf
ROOT
ATOM      1  C   UNL     1       3.458   1.629   2.826  1.00  0.00     0.188 C 
ENDROOT
BRANCH   1   2
ATOM      2  C   UNL     1       3.098   1.486   1.368  1.00  0.00     0.188 C 
BRANCH   2   3
ATOM      3  O   UNL     1       4.116   0.761   0.713  1.00  0.00    -0.376 OA
BRANCH   3   4
ATOM      4  C   UNL     1       4.808   1.308  -0.378  1.00  0.00     0.202 C 
BRANCH   4   5
ATOM      5  C   UNL     1       3.902   1.922  -1.424  1.00  0.00     0.261 C 
BRANCH   5   6
ATOM      6  O   UNL     1       2.574   1.356  -1.609  1.00  0.00    -0.458 OA
BRANCH   6   7
ATOM      7  C   UNL     1       2.046   0.262  -1.018  1.00  0.00     0.359 C 
ATOM      8  O   UNL     1       0.857   0.145  -0.766  1.00  0.00    -0.244 OA
BRANCH   7   9
ATOM      9  C   UNL     1       2.933  -0.931  -0.913  1.00  0.00     0.183 C 
ATOM     10  N   UNL     1       3.402  -1.338  -2.056  1.00  0.00    -0.157 NA
ATOM     11  C   UNL     1       3.353  -1.752   0.272  1.00  0.00     0.093 C 
ATOM     12  N   UNL     1       4.088  -2.483  -1.818  1.00  0.00    -0.196 N 
ATOM     13  C   UNL     1       4.234  -2.789  -0.464  1.00  0.00     0.282 C 
ATOM     14  C   UNL     1       3.311  -1.886   1.629  1.00  0.00     0.099 C 
ATOM     15  O   UNL     1       4.909  -3.667   0.043  1.00  0.00    -0.267 OA
BRANCH  12  16
ATOM     16  C   UNL     1       4.183  -3.362  -2.921  1.00  0.00     0.069 A 
ATOM     17  C   UNL     1       3.769  -2.893  -4.190  1.00  0.00     0.030 A 
ATOM     18  C   UNL     1       4.429  -4.721  -2.737  1.00  0.00     0.030 A 
ATOM     19  C   UNL     1       3.421  -3.772  -5.200  1.00  0.00     0.021 A 
ATOM     20  C   UNL     1       4.095  -5.608  -3.751  1.00  0.00     0.021 A 
ATOM     21  C   UNL     1       3.540  -5.123  -4.944  1.00  0.00     0.054 A 
BRANCH  21  22
ATOM     22  S   UNL     1       2.910  -6.233  -6.149  1.00  0.00     0.124 S 
ATOM     23  O   UNL     1       1.453  -6.204  -6.018  1.00  0.00    -0.237 OA
ATOM     24  O   UNL     1       3.563  -5.970  -7.393  1.00  0.00    -0.237 OA
ATOM     25  O   UNL     1       3.422  -7.616  -5.556  1.00  0.00    -0.744 OA
ENDBRANCH  21  22
ENDBRANCH  12  16
BRANCH  14  26
ATOM     26  N   UNL     1       2.848  -1.432   2.901  1.00  0.00    -0.361 N 
ATOM     27  H   UNL     1       2.014  -0.918   2.797  1.00  0.00     0.166 HD
BRANCH  26  28
ATOM     28  C   UNL     1       3.245  -1.496   4.369  1.00  0.00     0.038 A 
ATOM     29  C   UNL     1       2.235  -1.177   5.284  1.00  0.00     0.026 A 
ATOM     30  C   UNL     1       4.543  -1.432   4.971  1.00  0.00     0.026 A 
ATOM     31  C   UNL     1       2.512  -0.723   6.606  1.00  0.00     0.002 A 
ATOM     32  C   UNL     1       4.839  -0.942   6.266  1.00  0.00     0.002 A 
ATOM     33  C   UNL     1       3.810  -0.556   7.083  1.00  0.00     0.000 A 
ENDBRANCH  26  28
ENDBRANCH  14  26
ENDBRANCH   7   9
ENDBRANCH   6   7
ENDBRANCH   5   6
ENDBRANCH   4   5
ENDBRANCH   3   4
ENDBRANCH   2   3
ENDBRANCH   1   2
BRANCH   1  34
ATOM     34  O   UNL     1       4.284   0.591   3.347  1.00  0.00    -0.376 OA
BRANCH  34  35
ATOM     35  C   UNL     1       5.586   0.177   2.904  1.00  0.00     0.202 C 
BRANCH  35  36
ATOM     36  C   UNL     1       6.019  -1.391   2.377  1.00  0.00     0.261 C 
BRANCH  36  37
ATOM     37  O   UNL     1       5.668  -2.951   2.713  1.00  0.00    -0.460 OA
BRANCH  37  38
ATOM     38  C   UNL     1       4.915  -3.854   3.482  1.00  0.00     0.338 C 
ATOM     39  O   UNL     1       5.129  -4.080   4.670  1.00  0.00    -0.246 OA
BRANCH  38  40
ATOM     40  C   UNL     1       3.977  -4.858   2.737  1.00  0.00     0.060 A 
ATOM     41  C   UNL     1       2.610  -4.646   2.391  1.00  0.00     0.016 A 
ATOM     42  C   UNL     1       4.453  -6.139   2.495  1.00  0.00     0.016 A 
ATOM     43  C   UNL     1       1.838  -5.568   1.632  1.00  0.00     0.010 A 
ATOM     44  C   UNL     1       3.659  -7.099   1.821  1.00  0.00     0.010 A 
ATOM     45  C   UNL     1       2.360  -6.822   1.339  1.00  0.00    -0.014 A 
BRANCH  45  46
ATOM     46  C   UNL     1       1.567  -7.966   0.774  1.00  0.00     0.031 A 
ATOM     47  C   UNL     1       1.042  -8.986   1.750  1.00  0.00     0.074 A 
ATOM     48  C   UNL     1       1.452  -8.220  -0.548  1.00  0.00     0.049 A 
ATOM     49  N   UNL     1       0.689 -10.226   1.548  1.00  0.00    -0.248 NA
ATOM     50  C   UNL     1       0.894  -8.534   3.143  1.00  0.00     0.031 C 
ATOM     51  C   UNL     1       1.695  -7.274  -1.631  1.00  0.00     0.029 A 
ATOM     52  N   UNL     1       1.150  -9.399  -1.213  1.00  0.00    -0.354 N 
ATOM     53  C   UNL     1       0.334 -10.725   2.794  1.00  0.00     0.074 A 
ATOM     54  C   UNL     1       0.498  -9.646   3.745  1.00  0.00     0.031 C 
ATOM     55  C   UNL     1       1.644  -7.934  -2.805  1.00  0.00     0.029 A 
ATOM     56  C   UNL     1       1.447  -9.354  -2.566  1.00  0.00     0.049 A 
ATOM     57  H   UNL     1       0.763 -10.188  -0.769  1.00  0.00     0.167 HD
ATOM     58  C   UNL     1      -0.082 -11.973   3.114  1.00  0.00     0.034 A 
ATOM     59  C   UNL     1       1.599 -10.344  -3.477  1.00  0.00     0.034 A 
ATOM     60  C   UNL     1      -0.241 -13.034   2.155  1.00  0.00     0.049 A 
ATOM     61  C   UNL     1       1.261 -11.744  -3.067  1.00  0.00     0.074 A 
ATOM     62  C   UNL     1      -0.715 -14.318   2.361  1.00  0.00     0.029 A 
ATOM     63  N   UNL     1       0.099 -12.945   0.815  1.00  0.00    -0.354 N 
ATOM     64  N   UNL     1       0.917 -12.197  -1.891  1.00  0.00    -0.248 NA
ATOM     65  C   UNL     1       1.249 -12.750  -4.141  1.00  0.00     0.031 C 
ATOM     66  C   UNL     1      -0.604 -15.023   1.158  1.00  0.00     0.029 A 
ATOM     67  C   UNL     1      -0.122 -14.159   0.191  1.00  0.00     0.049 A 
ATOM     68  H   UNL     1       0.446 -12.136   0.373  1.00  0.00     0.167 HD
ATOM     69  C   UNL     1       0.581 -13.526  -2.094  1.00  0.00     0.074 A 
ATOM     70  C   UNL     1       0.786 -13.810  -3.499  1.00  0.00     0.031 C 
ATOM     71  C   UNL     1       0.105 -14.423  -1.203  1.00  0.00     0.034 A 
BRANCH  58  72
ATOM     72  C   UNL     1      -0.363 -12.272   4.562  1.00  0.00     0.023 A 
ATOM     73  C   UNL     1      -1.480 -11.701   5.205  1.00  0.00     0.012 A 
ATOM     74  C   UNL     1       0.462 -13.165   5.275  1.00  0.00     0.148 A 
ATOM     75  C   UNL     1      -1.746 -11.980   6.545  1.00  0.00     0.002 A 
ATOM     76  C   UNL     1       0.161 -13.479   6.593  1.00  0.00     0.091 A 
ATOM     77  F   UNL     1       1.531 -13.682   4.653  1.00  0.00    -0.205 F 
ATOM     78  C   UNL     1      -0.932 -12.876   7.235  1.00  0.00     0.022 A 
BRANCH  76  79
ATOM     79  S   UNL     1       1.096 -14.689   7.535  1.00  0.00     0.127 S 
ATOM     80  O   UNL     1       1.785 -13.840   8.506  1.00  0.00    -0.237 OA
ATOM     81  O   UNL     1       0.035 -15.524   8.100  1.00  0.00    -0.237 OA
ATOM     82  O   UNL     1       1.957 -15.369   6.577  1.00  0.00    -0.744 OA
ENDBRANCH  76  79
ENDBRANCH  58  72
BRANCH  59  83
ATOM     83  C   UNL     1       2.079 -10.150  -4.881  1.00  0.00     0.023 A 
ATOM     84  C   UNL     1       1.162  -9.910  -5.922  1.00  0.00     0.012 A 
ATOM     85  C   UNL     1       3.446 -10.287  -5.210  1.00  0.00     0.148 A 
ATOM     86  C   UNL     1       1.596  -9.790  -7.251  1.00  0.00     0.002 A 
ATOM     87  C   UNL     1       3.881 -10.091  -6.531  1.00  0.00     0.091 A 
ATOM     88  F   UNL     1       4.331 -10.510  -4.226  1.00  0.00    -0.205 F 
ATOM     89  C   UNL     1       2.956  -9.863  -7.558  1.00  0.00     0.022 A 
BRANCH  87  90
ATOM     90  S   UNL     1       5.601  -9.562  -6.790  1.00  0.00     0.127 S 
ATOM     91  O   UNL     1       6.375 -10.772  -6.566  1.00  0.00    -0.237 OA
ATOM     92  O   UNL     1       5.607  -9.061  -8.162  1.00  0.00    -0.237 OA
ATOM     93  O   UNL     1       5.723  -8.487  -5.794  1.00  0.00    -0.744 OA
ENDBRANCH  87  90
ENDBRANCH  59  83
BRANCH  71  94
ATOM     94  C   UNL     1      -0.269 -15.771  -1.742  1.00  0.00     0.023 A 
ATOM     95  C   UNL     1       0.727 -16.680  -2.145  1.00  0.00     0.012 A 
ATOM     96  C   UNL     1      -1.626 -16.128  -1.839  1.00  0.00     0.148 A 
ATOM     97  C   UNL     1       0.371 -17.919  -2.674  1.00  0.00     0.002 A 
ATOM     98  C   UNL     1      -1.970 -17.386  -2.307  1.00  0.00     0.091 A 
ATOM     99  F   UNL     1      -2.553 -15.226  -1.482  1.00  0.00    -0.205 F 
ATOM    100  C   UNL     1      -0.974 -18.276  -2.742  1.00  0.00     0.022 A 
BRANCH  98 101
ATOM    101  S   UNL     1      -3.666 -17.968  -2.336  1.00  0.00     0.127 S 
ATOM    102  O   UNL     1      -3.912 -18.103  -3.771  1.00  0.00    -0.237 OA
ATOM    103  O   UNL     1      -3.564 -19.234  -1.611  1.00  0.00    -0.237 OA
ATOM    104  O   UNL     1      -4.459 -16.946  -1.666  1.00  0.00    -0.744 OA
ENDBRANCH  98 101
ENDBRANCH  71  94
ENDBRANCH  45  46
ENDBRANCH  38  40
ENDBRANCH  37  38
ENDBRANCH  36  37
ENDBRANCH  35  36
ENDBRANCH  34  35
ENDBRANCH   1  34
TORSDOF 24
