REMARK SMILES COc1ccc(-c2nc(NCC(=O)OCCOCCOCCOC(=O)c3ccc(-c4c5nc(c(-c6cccc(S(=O)(=O)[O-])c6F)c6ccc([nH]6)c(-c6cccc(S(=O)(=O)[O-])c6F)c6nc(c(-c7cccc(S(=O)(=O)[O-])c7F)c7ccc4[nH]7)C=C6)C=C5)cc3)sc2-c2ccc(OC)cc2)cc1
REMARK SMILES IDX 18 1 17 2 16 3 15 4 14 5 12 6 13 7 11 8 10 9 9 11 7 12 8 13
REMARK SMILES IDX 90 14 89 15 6 16 3 17 4 18 100 19 5 20 99 21 2 22 1 23 91 24
REMARK SMILES IDX 92 25 98 26 93 27 97 28 94 29 95 30 96 31 19 32 20 33 21 34
REMARK SMILES IDX 22 35 23 36 24 37 25 38 26 39 27 40 88 41 28 42 87 43 29 44
REMARK SMILES IDX 30 45 31 46 81 47 32 48 86 49 80 50 82 51 33 52 85 53 79 54
REMARK SMILES IDX 78 55 34 57 66 58 46 59 65 60 47 61 50 62 64 63 83 64 48 65
REMARK SMILES IDX 49 66 63 68 84 69 51 70 35 71 36 72 44 73 37 74 39 75 45 76
REMARK SMILES IDX 38 77 40 78 41 79 42 80 43 81 67 82 68 83 76 84 69 85 71 86
REMARK SMILES IDX 77 87 70 88 72 89 73 90 74 91 75 92 52 93 53 94 61 95 54 96
REMARK SMILES IDX 56 97 62 98 55 99 57 100 58 101 59 102 60 103
REMARK H PARENT 10 10 82 56 50 67
REMARK Flexibility Score: inf
ROOT
ATOM      1  C   UNL     1       8.361   6.429  -7.696  1.00  0.00     0.188 C 
ENDROOT
BRANCH   1   2
ATOM      2  O   UNL     1       9.474   7.079  -7.092  1.00  0.00    -0.376 OA
BRANCH   2   3
ATOM      3  C   UNL     1       9.369   7.493  -5.731  1.00  0.00     0.202 C 
BRANCH   3   4
ATOM      4  C   UNL     1       8.124   8.291  -5.297  1.00  0.00     0.261 C 
BRANCH   4   5
ATOM      5  O   UNL     1       6.869   7.657  -5.626  1.00  0.00    -0.462 OA
BRANCH   5   6
ATOM      6  C   UNL     1       5.874   8.464  -6.086  1.00  0.00     0.325 C 
ATOM      7  O   UNL     1       5.925   9.691  -6.057  1.00  0.00    -0.250 OA
BRANCH   6   8
ATOM      8  C   UNL     1       4.749   7.716  -6.819  1.00  0.00     0.238 C 
BRANCH   8   9
ATOM      9  N   UNL     1       4.423   6.372  -6.354  1.00  0.00    -0.351 N 
ATOM     10  H   UNL     1       4.907   5.627  -6.777  1.00  0.00     0.163 HD
BRANCH   9  11
ATOM     11  C   UNL     1       3.526   6.051  -5.404  1.00  0.00     0.184 A 
ATOM     12  C   UNL     1       2.260   4.714  -4.160  1.00  0.00     0.091 A 
ATOM     13  N   UNL     1       3.292   4.796  -5.082  1.00  0.00    -0.220 NA
ATOM     14  C   UNL     1       1.715   5.933  -3.794  1.00  0.00     0.064 A 
ATOM     15  S   UNL     1       2.578   7.199  -4.563  1.00  0.00    -0.096 S 
BRANCH  12  16
ATOM     16  C   UNL     1       1.851   3.443  -3.570  1.00  0.00     0.002 A 
ATOM     17  C   UNL     1       1.029   1.186  -2.110  1.00  0.00     0.118 A 
ATOM     18  C   UNL     1       0.114   1.880  -2.901  1.00  0.00     0.047 A 
ATOM     19  C   UNL     1       2.371   1.565  -2.113  1.00  0.00     0.047 A 
ATOM     20  C   UNL     1       0.519   3.008  -3.623  1.00  0.00     0.014 A 
ATOM     21  C   UNL     1       2.781   2.687  -2.845  1.00  0.00     0.014 A 
BRANCH  17  22
ATOM     22  O   UNL     1       0.536   0.119  -1.406  1.00  0.00    -0.497 OA
ATOM     23  C   UNL     1       1.017   0.039  -0.066  1.00  0.00     0.278 C 
ENDBRANCH  17  22
ENDBRANCH  12  16
BRANCH  14  24
ATOM     24  C   UNL     1       0.667   6.294  -2.850  1.00  0.00    -0.006 A 
ATOM     25  C   UNL     1      -0.431   7.056  -3.264  1.00  0.00     0.013 A 
ATOM     26  C   UNL     1       0.777   5.920  -1.508  1.00  0.00     0.013 A 
ATOM     27  C   UNL     1      -1.386   7.468  -2.336  1.00  0.00     0.047 A 
ATOM     28  C   UNL     1      -0.184   6.328  -0.582  1.00  0.00     0.047 A 
ATOM     29  C   UNL     1      -1.264   7.112  -0.992  1.00  0.00     0.118 A 
BRANCH  29  30
ATOM     30  O   UNL     1      -2.252   7.597  -0.180  1.00  0.00    -0.497 OA
ATOM     31  C   UNL     1      -2.200   7.191   1.181  1.00  0.00     0.278 C 
ENDBRANCH  29  30
ENDBRANCH  14  24
ENDBRANCH   9  11
ENDBRANCH   8   9
ENDBRANCH   6   8
ENDBRANCH   5   6
ENDBRANCH   4   5
ENDBRANCH   3   4
ENDBRANCH   2   3
ENDBRANCH   1   2
BRANCH   1  32
ATOM     32  C   UNL     1       7.659   5.308  -6.912  1.00  0.00     0.188 C 
BRANCH  32  33
ATOM     33  O   UNL     1       8.197   5.067  -5.634  1.00  0.00    -0.376 OA
BRANCH  33  34
ATOM     34  C   UNL     1       8.757   3.799  -5.365  1.00  0.00     0.202 C 
BRANCH  34  35
ATOM     35  C   UNL     1       9.788   3.195  -6.335  1.00  0.00     0.261 C 
BRANCH  35  36
ATOM     36  O   UNL     1       9.563   3.383  -7.742  1.00  0.00    -0.460 OA
BRANCH  36  37
ATOM     37  C   UNL     1       8.656   2.580  -8.342  1.00  0.00     0.338 C 
ATOM     38  O   UNL     1       7.994   1.699  -7.809  1.00  0.00    -0.246 OA
BRANCH  37  39
ATOM     39  C   UNL     1       8.419   3.106  -9.706  1.00  0.00     0.060 A 
ATOM     40  C   UNL     1       7.148   3.597 -10.043  1.00  0.00     0.016 A 
ATOM     41  C   UNL     1       9.454   3.136 -10.642  1.00  0.00     0.016 A 
ATOM     42  C   UNL     1       6.905   4.106 -11.322  1.00  0.00     0.010 A 
ATOM     43  C   UNL     1       9.201   3.620 -11.930  1.00  0.00     0.010 A 
ATOM     44  C   UNL     1       7.921   4.084 -12.285  1.00  0.00    -0.014 A 
BRANCH  44  45
ATOM     45  C   UNL     1       7.618   4.372 -13.710  1.00  0.00     0.031 A 
ATOM     46  C   UNL     1       7.429   3.210 -14.648  1.00  0.00     0.074 A 
ATOM     47  C   UNL     1       7.550   5.632 -14.178  1.00  0.00     0.049 A 
ATOM     48  N   UNL     1       7.270   3.207 -15.945  1.00  0.00    -0.248 NA
ATOM     49  C   UNL     1       7.427   1.870 -14.037  1.00  0.00     0.031 C 
ATOM     50  C   UNL     1       7.696   6.843 -13.374  1.00  0.00     0.029 A 
ATOM     51  N   UNL     1       7.378   6.096 -15.460  1.00  0.00    -0.354 N 
ATOM     52  C   UNL     1       7.193   1.869 -16.312  1.00  0.00     0.074 A 
ATOM     53  C   UNL     1       7.323   1.089 -15.101  1.00  0.00     0.031 C 
ATOM     54  C   UNL     1       7.647   7.913 -14.188  1.00  0.00     0.029 A 
ATOM     55  C   UNL     1       7.504   7.461 -15.571  1.00  0.00     0.049 A 
ATOM     56  H   UNL     1       7.184   5.508 -16.226  1.00  0.00     0.167 HD
ATOM     57  C   UNL     1       7.025   1.335 -17.545  1.00  0.00     0.034 A 
ATOM     58  C   UNL     1       7.540   8.249 -16.666  1.00  0.00     0.034 A 
ATOM     59  C   UNL     1       6.884   2.111 -18.747  1.00  0.00     0.049 A 
ATOM     60  C   UNL     1       7.394   7.628 -18.033  1.00  0.00     0.074 A 
ATOM     61  C   UNL     1       6.658   1.662 -20.036  1.00  0.00     0.029 A 
ATOM     62  N   UNL     1       6.978   3.492 -18.814  1.00  0.00    -0.354 N 
ATOM     63  N   UNL     1       7.211   6.370 -18.356  1.00  0.00    -0.248 NA
ATOM     64  C   UNL     1       7.433   8.540 -19.188  1.00  0.00     0.031 C 
ATOM     65  C   UNL     1       6.659   2.769 -20.890  1.00  0.00     0.029 A 
ATOM     66  C   UNL     1       6.835   3.911 -20.126  1.00  0.00     0.049 A 
ATOM     67  H   UNL     1       7.124   4.086 -18.044  1.00  0.00     0.167 HD
ATOM     68  C   UNL     1       7.073   6.345 -19.741  1.00  0.00     0.074 A 
ATOM     69  C   UNL     1       7.177   7.716 -20.195  1.00  0.00     0.031 C 
ATOM     70  C   UNL     1       6.887   5.283 -20.563  1.00  0.00     0.034 A 
BRANCH  57  71
ATOM     71  C   UNL     1       6.982  -0.166 -17.658  1.00  0.00     0.023 A 
ATOM     72  C   UNL     1       5.865  -0.877 -17.177  1.00  0.00     0.012 A 
ATOM     73  C   UNL     1       8.028  -0.865 -18.293  1.00  0.00     0.148 A 
ATOM     74  C   UNL     1       5.804  -2.265 -17.294  1.00  0.00     0.002 A 
ATOM     75  C   UNL     1       7.937  -2.242 -18.451  1.00  0.00     0.091 A 
ATOM     76  F   UNL     1       9.091  -0.172 -18.724  1.00  0.00    -0.205 F 
ATOM     77  C   UNL     1       6.833  -2.946 -17.941  1.00  0.00     0.022 A 
BRANCH  75  78
ATOM     78  S   UNL     1       9.170  -3.199 -19.340  1.00  0.00     0.127 S 
ATOM     79  O   UNL     1       9.773  -3.979 -18.261  1.00  0.00    -0.237 OA
ATOM     80  O   UNL     1       8.345  -3.975 -20.266  1.00  0.00    -0.237 OA
ATOM     81  O   UNL     1      10.051  -2.230 -19.976  1.00  0.00    -0.744 OA
ENDBRANCH  75  78
ENDBRANCH  57  71
BRANCH  58  82
ATOM     82  C   UNL     1       7.713   9.724 -16.523  1.00  0.00     0.023 A 
ATOM     83  C   UNL     1       6.654  10.586 -16.870  1.00  0.00     0.012 A 
ATOM     84  C   UNL     1       8.921  10.277 -16.056  1.00  0.00     0.148 A 
ATOM     85  C   UNL     1       6.807  11.971 -16.788  1.00  0.00     0.002 A 
ATOM     86  C   UNL     1       9.048  11.654 -15.922  1.00  0.00     0.091 A 
ATOM     87  F   UNL     1       9.923   9.441 -15.748  1.00  0.00    -0.205 F 
ATOM     88  C   UNL     1       7.999  12.504 -16.305  1.00  0.00     0.022 A 
BRANCH  86  89
ATOM     89  S   UNL     1      10.499  12.426 -15.198  1.00  0.00     0.127 S 
ATOM     90  O   UNL     1      11.063  13.136 -16.344  1.00  0.00    -0.237 OA
ATOM     91  O   UNL     1       9.901  13.284 -14.175  1.00  0.00    -0.237 OA
ATOM     92  O   UNL     1      11.307  11.334 -14.674  1.00  0.00    -0.744 OA
ENDBRANCH  86  89
ENDBRANCH  58  82
BRANCH  70  93
ATOM     93  C   UNL     1       6.726   5.548 -22.039  1.00  0.00     0.023 A 
ATOM     94  C   UNL     1       7.833   5.951 -22.812  1.00  0.00     0.012 A 
ATOM     95  C   UNL     1       5.490   5.311 -22.675  1.00  0.00     0.148 A 
ATOM     96  C   UNL     1       7.704   6.145 -24.188  1.00  0.00     0.002 A 
ATOM     97  C   UNL     1       5.382   5.455 -24.053  1.00  0.00     0.091 A 
ATOM     98  F   UNL     1       4.444   4.941 -21.921  1.00  0.00    -0.205 F 
ATOM     99  C   UNL     1       6.484   5.885 -24.809  1.00  0.00     0.022 A 
BRANCH  97 100
ATOM    100  S   UNL     1       3.882   5.048 -24.954  1.00  0.00     0.127 S 
ATOM    101  O   UNL     1       3.436   6.367 -25.401  1.00  0.00    -0.237 OA
ATOM    102  O   UNL     1       4.388   4.181 -26.019  1.00  0.00    -0.237 OA
ATOM    103  O   UNL     1       3.004   4.386 -23.999  1.00  0.00    -0.744 OA
ENDBRANCH  97 100
ENDBRANCH  70  93
ENDBRANCH  44  45
ENDBRANCH  37  39
ENDBRANCH  36  37
ENDBRANCH  35  36
ENDBRANCH  34  35
ENDBRANCH  33  34
ENDBRANCH  32  33
ENDBRANCH   1  32
TORSDOF 26
