REMARK SMILES NC(=O)[C@@H]1CCC[N@@H+]1[C@@H](C(=O)OCCOCCOCCOC(=O)c1ccc(-c2c3nc(c(-c4cccc(S(=O)(=O)[O-])c4F)c4ccc([nH]4)c(-c4cccc(S(=O)(=O)[O-])c4F)c4nc(c(-c5cccc(S(=O)(=O)[O-])c5F)c5ccc2[nH]5)C=C4)C=C3)cc1)c1c[nH]c2cc(OCc3ccccc3)ccc12
REMARK SMILES IDX 16 1 15 2 14 3 13 4 12 5 10 6 11 7 9 8 8 9 4 10 5 11 6 12
REMARK SMILES IDX 7 13 2 15 1 16 3 19 87 20 88 21 103 22 89 23 90 24 102 25
REMARK SMILES IDX 91 27 101 28 92 29 93 30 94 31 95 32 96 33 100 34 97 35
REMARK SMILES IDX 99 36 98 37 17 38 18 39 19 40 20 41 21 42 22 43 23 44 24 45
REMARK SMILES IDX 25 46 86 47 26 48 85 49 27 50 28 51 29 52 79 53 30 54 84 55
REMARK SMILES IDX 78 56 80 57 31 58 83 59 77 60 76 61 32 63 64 64 44 65 63 66
REMARK SMILES IDX 45 67 48 68 62 69 81 70 46 71 47 72 61 74 82 75 49 76 33 77
REMARK SMILES IDX 34 78 42 79 35 80 37 81 43 82 36 83 38 84 39 85 40 86 41 87
REMARK SMILES IDX 65 88 66 89 74 90 67 91 69 92 75 93 68 94 70 95 71 96 72 97
REMARK SMILES IDX 73 98 50 99 51 100 59 101 52 102 54 103 60 104 53 105 55 106
REMARK SMILES IDX 56 107 57 108 58 109
REMARK H PARENT 8 14 1 17 1 18 89 26 80 62 48 73
REMARK Flexibility Score: inf
ROOT
ATOM      1  C   UNL     1      -3.004  -0.644   6.071  1.00  0.00     0.188 C 
ENDROOT
BRANCH   1   2
ATOM      2  O   UNL     1      -3.758  -1.749   5.621  1.00  0.00    -0.376 OA
BRANCH   2   3
ATOM      3  C   UNL     1      -3.302  -2.366   4.425  1.00  0.00     0.202 C 
BRANCH   3   4
ATOM      4  C   UNL     1      -3.039  -1.468   3.201  1.00  0.00     0.261 C 
BRANCH   4   5
ATOM      5  O   UNL     1      -2.030  -0.450   3.413  1.00  0.00    -0.459 OA
BRANCH   5   6
ATOM      6  C   UNL     1      -2.456   0.847   3.361  1.00  0.00     0.370 C 
ATOM      7  O   UNL     1      -3.620   1.159   3.110  1.00  0.00    -0.245 OA
BRANCH   6   8
ATOM      8  C   UNL     1      -1.383   1.890   3.684  1.00  0.00     0.329 C 
BRANCH   8   9
ATOM      9  N   UNL     1       0.046   1.665   3.234  1.00  0.00    -0.309 N 
ATOM     10  C   UNL     1       0.534   0.894   2.078  1.00  0.00     0.275 C 
ATOM     11  C   UNL     1       1.110  -0.385   2.671  1.00  0.00     0.081 C 
ATOM     12  C   UNL     1       1.789   0.126   3.908  1.00  0.00     0.068 C 
ATOM     13  C   UNL     1       1.038   1.398   4.255  1.00  0.00     0.264 C 
ATOM     14  H   UNL     1      -0.078   2.609   2.867  1.00  0.00     0.349 HD
BRANCH  10  15
ATOM     15  C   UNL     1      -0.272   0.622   0.829  1.00  0.00     0.275 C 
ATOM     16  N   UNL     1       0.503   0.085  -0.184  1.00  0.00    -0.365 N 
ATOM     17  H   UNL     1       0.095  -0.138  -1.051  1.00  0.00     0.159 HD
ATOM     18  H   UNL     1       1.464  -0.075  -0.036  1.00  0.00     0.159 HD
ATOM     19  O   UNL     1      -1.460   0.840   0.654  1.00  0.00    -0.268 OA
ENDBRANCH  10  15
ENDBRANCH   8   9
BRANCH   8  20
ATOM     20  C   UNL     1      -1.562   2.797   5.055  1.00  0.00     0.046 A 
ATOM     21  C   UNL     1      -0.998   4.074   5.022  1.00  0.00     0.094 A 
ATOM     22  C   UNL     1      -1.547   2.645   6.539  1.00  0.00     0.009 A 
ATOM     23  N   UNL     1       0.251   3.885   5.626  1.00  0.00    -0.361 N 
ATOM     24  C   UNL     1       0.068   3.297   6.923  1.00  0.00     0.050 A 
ATOM     25  C   UNL     1      -2.429   1.937   7.927  1.00  0.00     0.015 A 
ATOM     26  H   UNL     1       1.119   4.119   5.224  1.00  0.00     0.166 HD
ATOM     27  C   UNL     1       0.822   3.058   8.775  1.00  0.00     0.073 A 
ATOM     28  C   UNL     1      -1.766   1.726   9.586  1.00  0.00     0.047 A 
ATOM     29  C   UNL     1      -0.145   2.209  10.034  1.00  0.00     0.121 A 
BRANCH  29  30
ATOM     30  O   UNL     1       0.667   1.077  10.413  1.00  0.00    -0.489 OA
BRANCH  30  31
ATOM     31  C   UNL     1       1.111   0.923  11.748  1.00  0.00     0.265 C 
BRANCH  31  32
ATOM     32  C   UNL     1       1.599   2.136  12.480  1.00  0.00    -0.011 A 
ATOM     33  C   UNL     1       0.860   2.595  13.576  1.00  0.00     0.007 A 
ATOM     34  C   UNL     1       2.791   2.784  12.129  1.00  0.00     0.007 A 
ATOM     35  C   UNL     1       1.282   3.705  14.297  1.00  0.00     0.000 A 
ATOM     36  C   UNL     1       3.228   3.878  12.874  1.00  0.00     0.000 A 
ATOM     37  C   UNL     1       2.467   4.342  13.950  1.00  0.00     0.000 A 
ENDBRANCH  31  32
ENDBRANCH  30  31
ENDBRANCH  29  30
ENDBRANCH   8  20
ENDBRANCH   6   8
ENDBRANCH   5   6
ENDBRANCH   4   5
ENDBRANCH   3   4
ENDBRANCH   2   3
ENDBRANCH   1   2
BRANCH   1  38
ATOM     38  C   UNL     1      -1.504  -0.854   6.325  1.00  0.00     0.188 C 
BRANCH  38  39
ATOM     39  O   UNL     1      -0.794  -1.764   5.505  1.00  0.00    -0.376 OA
BRANCH  39  40
ATOM     40  C   UNL     1       0.309  -2.462   6.087  1.00  0.00     0.202 C 
BRANCH  40  41
ATOM     41  C   UNL     1       0.906  -2.009   7.429  1.00  0.00     0.261 C 
BRANCH  41  42
ATOM     42  O   UNL     1       0.968  -0.582   7.573  1.00  0.00    -0.460 OA
BRANCH  42  43
ATOM     43  C   UNL     1       1.973   0.233   7.197  1.00  0.00     0.338 C 
ATOM     44  O   UNL     1       3.067  -0.084   6.777  1.00  0.00    -0.246 OA
BRANCH  43  45
ATOM     45  C   UNL     1       1.427   1.616   7.333  1.00  0.00     0.060 A 
ATOM     46  C   UNL     1       2.320   3.124   7.115  1.00  0.00     0.016 A 
ATOM     47  C   UNL     1      -0.238   1.734   7.966  1.00  0.00     0.016 A 
ATOM     48  C   UNL     1       1.665   4.738   7.591  1.00  0.00     0.010 A 
ATOM     49  C   UNL     1      -0.986   3.530   8.497  1.00  0.00     0.010 A 
ATOM     50  C   UNL     1       0.040   4.987   8.284  1.00  0.00    -0.014 A 
BRANCH  50  51
ATOM     51  C   UNL     1      -0.419   6.253   8.918  1.00  0.00     0.031 A 
ATOM     52  C   UNL     1       0.353   6.823  10.075  1.00  0.00     0.074 A 
ATOM     53  C   UNL     1      -1.613   6.800   8.620  1.00  0.00     0.049 A 
ATOM     54  N   UNL     1       0.249   7.969  10.699  1.00  0.00    -0.248 NA
ATOM     55  C   UNL     1       1.381   5.943  10.628  1.00  0.00     0.031 C 
ATOM     56  C   UNL     1      -2.600   6.262   7.688  1.00  0.00     0.029 A 
ATOM     57  N   UNL     1      -2.203   7.949   9.090  1.00  0.00    -0.354 N 
ATOM     58  C   UNL     1       1.188   7.928  11.730  1.00  0.00     0.074 A 
ATOM     59  C   UNL     1       1.884   6.683  11.596  1.00  0.00     0.031 C 
ATOM     60  C   UNL     1      -3.643   7.102   7.607  1.00  0.00     0.029 A 
ATOM     61  C   UNL     1      -3.399   8.244   8.478  1.00  0.00     0.049 A 
ATOM     62  H   UNL     1      -1.807   8.508   9.797  1.00  0.00     0.167 HD
ATOM     63  C   UNL     1       1.438   8.810  12.730  1.00  0.00     0.034 A 
ATOM     64  C   UNL     1      -4.182   9.336   8.576  1.00  0.00     0.034 A 
ATOM     65  C   UNL     1       0.721  10.042  12.859  1.00  0.00     0.049 A 
ATOM     66  C   UNL     1      -3.744  10.456   9.478  1.00  0.00     0.074 A 
ATOM     67  C   UNL     1       0.957  11.104  13.711  1.00  0.00     0.029 A 
ATOM     68  N   UNL     1      -0.396  10.362  12.107  1.00  0.00    -0.354 N 
ATOM     69  N   UNL     1      -2.737  10.494  10.317  1.00  0.00    -0.248 NA
ATOM     70  C   UNL     1      -4.512  11.706   9.405  1.00  0.00     0.031 C 
ATOM     71  C   UNL     1      -0.029  12.068  13.477  1.00  0.00     0.029 A 
ATOM     72  C   UNL     1      -0.836  11.625  12.440  1.00  0.00     0.049 A 
ATOM     73  H   UNL     1      -0.814   9.776  11.436  1.00  0.00     0.167 HD
ATOM     74  C   UNL     1      -2.727  11.780  10.843  1.00  0.00     0.074 A 
ATOM     75  C   UNL     1      -3.813  12.496  10.208  1.00  0.00     0.031 C 
ATOM     76  C   UNL     1      -1.899  12.321  11.770  1.00  0.00     0.034 A 
BRANCH  63  77
ATOM     77  C   UNL     1       2.523   8.486  13.744  1.00  0.00     0.023 A 
ATOM     78  C   UNL     1       3.859   8.311  13.319  1.00  0.00     0.012 A 
ATOM     79  C   UNL     1       2.240   8.394  15.125  1.00  0.00     0.148 A 
ATOM     80  C   UNL     1       4.867   7.971  14.221  1.00  0.00     0.002 A 
ATOM     81  C   UNL     1       3.267   8.137  16.030  1.00  0.00     0.091 A 
ATOM     82  F   UNL     1       0.972   8.545  15.533  1.00  0.00    -0.205 F 
ATOM     83  C   UNL     1       4.573   7.895  15.577  1.00  0.00     0.022 A 
BRANCH  81  84
ATOM     84  S   UNL     1       3.034   8.148  17.813  1.00  0.00     0.127 S 
ATOM     85  O   UNL     1       3.332   6.758  18.158  1.00  0.00    -0.237 OA
ATOM     86  O   UNL     1       4.046   9.112  18.243  1.00  0.00    -0.237 OA
ATOM     87  O   UNL     1       1.657   8.562  18.040  1.00  0.00    -0.744 OA
ENDBRANCH  81  84
ENDBRANCH  63  77
BRANCH  64  88
ATOM     88  C   UNL     1      -5.366   9.478   7.683  1.00  0.00     0.023 A 
ATOM     89  C   UNL     1      -5.320  10.392   6.610  1.00  0.00     0.012 A 
ATOM     90  C   UNL     1      -6.512   8.682   7.855  1.00  0.00     0.148 A 
ATOM     91  C   UNL     1      -6.409  10.540   5.750  1.00  0.00     0.002 A 
ATOM     92  C   UNL     1      -7.572   8.794   6.962  1.00  0.00     0.091 A 
ATOM     93  F   UNL     1      -6.533   7.815   8.877  1.00  0.00    -0.205 F 
ATOM     94  C   UNL     1      -7.530   9.734   5.921  1.00  0.00     0.022 A 
BRANCH  92  95
ATOM     95  S   UNL     1      -9.004   7.712   7.029  1.00  0.00     0.127 S 
ATOM     96  O   UNL     1     -10.056   8.637   7.442  1.00  0.00    -0.237 OA
ATOM     97  O   UNL     1      -9.097   7.251   5.644  1.00  0.00    -0.237 OA
ATOM     98  O   UNL     1      -8.667   6.671   7.990  1.00  0.00    -0.744 OA
ENDBRANCH  92  95
ENDBRANCH  64  88
BRANCH  76  99
ATOM     99  C   UNL     1      -2.080  13.771  12.108  1.00  0.00     0.023 A 
ATOM    100  C   UNL     1      -3.207  14.201  12.832  1.00  0.00     0.012 A 
ATOM    101  C   UNL     1      -1.074  14.695  11.765  1.00  0.00     0.148 A 
ATOM    102  C   UNL     1      -3.353  15.545  13.169  1.00  0.00     0.002 A 
ATOM    103  C   UNL     1      -1.196  16.018  12.158  1.00  0.00     0.091 A 
ATOM    104  F   UNL     1      -0.016  14.260  11.065  1.00  0.00    -0.205 F 
ATOM    105  C   UNL     1      -2.344  16.450  12.843  1.00  0.00     0.022 A 
BRANCH 103 106
ATOM    106  S   UNL     1       0.104  17.223  11.879  1.00  0.00     0.127 S 
ATOM    107  O   UNL     1      -0.498  18.078  10.858  1.00  0.00    -0.237 OA
ATOM    108  O   UNL     1       0.235  17.844  13.198  1.00  0.00    -0.237 OA
ATOM    109  O   UNL     1       1.272  16.467  11.448  1.00  0.00    -0.744 OA
ENDBRANCH 103 106
ENDBRANCH  76  99
ENDBRANCH  50  51
ENDBRANCH  43  45
ENDBRANCH  42  43
ENDBRANCH  41  42
ENDBRANCH  40  41
ENDBRANCH  39  40
ENDBRANCH  38  39
ENDBRANCH   1  38
TORSDOF 26
