REMARK SMILES O=C(CC1(CC(=O)OCCOCCOCCOC(=O)c2ccc(-c3c4nc(c(-c5cccc(S(=O)(=O)[O-])c5F)c5ccc([nH]5)c(-c5cccc(S(=O)(=O)[O-])c5F)c5nc(c(-c6cccc(S(=O)(=O)[O-])c6F)c6ccc3[nH]6)C=C5)C=C4)cc2)CCCC1)N[C@H]1CO[C@H]2[C@@H]1OC[C@@H]2n1nnnc1-c1ccccc1
REMARK SMILES IDX 11 1 10 2 9 3 8 4 6 5 7 6 5 7 4 8 83 9 86 10 84 11 85 12
REMARK SMILES IDX 3 13 2 14 1 15 87 16 88 18 89 19 92 20 90 21 91 22 93 23
REMARK SMILES IDX 95 24 94 25 96 26 97 27 100 28 98 29 99 30 101 31 102 32
REMARK SMILES IDX 106 33 103 34 105 35 104 36 12 37 13 38 14 39 15 40 16 41
REMARK SMILES IDX 17 42 18 43 19 44 20 45 21 46 82 47 22 48 81 49 23 50 24 51
REMARK SMILES IDX 25 52 75 53 26 54 80 55 74 56 76 57 27 58 79 59 73 60 72 61
REMARK SMILES IDX 28 63 60 64 40 65 59 66 41 67 44 68 58 69 77 70 42 71 43 72
REMARK SMILES IDX 57 74 78 75 45 76 29 77 30 78 38 79 31 80 33 81 39 82 32 83
REMARK SMILES IDX 34 84 35 85 36 86 37 87 61 88 62 89 70 90 63 91 65 92 71 93
REMARK SMILES IDX 64 94 66 95 67 96 68 97 69 98 46 99 47 100 55 101 48 102
REMARK SMILES IDX 50 103 56 104 49 105 51 106 52 107 53 108 54 109
REMARK H PARENT 87 17 76 62 44 73
REMARK Flexibility Score: inf
ROOT
ATOM      1  O   UNL     1      -1.500   1.989   3.962  1.00  0.00    -0.376 OA
ENDROOT
BRANCH   1   2
ATOM      2  C   UNL     1      -0.624   0.931   3.623  1.00  0.00     0.202 C 
BRANCH   2   3
ATOM      3  C   UNL     1      -1.263  -0.145   2.749  1.00  0.00     0.261 C 
BRANCH   3   4
ATOM      4  O   UNL     1      -1.140   0.286   1.388  1.00  0.00    -0.463 OA
BRANCH   4   5
ATOM      5  C   UNL     1      -2.297   0.708   0.833  1.00  0.00     0.306 C 
ATOM      6  O   UNL     1      -3.413   0.506   1.293  1.00  0.00    -0.252 OA
BRANCH   5   7
ATOM      7  C   UNL     1      -2.068   1.600  -0.355  1.00  0.00     0.130 C 
BRANCH   7   8
ATOM      8  C   UNL     1      -0.700   1.612  -1.113  1.00  0.00    -0.011 C 
ATOM      9  C   UNL     1      -1.018   2.331  -2.460  1.00  0.00     0.008 C 
ATOM     10  C   UNL     1      -0.267   0.242  -1.649  1.00  0.00     0.008 C 
ATOM     11  C   UNL     1      -1.725   1.275  -3.314  1.00  0.00     0.001 C 
ATOM     12  C   UNL     1      -1.216  -0.072  -2.804  1.00  0.00     0.001 C 
BRANCH   8  13
ATOM     13  C   UNL     1       0.433   2.374  -0.347  1.00  0.00     0.107 C 
BRANCH  13  14
ATOM     14  C   UNL     1       1.743   1.651   0.062  1.00  0.00     0.220 C 
ATOM     15  O   UNL     1       2.791   1.801  -0.560  1.00  0.00    -0.275 OA
ATOM     16  N   UNL     1       1.672   0.848   1.184  1.00  0.00    -0.348 N 
ATOM     17  H   UNL     1       0.790   0.729   1.604  1.00  0.00     0.163 HD
BRANCH  16  18
ATOM     18  C   UNL     1       2.830   0.150   1.804  1.00  0.00     0.139 C 
ATOM     19  C   UNL     1       3.991   1.055   2.228  1.00  0.00     0.188 C 
ATOM     20  C   UNL     1       2.496  -0.508   3.148  1.00  0.00     0.174 C 
ATOM     21  O   UNL     1       3.859   1.364   3.640  1.00  0.00    -0.371 OA
ATOM     22  C   UNL     1       2.901   0.471   4.243  1.00  0.00     0.176 C 
ATOM     23  O   UNL     1       3.275  -1.686   3.405  1.00  0.00    -0.371 OA
ATOM     24  C   UNL     1       3.556  -0.336   5.351  1.00  0.00     0.169 C 
ATOM     25  C   UNL     1       3.378  -1.767   4.841  1.00  0.00     0.191 C 
BRANCH  24  26
ATOM     26  N   UNL     1       3.172  -0.206   6.743  1.00  0.00    -0.217 N 
ATOM     27  N   UNL     1       3.860  -1.026   7.582  1.00  0.00    -0.044 NA
ATOM     28  C   UNL     1       2.347   0.599   7.512  1.00  0.00     0.182 A 
ATOM     29  N   UNL     1       3.496  -0.701   8.805  1.00  0.00    -0.023 NA
ATOM     30  N   UNL     1       2.577   0.295   8.781  1.00  0.00    -0.108 NA
BRANCH  28  31
ATOM     31  C   UNL     1       1.310   1.572   7.172  1.00  0.00     0.021 A 
ATOM     32  C   UNL     1       1.519   2.945   7.379  1.00  0.00     0.012 A 
ATOM     33  C   UNL     1       0.000   1.135   6.942  1.00  0.00     0.012 A 
ATOM     34  C   UNL     1       0.457   3.858   7.288  1.00  0.00     0.001 A 
ATOM     35  C   UNL     1      -1.058   2.047   6.846  1.00  0.00     0.001 A 
ATOM     36  C   UNL     1      -0.829   3.410   7.005  1.00  0.00     0.000 A 
ENDBRANCH  28  31
ENDBRANCH  24  26
ENDBRANCH  16  18
ENDBRANCH  13  14
ENDBRANCH   8  13
ENDBRANCH   7   8
ENDBRANCH   5   7
ENDBRANCH   4   5
ENDBRANCH   3   4
ENDBRANCH   2   3
ENDBRANCH   1   2
BRANCH   1  37
ATOM     37  C   UNL     1      -1.543   3.091   3.060  1.00  0.00     0.188 C 
BRANCH  37  38
ATOM     38  C   UNL     1      -0.502   4.191   3.293  1.00  0.00     0.188 C 
BRANCH  38  39
ATOM     39  O   UNL     1       0.771   3.923   2.687  1.00  0.00    -0.376 OA
BRANCH  39  40
ATOM     40  C   UNL     1       1.828   3.744   3.630  1.00  0.00     0.202 C 
BRANCH  40  41
ATOM     41  C   UNL     1       3.170   4.377   3.235  1.00  0.00     0.261 C 
BRANCH  41  42
ATOM     42  O   UNL     1       3.004   5.780   3.079  1.00  0.00    -0.460 OA
BRANCH  42  43
ATOM     43  C   UNL     1       2.499   6.094   1.856  1.00  0.00     0.338 C 
ATOM     44  O   UNL     1       2.785   5.588   0.795  1.00  0.00    -0.246 OA
BRANCH  43  45
ATOM     45  C   UNL     1       1.328   6.965   2.091  1.00  0.00     0.060 A 
ATOM     46  C   UNL     1       0.289   6.922   1.151  1.00  0.00     0.016 A 
ATOM     47  C   UNL     1       1.198   7.691   3.281  1.00  0.00     0.016 A 
ATOM     48  C   UNL     1      -0.879   7.634   1.388  1.00  0.00     0.010 A 
ATOM     49  C   UNL     1       0.030   8.389   3.526  1.00  0.00     0.010 A 
ATOM     50  C   UNL     1      -0.988   8.391   2.560  1.00  0.00    -0.014 A 
BRANCH  50  51
ATOM     51  C   UNL     1      -2.029   9.418   2.684  1.00  0.00     0.031 A 
ATOM     52  C   UNL     1      -1.632  10.813   2.305  1.00  0.00     0.074 A 
ATOM     53  C   UNL     1      -3.224   9.118   3.215  1.00  0.00     0.049 A 
ATOM     54  N   UNL     1      -2.283  11.929   2.459  1.00  0.00    -0.248 NA
ATOM     55  C   UNL     1      -0.295  10.970   1.696  1.00  0.00     0.031 C 
ATOM     56  C   UNL     1      -3.657   7.784   3.629  1.00  0.00     0.029 A 
ATOM     57  N   UNL     1      -4.272   9.933   3.542  1.00  0.00    -0.354 N 
ATOM     58  C   UNL     1      -1.424  12.922   2.006  1.00  0.00     0.074 A 
ATOM     59  C   UNL     1      -0.200  12.284   1.587  1.00  0.00     0.031 C 
ATOM     60  C   UNL     1      -4.873   7.878   4.194  1.00  0.00     0.029 A 
ATOM     61  C   UNL     1      -5.282   9.280   4.207  1.00  0.00     0.049 A 
ATOM     62  H   UNL     1      -4.300  10.893   3.323  1.00  0.00     0.167 HD
ATOM     63  C   UNL     1      -1.648  14.253   1.942  1.00  0.00     0.034 A 
ATOM     64  C   UNL     1      -6.390   9.783   4.783  1.00  0.00     0.034 A 
ATOM     65  C   UNL     1      -2.877  14.852   2.374  1.00  0.00     0.049 A 
ATOM     66  C   UNL     1      -6.620  11.270   4.693  1.00  0.00     0.074 A 
ATOM     67  C   UNL     1      -3.258  16.178   2.317  1.00  0.00     0.029 A 
ATOM     68  N   UNL     1      -3.922  14.153   2.963  1.00  0.00    -0.354 N 
ATOM     69  N   UNL     1      -5.859  12.192   4.149  1.00  0.00    -0.248 NA
ATOM     70  C   UNL     1      -7.870  11.784   5.265  1.00  0.00     0.031 C 
ATOM     71  C   UNL     1      -4.522  16.285   2.905  1.00  0.00     0.029 A 
ATOM     72  C   UNL     1      -4.946  15.019   3.288  1.00  0.00     0.049 A 
ATOM     73  H   UNL     1      -3.930  13.182   3.126  1.00  0.00     0.167 HD
ATOM     74  C   UNL     1      -6.551  13.389   4.282  1.00  0.00     0.074 A 
ATOM     75  C   UNL     1      -7.803  13.068   4.940  1.00  0.00     0.031 C 
ATOM     76  C   UNL     1      -6.191  14.643   3.908  1.00  0.00     0.034 A 
BRANCH  63  77
ATOM     77  C   UNL     1      -0.549  15.118   1.389  1.00  0.00     0.023 A 
ATOM     78  C   UNL     1      -0.213  15.041   0.020  1.00  0.00     0.012 A 
ATOM     79  C   UNL     1       0.148  16.015   2.220  1.00  0.00     0.148 A 
ATOM     80  C   UNL     1       0.822  15.814  -0.503  1.00  0.00     0.002 A 
ATOM     81  C   UNL     1       1.145  16.819   1.681  1.00  0.00     0.091 A 
ATOM     82  F   UNL     1      -0.161  16.049   3.524  1.00  0.00    -0.205 F 
ATOM     83  C   UNL     1       1.494  16.710   0.324  1.00  0.00     0.022 A 
BRANCH  81  84
ATOM     84  S   UNL     1       2.019  18.057   2.643  1.00  0.00     0.127 S 
ATOM     85  O   UNL     1       3.377  17.513   2.662  1.00  0.00    -0.237 OA
ATOM     86  O   UNL     1       1.853  19.254   1.820  1.00  0.00    -0.237 OA
ATOM     87  O   UNL     1       1.354  18.107   3.937  1.00  0.00    -0.744 OA
ENDBRANCH  81  84
ENDBRANCH  63  77
BRANCH  64  88
ATOM     88  C   UNL     1      -7.364   8.878   5.454  1.00  0.00     0.023 A 
ATOM     89  C   UNL     1      -8.632   8.672   4.877  1.00  0.00     0.012 A 
ATOM     90  C   UNL     1      -7.032   8.193   6.639  1.00  0.00     0.148 A 
ATOM     91  C   UNL     1      -9.562   7.825   5.483  1.00  0.00     0.002 A 
ATOM     92  C   UNL     1      -7.942   7.309   7.208  1.00  0.00     0.091 A 
ATOM     93  F   UNL     1      -5.824   8.409   7.180  1.00  0.00    -0.205 F 
ATOM     94  C   UNL     1      -9.214   7.136   6.642  1.00  0.00     0.022 A 
BRANCH  92  95
ATOM     95  S   UNL     1      -7.531   6.280   8.623  1.00  0.00     0.127 S 
ATOM     96  O   UNL     1      -8.361   6.868   9.671  1.00  0.00    -0.237 OA
ATOM     97  O   UNL     1      -7.958   4.957   8.167  1.00  0.00    -0.237 OA
ATOM     98  O   UNL     1      -6.092   6.417   8.802  1.00  0.00    -0.744 OA
ENDBRANCH  92  95
ENDBRANCH  64  88
BRANCH  76  99
ATOM     99  C   UNL     1      -7.179  15.748   4.166  1.00  0.00     0.023 A 
ATOM    100  C   UNL     1      -7.395  16.206   5.480  1.00  0.00     0.012 A 
ATOM    101  C   UNL     1      -7.826  16.384   3.090  1.00  0.00     0.148 A 
ATOM    102  C   UNL     1      -8.271  17.262   5.722  1.00  0.00     0.002 A 
ATOM    103  C   UNL     1      -8.652  17.472   3.333  1.00  0.00     0.091 A 
ATOM    104  F   UNL     1      -7.613  15.919   1.850  1.00  0.00    -0.205 F 
ATOM    105  C   UNL     1      -8.889  17.902   4.649  1.00  0.00     0.022 A 
BRANCH 103 106
ATOM    106  S   UNL     1      -9.400  18.424   2.008  1.00  0.00     0.127 S 
ATOM    107  O   UNL     1     -10.809  18.053   2.135  1.00  0.00    -0.237 OA
ATOM    108  O   UNL     1      -9.091  19.798   2.402  1.00  0.00    -0.237 OA
ATOM    109  O   UNL     1      -8.750  17.986   0.780  1.00  0.00    -0.744 OA
ENDBRANCH 103 106
ENDBRANCH  76  99
ENDBRANCH  50  51
ENDBRANCH  43  45
ENDBRANCH  42  43
ENDBRANCH  41  42
ENDBRANCH  40  41
ENDBRANCH  39  40
ENDBRANCH  38  39
ENDBRANCH  37  38
ENDBRANCH   1  37
TORSDOF 26
