REMARK SMILES Cc1ncc(C(=O)OCCOCCOCCOC(=O)c2ccc(-c3c4nc(c(-c5cccc(S(=O)(=O)[O-])c5F)c5ccc([nH]5)c(-c5cccc(S(=O)(=O)[O-])c5F)c5nc(c(-c6cccc(S(=O)(=O)[O-])c6F)c6ccc3[nH]6)C=C5)C=C4)cc2)cc1C#N
REMARK SMILES IDX 13 1 12 2 11 3 10 4 9 5 8 6 6 7 7 8 5 9 1 10 2 11 3 12 84 13
REMARK SMILES IDX 4 14 83 15 85 16 86 17 14 18 15 19 16 20 17 21 18 22 19 23
REMARK SMILES IDX 20 24 21 25 82 26 22 27 81 28 23 29 24 30 25 31 75 32 26 33
REMARK SMILES IDX 80 34 74 35 76 36 27 37 79 38 73 39 72 40 28 42 60 43 40 44
REMARK SMILES IDX 59 45 41 46 44 47 58 48 77 49 42 50 43 51 57 53 78 54 45 55
REMARK SMILES IDX 29 56 30 57 38 58 31 59 33 60 39 61 32 62 34 63 35 64 36 65
REMARK SMILES IDX 37 66 61 67 62 68 70 69 63 70 65 71 71 72 64 73 66 74 67 75
REMARK SMILES IDX 68 76 69 77 46 78 47 79 55 80 48 81 50 82 56 83 49 84 51 85
REMARK SMILES IDX 52 86 53 87 54 88
REMARK H PARENT 76 41 44 52
REMARK Flexibility Score: inf
ROOT
ATOM      1  C   UNL     1      -2.232   5.274   1.668  1.00  0.00     0.188 C 
ENDROOT
BRANCH   1   2
ATOM      2  C   UNL     1      -2.318   5.335   3.209  1.00  0.00     0.188 C 
BRANCH   2   3
ATOM      3  O   UNL     1      -2.423   6.622   3.766  1.00  0.00    -0.376 OA
BRANCH   3   4
ATOM      4  C   UNL     1      -1.262   7.390   4.019  1.00  0.00     0.202 C 
BRANCH   4   5
ATOM      5  C   UNL     1       0.187   6.980   3.679  1.00  0.00     0.261 C 
BRANCH   5   6
ATOM      6  O   UNL     1       0.396   5.895   2.765  1.00  0.00    -0.460 OA
BRANCH   6   7
ATOM      7  C   UNL     1       0.843   4.743   3.325  1.00  0.00     0.339 C 
ATOM      8  O   UNL     1       1.101   4.553   4.500  1.00  0.00    -0.246 OA
BRANCH   7   9
ATOM      9  C   UNL     1       0.815   3.649   2.340  1.00  0.00     0.079 A 
ATOM     10  C   UNL     1       0.839   0.161  -0.090  1.00  0.00     0.068 C 
ATOM     11  C   UNL     1       0.765   1.444   0.690  1.00  0.00     0.055 A 
ATOM     12  N   UNL     1       0.229   1.344   1.933  1.00  0.00    -0.259 NA
ATOM     13  C   UNL     1       1.291   2.646   0.201  1.00  0.00     0.074 A 
ATOM     14  C   UNL     1       0.275   2.434   2.734  1.00  0.00     0.127 A 
ATOM     15  C   UNL     1       1.299   3.771   1.038  1.00  0.00     0.038 A 
BRANCH  13  16
ATOM     16  C   UNL     1       1.859   2.733  -1.109  1.00  0.00     0.101 C 
ATOM     17  N   UNL     1       2.341   2.801  -2.165  1.00  0.00    -0.192 NA
ENDBRANCH  13  16
ENDBRANCH   7   9
ENDBRANCH   6   7
ENDBRANCH   5   6
ENDBRANCH   4   5
ENDBRANCH   3   4
ENDBRANCH   2   3
ENDBRANCH   1   2
BRANCH   1  18
ATOM     18  O   UNL     1      -1.956   6.455   0.942  1.00  0.00    -0.376 OA
BRANCH  18  19
ATOM     19  C   UNL     1      -2.882   7.531   1.014  1.00  0.00     0.202 C 
BRANCH  19  20
ATOM     20  C   UNL     1      -4.405   7.358   1.222  1.00  0.00     0.261 C 
BRANCH  20  21
ATOM     21  O   UNL     1      -4.849   6.274   2.050  1.00  0.00    -0.460 OA
BRANCH  21  22
ATOM     22  C   UNL     1      -5.452   5.238   1.410  1.00  0.00     0.338 C 
ATOM     23  O   UNL     1      -5.647   5.124   0.214  1.00  0.00    -0.246 OA
BRANCH  22  24
ATOM     24  C   UNL     1      -5.678   4.152   2.386  1.00  0.00     0.060 A 
ATOM     25  C   UNL     1      -4.805   3.053   2.411  1.00  0.00     0.016 A 
ATOM     26  C   UNL     1      -6.759   4.215   3.263  1.00  0.00     0.016 A 
ATOM     27  C   UNL     1      -4.984   2.034   3.342  1.00  0.00     0.010 A 
ATOM     28  C   UNL     1      -6.974   3.162   4.157  1.00  0.00     0.010 A 
ATOM     29  C   UNL     1      -6.097   2.062   4.189  1.00  0.00    -0.014 A 
BRANCH  29  30
ATOM     30  C   UNL     1      -6.468   0.824   4.909  1.00  0.00     0.031 A 
ATOM     31  C   UNL     1      -7.409  -0.125   4.223  1.00  0.00     0.074 A 
ATOM     32  C   UNL     1      -5.960   0.523   6.117  1.00  0.00     0.049 A 
ATOM     33  N   UNL     1      -7.863  -1.277   4.635  1.00  0.00    -0.248 NA
ATOM     34  C   UNL     1      -7.897   0.276   2.891  1.00  0.00     0.031 C 
ATOM     35  C   UNL     1      -5.018   1.346   6.871  1.00  0.00     0.029 A 
ATOM     36  N   UNL     1      -6.181  -0.566   6.925  1.00  0.00    -0.354 N 
ATOM     37  C   UNL     1      -8.701  -1.730   3.626  1.00  0.00     0.074 A 
ATOM     38  C   UNL     1      -8.707  -0.727   2.586  1.00  0.00     0.031 C 
ATOM     39  C   UNL     1      -4.756   0.742   8.044  1.00  0.00     0.029 A 
ATOM     40  C   UNL     1      -5.522  -0.503   8.129  1.00  0.00     0.049 A 
ATOM     41  H   UNL     1      -6.758  -1.320   6.666  1.00  0.00     0.167 HD
ATOM     42  C   UNL     1      -9.391  -2.888   3.561  1.00  0.00     0.034 A 
ATOM     43  C   UNL     1      -5.544  -1.346   9.182  1.00  0.00     0.034 A 
ATOM     44  C   UNL     1      -9.378  -3.893   4.583  1.00  0.00     0.049 A 
ATOM     45  C   UNL     1      -6.364  -2.608   9.112  1.00  0.00     0.074 A 
ATOM     46  C   UNL     1     -10.021  -5.116   4.583  1.00  0.00     0.029 A 
ATOM     47  N   UNL     1      -8.705  -3.785   5.788  1.00  0.00    -0.354 N 
ATOM     48  N   UNL     1      -7.079  -3.067   8.113  1.00  0.00    -0.248 NA
ATOM     49  C   UNL     1      -6.366  -3.480  10.297  1.00  0.00     0.031 C 
ATOM     50  C   UNL     1      -9.764  -5.738   5.805  1.00  0.00     0.029 A 
ATOM     51  C   UNL     1      -8.934  -4.915   6.550  1.00  0.00     0.049 A 
ATOM     52  H   UNL     1      -8.148  -3.021   6.061  1.00  0.00     0.167 HD
ATOM     53  C   UNL     1      -7.597  -4.286   8.539  1.00  0.00     0.074 A 
ATOM     54  C   UNL     1      -7.109  -4.502   9.884  1.00  0.00     0.031 C 
ATOM     55  C   UNL     1      -8.409  -5.141   7.872  1.00  0.00     0.034 A 
BRANCH  42  56
ATOM     56  C   UNL     1     -10.203  -3.154   2.328  1.00  0.00     0.023 A 
ATOM     57  C   UNL     1      -9.553  -3.555   1.145  1.00  0.00     0.012 A 
ATOM     58  C   UNL     1     -11.609  -3.095   2.369  1.00  0.00     0.148 A 
ATOM     59  C   UNL     1     -10.294  -3.892   0.014  1.00  0.00     0.002 A 
ATOM     60  C   UNL     1     -12.341  -3.459   1.248  1.00  0.00     0.091 A 
ATOM     61  F   UNL     1     -12.197  -2.696   3.506  1.00  0.00    -0.205 F 
ATOM     62  C   UNL     1     -11.685  -3.857   0.070  1.00  0.00     0.022 A 
BRANCH  60  63
ATOM     63  S   UNL     1     -14.135  -3.478   1.223  1.00  0.00     0.127 S 
ATOM     64  O   UNL     1     -14.425  -2.459   0.215  1.00  0.00    -0.237 OA
ATOM     65  O   UNL     1     -14.420  -4.850   0.805  1.00  0.00    -0.237 OA
ATOM     66  O   UNL     1     -14.563  -3.145   2.575  1.00  0.00    -0.744 OA
ENDBRANCH  60  63
ENDBRANCH  42  56
BRANCH  43  67
ATOM     67  C   UNL     1      -4.721  -1.032  10.382  1.00  0.00     0.023 A 
ATOM     68  C   UNL     1      -3.528  -1.743  10.607  1.00  0.00     0.012 A 
ATOM     69  C   UNL     1      -5.082   0.010  11.259  1.00  0.00     0.148 A 
ATOM     70  C   UNL     1      -2.702  -1.419  11.685  1.00  0.00     0.002 A 
ATOM     71  C   UNL     1      -4.242   0.346  12.315  1.00  0.00     0.091 A 
ATOM     72  F   UNL     1      -6.225   0.668  11.023  1.00  0.00    -0.205 F 
ATOM     73  C   UNL     1      -3.053  -0.369  12.531  1.00  0.00     0.022 A 
BRANCH  71  74
ATOM     74  S   UNL     1      -4.575   1.718  13.425  1.00  0.00     0.127 S 
ATOM     75  O   UNL     1      -4.649   1.044  14.719  1.00  0.00    -0.237 OA
ATOM     76  O   UNL     1      -3.388   2.551  13.231  1.00  0.00    -0.237 OA
ATOM     77  O   UNL     1      -5.821   2.312  12.963  1.00  0.00    -0.744 OA
ENDBRANCH  71  74
ENDBRANCH  43  67
BRANCH  55  78
ATOM     78  C   UNL     1      -8.846  -6.413   8.547  1.00  0.00     0.023 A 
ATOM     79  C   UNL     1      -9.913  -6.372   9.463  1.00  0.00     0.012 A 
ATOM     80  C   UNL     1      -8.345  -7.657   8.114  1.00  0.00     0.148 A 
ATOM     81  C   UNL     1     -10.486  -7.555   9.930  1.00  0.00     0.002 A 
ATOM     82  C   UNL     1      -8.939  -8.831   8.561  1.00  0.00     0.091 A 
ATOM     83  F   UNL     1      -7.336  -7.664   7.230  1.00  0.00    -0.205 F 
ATOM     84  C   UNL     1     -10.011  -8.781   9.468  1.00  0.00     0.022 A 
BRANCH  82  85
ATOM     85  S   UNL     1      -8.440 -10.457   7.981  1.00  0.00     0.127 S 
ATOM     86  O   UNL     1      -7.994 -11.090   9.222  1.00  0.00    -0.237 OA
ATOM     87  O   UNL     1      -9.690 -10.988   7.440  1.00  0.00    -0.237 OA
ATOM     88  O   UNL     1      -7.390 -10.233   6.996  1.00  0.00    -0.744 OA
ENDBRANCH  82  85
ENDBRANCH  55  78
ENDBRANCH  29  30
ENDBRANCH  22  24
ENDBRANCH  21  22
ENDBRANCH  20  21
ENDBRANCH  19  20
ENDBRANCH  18  19
ENDBRANCH   1  18
TORSDOF 21
