REMARK SMILES O=C(Cn1cc(NC(=O)N2CC[N@@H+]3CCC[C@@H]3C2)cn1)OCCOCCOCCOC(=O)c1ccc(-c2c3nc(c(-c4cccc(S(=O)(=O)[O-])c4F)c4ccc([nH]4)c(-c4cccc(S(=O)(=O)[O-])c4F)c4nc(c(-c5cccc(S(=O)(=O)[O-])c5F)c5ccc2[nH]5)C=C4)C=C3)cc1
REMARK SMILES IDX 25 1 24 2 23 3 22 4 21 5 2 6 1 7 3 8 4 9 5 10 20 11 6 12
REMARK SMILES IDX 19 13 7 14 8 15 9 17 10 18 11 19 18 20 12 21 17 22 13 23
REMARK SMILES IDX 16 24 14 25 15 27 26 28 27 29 28 30 29 31 30 32 31 33 32 34
REMARK SMILES IDX 33 35 34 36 95 37 35 38 94 39 36 40 37 41 38 42 88 43 39 44
REMARK SMILES IDX 93 45 87 46 89 47 40 48 92 49 86 50 85 51 41 53 73 54 53 55
REMARK SMILES IDX 72 56 54 57 57 58 71 59 90 60 55 61 56 62 70 64 91 65 58 66
REMARK SMILES IDX 42 67 43 68 51 69 44 70 46 71 52 72 45 73 47 74 48 75 49 76
REMARK SMILES IDX 50 77 74 78 75 79 83 80 76 81 78 82 84 83 77 84 79 85 80 86
REMARK SMILES IDX 81 87 82 88 59 89 60 90 68 91 61 92 63 93 69 94 62 95 64 96
REMARK SMILES IDX 65 97 66 98 67 99
REMARK H PARENT 7 16 13 26 89 52 57 63
REMARK Flexibility Score: inf
ROOT
ATOM      1  C   UNL     1       2.530   1.833  -0.413  1.00  0.00     0.188 C 
ENDROOT
BRANCH   1   2
ATOM      2  O   UNL     1       3.916   1.825  -0.171  1.00  0.00    -0.376 OA
BRANCH   2   3
ATOM      3  C   UNL     1       4.692   0.642  -0.161  1.00  0.00     0.202 C 
BRANCH   3   4
ATOM      4  C   UNL     1       4.186  -0.720  -0.645  1.00  0.00     0.261 C 
BRANCH   4   5
ATOM      5  O   UNL     1       2.839  -1.161  -0.372  1.00  0.00    -0.462 OA
BRANCH   5   6
ATOM      6  C   UNL     1       2.124  -1.215   0.773  1.00  0.00     0.327 C 
ATOM      7  O   UNL     1       0.980  -1.667   0.728  1.00  0.00    -0.250 OA
BRANCH   6   8
ATOM      8  C   UNL     1       2.692  -0.643   2.042  1.00  0.00     0.266 C 
BRANCH   8   9
ATOM      9  N   UNL     1       3.582  -1.583   2.667  1.00  0.00    -0.259 N 
ATOM     10  C   UNL     1       4.946  -1.534   2.725  1.00  0.00     0.135 A 
ATOM     11  N   UNL     1       3.067  -2.713   3.178  1.00  0.00    -0.179 NA
ATOM     12  C   UNL     1       5.338  -2.817   3.009  1.00  0.00     0.081 A 
ATOM     13  C   UNL     1       4.142  -3.470   3.379  1.00  0.00     0.161 A 
BRANCH  12  14
ATOM     14  N   UNL     1       6.634  -3.286   2.951  1.00  0.00    -0.305 N 
ATOM     15  C   UNL     1       6.970  -4.613   3.009  1.00  0.00     0.322 C 
ATOM     16  H   UNL     1       7.361  -2.628   2.862  1.00  0.00     0.171 HD
ATOM     17  O   UNL     1       8.012  -4.976   3.550  1.00  0.00    -0.248 OA
BRANCH  15  18
ATOM     18  N   UNL     1       6.076  -5.496   2.443  1.00  0.00    -0.313 N 
ATOM     19  C   UNL     1       5.646  -5.373   1.043  1.00  0.00     0.183 C 
ATOM     20  C   UNL     1       5.713  -6.704   3.159  1.00  0.00     0.186 C 
ATOM     21  C   UNL     1       4.646  -6.460   0.611  1.00  0.00     0.284 C 
ATOM     22  C   UNL     1       5.687  -7.959   2.281  1.00  0.00     0.204 C 
ATOM     23  N   UNL     1       5.100  -7.822   0.927  1.00  0.00    -0.330 N 
ATOM     24  C   UNL     1       4.897  -9.078   2.959  1.00  0.00     0.073 C 
ATOM     25  C   UNL     1       4.035  -8.817   0.774  1.00  0.00     0.262 C 
ATOM     26  H   UNL     1       5.836  -8.000   0.243  1.00  0.00     0.348 HD
ATOM     27  C   UNL     1       4.370  -9.889   1.796  1.00  0.00     0.068 C 
ENDBRANCH  15  18
ENDBRANCH  12  14
ENDBRANCH   8   9
ENDBRANCH   6   8
ENDBRANCH   5   6
ENDBRANCH   4   5
ENDBRANCH   3   4
ENDBRANCH   2   3
ENDBRANCH   1   2
BRANCH   1  28
ATOM     28  C   UNL     1       2.078   2.319  -1.793  1.00  0.00     0.188 C 
BRANCH  28  29
ATOM     29  O   UNL     1       2.892   2.060  -2.925  1.00  0.00    -0.376 OA
BRANCH  29  30
ATOM     30  C   UNL     1       4.210   2.603  -3.008  1.00  0.00     0.202 C 
BRANCH  30  31
ATOM     31  C   UNL     1       4.493   4.058  -2.636  1.00  0.00     0.261 C 
BRANCH  31  32
ATOM     32  O   UNL     1       4.349   4.271  -1.238  1.00  0.00    -0.460 OA
BRANCH  32  33
ATOM     33  C   UNL     1       3.282   5.014  -0.885  1.00  0.00     0.338 C 
ATOM     34  O   UNL     1       2.459   5.517  -1.630  1.00  0.00    -0.246 OA
BRANCH  33  35
ATOM     35  C   UNL     1       3.244   5.184   0.574  1.00  0.00     0.060 A 
ATOM     36  C   UNL     1       2.105   5.838   1.055  1.00  0.00     0.016 A 
ATOM     37  C   UNL     1       4.448   5.141   1.284  1.00  0.00     0.016 A 
ATOM     38  C   UNL     1       2.283   6.777   2.039  1.00  0.00     0.010 A 
ATOM     39  C   UNL     1       4.628   6.085   2.262  1.00  0.00     0.010 A 
ATOM     40  C   UNL     1       3.581   6.979   2.503  1.00  0.00    -0.014 A 
BRANCH  40  41
ATOM     41  C   UNL     1       3.886   8.284   3.051  1.00  0.00     0.031 A 
ATOM     42  C   UNL     1       3.623   8.435   4.491  1.00  0.00     0.074 A 
ATOM     43  C   UNL     1       4.498   9.203   2.275  1.00  0.00     0.049 A 
ATOM     44  N   UNL     1       2.869   9.304   5.080  1.00  0.00    -0.248 NA
ATOM     45  C   UNL     1       4.190   7.410   5.379  1.00  0.00     0.031 C 
ATOM     46  C   UNL     1       5.049   8.999   0.926  1.00  0.00     0.029 A 
ATOM     47  N   UNL     1       4.929  10.454   2.598  1.00  0.00    -0.354 N 
ATOM     48  C   UNL     1       3.056   9.069   6.436  1.00  0.00     0.074 A 
ATOM     49  C   UNL     1       3.710   7.792   6.559  1.00  0.00     0.031 C 
ATOM     50  C   UNL     1       5.967   9.957   0.679  1.00  0.00     0.029 A 
ATOM     51  C   UNL     1       5.977  10.888   1.793  1.00  0.00     0.049 A 
ATOM     52  H   UNL     1       4.540  10.993   3.324  1.00  0.00     0.167 HD
ATOM     53  C   UNL     1       2.927  10.053   7.362  1.00  0.00     0.034 A 
ATOM     54  C   UNL     1       6.876  11.854   2.096  1.00  0.00     0.034 A 
ATOM     55  C   UNL     1       2.191  11.184   6.879  1.00  0.00     0.049 A 
ATOM     56  C   UNL     1       6.307  12.668   3.195  1.00  0.00     0.074 A 
ATOM     57  C   UNL     1       0.924  11.382   6.370  1.00  0.00     0.029 A 
ATOM     58  N   UNL     1       2.906  12.314   6.567  1.00  0.00    -0.354 N 
ATOM     59  N   UNL     1       5.256  13.429   3.071  1.00  0.00    -0.248 NA
ATOM     60  C   UNL     1       6.672  12.328   4.561  1.00  0.00     0.031 C 
ATOM     61  C   UNL     1       1.069  12.416   5.401  1.00  0.00     0.029 A 
ATOM     62  C   UNL     1       2.413  12.796   5.384  1.00  0.00     0.049 A 
ATOM     63  H   UNL     1       3.638  12.705   7.097  1.00  0.00     0.167 HD
ATOM     64  C   UNL     1       4.588  13.308   4.283  1.00  0.00     0.074 A 
ATOM     65  C   UNL     1       5.568  12.727   5.197  1.00  0.00     0.031 C 
ATOM     66  C   UNL     1       3.227  13.411   4.355  1.00  0.00     0.034 A 
BRANCH  53  67
ATOM     67  C   UNL     1       3.780  10.112   8.595  1.00  0.00     0.023 A 
ATOM     68  C   UNL     1       3.351  10.918   9.665  1.00  0.00     0.012 A 
ATOM     69  C   UNL     1       5.095   9.594   8.657  1.00  0.00     0.148 A 
ATOM     70  C   UNL     1       4.193  11.190  10.748  1.00  0.00     0.002 A 
ATOM     71  C   UNL     1       5.888   9.783   9.779  1.00  0.00     0.091 A 
ATOM     72  F   UNL     1       5.645   9.026   7.575  1.00  0.00    -0.205 F 
ATOM     73  C   UNL     1       5.453  10.603  10.819  1.00  0.00     0.022 A 
BRANCH  71  74
ATOM     74  S   UNL     1       7.469   8.946   9.922  1.00  0.00     0.127 S 
ATOM     75  O   UNL     1       8.385   9.953   9.398  1.00  0.00    -0.237 OA
ATOM     76  O   UNL     1       7.564   8.708  11.363  1.00  0.00    -0.237 OA
ATOM     77  O   UNL     1       7.311   7.730   9.132  1.00  0.00    -0.744 OA
ENDBRANCH  71  74
ENDBRANCH  53  67
BRANCH  54  78
ATOM     78  C   UNL     1       8.305  11.917   1.710  1.00  0.00     0.023 A 
ATOM     79  C   UNL     1       8.977  13.153   1.715  1.00  0.00     0.012 A 
ATOM     80  C   UNL     1       9.076  10.741   1.555  1.00  0.00     0.148 A 
ATOM     81  C   UNL     1      10.370  13.216   1.578  1.00  0.00     0.002 A 
ATOM     82  C   UNL     1      10.456  10.809   1.391  1.00  0.00     0.091 A 
ATOM     83  F   UNL     1       8.473   9.550   1.660  1.00  0.00    -0.205 F 
ATOM     84  C   UNL     1      11.109  12.046   1.414  1.00  0.00     0.022 A 
BRANCH  82  85
ATOM     85  S   UNL     1      11.459   9.334   1.157  1.00  0.00     0.127 S 
ATOM     86  O   UNL     1      12.345   9.738   0.064  1.00  0.00    -0.237 OA
ATOM     87  O   UNL     1      12.112   9.200   2.455  1.00  0.00    -0.237 OA
ATOM     88  O   UNL     1      10.524   8.273   0.801  1.00  0.00    -0.744 OA
ENDBRANCH  82  85
ENDBRANCH  54  78
BRANCH  66  89
ATOM     89  C   UNL     1       2.486  13.901   3.133  1.00  0.00     0.023 A 
ATOM     90  C   UNL     1       2.489  13.165   1.929  1.00  0.00     0.012 A 
ATOM     91  C   UNL     1       1.617  14.999   3.251  1.00  0.00     0.148 A 
ATOM     92  C   UNL     1       1.669  13.527   0.859  1.00  0.00     0.002 A 
ATOM     93  C   UNL     1       0.768  15.332   2.199  1.00  0.00     0.091 A 
ATOM     94  F   UNL     1       1.608  15.681   4.406  1.00  0.00    -0.205 F 
ATOM     95  C   UNL     1       0.798  14.604   0.999  1.00  0.00     0.022 A 
BRANCH  93  96
ATOM     96  S   UNL     1      -0.474  16.619   2.355  1.00  0.00     0.127 S 
ATOM     97  O   UNL     1       0.104  17.701   1.560  1.00  0.00    -0.237 OA
ATOM     98  O   UNL     1      -1.656  15.990   1.762  1.00  0.00    -0.237 OA
ATOM     99  O   UNL     1      -0.597  16.885   3.783  1.00  0.00    -0.744 OA
ENDBRANCH  93  96
ENDBRANCH  66  89
ENDBRANCH  40  41
ENDBRANCH  33  35
ENDBRANCH  32  33
ENDBRANCH  31  32
ENDBRANCH  30  31
ENDBRANCH  29  30
ENDBRANCH  28  29
ENDBRANCH   1  28
TORSDOF 23
