REMARK SMILES CCCOC(=O)c1c(NC(=O)[C@@H]2CC=CC[C@H]2C(=O)OCCOCCOCCOC(=O)c2ccc(-c3c4nc(c(-c5cccc(S(=O)(=O)[O-])c5F)c5ccc([nH]5)c(-c5cccc(S(=O)(=O)[O-])c5F)c5nc(c(-c6cccc(S(=O)(=O)[O-])c6F)c6ccc3[nH]6)C=C5)C=C4)cc2)sc2c1CCCC2
REMARK SMILES IDX 23 1 22 2 21 3 20 4 18 5 19 6 17 7 12 8 13 9 14 10 16 11
REMARK SMILES IDX 15 12 10 13 9 14 11 16 8 17 7 18 97 19 95 20 96 21 98 22
REMARK SMILES IDX 101 23 99 24 100 25 5 26 6 27 4 28 3 29 2 30 1 31 24 32
REMARK SMILES IDX 25 33 26 34 27 35 28 36 29 37 30 38 31 39 32 40 33 41 94 42
REMARK SMILES IDX 34 43 93 44 35 45 36 46 37 47 87 48 38 49 92 50 86 51 88 52
REMARK SMILES IDX 39 53 91 54 85 55 84 56 40 58 72 59 52 60 71 61 53 62 56 63
REMARK SMILES IDX 70 64 89 65 54 66 55 67 69 69 90 70 57 71 41 72 42 73 50 74
REMARK SMILES IDX 43 75 45 76 51 77 44 78 46 79 47 80 48 81 49 82 73 83 74 84
REMARK SMILES IDX 82 85 75 86 77 87 83 88 76 89 78 90 79 91 80 92 81 93 58 94
REMARK SMILES IDX 59 95 67 96 60 97 62 98 68 99 61 100 63 101 64 102 65 103
REMARK SMILES IDX 66 104
REMARK H PARENT 9 15 88 57 56 68
REMARK Flexibility Score: inf
ROOT
ATOM      1  O   UNL     1       0.927   6.085   3.168  1.00  0.00    -0.376 OA
ENDROOT
BRANCH   1   2
ATOM      2  C   UNL     1      -0.489   6.022   3.067  1.00  0.00     0.202 C 
BRANCH   2   3
ATOM      3  C   UNL     1      -1.069   5.287   1.852  1.00  0.00     0.261 C 
BRANCH   3   4
ATOM      4  O   UNL     1      -0.882   3.843   1.914  1.00  0.00    -0.463 OA
BRANCH   4   5
ATOM      5  C   UNL     1      -0.378   3.298   0.787  1.00  0.00     0.310 C 
ATOM      6  O   UNL     1      -0.314   3.952  -0.258  1.00  0.00    -0.252 OA
BRANCH   5   7
ATOM      7  C   UNL     1       0.246   1.880   0.855  1.00  0.00     0.116 C 
ATOM      8  C   UNL     1      -0.014   0.767   1.859  1.00  0.00     0.097 C 
ATOM      9  C   UNL     1      -0.470  -0.648   1.337  1.00  0.00     0.041 C 
ATOM     10  C   UNL     1       0.144  -1.032   0.034  1.00  0.00    -0.030 C 
ATOM     11  C   UNL     1      -0.110   1.324  -0.505  1.00  0.00     0.043 C 
ATOM     12  C   UNL     1       0.333  -0.060  -0.849  1.00  0.00    -0.030 C 
BRANCH   8  13
ATOM     13  C   UNL     1       1.228   0.372   2.612  1.00  0.00     0.229 C 
ATOM     14  N   UNL     1       2.446   0.081   2.112  1.00  0.00    -0.317 N 
ATOM     15  H   UNL     1       2.850  -0.587   2.711  1.00  0.00     0.170 HD
ATOM     16  O   UNL     1       1.070   0.022   3.794  1.00  0.00    -0.274 OA
BRANCH  14  17
ATOM     17  C   UNL     1       3.362   0.329   1.110  1.00  0.00     0.110 A 
ATOM     18  C   UNL     1       3.712   1.047  -0.046  1.00  0.00     0.098 A 
ATOM     19  C   UNL     1       5.200   1.135  -0.052  1.00  0.00    -0.017 A 
ATOM     20  S   UNL     1       4.681  -0.700   1.601  1.00  0.00    -0.122 S 
ATOM     21  C   UNL     1       5.803   0.306   0.873  1.00  0.00     0.011 A 
ATOM     22  C   UNL     1       6.047   2.108  -0.835  1.00  0.00     0.038 C 
ATOM     23  C   UNL     1       7.261   0.232   1.221  1.00  0.00     0.047 C 
ATOM     24  C   UNL     1       7.542   1.729  -0.803  1.00  0.00     0.005 C 
ATOM     25  C   UNL     1       8.018   1.417   0.620  1.00  0.00     0.006 C 
BRANCH  18  26
ATOM     26  C   UNL     1       2.932   1.953  -0.937  1.00  0.00     0.341 C 
ATOM     27  O   UNL     1       2.865   3.154  -0.701  1.00  0.00    -0.246 OA
BRANCH  26  28
ATOM     28  O   UNL     1       2.391   1.383  -2.093  1.00  0.00    -0.462 OA
BRANCH  28  29
ATOM     29  C   UNL     1       1.702   2.274  -3.053  1.00  0.00     0.233 C 
BRANCH  29  30
ATOM     30  C   UNL     1       0.444   1.708  -3.823  1.00  0.00     0.038 C 
ATOM     31  C   UNL     1      -0.987   1.784  -3.249  1.00  0.00     0.007 C 
ENDBRANCH  29  30
ENDBRANCH  28  29
ENDBRANCH  26  28
ENDBRANCH  18  26
ENDBRANCH  14  17
ENDBRANCH   8  13
ENDBRANCH   5   7
ENDBRANCH   4   5
ENDBRANCH   3   4
ENDBRANCH   2   3
ENDBRANCH   1   2
BRANCH   1  32
ATOM     32  C   UNL     1       1.653   4.899   2.892  1.00  0.00     0.188 C 
BRANCH  32  33
ATOM     33  C   UNL     1       1.500   3.776   3.917  1.00  0.00     0.188 C 
BRANCH  33  34
ATOM     34  O   UNL     1       0.307   3.010   3.971  1.00  0.00    -0.376 OA
BRANCH  34  35
ATOM     35  C   UNL     1      -0.620   3.140   5.042  1.00  0.00     0.202 C 
BRANCH  35  36
ATOM     36  C   UNL     1      -0.167   3.137   6.514  1.00  0.00     0.261 C 
BRANCH  36  37
ATOM     37  O   UNL     1       1.245   3.163   6.720  1.00  0.00    -0.460 OA
BRANCH  37  38
ATOM     38  C   UNL     1       1.857   1.961   6.641  1.00  0.00     0.338 C 
ATOM     39  O   UNL     1       1.319   0.863   6.685  1.00  0.00    -0.246 OA
BRANCH  38  40
ATOM     40  C   UNL     1       3.279   2.189   6.312  1.00  0.00     0.060 A 
ATOM     41  C   UNL     1       3.761   1.689   5.100  1.00  0.00     0.016 A 
ATOM     42  C   UNL     1       4.132   2.901   7.153  1.00  0.00     0.016 A 
ATOM     43  C   UNL     1       5.083   1.881   4.713  1.00  0.00     0.010 A 
ATOM     44  C   UNL     1       5.480   3.045   6.796  1.00  0.00     0.010 A 
ATOM     45  C   UNL     1       5.970   2.508   5.589  1.00  0.00    -0.014 A 
BRANCH  45  46
ATOM     46  C   UNL     1       7.429   2.363   5.351  1.00  0.00     0.031 A 
ATOM     47  C   UNL     1       8.170   1.325   6.149  1.00  0.00     0.074 A 
ATOM     48  C   UNL     1       8.082   3.075   4.415  1.00  0.00     0.049 A 
ATOM     49  N   UNL     1       9.452   1.080   6.206  1.00  0.00    -0.248 NA
ATOM     50  C   UNL     1       7.350   0.449   7.003  1.00  0.00     0.031 C 
ATOM     51  C   UNL     1       7.477   4.058   3.521  1.00  0.00     0.029 A 
ATOM     52  N   UNL     1       9.413   3.078   4.070  1.00  0.00    -0.354 N 
ATOM     53  C   UNL     1       9.600   0.081   7.160  1.00  0.00     0.074 A 
ATOM     54  C   UNL     1       8.276  -0.255   7.634  1.00  0.00     0.031 C 
ATOM     55  C   UNL     1       8.436   4.577   2.734  1.00  0.00     0.029 A 
ATOM     56  C   UNL     1       9.730   3.999   3.099  1.00  0.00     0.049 A 
ATOM     57  H   UNL     1      10.077   2.476   4.478  1.00  0.00     0.167 HD
ATOM     58  C   UNL     1      10.737  -0.499   7.612  1.00  0.00     0.034 A 
ATOM     59  C   UNL     1      10.928   4.357   2.589  1.00  0.00     0.034 A 
ATOM     60  C   UNL     1      12.051  -0.192   7.117  1.00  0.00     0.049 A 
ATOM     61  C   UNL     1      12.184   3.706   3.116  1.00  0.00     0.074 A 
ATOM     62  C   UNL     1      13.263  -0.729   7.512  1.00  0.00     0.029 A 
ATOM     63  N   UNL     1      12.328   0.735   6.125  1.00  0.00    -0.354 N 
ATOM     64  N   UNL     1      12.311   2.749   4.003  1.00  0.00    -0.248 NA
ATOM     65  C   UNL     1      13.463   4.184   2.568  1.00  0.00     0.031 C 
ATOM     66  C   UNL     1      14.277  -0.100   6.783  1.00  0.00     0.029 A 
ATOM     67  C   UNL     1      13.692   0.792   5.899  1.00  0.00     0.049 A 
ATOM     68  H   UNL     1      11.653   1.273   5.651  1.00  0.00     0.167 HD
ATOM     69  C   UNL     1      13.677   2.501   4.108  1.00  0.00     0.074 A 
ATOM     70  C   UNL     1      14.334   3.382   3.165  1.00  0.00     0.031 C 
ATOM     71  C   UNL     1      14.332   1.639   4.926  1.00  0.00     0.034 A 
BRANCH  58  72
ATOM     72  C   UNL     1      10.608  -1.507   8.723  1.00  0.00     0.023 A 
ATOM     73  C   UNL     1      10.053  -2.777   8.473  1.00  0.00     0.012 A 
ATOM     74  C   UNL     1      11.073  -1.197  10.017  1.00  0.00     0.148 A 
ATOM     75  C   UNL     1       9.928  -3.710   9.503  1.00  0.00     0.002 A 
ATOM     76  C   UNL     1      10.994  -2.149  11.024  1.00  0.00     0.091 A 
ATOM     77  F   UNL     1      11.576   0.026  10.239  1.00  0.00    -0.205 F 
ATOM     78  C   UNL     1      10.408  -3.400  10.773  1.00  0.00     0.022 A 
BRANCH  76  79
ATOM     79  S   UNL     1      11.661  -1.875  12.668  1.00  0.00     0.127 S 
ATOM     80  O   UNL     1      10.443  -1.804  13.474  1.00  0.00    -0.237 OA
ATOM     81  O   UNL     1      12.461  -3.082  12.878  1.00  0.00    -0.237 OA
ATOM     82  O   UNL     1      12.431  -0.641  12.592  1.00  0.00    -0.744 OA
ENDBRANCH  76  79
ENDBRANCH  58  72
BRANCH  59  83
ATOM     83  C   UNL     1      11.010   5.402   1.526  1.00  0.00     0.023 A 
ATOM     84  C   UNL     1      11.479   5.062   0.241  1.00  0.00     0.012 A 
ATOM     85  C   UNL     1      10.627   6.732   1.783  1.00  0.00     0.148 A 
ATOM     86  C   UNL     1      11.589   6.032  -0.757  1.00  0.00     0.002 A 
ATOM     87  C   UNL     1      10.671   7.677   0.765  1.00  0.00     0.091 A 
ATOM     88  F   UNL     1      10.219   7.047   3.020  1.00  0.00    -0.205 F 
ATOM     89  C   UNL     1      11.171   7.335  -0.500  1.00  0.00     0.022 A 
BRANCH  87  90
ATOM     90  S   UNL     1      10.014   9.335   0.969  1.00  0.00     0.127 S 
ATOM     91  O   UNL     1      11.230  10.144   0.943  1.00  0.00    -0.237 OA
ATOM     92  O   UNL     1       9.161   9.466  -0.212  1.00  0.00    -0.237 OA
ATOM     93  O   UNL     1       9.291   9.319   2.233  1.00  0.00    -0.744 OA
ENDBRANCH  87  90
ENDBRANCH  59  83
BRANCH  71  94
ATOM     94  C   UNL     1      15.836   1.567   4.819  1.00  0.00     0.023 A 
ATOM     95  C   UNL     1      16.631   2.631   5.289  1.00  0.00     0.012 A 
ATOM     96  C   UNL     1      16.462   0.405   4.325  1.00  0.00     0.148 A 
ATOM     97  C   UNL     1      18.023   2.555   5.234  1.00  0.00     0.002 A 
ATOM     98  C   UNL     1      17.849   0.314   4.322  1.00  0.00     0.091 A 
ATOM     99  F   UNL     1      15.689  -0.593   3.870  1.00  0.00    -0.205 F 
ATOM    100  C   UNL     1      18.631   1.394   4.763  1.00  0.00     0.022 A 
BRANCH  98 101
ATOM    101  S   UNL     1      18.719  -1.176   3.822  1.00  0.00     0.127 S 
ATOM    102  O   UNL     1      19.339  -0.752   2.568  1.00  0.00    -0.237 OA
ATOM    103  O   UNL     1      19.655  -1.373   4.929  1.00  0.00    -0.237 OA
ATOM    104  O   UNL     1      17.704  -2.213   3.696  1.00  0.00    -0.744 OA
ENDBRANCH  98 101
ENDBRANCH  71  94
ENDBRANCH  45  46
ENDBRANCH  38  40
ENDBRANCH  37  38
ENDBRANCH  36  37
ENDBRANCH  35  36
ENDBRANCH  34  35
ENDBRANCH  33  34
ENDBRANCH  32  33
ENDBRANCH   1  32
TORSDOF 26
