REMARK SMILES O=C(OCCOCCOCCOC(=O)c1cn(-c2cc(F)cc(F)c2F)c(=O)[nH]c1=O)c1ccc(-c2c3nc(c(-c4cccc(S(=O)(=O)[O-])c4F)c4ccc([nH]4)c(-c4cccc(S(=O)(=O)[O-])c4F)c4nc(c(-c5cccc(S(=O)(=O)[O-])c5F)c5ccc2[nH]5)C=C4)C=C3)cc1
REMARK SMILES IDX 7 1 6 2 5 3 4 4 3 5 2 6 1 7 32 8 33 9 94 10 34 11 93 12
REMARK SMILES IDX 35 13 36 14 37 15 87 16 38 17 92 18 86 19 88 20 39 21 91 22
REMARK SMILES IDX 85 23 84 24 40 26 72 27 52 28 71 29 53 30 56 31 70 32 89 33
REMARK SMILES IDX 54 34 55 35 69 37 90 38 57 39 41 40 42 41 50 42 43 43 45 44
REMARK SMILES IDX 51 45 44 46 46 47 47 48 48 49 49 50 73 51 74 52 82 53 75 54
REMARK SMILES IDX 77 55 83 56 76 57 78 58 79 59 80 60 81 61 58 62 59 63 67 64
REMARK SMILES IDX 60 65 62 66 68 67 61 68 63 69 64 70 65 71 66 72 8 73 9 74
REMARK SMILES IDX 10 75 11 76 12 77 13 78 14 79 15 80 16 81 30 82 17 83 29 84
REMARK SMILES IDX 31 85 27 86 28 88 18 89 19 90 25 91 20 92 23 93 26 94 21 95
REMARK SMILES IDX 22 96 24 97
REMARK H PARENT 88 25 56 36 29 87
REMARK Flexibility Score: inf
ROOT
ATOM      1  C   UNL     1       2.580  -0.958  -1.335  1.00  0.00     0.188 C 
ENDROOT
BRANCH   1   2
ATOM      2  O   UNL     1       3.918  -0.452  -1.345  1.00  0.00    -0.376 OA
BRANCH   2   3
ATOM      3  C   UNL     1       4.808  -1.163  -0.479  1.00  0.00     0.202 C 
BRANCH   3   4
ATOM      4  C   UNL     1       4.538  -1.074   1.038  1.00  0.00     0.261 C 
BRANCH   4   5
ATOM      5  O   UNL     1       3.198  -0.715   1.424  1.00  0.00    -0.460 OA
BRANCH   5   6
ATOM      6  C   UNL     1       2.590   0.494   1.509  1.00  0.00     0.338 C 
ATOM      7  O   UNL     1       1.435   0.525   1.937  1.00  0.00    -0.246 OA
BRANCH   6   8
ATOM      8  C   UNL     1       3.197   1.782   1.045  1.00  0.00     0.060 A 
ATOM      9  C   UNL     1       2.408   2.946   1.137  1.00  0.00     0.016 A 
ATOM     10  C   UNL     1       4.472   1.913   0.504  1.00  0.00     0.016 A 
ATOM     11  C   UNL     1       2.872   4.177   0.652  1.00  0.00     0.010 A 
ATOM     12  C   UNL     1       4.949   3.128   0.044  1.00  0.00     0.010 A 
ATOM     13  C   UNL     1       4.147   4.261   0.082  1.00  0.00    -0.014 A 
BRANCH  13  14
ATOM     14  C   UNL     1       4.765   5.526  -0.345  1.00  0.00     0.031 A 
ATOM     15  C   UNL     1       5.166   5.760  -1.771  1.00  0.00     0.074 A 
ATOM     16  C   UNL     1       5.191   6.357   0.619  1.00  0.00     0.049 A 
ATOM     17  N   UNL     1       5.591   6.859  -2.333  1.00  0.00    -0.248 NA
ATOM     18  C   UNL     1       5.119   4.612  -2.695  1.00  0.00     0.031 C 
ATOM     19  C   UNL     1       5.130   6.071   2.055  1.00  0.00     0.029 A 
ATOM     20  N   UNL     1       5.851   7.548   0.538  1.00  0.00    -0.354 N 
ATOM     21  C   UNL     1       5.657   6.574  -3.692  1.00  0.00     0.074 A 
ATOM     22  C   UNL     1       5.515   5.159  -3.838  1.00  0.00     0.031 C 
ATOM     23  C   UNL     1       5.801   7.025   2.715  1.00  0.00     0.029 A 
ATOM     24  C   UNL     1       6.287   8.007   1.753  1.00  0.00     0.049 A 
ATOM     25  H   UNL     1       6.000   8.029  -0.308  1.00  0.00     0.167 HD
ATOM     26  C   UNL     1       5.593   7.487  -4.687  1.00  0.00     0.034 A 
ATOM     27  C   UNL     1       7.001   9.105   2.053  1.00  0.00     0.034 A 
ATOM     28  C   UNL     1       6.185   8.821  -4.457  1.00  0.00     0.049 A 
ATOM     29  C   UNL     1       7.292  10.075   0.955  1.00  0.00     0.074 A 
ATOM     30  C   UNL     1       6.620   9.782  -5.358  1.00  0.00     0.029 A 
ATOM     31  N   UNL     1       6.464   9.356  -3.194  1.00  0.00    -0.354 N 
ATOM     32  N   UNL     1       7.035   9.949  -0.325  1.00  0.00    -0.248 NA
ATOM     33  C   UNL     1       7.894  11.357   1.333  1.00  0.00     0.031 C 
ATOM     34  C   UNL     1       7.041  10.916  -4.656  1.00  0.00     0.029 A 
ATOM     35  C   UNL     1       6.975  10.641  -3.304  1.00  0.00     0.049 A 
ATOM     36  H   UNL     1       6.318   8.884  -2.342  1.00  0.00     0.167 HD
ATOM     37  C   UNL     1       7.415  11.146  -0.907  1.00  0.00     0.074 A 
ATOM     38  C   UNL     1       7.908  11.992   0.165  1.00  0.00     0.031 C 
ATOM     39  C   UNL     1       7.381  11.498  -2.215  1.00  0.00     0.034 A 
BRANCH  26  40
ATOM     40  C   UNL     1       4.841   7.138  -6.166  1.00  0.00     0.023 A 
ATOM     41  C   UNL     1       2.979   7.305  -6.976  1.00  0.00     0.012 A 
ATOM     42  C   UNL     1       6.228   7.378  -7.309  1.00  0.00     0.148 A 
ATOM     43  C   UNL     1       2.808   7.766  -8.709  1.00  0.00     0.002 A 
ATOM     44  C   UNL     1       5.904   7.821  -8.968  1.00  0.00     0.091 A 
ATOM     45  F   UNL     1       7.474   7.154  -6.868  1.00  0.00    -0.205 F 
ATOM     46  C   UNL     1       4.269   8.034  -9.639  1.00  0.00     0.022 A 
BRANCH  44  47
ATOM     47  S   UNL     1       7.223   7.659 -10.175  1.00  0.00     0.127 S 
ATOM     48  O   UNL     1       7.053   6.284 -10.638  1.00  0.00    -0.237 OA
ATOM     49  O   UNL     1       6.867   8.687 -11.150  1.00  0.00    -0.237 OA
ATOM     50  O   UNL     1       8.434   7.920  -9.411  1.00  0.00    -0.744 OA
ENDBRANCH  44  47
ENDBRANCH  26  40
BRANCH  27  51
ATOM     51  C   UNL     1       7.359   9.336   3.471  1.00  0.00     0.023 A 
ATOM     52  C   UNL     1       6.551  10.174   4.259  1.00  0.00     0.012 A 
ATOM     53  C   UNL     1       8.375   8.570   4.077  1.00  0.00     0.148 A 
ATOM     54  C   UNL     1       6.743  10.238   5.638  1.00  0.00     0.002 A 
ATOM     55  C   UNL     1       8.539   8.616   5.454  1.00  0.00     0.091 A 
ATOM     56  F   UNL     1       9.111   7.766   3.296  1.00  0.00    -0.205 F 
ATOM     57  C   UNL     1       7.725   9.451   6.236  1.00  0.00     0.022 A 
BRANCH  55  58
ATOM     58  S   UNL     1       9.700   7.557   6.325  1.00  0.00     0.127 S 
ATOM     59  O   UNL     1      10.633   8.535   6.880  1.00  0.00    -0.237 OA
ATOM     60  O   UNL     1       8.833   6.905   7.306  1.00  0.00    -0.237 OA
ATOM     61  O   UNL     1      10.256   6.663   5.319  1.00  0.00    -0.744 OA
ENDBRANCH  55  58
ENDBRANCH  27  51
BRANCH  39  62
ATOM     62  C   UNL     1       7.903  12.865  -2.569  1.00  0.00     0.023 A 
ATOM     63  C   UNL     1       9.296  13.054  -2.657  1.00  0.00     0.012 A 
ATOM     64  C   UNL     1       7.034  13.923  -2.898  1.00  0.00     0.148 A 
ATOM     65  C   UNL     1       9.821  14.280  -3.060  1.00  0.00     0.002 A 
ATOM     66  C   UNL     1       7.564  15.138  -3.320  1.00  0.00     0.091 A 
ATOM     67  F   UNL     1       5.713  13.720  -2.799  1.00  0.00    -0.205 F 
ATOM     68  C   UNL     1       8.956  15.317  -3.400  1.00  0.00     0.022 A 
BRANCH  66  69
ATOM     69  S   UNL     1       6.545  16.535  -3.807  1.00  0.00     0.127 S 
ATOM     70  O   UNL     1       6.899  17.529  -2.793  1.00  0.00    -0.237 OA
ATOM     71  O   UNL     1       7.047  16.829  -5.149  1.00  0.00    -0.237 OA
ATOM     72  O   UNL     1       5.166  16.069  -3.756  1.00  0.00    -0.744 OA
ENDBRANCH  66  69
ENDBRANCH  39  62
ENDBRANCH  13  14
ENDBRANCH   6   8
ENDBRANCH   5   6
ENDBRANCH   4   5
ENDBRANCH   3   4
ENDBRANCH   2   3
ENDBRANCH   1   2
BRANCH   1  73
ATOM     73  C   UNL     1       1.987  -1.336  -2.693  1.00  0.00     0.188 C 
BRANCH  73  74
ATOM     74  O   UNL     1       2.699  -2.269  -3.495  1.00  0.00    -0.376 OA
BRANCH  74  75
ATOM     75  C   UNL     1       4.037  -1.943  -3.848  1.00  0.00     0.202 C 
BRANCH  75  76
ATOM     76  C   UNL     1       4.323  -0.652  -4.636  1.00  0.00     0.261 C 
BRANCH  76  77
ATOM     77  O   UNL     1       3.760   0.561  -4.100  1.00  0.00    -0.459 OA
BRANCH  77  78
ATOM     78  C   UNL     1       2.709   1.074  -4.795  1.00  0.00     0.345 C 
ATOM     79  O   UNL     1       2.192   0.583  -5.787  1.00  0.00    -0.246 OA
BRANCH  78  80
ATOM     80  C   UNL     1       2.288   2.368  -4.241  1.00  0.00     0.141 A 
ATOM     81  C   UNL     1       2.849   3.450  -4.783  1.00  0.00     0.118 A 
ATOM     82  C   UNL     1       1.200   2.569  -3.287  1.00  0.00     0.268 A 
ATOM     83  N   UNL     1       2.463   4.767  -4.526  1.00  0.00    -0.265 N 
ATOM     84  N   UNL     1       0.919   3.881  -2.995  1.00  0.00    -0.273 N 
ATOM     85  O   UNL     1       0.579   1.643  -2.779  1.00  0.00    -0.268 OA
ATOM     86  C   UNL     1       1.457   5.013  -3.586  1.00  0.00     0.333 A 
ATOM     87  H   UNL     1       0.259   4.036  -2.281  1.00  0.00     0.175 HD
ATOM     88  O   UNL     1       0.976   6.104  -3.293  1.00  0.00    -0.247 OA
BRANCH  83  89
ATOM     89  C   UNL     1       3.061   5.848  -5.300  1.00  0.00     0.092 A 
ATOM     90  C   UNL     1       2.996   7.565  -4.805  1.00  0.00     0.069 A 
ATOM     91  C   UNL     1       3.748   5.339  -6.829  1.00  0.00     0.183 A 
ATOM     92  C   UNL     1       3.608   8.898  -5.827  1.00  0.00     0.128 A 
ATOM     93  C   UNL     1       4.392   6.532  -7.941  1.00  0.00     0.163 A 
ATOM     94  F   UNL     1       3.606   4.088  -7.296  1.00  0.00    -0.201 F 
ATOM     95  F   UNL     1       3.459  10.171  -5.445  1.00  0.00    -0.207 F 
ATOM     96  C   UNL     1       4.364   8.487  -7.425  1.00  0.00     0.081 A 
ATOM     97  F   UNL     1       4.739   5.912  -9.102  1.00  0.00    -0.204 F 
ENDBRANCH  83  89
ENDBRANCH  78  80
ENDBRANCH  77  78
ENDBRANCH  76  77
ENDBRANCH  75  76
ENDBRANCH  74  75
ENDBRANCH  73  74
ENDBRANCH   1  73
TORSDOF 21
