REMARK SMILES CC(C)[C@H](NC(=O)CCNC(=O)c1ccoc1)C(=O)OCCOCCOCCOC(=O)c1ccc(-c2c3nc(c(-c4cccc(S(=O)(=O)[O-])c4F)c4ccc([nH]4)c(-c4cccc(S(=O)(=O)[O-])c4F)c4nc(c(-c5cccc(S(=O)(=O)[O-])c5F)c5ccc2[nH]5)C=C4)C=C3)cc1
REMARK SMILES IDX 24 1 23 2 22 3 21 4 20 5 18 6 19 7 4 8 2 9 1 10 3 11 5 12
REMARK SMILES IDX 6 13 7 15 8 16 9 17 10 18 11 19 12 21 13 22 14 23 17 24
REMARK SMILES IDX 15 25 16 26 25 27 26 28 27 29 28 30 29 31 30 32 31 33 32 34
REMARK SMILES IDX 33 35 94 36 34 37 93 38 35 39 36 40 37 41 87 42 38 43 92 44
REMARK SMILES IDX 86 45 88 46 39 47 91 48 85 49 84 50 40 52 72 53 52 54 71 55
REMARK SMILES IDX 53 56 56 57 70 58 89 59 54 60 55 61 69 63 90 64 57 65 41 66
REMARK SMILES IDX 42 67 50 68 43 69 45 70 51 71 44 72 46 73 47 74 48 75 49 76
REMARK SMILES IDX 73 77 74 78 82 79 75 80 77 81 83 82 76 83 78 84 79 85 80 86
REMARK SMILES IDX 81 87 58 88 59 89 67 90 60 91 62 92 68 93 61 94 63 95 64 96
REMARK SMILES IDX 65 97 66 98
REMARK H PARENT 5 14 10 20 88 51 56 62
REMARK Flexibility Score: inf
ROOT
ATOM      1  C   UNL     1      -1.104   2.879   5.869  1.00  0.00     0.188 C 
ENDROOT
BRANCH   1   2
ATOM      2  O   UNL     1      -1.562   1.552   5.607  1.00  0.00    -0.376 OA
BRANCH   2   3
ATOM      3  C   UNL     1      -1.325   0.403   6.425  1.00  0.00     0.202 C 
BRANCH   3   4
ATOM      4  C   UNL     1      -1.831  -1.007   5.739  1.00  0.00     0.261 C 
BRANCH   4   5
ATOM      5  O   UNL     1      -1.518  -1.180   4.282  1.00  0.00    -0.462 OA
BRANCH   5   6
ATOM      6  C   UNL     1      -2.188  -1.879   3.304  1.00  0.00     0.328 C 
ATOM      7  O   UNL     1      -3.040  -2.725   3.569  1.00  0.00    -0.250 OA
BRANCH   6   8
ATOM      8  C   UNL     1      -1.829  -1.471   1.703  1.00  0.00     0.194 C 
BRANCH   8   9
ATOM      9  C   UNL     1      -1.719  -2.697   0.746  1.00  0.00     0.017 C 
ATOM     10  C   UNL     1      -1.395  -2.291  -0.721  1.00  0.00     0.010 C 
ATOM     11  C   UNL     1      -0.656  -3.683   1.215  1.00  0.00     0.010 C 
ENDBRANCH   8   9
BRANCH   8  12
ATOM     12  N   UNL     1      -0.868  -0.471   1.155  1.00  0.00    -0.342 N 
ATOM     13  C   UNL     1       0.450  -0.334   1.467  1.00  0.00     0.222 C 
ATOM     14  H   UNL     1      -1.228   0.162   0.492  1.00  0.00     0.164 HD
ATOM     15  O   UNL     1       1.281   0.121   0.695  1.00  0.00    -0.275 OA
BRANCH  13  16
ATOM     16  C   UNL     1       0.688  -0.534   2.902  1.00  0.00     0.121 C 
BRANCH  16  17
ATOM     17  C   UNL     1      -0.072   0.648   3.555  1.00  0.00     0.126 C 
BRANCH  17  18
ATOM     18  N   UNL     1      -1.484   1.113   3.034  1.00  0.00    -0.351 N 
ATOM     19  C   UNL     1      -2.867   1.275   3.196  1.00  0.00     0.254 C 
ATOM     20  H   UNL     1      -1.303   1.475   2.136  1.00  0.00     0.163 HD
ATOM     21  O   UNL     1      -3.385   1.793   2.199  1.00  0.00    -0.269 OA
BRANCH  19  22
ATOM     22  C   UNL     1      -3.796   0.845   4.270  1.00  0.00     0.077 A 
ATOM     23  C   UNL     1      -4.231   1.500   5.481  1.00  0.00     0.056 A 
ATOM     24  C   UNL     1      -4.720  -0.189   4.155  1.00  0.00     0.208 A 
ATOM     25  C   UNL     1      -5.176   0.705   6.089  1.00  0.00     0.195 A 
ATOM     26  O   UNL     1      -5.480  -0.333   5.277  1.00  0.00    -0.472 OA
ENDBRANCH  19  22
ENDBRANCH  17  18
ENDBRANCH  16  17
ENDBRANCH  13  16
ENDBRANCH   8  12
ENDBRANCH   6   8
ENDBRANCH   5   6
ENDBRANCH   4   5
ENDBRANCH   3   4
ENDBRANCH   2   3
ENDBRANCH   1   2
BRANCH   1  27
ATOM     27  C   UNL     1      -0.223   3.473   4.745  1.00  0.00     0.188 C 
BRANCH  27  28
ATOM     28  O   UNL     1       1.129   3.015   4.741  1.00  0.00    -0.376 OA
BRANCH  28  29
ATOM     29  C   UNL     1       1.951   3.410   5.822  1.00  0.00     0.202 C 
BRANCH  29  30
ATOM     30  C   UNL     1       2.262   4.910   5.925  1.00  0.00     0.261 C 
BRANCH  30  31
ATOM     31  O   UNL     1       1.726   5.713   4.867  1.00  0.00    -0.460 OA
BRANCH  31  32
ATOM     32  C   UNL     1       2.240   5.518   3.631  1.00  0.00     0.338 C 
ATOM     33  O   UNL     1       3.266   4.899   3.358  1.00  0.00    -0.246 OA
BRANCH  32  34
ATOM     34  C   UNL     1       1.267   6.046   2.644  1.00  0.00     0.060 A 
ATOM     35  C   UNL     1       1.032   5.334   1.459  1.00  0.00     0.016 A 
ATOM     36  C   UNL     1       0.549   7.219   2.905  1.00  0.00     0.016 A 
ATOM     37  C   UNL     1       0.096   5.806   0.527  1.00  0.00     0.010 A 
ATOM     38  C   UNL     1      -0.382   7.687   1.977  1.00  0.00     0.010 A 
ATOM     39  C   UNL     1      -0.597   7.000   0.771  1.00  0.00    -0.014 A 
BRANCH  39  40
ATOM     40  C   UNL     1      -1.414   7.666  -0.276  1.00  0.00     0.031 A 
ATOM     41  C   UNL     1      -0.771   8.764  -1.078  1.00  0.00     0.074 A 
ATOM     42  C   UNL     1      -2.724   7.400  -0.428  1.00  0.00     0.049 A 
ATOM     43  N   UNL     1      -1.313   9.616  -1.907  1.00  0.00    -0.248 NA
ATOM     44  C   UNL     1       0.682   8.932  -0.904  1.00  0.00     0.031 C 
ATOM     45  C   UNL     1      -3.470   6.368   0.288  1.00  0.00     0.029 A 
ATOM     46  N   UNL     1      -3.672   8.023  -1.207  1.00  0.00    -0.354 N 
ATOM     47  C   UNL     1      -0.279  10.444  -2.325  1.00  0.00     0.074 A 
ATOM     48  C   UNL     1       0.923   9.994  -1.658  1.00  0.00     0.031 C 
ATOM     49  C   UNL     1      -4.771   6.460  -0.047  1.00  0.00     0.029 A 
ATOM     50  C   UNL     1      -4.953   7.577  -0.974  1.00  0.00     0.049 A 
ATOM     51  H   UNL     1      -3.455   8.721  -1.867  1.00  0.00     0.167 HD
ATOM     52  C   UNL     1      -0.321  11.483  -3.192  1.00  0.00     0.034 A 
ATOM     53  C   UNL     1      -6.137   8.043  -1.425  1.00  0.00     0.034 A 
ATOM     54  C   UNL     1      -1.509  11.927  -3.864  1.00  0.00     0.049 A 
ATOM     55  C   UNL     1      -6.163   9.229  -2.360  1.00  0.00     0.074 A 
ATOM     56  C   UNL     1      -1.639  12.928  -4.810  1.00  0.00     0.029 A 
ATOM     57  N   UNL     1      -2.778  11.414  -3.647  1.00  0.00    -0.354 N 
ATOM     58  N   UNL     1      -5.161   9.914  -2.857  1.00  0.00    -0.248 NA
ATOM     59  C   UNL     1      -7.485   9.696  -2.809  1.00  0.00     0.031 C 
ATOM     60  C   UNL     1      -2.993  13.042  -5.141  1.00  0.00     0.029 A 
ATOM     61  C   UNL     1      -3.701  12.095  -4.420  1.00  0.00     0.049 A 
ATOM     62  H   UNL     1      -2.991  10.674  -3.033  1.00  0.00     0.167 HD
ATOM     63  C   UNL     1      -5.729  10.872  -3.694  1.00  0.00     0.074 A 
ATOM     64  C   UNL     1      -7.160  10.664  -3.657  1.00  0.00     0.031 C 
ATOM     65  C   UNL     1      -5.120  11.848  -4.413  1.00  0.00     0.034 A 
BRANCH  52  66
ATOM     66  C   UNL     1       0.970  12.200  -3.478  1.00  0.00     0.023 A 
ATOM     67  C   UNL     1       1.946  11.581  -4.284  1.00  0.00     0.012 A 
ATOM     68  C   UNL     1       1.197  13.501  -2.989  1.00  0.00     0.148 A 
ATOM     69  C   UNL     1       3.142  12.234  -4.576  1.00  0.00     0.002 A 
ATOM     70  C   UNL     1       2.375  14.162  -3.317  1.00  0.00     0.091 A 
ATOM     71  F   UNL     1       0.267  14.060  -2.202  1.00  0.00    -0.205 F 
ATOM     72  C   UNL     1       3.352  13.526  -4.102  1.00  0.00     0.022 A 
BRANCH  70  73
ATOM     73  S   UNL     1       2.709  15.853  -2.814  1.00  0.00     0.127 S 
ATOM     74  O   UNL     1       3.764  15.662  -1.820  1.00  0.00    -0.237 OA
ATOM     75  O   UNL     1       3.155  16.464  -4.066  1.00  0.00    -0.237 OA
ATOM     76  O   UNL     1       1.451  16.375  -2.298  1.00  0.00    -0.744 OA
ENDBRANCH  70  73
ENDBRANCH  52  66
BRANCH  53  77
ATOM     77  C   UNL     1      -7.410   7.386  -1.009  1.00  0.00     0.023 A 
ATOM     78  C   UNL     1      -8.163   6.671  -1.961  1.00  0.00     0.012 A 
ATOM     79  C   UNL     1      -7.883   7.469   0.316  1.00  0.00     0.148 A 
ATOM     80  C   UNL     1      -9.376   6.076  -1.609  1.00  0.00     0.002 A 
ATOM     81  C   UNL     1      -9.066   6.831   0.672  1.00  0.00     0.091 A 
ATOM     82  F   UNL     1      -7.167   8.177   1.202  1.00  0.00    -0.205 F 
ATOM     83  C   UNL     1      -9.822   6.147  -0.292  1.00  0.00     0.022 A 
BRANCH  81  84
ATOM     84  S   UNL     1      -9.663   6.780   2.366  1.00  0.00     0.127 S 
ATOM     85  O   UNL     1     -10.825   7.663   2.301  1.00  0.00    -0.237 OA
ATOM     86  O   UNL     1      -9.978   5.362   2.535  1.00  0.00    -0.237 OA
ATOM     87  O   UNL     1      -8.556   7.252   3.188  1.00  0.00    -0.744 OA
ENDBRANCH  81  84
ENDBRANCH  53  77
BRANCH  65  88
ATOM     88  C   UNL     1      -5.987  12.767  -5.237  1.00  0.00     0.023 A 
ATOM     89  C   UNL     1      -6.759  13.755  -4.596  1.00  0.00     0.012 A 
ATOM     90  C   UNL     1      -5.959  12.718  -6.646  1.00  0.00     0.148 A 
ATOM     91  C   UNL     1      -7.508  14.666  -5.341  1.00  0.00     0.002 A 
ATOM     92  C   UNL     1      -6.671  13.658  -7.383  1.00  0.00     0.091 A 
ATOM     93  F   UNL     1      -5.229  11.762  -7.238  1.00  0.00    -0.205 F 
ATOM     94  C   UNL     1      -7.454  14.626  -6.733  1.00  0.00     0.022 A 
BRANCH  92  95
ATOM     95  S   UNL     1      -6.588  13.746  -9.176  1.00  0.00     0.127 S 
ATOM     96  O   UNL     1      -7.928  13.303  -9.558  1.00  0.00    -0.237 OA
ATOM     97  O   UNL     1      -6.328  15.168  -9.405  1.00  0.00    -0.237 OA
ATOM     98  O   UNL     1      -5.503  12.860  -9.574  1.00  0.00    -0.744 OA
ENDBRANCH  92  95
ENDBRANCH  65  88
ENDBRANCH  39  40
ENDBRANCH  32  34
ENDBRANCH  31  32
ENDBRANCH  30  31
ENDBRANCH  29  30
ENDBRANCH  28  29
ENDBRANCH  27  28
ENDBRANCH   1  27
TORSDOF 26
