REMARK SMILES CC(C)CN(C)c1cc2c(cc1Cl)C=C(C(=O)OCCOCCOCCOC(=O)c1ccc(-c3c4nc(c(-c5cccc(S(=O)(=O)[O-])c5F)c5ccc([nH]5)c(-c5cccc(S(=O)(=O)[O-])c5F)c5nc(c(-c6cccc(S(=O)(=O)[O-])c6F)c6ccc3[nH]6)C=C5)C=C4)cc1)[C@H](C(F)(F)F)O2
REMARK SMILES IDX 22 1 21 2 20 3 19 4 18 5 16 6 17 7 15 8 7 9 8 10 12 11 9 12
REMARK SMILES IDX 11 13 13 14 10 15 98 16 14 17 93 18 5 19 6 20 4 21 2 22 1 23
REMARK SMILES IDX 3 24 94 25 95 26 96 27 97 28 23 29 24 30 25 31 26 32 27 33
REMARK SMILES IDX 28 34 29 35 30 36 31 37 92 38 32 39 91 40 33 41 34 42 35 43
REMARK SMILES IDX 85 44 36 45 90 46 84 47 86 48 37 49 89 50 83 51 82 52 38 54
REMARK SMILES IDX 70 55 50 56 69 57 51 58 54 59 68 60 87 61 52 62 53 63 67 65
REMARK SMILES IDX 88 66 55 67 39 68 40 69 48 70 41 71 43 72 49 73 42 74 44 75
REMARK SMILES IDX 45 76 46 77 47 78 71 79 72 80 80 81 73 82 75 83 81 84 74 85
REMARK SMILES IDX 76 86 77 87 78 88 79 89 56 90 57 91 65 92 58 93 60 94 66 95
REMARK SMILES IDX 59 96 61 97 62 98 63 99 64 100
REMARK H PARENT 86 53 54 64
REMARK Flexibility Score: inf
ROOT
ATOM      1  C   UNL     1       0.701  -6.523  -5.208  1.00  0.00     0.188 C 
ENDROOT
BRANCH   1   2
ATOM      2  O   UNL     1       0.765  -7.775  -5.852  1.00  0.00    -0.376 OA
BRANCH   2   3
ATOM      3  C   UNL     1       0.423  -8.962  -5.157  1.00  0.00     0.202 C 
BRANCH   3   4
ATOM      4  C   UNL     1      -0.379  -9.018  -3.843  1.00  0.00     0.261 C 
BRANCH   4   5
ATOM      5  O   UNL     1      -0.886  -7.772  -3.359  1.00  0.00    -0.460 OA
BRANCH   5   6
ATOM      6  C   UNL     1      -0.656  -7.510  -2.057  1.00  0.00     0.338 C 
ATOM      7  O   UNL     1      -0.120  -8.252  -1.249  1.00  0.00    -0.246 OA
BRANCH   6   8
ATOM      8  C   UNL     1      -1.028  -6.123  -1.728  1.00  0.00     0.087 C 
ATOM      9  C   UNL     1      -0.847  -1.782   0.831  1.00  0.00     0.059 A 
ATOM     10  C   UNL     1      -1.865  -2.504   0.174  1.00  0.00     0.074 A 
ATOM     11  C   UNL     1       0.461  -2.307   0.742  1.00  0.00     0.065 A 
ATOM     12  C   UNL     1      -1.591  -3.685  -0.528  1.00  0.00     0.130 A 
ATOM     13  C   UNL     1       0.750  -3.414  -0.064  1.00  0.00     0.034 A 
ATOM     14  Cl  UNL     1       1.764  -1.743   1.729  1.00  0.00    -0.082 Cl
ATOM     15  C   UNL     1      -0.278  -4.112  -0.690  1.00  0.00     0.019 A 
ATOM     16  O   UNL     1      -2.668  -4.382  -1.000  1.00  0.00    -0.475 OA
ATOM     17  C   UNL     1       0.012  -5.349  -1.391  1.00  0.00     0.027 C 
ATOM     18  C   UNL     1      -2.467  -5.741  -1.501  1.00  0.00     0.316 C 
BRANCH   9  19
ATOM     19  N   UNL     1      -1.153  -0.637   1.581  1.00  0.00    -0.373 N 
ATOM     20  C   UNL     1      -2.204  -0.791   2.582  1.00  0.00     0.143 C 
BRANCH  19  21
ATOM     21  C   UNL     1      -1.051   0.687   0.927  1.00  0.00     0.119 C 
BRANCH  21  22
ATOM     22  C   UNL     1       0.395   1.211   0.820  1.00  0.00     0.002 C 
ATOM     23  C   UNL     1       0.997   0.926  -0.559  1.00  0.00     0.009 C 
ATOM     24  C   UNL     1       0.485   2.715   1.099  1.00  0.00     0.009 C 
ENDBRANCH  21  22
ENDBRANCH  19  21
ENDBRANCH   9  19
BRANCH  18  25
ATOM     25  C   UNL     1      -3.407  -5.896  -2.709  1.00  0.00     0.430 C 
ATOM     26  F   UNL     1      -3.131  -5.013  -3.692  1.00  0.00    -0.167 F 
ATOM     27  F   UNL     1      -3.384  -7.142  -3.229  1.00  0.00    -0.167 F 
ATOM     28  F   UNL     1      -4.695  -5.675  -2.331  1.00  0.00    -0.167 F 
ENDBRANCH  18  25
ENDBRANCH   6   8
ENDBRANCH   5   6
ENDBRANCH   4   5
ENDBRANCH   3   4
ENDBRANCH   2   3
ENDBRANCH   1   2
BRANCH   1  29
ATOM     29  C   UNL     1      -0.642  -5.779  -5.360  1.00  0.00     0.188 C 
BRANCH  29  30
ATOM     30  O   UNL     1      -1.739  -6.412  -6.004  1.00  0.00    -0.376 OA
BRANCH  30  31
ATOM     31  C   UNL     1      -1.557  -6.945  -7.310  1.00  0.00     0.202 C 
BRANCH  31  32
ATOM     32  C   UNL     1      -1.020  -6.045  -8.431  1.00  0.00     0.261 C 
BRANCH  32  33
ATOM     33  O   UNL     1       0.218  -5.391  -8.118  1.00  0.00    -0.460 OA
BRANCH  33  34
ATOM     34  C   UNL     1       0.147  -4.035  -8.011  1.00  0.00     0.338 C 
ATOM     35  O   UNL     1      -0.823  -3.332  -8.191  1.00  0.00    -0.246 OA
BRANCH  34  36
ATOM     36  C   UNL     1       1.416  -3.550  -7.427  1.00  0.00     0.060 A 
ATOM     37  C   UNL     1       2.636  -3.830  -8.041  1.00  0.00     0.016 A 
ATOM     38  C   UNL     1       1.368  -2.801  -6.242  1.00  0.00     0.016 A 
ATOM     39  C   UNL     1       3.813  -3.336  -7.476  1.00  0.00     0.010 A 
ATOM     40  C   UNL     1       2.548  -2.325  -5.668  1.00  0.00     0.010 A 
ATOM     41  C   UNL     1       3.776  -2.572  -6.295  1.00  0.00    -0.014 A 
BRANCH  41  42
ATOM     42  C   UNL     1       5.002  -1.877  -5.839  1.00  0.00     0.031 A 
ATOM     43  C   UNL     1       5.853  -2.405  -4.725  1.00  0.00     0.074 A 
ATOM     44  C   UNL     1       5.336  -0.731  -6.463  1.00  0.00     0.049 A 
ATOM     45  N   UNL     1       7.010  -1.961  -4.306  1.00  0.00    -0.248 NA
ATOM     46  C   UNL     1       5.349  -3.569  -3.980  1.00  0.00     0.031 C 
ATOM     47  C   UNL     1       4.538  -0.084  -7.508  1.00  0.00     0.029 A 
ATOM     48  N   UNL     1       6.419   0.094  -6.310  1.00  0.00    -0.354 N 
ATOM     49  C   UNL     1       7.382  -2.791  -3.258  1.00  0.00     0.074 A 
ATOM     50  C   UNL     1       6.315  -3.755  -3.085  1.00  0.00     0.031 C 
ATOM     51  C   UNL     1       5.160   1.037  -7.902  1.00  0.00     0.029 A 
ATOM     52  C   UNL     1       6.397   1.188  -7.141  1.00  0.00     0.049 A 
ATOM     53  H   UNL     1       7.143  -0.080  -5.666  1.00  0.00     0.167 HD
ATOM     54  C   UNL     1       8.525  -2.762  -2.532  1.00  0.00     0.034 A 
ATOM     55  C   UNL     1       7.277   2.196  -7.286  1.00  0.00     0.034 A 
ATOM     56  C   UNL     1       9.586  -1.808  -2.722  1.00  0.00     0.049 A 
ATOM     57  C   UNL     1       8.549   2.181  -6.491  1.00  0.00     0.074 A 
ATOM     58  C   UNL     1      10.808  -1.748  -2.074  1.00  0.00     0.029 A 
ATOM     59  N   UNL     1       9.554  -0.746  -3.611  1.00  0.00    -0.354 N 
ATOM     60  N   UNL     1       8.958   1.293  -5.619  1.00  0.00    -0.248 NA
ATOM     61  C   UNL     1       9.498   3.279  -6.723  1.00  0.00     0.031 C 
ATOM     62  C   UNL     1      11.513  -0.647  -2.565  1.00  0.00     0.029 A 
ATOM     63  C   UNL     1      10.733  -0.025  -3.526  1.00  0.00     0.049 A 
ATOM     64  H   UNL     1       8.805  -0.535  -4.214  1.00  0.00     0.167 HD
ATOM     65  C   UNL     1      10.216   1.715  -5.209  1.00  0.00     0.074 A 
ATOM     66  C   UNL     1      10.513   2.927  -5.944  1.00  0.00     0.031 C 
ATOM     67  C   UNL     1      11.039   1.153  -4.293  1.00  0.00     0.034 A 
BRANCH  54  68
ATOM     68  C   UNL     1       8.760  -3.841  -1.512  1.00  0.00     0.023 A 
ATOM     69  C   UNL     1       9.250  -5.086  -1.954  1.00  0.00     0.012 A 
ATOM     70  C   UNL     1       8.680  -3.574  -0.132  1.00  0.00     0.148 A 
ATOM     71  C   UNL     1       9.665  -6.050  -1.037  1.00  0.00     0.002 A 
ATOM     72  C   UNL     1       9.119  -4.531   0.776  1.00  0.00     0.091 A 
ATOM     73  F   UNL     1       8.213  -2.381   0.260  1.00  0.00    -0.205 F 
ATOM     74  C   UNL     1       9.611  -5.768   0.325  1.00  0.00     0.022 A 
BRANCH  72  75
ATOM     75  S   UNL     1       9.153  -4.254   2.551  1.00  0.00     0.127 S 
ATOM     76  O   UNL     1       8.265  -5.314   3.031  1.00  0.00    -0.237 OA
ATOM     77  O   UNL     1      10.567  -4.455   2.864  1.00  0.00    -0.237 OA
ATOM     78  O   UNL     1       8.661  -2.900   2.759  1.00  0.00    -0.744 OA
ENDBRANCH  72  75
ENDBRANCH  54  68
BRANCH  55  79
ATOM     79  C   UNL     1       6.997   3.265  -8.279  1.00  0.00     0.023 A 
ATOM     80  C   UNL     1       7.694   3.277  -9.501  1.00  0.00     0.012 A 
ATOM     81  C   UNL     1       5.992   4.221  -8.043  1.00  0.00     0.148 A 
ATOM     82  C   UNL     1       7.404   4.238 -10.470  1.00  0.00     0.002 A 
ATOM     83  C   UNL     1       5.679   5.149  -9.028  1.00  0.00     0.091 A 
ATOM     84  F   UNL     1       5.347   4.186  -6.868  1.00  0.00    -0.205 F 
ATOM     85  C   UNL     1       6.391   5.165 -10.238  1.00  0.00     0.022 A 
BRANCH  83  86
ATOM     86  S   UNL     1       4.319   6.310  -8.862  1.00  0.00     0.127 S 
ATOM     87  O   UNL     1       5.028   7.584  -8.762  1.00  0.00    -0.237 OA
ATOM     88  O   UNL     1       3.594   6.105 -10.116  1.00  0.00    -0.237 OA
ATOM     89  O   UNL     1       3.591   5.899  -7.670  1.00  0.00    -0.744 OA
ENDBRANCH  83  86
ENDBRANCH  55  79
BRANCH  67  90
ATOM     90  C   UNL     1      12.352   1.830  -4.014  1.00  0.00     0.023 A 
ATOM     91  C   UNL     1      12.377   2.962  -3.178  1.00  0.00     0.012 A 
ATOM     92  C   UNL     1      13.563   1.273  -4.471  1.00  0.00     0.148 A 
ATOM     93  C   UNL     1      13.591   3.536  -2.804  1.00  0.00     0.002 A 
ATOM     94  C   UNL     1      14.770   1.831  -4.067  1.00  0.00     0.091 A 
ATOM     95  F   UNL     1      13.508   0.199  -5.271  1.00  0.00    -0.205 F 
ATOM     96  C   UNL     1      14.785   2.964  -3.237  1.00  0.00     0.022 A 
BRANCH  94  97
ATOM     97  S   UNL     1      16.361   1.127  -4.512  1.00  0.00     0.127 S 
ATOM     98  O   UNL     1      16.926   2.180  -5.356  1.00  0.00    -0.237 OA
ATOM     99  O   UNL     1      17.008   0.978  -3.208  1.00  0.00    -0.237 OA
ATOM    100  O   UNL     1      16.074  -0.126  -5.197  1.00  0.00    -0.744 OA
ENDBRANCH  94  97
ENDBRANCH  67  90
ENDBRANCH  41  42
ENDBRANCH  34  36
ENDBRANCH  33  34
ENDBRANCH  32  33
ENDBRANCH  31  32
ENDBRANCH  30  31
ENDBRANCH  29  30
ENDBRANCH   1  29
TORSDOF 24
