REMARK SMILES O=C(OCCOCCOCCOC(=O)[C@@H]1CC=CC[C@@H]1C(=O)N1CCN(C(=O)c2sc3cc([N+](=O)[O-])ccc3c2Cl)CC1)c1ccc(-c2c3nc(c(-c4cccc(S(=O)(=O)[O-])c4F)c4ccc([nH]4)c(-c4cccc(S(=O)(=O)[O-])c4F)c4nc(c(-c5cccc(S(=O)(=O)[O-])c5F)c5ccc2[nH]5)C=C4)C=C3)cc1
REMARK SMILES IDX 7 1 6 2 5 3 4 4 3 5 2 6 1 7 44 8 45 9 106 10 46 11 105 12
REMARK SMILES IDX 47 13 48 14 49 15 99 16 50 17 104 18 98 19 100 20 51 21
REMARK SMILES IDX 103 22 97 23 96 24 52 26 84 27 64 28 83 29 65 30 68 31 82 32
REMARK SMILES IDX 101 33 66 34 67 35 81 37 102 38 69 39 53 40 54 41 62 42
REMARK SMILES IDX 55 43 57 44 63 45 56 46 58 47 59 48 60 49 61 50 85 51 86 52
REMARK SMILES IDX 94 53 87 54 89 55 95 56 88 57 90 58 91 59 92 60 93 61 70 62
REMARK SMILES IDX 71 63 79 64 72 65 74 66 80 67 73 68 75 69 76 70 77 71 78 72
REMARK SMILES IDX 8 73 9 74 10 75 11 76 12 77 13 78 14 79 15 80 16 81 20 82
REMARK SMILES IDX 17 83 19 84 18 85 21 86 22 87 23 88 24 89 43 90 25 91 42 92
REMARK SMILES IDX 26 93 27 94 28 95 29 96 30 97 40 98 31 99 39 100 41 101
REMARK SMILES IDX 32 102 38 103 33 104 37 105 34 106 35 107 36 108
REMARK H PARENT 100 25 68 36
REMARK Flexibility Score: inf
ROOT
ATOM      1  C   UNL     1      -0.076  -0.152   0.543  1.00  0.00     0.188 C 
ENDROOT
BRANCH   1   2
ATOM      2  O   UNL     1      -0.407  -1.180  -0.394  1.00  0.00    -0.376 OA
BRANCH   2   3
ATOM      3  C   UNL     1      -1.485  -2.018   0.031  1.00  0.00     0.202 C 
BRANCH   3   4
ATOM      4  C   UNL     1      -1.100  -2.992   1.155  1.00  0.00     0.261 C 
BRANCH   4   5
ATOM      5  O   UNL     1      -0.275  -4.091   0.726  1.00  0.00    -0.460 OA
BRANCH   5   6
ATOM      6  C   UNL     1       0.907  -3.751   0.157  1.00  0.00     0.338 C 
ATOM      7  O   UNL     1       1.863  -3.286   0.755  1.00  0.00    -0.246 OA
BRANCH   6   8
ATOM      8  C   UNL     1       0.798  -3.922  -1.316  1.00  0.00     0.060 A 
ATOM      9  C   UNL     1       1.756  -3.338  -2.127  1.00  0.00     0.016 A 
ATOM     10  C   UNL     1      -0.306  -4.550  -1.909  1.00  0.00     0.016 A 
ATOM     11  C   UNL     1       1.507  -3.246  -3.495  1.00  0.00     0.010 A 
ATOM     12  C   UNL     1      -0.551  -4.413  -3.279  1.00  0.00     0.010 A 
ATOM     13  C   UNL     1       0.268  -3.597  -4.078  1.00  0.00    -0.014 A 
BRANCH  13  14
ATOM     14  C   UNL     1      -0.014  -3.324  -5.750  1.00  0.00     0.031 A 
ATOM     15  C   UNL     1       1.317  -4.535  -5.988  1.00  0.00     0.074 A 
ATOM     16  C   UNL     1      -1.031  -2.364  -6.857  1.00  0.00     0.049 A 
ATOM     17  N   UNL     1       2.508  -4.352  -6.515  1.00  0.00    -0.248 NA
ATOM     18  C   UNL     1       1.182  -5.934  -5.490  1.00  0.00     0.031 C 
ATOM     19  C   UNL     1      -2.227  -1.261  -6.896  1.00  0.00     0.029 A 
ATOM     20  N   UNL     1      -1.291  -2.437  -8.371  1.00  0.00    -0.354 N 
ATOM     21  C   UNL     1       2.851  -5.612  -6.982  1.00  0.00     0.074 A 
ATOM     22  C   UNL     1       2.248  -6.525  -6.039  1.00  0.00     0.031 C 
ATOM     23  C   UNL     1      -3.138  -1.451  -7.893  1.00  0.00     0.029 A 
ATOM     24  C   UNL     1      -2.586  -2.338  -8.853  1.00  0.00     0.049 A 
ATOM     25  H   UNL     1      -0.539  -2.553  -8.996  1.00  0.00     0.167 HD
ATOM     26  C   UNL     1       3.188  -5.890  -8.284  1.00  0.00     0.034 A 
ATOM     27  C   UNL     1      -3.030  -2.943  -9.982  1.00  0.00     0.034 A 
ATOM     28  C   UNL     1       3.393  -4.795  -9.214  1.00  0.00     0.049 A 
ATOM     29  C   UNL     1      -1.826  -3.251 -10.836  1.00  0.00     0.074 A 
ATOM     30  C   UNL     1       4.376  -3.860  -9.450  1.00  0.00     0.029 A 
ATOM     31  N   UNL     1       2.365  -4.499 -10.103  1.00  0.00    -0.354 N 
ATOM     32  N   UNL     1      -0.979  -2.340 -11.251  1.00  0.00    -0.248 NA
ATOM     33  C   UNL     1      -1.425  -4.623 -11.146  1.00  0.00     0.031 C 
ATOM     34  C   UNL     1       3.863  -2.921 -10.397  1.00  0.00     0.029 A 
ATOM     35  C   UNL     1       2.549  -3.258 -10.711  1.00  0.00     0.049 A 
ATOM     36  H   UNL     1       1.601  -5.093 -10.281  1.00  0.00     0.167 HD
ATOM     37  C   UNL     1       0.206  -3.021 -11.486  1.00  0.00     0.074 A 
ATOM     38  C   UNL     1      -0.179  -4.419 -11.587  1.00  0.00     0.031 C 
ATOM     39  C   UNL     1       1.434  -2.457 -11.261  1.00  0.00     0.034 A 
BRANCH  26  40
ATOM     40  C   UNL     1       3.087  -7.287  -8.824  1.00  0.00     0.023 A 
ATOM     41  C   UNL     1       4.132  -7.787  -9.620  1.00  0.00     0.012 A 
ATOM     42  C   UNL     1       1.945  -8.091  -8.646  1.00  0.00     0.148 A 
ATOM     43  C   UNL     1       4.069  -9.075 -10.160  1.00  0.00     0.002 A 
ATOM     44  C   UNL     1       1.928  -9.401  -9.103  1.00  0.00     0.091 A 
ATOM     45  F   UNL     1       0.853  -7.560  -8.076  1.00  0.00    -0.205 F 
ATOM     46  C   UNL     1       2.982  -9.897  -9.873  1.00  0.00     0.022 A 
BRANCH  44  47
ATOM     47  S   UNL     1       0.611 -10.503  -8.586  1.00  0.00     0.127 S 
ATOM     48  O   UNL     1      -0.423 -10.223  -9.576  1.00  0.00    -0.237 OA
ATOM     49  O   UNL     1       1.234 -11.823  -8.698  1.00  0.00    -0.237 OA
ATOM     50  O   UNL     1       0.343 -10.092  -7.212  1.00  0.00    -0.744 OA
ENDBRANCH  44  47
ENDBRANCH  26  40
BRANCH  27  51
ATOM     51  C   UNL     1      -4.394  -3.388 -10.389  1.00  0.00     0.023 A 
ATOM     52  C   UNL     1      -4.654  -3.642 -11.753  1.00  0.00     0.012 A 
ATOM     53  C   UNL     1      -5.371  -3.805  -9.457  1.00  0.00     0.148 A 
ATOM     54  C   UNL     1      -5.800  -4.335 -12.166  1.00  0.00     0.002 A 
ATOM     55  C   UNL     1      -6.509  -4.509  -9.871  1.00  0.00     0.091 A 
ATOM     56  F   UNL     1      -5.195  -3.528  -8.161  1.00  0.00    -0.205 F 
ATOM     57  C   UNL     1      -6.716  -4.790 -11.225  1.00  0.00     0.022 A 
BRANCH  55  58
ATOM     58  S   UNL     1      -7.704  -5.107  -8.661  1.00  0.00     0.127 S 
ATOM     59  O   UNL     1      -8.280  -3.870  -8.136  1.00  0.00    -0.237 OA
ATOM     60  O   UNL     1      -8.633  -5.905  -9.463  1.00  0.00    -0.237 OA
ATOM     61  O   UNL     1      -6.903  -5.887  -7.730  1.00  0.00    -0.744 OA
ENDBRANCH  55  58
ENDBRANCH  27  51
BRANCH  39  62
ATOM     62  C   UNL     1       1.543  -0.918 -11.249  1.00  0.00     0.023 A 
ATOM     63  C   UNL     1       0.695  -0.109 -10.463  1.00  0.00     0.012 A 
ATOM     64  C   UNL     1       2.552  -0.240 -11.960  1.00  0.00     0.148 A 
ATOM     65  C   UNL     1       0.860   1.268 -10.306  1.00  0.00     0.002 A 
ATOM     66  C   UNL     1       2.719   1.147 -11.818  1.00  0.00     0.091 A 
ATOM     67  F   UNL     1       3.345  -0.955 -12.773  1.00  0.00    -0.205 F 
ATOM     68  C   UNL     1       1.886   1.898 -10.976  1.00  0.00     0.022 A 
BRANCH  66  69
ATOM     69  S   UNL     1       3.984   2.082 -12.682  1.00  0.00     0.127 S 
ATOM     70  O   UNL     1       3.198   3.124 -13.346  1.00  0.00    -0.237 OA
ATOM     71  O   UNL     1       4.824   2.565 -11.586  1.00  0.00    -0.237 OA
ATOM     72  O   UNL     1       4.632   1.144 -13.589  1.00  0.00    -0.744 OA
ENDBRANCH  66  69
ENDBRANCH  39  62
ENDBRANCH  13  14
ENDBRANCH   6   8
ENDBRANCH   5   6
ENDBRANCH   4   5
ENDBRANCH   3   4
ENDBRANCH   2   3
ENDBRANCH   1   2
BRANCH   1  73
ATOM     73  C   UNL     1       0.260   1.162  -0.174  1.00  0.00     0.188 C 
BRANCH  73  74
ATOM     74  O   UNL     1      -0.876   1.844  -0.717  1.00  0.00    -0.376 OA
BRANCH  74  75
ATOM     75  C   UNL     1      -1.503   1.220  -1.835  1.00  0.00     0.202 C 
BRANCH  75  76
ATOM     76  C   UNL     1      -0.795   1.400  -3.184  1.00  0.00     0.261 C 
BRANCH  76  77
ATOM     77  O   UNL     1       0.557   0.895  -3.234  1.00  0.00    -0.463 OA
BRANCH  77  78
ATOM     78  C   UNL     1       1.272   1.245  -4.361  1.00  0.00     0.310 C 
ATOM     79  O   UNL     1       0.849   2.006  -5.218  1.00  0.00    -0.252 OA
BRANCH  78  80
ATOM     80  C   UNL     1       2.632   0.559  -4.397  1.00  0.00     0.115 C 
ATOM     81  C   UNL     1       3.713   1.643  -4.323  1.00  0.00     0.043 C 
ATOM     82  C   UNL     1       2.857  -0.523  -5.488  1.00  0.00     0.097 C 
ATOM     83  C   UNL     1       5.104   1.142  -4.543  1.00  0.00    -0.030 C 
ATOM     84  C   UNL     1       4.330  -0.858  -5.826  1.00  0.00     0.041 C 
ATOM     85  C   UNL     1       5.373   0.017  -5.212  1.00  0.00    -0.030 C 
BRANCH  82  86
ATOM     86  C   UNL     1       1.999  -0.734  -6.756  1.00  0.00     0.227 C 
ATOM     87  O   UNL     1       2.324  -0.285  -7.845  1.00  0.00    -0.275 OA
ATOM     88  N   UNL     1       0.944  -1.639  -6.585  1.00  0.00    -0.339 N 
ATOM     89  C   UNL     1       0.674  -3.111  -7.757  1.00  0.00     0.141 C 
ATOM     90  C   UNL     1      -0.214  -1.248  -5.197  1.00  0.00     0.141 C 
ATOM     91  C   UNL     1      -0.857  -4.397  -7.319  1.00  0.00     0.141 C 
ATOM     92  C   UNL     1      -1.765  -2.401  -4.817  1.00  0.00     0.141 C 
ATOM     93  N   UNL     1      -2.087  -3.869  -5.928  1.00  0.00    -0.334 N 
ATOM     94  C   UNL     1      -3.391  -4.407  -6.028  1.00  0.00     0.265 C 
ATOM     95  O   UNL     1      -3.463  -5.443  -6.697  1.00  0.00    -0.268 OA
BRANCH  94  96
ATOM     96  C   UNL     1      -4.604  -3.826  -5.363  1.00  0.00     0.112 A 
ATOM     97  S   UNL     1      -5.703  -5.049  -4.760  1.00  0.00    -0.128 S 
ATOM     98  C   UNL     1      -5.220  -2.585  -5.141  1.00  0.00     0.072 A 
ATOM     99  C   UNL     1      -7.037  -3.978  -4.629  1.00  0.00     0.043 A 
ATOM    100  C   UNL     1      -6.630  -2.668  -4.814  1.00  0.00     0.012 A 
ATOM    101  Cl  UNL     1      -4.734  -0.936  -5.287  1.00  0.00    -0.082 Cl
ATOM    102  C   UNL     1      -8.386  -4.290  -4.352  1.00  0.00     0.105 A 
ATOM    103  C   UNL     1      -7.606  -1.631  -4.700  1.00  0.00     0.018 A 
ATOM    104  C   UNL     1      -9.318  -3.239  -4.271  1.00  0.00     0.270 A 
ATOM    105  C   UNL     1      -8.937  -1.913  -4.437  1.00  0.00     0.086 A 
BRANCH 104 106
ATOM    106  N   UNL     1     -10.722  -3.522  -3.960  1.00  0.00     0.062 N 
ATOM    107  O   UNL     1     -11.066  -4.703  -3.815  1.00  0.00    -0.258 OA
ATOM    108  O   UNL     1     -11.482  -2.552  -3.787  1.00  0.00    -0.258 OA
ENDBRANCH 104 106
ENDBRANCH  94  96
ENDBRANCH  82  86
ENDBRANCH  78  80
ENDBRANCH  77  78
ENDBRANCH  76  77
ENDBRANCH  75  76
ENDBRANCH  74  75
ENDBRANCH  73  74
ENDBRANCH   1  73
TORSDOF 23
