REMARK SMILES CC[C@@](C)(NC(=O)CCc1ccc(OC)c(Br)c1)C(=O)OCCOCCOCCOC(=O)c1ccc(-c2c3nc(c(-c4cccc(S(=O)(=O)[O-])c4F)c4ccc([nH]4)c(-c4cccc(S(=O)(=O)[O-])c4F)c4nc(c(-c5cccc(S(=O)(=O)[O-])c5F)c5ccc2[nH]5)C=C4)C=C3)cc1
REMARK SMILES IDX 25 1 24 2 23 3 22 4 21 5 19 6 20 7 3 8 4 9 2 10 1 11 5 12
REMARK SMILES IDX 6 13 7 15 8 16 9 17 10 18 11 19 18 20 12 21 16 22 13 23
REMARK SMILES IDX 17 24 14 25 15 26 26 27 27 28 28 29 29 30 30 31 31 32 32 33
REMARK SMILES IDX 33 34 34 35 95 36 35 37 94 38 36 39 37 40 38 41 88 42 39 43
REMARK SMILES IDX 93 44 87 45 89 46 40 47 92 48 86 49 85 50 41 52 73 53 53 54
REMARK SMILES IDX 72 55 54 56 57 57 71 58 90 59 55 60 56 61 70 63 91 64 58 65
REMARK SMILES IDX 42 66 43 67 51 68 44 69 46 70 52 71 45 72 47 73 48 74 49 75
REMARK SMILES IDX 50 76 74 77 75 78 83 79 76 80 78 81 84 82 77 83 79 84 80 85
REMARK SMILES IDX 81 86 82 87 59 88 60 89 68 90 61 91 63 92 69 93 62 94 64 95
REMARK SMILES IDX 65 96 66 97 67 98
REMARK H PARENT 5 14 89 51 57 62
REMARK Flexibility Score: inf
ROOT
ATOM      1  C   UNL     1       5.447   2.709   2.020  1.00  0.00     0.188 C 
ENDROOT
BRANCH   1   2
ATOM      2  O   UNL     1       5.130   2.589   0.632  1.00  0.00    -0.376 OA
BRANCH   2   3
ATOM      3  C   UNL     1       5.147   3.732  -0.229  1.00  0.00     0.202 C 
BRANCH   3   4
ATOM      4  C   UNL     1       4.275   3.461  -1.535  1.00  0.00     0.261 C 
BRANCH   4   5
ATOM      5  O   UNL     1       2.863   3.913  -1.398  1.00  0.00    -0.462 OA
BRANCH   5   6
ATOM      6  C   UNL     1       1.823   3.318  -2.073  1.00  0.00     0.331 C 
ATOM      7  O   UNL     1       2.030   2.664  -3.094  1.00  0.00    -0.249 OA
BRANCH   6   8
ATOM      8  C   UNL     1       0.257   3.529  -1.398  1.00  0.00     0.135 C 
ATOM      9  C   UNL     1      -0.613   3.734  -2.655  1.00  0.00     0.047 C 
BRANCH   8  10
ATOM     10  C   UNL     1      -0.691   2.657  -0.358  1.00  0.00     0.037 C 
ATOM     11  C   UNL     1      -1.027   1.181  -0.167  1.00  0.00     0.007 C 
ENDBRANCH   8  10
BRANCH   8  12
ATOM     12  N   UNL     1       0.315   4.779  -0.643  1.00  0.00    -0.340 N 
ATOM     13  C   UNL     1       0.796   4.763   0.631  1.00  0.00     0.221 C 
ATOM     14  H   UNL     1       0.011   5.622  -1.050  1.00  0.00     0.164 HD
ATOM     15  O   UNL     1       0.319   5.551   1.447  1.00  0.00    -0.275 OA
BRANCH  13  16
ATOM     16  C   UNL     1       1.927   3.820   0.987  1.00  0.00     0.105 C 
BRANCH  16  17
ATOM     17  C   UNL     1       2.112   2.234   0.906  1.00  0.00     0.045 C 
BRANCH  17  18
ATOM     18  C   UNL     1       2.080   0.896   0.135  1.00  0.00    -0.046 A 
ATOM     19  C   UNL     1       2.636  -0.217   0.799  1.00  0.00     0.007 A 
ATOM     20  C   UNL     1       1.560   0.578  -1.119  1.00  0.00     0.023 A 
ATOM     21  C   UNL     1       2.502  -1.536   0.313  1.00  0.00     0.048 A 
ATOM     22  C   UNL     1       1.445  -0.722  -1.649  1.00  0.00     0.060 A 
ATOM     23  C   UNL     1       1.838  -1.804  -0.885  1.00  0.00     0.133 A 
ATOM     24  Br  UNL     1       0.718  -0.826  -3.410  1.00  0.00    -0.047 Br
BRANCH  23  25
ATOM     25  O   UNL     1       1.674  -3.122  -1.200  1.00  0.00    -0.496 OA
ATOM     26  C   UNL     1       0.367  -3.482  -1.656  1.00  0.00     0.278 C 
ENDBRANCH  23  25
ENDBRANCH  17  18
ENDBRANCH  16  17
ENDBRANCH  13  16
ENDBRANCH   8  12
ENDBRANCH   6   8
ENDBRANCH   5   6
ENDBRANCH   4   5
ENDBRANCH   3   4
ENDBRANCH   2   3
ENDBRANCH   1   2
BRANCH   1  27
ATOM     27  C   UNL     1       4.445   3.355   2.985  1.00  0.00     0.188 C 
BRANCH  27  28
ATOM     28  O   UNL     1       4.367   4.777   2.997  1.00  0.00    -0.376 OA
BRANCH  28  29
ATOM     29  C   UNL     1       5.436   5.413   3.691  1.00  0.00     0.202 C 
BRANCH  29  30
ATOM     30  C   UNL     1       5.420   5.335   5.237  1.00  0.00     0.261 C 
BRANCH  30  31
ATOM     31  O   UNL     1       4.962   4.080   5.771  1.00  0.00    -0.460 OA
BRANCH  31  32
ATOM     32  C   UNL     1       3.629   4.044   6.064  1.00  0.00     0.338 C 
ATOM     33  O   UNL     1       2.888   4.999   6.141  1.00  0.00    -0.246 OA
BRANCH  32  34
ATOM     34  C   UNL     1       3.139   2.634   6.109  1.00  0.00     0.060 A 
ATOM     35  C   UNL     1       1.880   2.370   5.545  1.00  0.00     0.016 A 
ATOM     36  C   UNL     1       3.853   1.601   6.724  1.00  0.00     0.016 A 
ATOM     37  C   UNL     1       1.282   1.114   5.695  1.00  0.00     0.010 A 
ATOM     38  C   UNL     1       3.250   0.344   6.883  1.00  0.00     0.010 A 
ATOM     39  C   UNL     1       1.930   0.122   6.441  1.00  0.00    -0.014 A 
BRANCH  39  40
ATOM     40  C   UNL     1       1.118  -0.946   7.092  1.00  0.00     0.031 A 
ATOM     41  C   UNL     1       0.638  -0.668   8.499  1.00  0.00     0.074 A 
ATOM     42  C   UNL     1       0.807  -2.112   6.497  1.00  0.00     0.049 A 
ATOM     43  N   UNL     1      -0.003  -1.440   9.337  1.00  0.00    -0.248 NA
ATOM     44  C   UNL     1       0.938   0.672   9.037  1.00  0.00     0.031 C 
ATOM     45  C   UNL     1       1.163  -2.495   5.133  1.00  0.00     0.029 A 
ATOM     46  N   UNL     1       0.133  -3.205   6.988  1.00  0.00    -0.354 N 
ATOM     47  C   UNL     1      -0.133  -0.700  10.509  1.00  0.00     0.074 A 
ATOM     48  C   UNL     1       0.497   0.578  10.279  1.00  0.00     0.031 C 
ATOM     49  C   UNL     1       0.731  -3.750   4.907  1.00  0.00     0.029 A 
ATOM     50  C   UNL     1       0.095  -4.270   6.117  1.00  0.00     0.049 A 
ATOM     51  H   UNL     1      -0.284  -3.224   7.880  1.00  0.00     0.167 HD
ATOM     52  C   UNL     1      -0.725  -1.045  11.676  1.00  0.00     0.034 A 
ATOM     53  C   UNL     1      -0.378  -5.522   6.291  1.00  0.00     0.034 A 
ATOM     54  C   UNL     1      -1.368  -2.308  11.901  1.00  0.00     0.049 A 
ATOM     55  C   UNL     1      -1.013  -5.896   7.611  1.00  0.00     0.074 A 
ATOM     56  C   UNL     1      -2.032  -2.747  13.032  1.00  0.00     0.029 A 
ATOM     57  N   UNL     1      -1.414  -3.342  10.980  1.00  0.00    -0.354 N 
ATOM     58  N   UNL     1      -1.198  -5.160   8.681  1.00  0.00    -0.248 NA
ATOM     59  C   UNL     1      -1.537  -7.266   7.733  1.00  0.00     0.031 C 
ATOM     60  C   UNL     1      -2.441  -4.066  12.810  1.00  0.00     0.029 A 
ATOM     61  C   UNL     1      -2.085  -4.424  11.519  1.00  0.00     0.049 A 
ATOM     62  H   UNL     1      -1.026  -3.311  10.075  1.00  0.00     0.167 HD
ATOM     63  C   UNL     1      -1.907  -5.956   9.578  1.00  0.00     0.074 A 
ATOM     64  C   UNL     1      -2.123  -7.229   8.922  1.00  0.00     0.031 C 
ATOM     65  C   UNL     1      -2.341  -5.663  10.829  1.00  0.00     0.034 A 
BRANCH  52  66
ATOM     66  C   UNL     1      -0.684  -0.044  12.802  1.00  0.00     0.023 A 
ATOM     67  C   UNL     1      -1.435   1.147  12.725  1.00  0.00     0.012 A 
ATOM     68  C   UNL     1       0.091  -0.297  13.950  1.00  0.00     0.148 A 
ATOM     69  C   UNL     1      -1.379   2.089  13.753  1.00  0.00     0.002 A 
ATOM     70  C   UNL     1       0.098   0.620  14.994  1.00  0.00     0.091 A 
ATOM     71  F   UNL     1       0.820  -1.421  13.994  1.00  0.00    -0.205 F 
ATOM     72  C   UNL     1      -0.623   1.820  14.890  1.00  0.00     0.022 A 
BRANCH  70  73
ATOM     73  S   UNL     1       0.974   0.325  16.534  1.00  0.00     0.127 S 
ATOM     74  O   UNL     1       2.044   1.319  16.460  1.00  0.00    -0.237 OA
ATOM     75  O   UNL     1      -0.057   0.612  17.531  1.00  0.00    -0.237 OA
ATOM     76  O   UNL     1       1.410  -1.064  16.491  1.00  0.00    -0.744 OA
ENDBRANCH  70  73
ENDBRANCH  52  66
BRANCH  53  77
ATOM     77  C   UNL     1      -0.306  -6.520   5.182  1.00  0.00     0.023 A 
ATOM     78  C   UNL     1      -1.493  -6.970   4.569  1.00  0.00     0.012 A 
ATOM     79  C   UNL     1       0.928  -7.035   4.740  1.00  0.00     0.148 A 
ATOM     80  C   UNL     1      -1.455  -7.937   3.563  1.00  0.00     0.002 A 
ATOM     81  C   UNL     1       0.963  -7.957   3.699  1.00  0.00     0.091 A 
ATOM     82  F   UNL     1       2.046  -6.613   5.348  1.00  0.00    -0.205 F 
ATOM     83  C   UNL     1      -0.228  -8.422   3.121  1.00  0.00     0.022 A 
BRANCH  81  84
ATOM     84  S   UNL     1       2.499  -8.555   2.987  1.00  0.00     0.127 S 
ATOM     85  O   UNL     1       2.478  -9.965   3.367  1.00  0.00    -0.237 OA
ATOM     86  O   UNL     1       2.287  -8.298   1.562  1.00  0.00    -0.237 OA
ATOM     87  O   UNL     1       3.554  -7.755   3.594  1.00  0.00    -0.744 OA
ENDBRANCH  81  84
ENDBRANCH  53  77
BRANCH  65  88
ATOM     88  C   UNL     1      -3.170  -6.696  11.549  1.00  0.00     0.023 A 
ATOM     89  C   UNL     1      -2.584  -7.888  12.017  1.00  0.00     0.012 A 
ATOM     90  C   UNL     1      -4.531  -6.444  11.818  1.00  0.00     0.148 A 
ATOM     91  C   UNL     1      -3.351  -8.834  12.699  1.00  0.00     0.002 A 
ATOM     92  C   UNL     1      -5.273  -7.362  12.549  1.00  0.00     0.091 A 
ATOM     93  F   UNL     1      -5.076  -5.311  11.353  1.00  0.00    -0.205 F 
ATOM     94  C   UNL     1      -4.691  -8.566  12.975  1.00  0.00     0.022 A 
BRANCH  92  95
ATOM     95  S   UNL     1      -6.972  -7.047  13.040  1.00  0.00     0.127 S 
ATOM     96  O   UNL     1      -7.711  -7.937  12.146  1.00  0.00    -0.237 OA
ATOM     97  O   UNL     1      -6.970  -7.458  14.445  1.00  0.00    -0.237 OA
ATOM     98  O   UNL     1      -7.193  -5.623  12.830  1.00  0.00    -0.744 OA
ENDBRANCH  92  95
ENDBRANCH  65  88
ENDBRANCH  39  40
ENDBRANCH  32  34
ENDBRANCH  31  32
ENDBRANCH  30  31
ENDBRANCH  29  30
ENDBRANCH  28  29
ENDBRANCH  27  28
ENDBRANCH   1  27
TORSDOF 26
