REMARK SMILES Cc1cc2cc(-c3ccc([C@@H](C)C(=O)OCCOCCOCCOC(=O)c4ccc(-c5c6nc(c(-c7cccc(S(=O)(=O)[O-])c7F)c7ccc([nH]7)c(-c7cccc(S(=O)(=O)[O-])c7F)c7nc(c(-c8cccc(S(=O)(=O)[O-])c8F)c8ccc5[nH]8)C=C7)C=C6)cc4)cc3)ccc2[nH]1
REMARK SMILES IDX 20 1 19 2 18 3 17 4 16 5 15 6 13 7 14 8 11 9 12 10 10 11
REMARK SMILES IDX 7 12 8 13 91 14 9 15 90 16 6 17 1 18 2 19 3 20 95 21 4 22
REMARK SMILES IDX 94 23 5 25 93 26 92 27 21 28 22 29 23 30 24 31 25 32 26 33
REMARK SMILES IDX 27 34 28 35 89 36 29 37 88 38 30 39 31 40 32 41 82 42 33 43
REMARK SMILES IDX 87 44 81 45 83 46 34 47 86 48 80 49 79 50 35 52 67 53 47 54
REMARK SMILES IDX 66 55 48 56 51 57 65 58 84 59 49 60 50 61 64 63 85 64 52 65
REMARK SMILES IDX 36 66 37 67 45 68 38 69 40 70 46 71 39 72 41 73 42 74 43 75
REMARK SMILES IDX 44 76 68 77 69 78 77 79 70 80 72 81 78 82 71 83 73 84 74 85
REMARK SMILES IDX 75 86 76 87 53 88 54 89 62 90 55 91 57 92 63 93 56 94 58 95
REMARK SMILES IDX 59 96 60 97 61 98
REMARK H PARENT 95 24 83 51 51 62
REMARK Flexibility Score: inf
ROOT
ATOM      1  C   UNL     1       7.654  -1.136  -2.029  1.00  0.00     0.188 C 
ENDROOT
BRANCH   1   2
ATOM      2  C   UNL     1       9.175  -1.335  -1.961  1.00  0.00     0.188 C 
BRANCH   2   3
ATOM      3  O   UNL     1       9.876  -1.676  -3.152  1.00  0.00    -0.376 OA
BRANCH   3   4
ATOM      4  C   UNL     1       9.289  -2.597  -4.063  1.00  0.00     0.202 C 
BRANCH   4   5
ATOM      5  C   UNL     1       8.823  -3.964  -3.534  1.00  0.00     0.261 C 
BRANCH   5   6
ATOM      6  O   UNL     1       7.887  -3.922  -2.433  1.00  0.00    -0.463 OA
BRANCH   6   7
ATOM      7  C   UNL     1       8.239  -4.600  -1.311  1.00  0.00     0.313 C 
ATOM      8  O   UNL     1       9.253  -5.293  -1.240  1.00  0.00    -0.252 OA
BRANCH   7   9
ATOM      9  C   UNL     1       7.312  -4.450  -0.098  1.00  0.00     0.126 C 
ATOM     10  C   UNL     1       6.897  -5.848   0.361  1.00  0.00     0.025 C 
BRANCH   9  11
ATOM     11  C   UNL     1       6.087  -3.536  -0.134  1.00  0.00    -0.034 A 
ATOM     12  C   UNL     1       3.812  -1.800  -0.088  1.00  0.00    -0.018 A 
ATOM     13  C   UNL     1       4.005  -2.739  -1.117  1.00  0.00     0.009 A 
ATOM     14  C   UNL     1       4.784  -1.734   0.916  1.00  0.00     0.009 A 
ATOM     15  C   UNL     1       5.114  -3.602  -1.137  1.00  0.00     0.005 A 
ATOM     16  C   UNL     1       5.896  -2.593   0.899  1.00  0.00     0.005 A 
BRANCH  12  17
ATOM     17  C   UNL     1       2.587  -0.977  -0.041  1.00  0.00    -0.018 A 
ATOM     18  C   UNL     1      -3.444   0.161   0.012  1.00  0.00     0.064 C 
ATOM     19  C   UNL     1      -1.976  -0.051   0.014  1.00  0.00     0.013 A 
ATOM     20  C   UNL     1      -1.240  -1.217   0.018  1.00  0.00     0.031 A 
ATOM     21  N   UNL     1      -1.080   0.994   0.013  1.00  0.00    -0.359 N 
ATOM     22  C   UNL     1       0.137  -0.870   0.003  1.00  0.00     0.000 A 
ATOM     23  C   UNL     1       0.215   0.519   0.003  1.00  0.00     0.046 A 
ATOM     24  H   UNL     1      -1.328   1.947   0.020  1.00  0.00     0.166 HD
ATOM     25  C   UNL     1       1.331  -1.617  -0.013  1.00  0.00     0.019 A 
ATOM     26  C   UNL     1       1.440   1.198  -0.007  1.00  0.00     0.027 A 
ATOM     27  C   UNL     1       2.618   0.426  -0.029  1.00  0.00     0.011 A 
ENDBRANCH  12  17
ENDBRANCH   9  11
ENDBRANCH   7   9
ENDBRANCH   6   7
ENDBRANCH   5   6
ENDBRANCH   4   5
ENDBRANCH   3   4
ENDBRANCH   2   3
ENDBRANCH   1   2
BRANCH   1  28
ATOM     28  O   UNL     1       7.115  -1.168  -3.334  1.00  0.00    -0.376 OA
BRANCH  28  29
ATOM     29  C   UNL     1       6.399  -0.026  -3.757  1.00  0.00     0.202 C 
BRANCH  29  30
ATOM     30  C   UNL     1       7.201   1.281  -3.847  1.00  0.00     0.261 C 
BRANCH  30  31
ATOM     31  O   UNL     1       7.999   1.619  -2.697  1.00  0.00    -0.460 OA
BRANCH  31  32
ATOM     32  C   UNL     1       7.347   2.044  -1.592  1.00  0.00     0.338 C 
ATOM     33  O   UNL     1       6.138   2.196  -1.470  1.00  0.00    -0.246 OA
BRANCH  32  34
ATOM     34  C   UNL     1       8.315   2.083  -0.472  1.00  0.00     0.060 A 
ATOM     35  C   UNL     1       8.080   1.293   0.663  1.00  0.00     0.016 A 
ATOM     36  C   UNL     1       9.449   2.895  -0.539  1.00  0.00     0.016 A 
ATOM     37  C   UNL     1       8.952   1.351   1.754  1.00  0.00     0.010 A 
ATOM     38  C   UNL     1      10.310   2.966   0.561  1.00  0.00     0.010 A 
ATOM     39  C   UNL     1      10.044   2.228   1.729  1.00  0.00    -0.014 A 
BRANCH  39  40
ATOM     40  C   UNL     1      10.782   2.533   2.983  1.00  0.00     0.031 A 
ATOM     41  C   UNL     1      10.448   3.807   3.715  1.00  0.00     0.074 A 
ATOM     42  C   UNL     1      11.732   1.712   3.466  1.00  0.00     0.049 A 
ATOM     43  N   UNL     1      10.987   4.312   4.794  1.00  0.00    -0.248 NA
ATOM     44  C   UNL     1       9.361   4.623   3.148  1.00  0.00     0.031 C 
ATOM     45  C   UNL     1      12.148   0.448   2.863  1.00  0.00     0.029 A 
ATOM     46  N   UNL     1      12.541   1.842   4.569  1.00  0.00    -0.354 N 
ATOM     47  C   UNL     1      10.334   5.520   5.013  1.00  0.00     0.074 A 
ATOM     48  C   UNL     1       9.366   5.677   3.950  1.00  0.00     0.031 C 
ATOM     49  C   UNL     1      13.158  -0.068   3.587  1.00  0.00     0.029 A 
ATOM     50  C   UNL     1      13.478   0.841   4.686  1.00  0.00     0.049 A 
ATOM     51  H   UNL     1      12.458   2.581   5.215  1.00  0.00     0.167 HD
ATOM     52  C   UNL     1      10.512   6.414   6.014  1.00  0.00     0.034 A 
ATOM     53  C   UNL     1      14.492   0.692   5.563  1.00  0.00     0.034 A 
ATOM     54  C   UNL     1      11.463   6.255   7.080  1.00  0.00     0.049 A 
ATOM     55  C   UNL     1      14.687   1.715   6.655  1.00  0.00     0.074 A 
ATOM     56  C   UNL     1      11.685   7.085   8.164  1.00  0.00     0.029 A 
ATOM     57  N   UNL     1      12.364   5.207   7.188  1.00  0.00    -0.354 N 
ATOM     58  N   UNL     1      13.990   2.795   6.913  1.00  0.00    -0.248 NA
ATOM     59  C   UNL     1      15.788   1.476   7.601  1.00  0.00     0.031 C 
ATOM     60  C   UNL     1      12.747   6.559   8.907  1.00  0.00     0.029 A 
ATOM     61  C   UNL     1      13.152   5.375   8.313  1.00  0.00     0.049 A 
ATOM     62  H   UNL     1      12.433   4.455   6.557  1.00  0.00     0.167 HD
ATOM     63  C   UNL     1      14.538   3.338   8.072  1.00  0.00     0.074 A 
ATOM     64  C   UNL     1      15.614   2.458   8.475  1.00  0.00     0.031 C 
ATOM     65  C   UNL     1      14.186   4.466   8.738  1.00  0.00     0.034 A 
BRANCH  52  66
ATOM     66  C   UNL     1       9.649   7.650   6.007  1.00  0.00     0.023 A 
ATOM     67  C   UNL     1       8.273   7.549   6.300  1.00  0.00     0.012 A 
ATOM     68  C   UNL     1      10.211   8.917   5.760  1.00  0.00     0.148 A 
ATOM     69  C   UNL     1       7.465   8.685   6.311  1.00  0.00     0.002 A 
ATOM     70  C   UNL     1       9.409  10.050   5.821  1.00  0.00     0.091 A 
ATOM     71  F   UNL     1      11.516   8.990   5.462  1.00  0.00    -0.205 F 
ATOM     72  C   UNL     1       8.034   9.935   6.082  1.00  0.00     0.022 A 
BRANCH  70  73
ATOM     73  S   UNL     1      10.062  11.711   5.625  1.00  0.00     0.127 S 
ATOM     74  O   UNL     1       9.473  12.111   4.348  1.00  0.00    -0.237 OA
ATOM     75  O   UNL     1       9.509  12.397   6.793  1.00  0.00    -0.237 OA
ATOM     76  O   UNL     1      11.512  11.578   5.627  1.00  0.00    -0.744 OA
ENDBRANCH  70  73
ENDBRANCH  52  66
BRANCH  53  77
ATOM     77  C   UNL     1      15.399  -0.488   5.466  1.00  0.00     0.023 A 
ATOM     78  C   UNL     1      15.376  -1.472   6.474  1.00  0.00     0.012 A 
ATOM     79  C   UNL     1      16.289  -0.636   4.384  1.00  0.00     0.148 A 
ATOM     80  C   UNL     1      16.248  -2.561   6.427  1.00  0.00     0.002 A 
ATOM     81  C   UNL     1      17.114  -1.752   4.313  1.00  0.00     0.091 A 
ATOM     82  F   UNL     1      16.308   0.319   3.444  1.00  0.00    -0.205 F 
ATOM     83  C   UNL     1      17.109  -2.706   5.343  1.00  0.00     0.022 A 
BRANCH  81  84
ATOM     84  S   UNL     1      18.171  -2.084   2.900  1.00  0.00     0.127 S 
ATOM     85  O   UNL     1      19.503  -1.939   3.482  1.00  0.00    -0.237 OA
ATOM     86  O   UNL     1      17.793  -3.456   2.561  1.00  0.00    -0.237 OA
ATOM     87  O   UNL     1      17.811  -1.093   1.896  1.00  0.00    -0.744 OA
ENDBRANCH  81  84
ENDBRANCH  53  77
BRANCH  65  88
ATOM     88  C   UNL     1      14.924   4.792  10.013  1.00  0.00     0.023 A 
ATOM     89  C   UNL     1      16.270   5.208   9.972  1.00  0.00     0.012 A 
ATOM     90  C   UNL     1      14.256   4.744  11.254  1.00  0.00     0.148 A 
ATOM     91  C   UNL     1      16.950   5.528  11.148  1.00  0.00     0.002 A 
ATOM     92  C   UNL     1      14.923   5.118  12.414  1.00  0.00     0.091 A 
ATOM     93  F   UNL     1      12.980   4.332  11.278  1.00  0.00    -0.205 F 
ATOM     94  C   UNL     1      16.274   5.494  12.366  1.00  0.00     0.022 A 
BRANCH  92  95
ATOM     95  S   UNL     1      14.104   5.202  14.011  1.00  0.00     0.127 S 
ATOM     96  O   UNL     1      14.681   4.050  14.703  1.00  0.00    -0.237 OA
ATOM     97  O   UNL     1      14.545   6.502  14.518  1.00  0.00    -0.237 OA
ATOM     98  O   UNL     1      12.676   5.115  13.736  1.00  0.00    -0.744 OA
ENDBRANCH  92  95
ENDBRANCH  65  88
ENDBRANCH  39  40
ENDBRANCH  32  34
ENDBRANCH  31  32
ENDBRANCH  30  31
ENDBRANCH  29  30
ENDBRANCH  28  29
ENDBRANCH   1  28
TORSDOF 22
