REMARK SMILES O=C(N[C@@H]1[C@@H](C(=O)OCCOCCOCCOC(=O)c2ccc(-c3c4nc(c(-c5cccc(S(=O)(=O)[O-])c5F)c5ccc([nH]5)c(-c5cccc(S(=O)(=O)[O-])c5F)c5nc(c(-c6cccc(S(=O)(=O)[O-])c6F)c6ccc3[nH]6)C=C5)C=C4)cc2)[C@H]2C=C[C@@H]1C2)OCc1ccccc1
REMARK SMILES IDX 12 1 11 2 10 3 9 4 8 5 6 6 7 7 5 8 4 9 86 10 83 11 85 12
REMARK SMILES IDX 87 13 84 14 3 15 1 16 2 17 88 19 89 20 90 21 91 22 95 23
REMARK SMILES IDX 92 24 94 25 93 26 13 27 14 28 15 29 16 30 17 31 18 32 19 33
REMARK SMILES IDX 20 34 21 35 82 36 22 37 81 38 23 39 24 40 25 41 75 42 26 43
REMARK SMILES IDX 80 44 74 45 76 46 27 47 79 48 73 49 72 50 28 52 60 53 40 54
REMARK SMILES IDX 59 55 41 56 44 57 58 58 77 59 42 60 43 61 57 63 78 64 45 65
REMARK SMILES IDX 29 66 30 67 38 68 31 69 33 70 39 71 32 72 34 73 35 74 36 75
REMARK SMILES IDX 37 76 61 77 62 78 70 79 63 80 65 81 71 82 64 83 66 84 67 85
REMARK SMILES IDX 68 86 69 87 46 88 47 89 55 90 48 91 50 92 56 93 49 94 51 95
REMARK SMILES IDX 52 96 53 97 54 98
REMARK H PARENT 3 18 76 51 44 62
REMARK Flexibility Score: inf
ROOT
ATOM      1  C   UNL     1       6.801   0.696   4.983  1.00  0.00     0.188 C 
ENDROOT
BRANCH   1   2
ATOM      2  O   UNL     1       7.586  -0.082   5.878  1.00  0.00    -0.376 OA
BRANCH   2   3
ATOM      3  C   UNL     1       8.354  -1.164   5.349  1.00  0.00     0.202 C 
BRANCH   3   4
ATOM      4  C   UNL     1       7.694  -2.104   4.327  1.00  0.00     0.261 C 
BRANCH   4   5
ATOM      5  O   UNL     1       7.317  -1.425   3.114  1.00  0.00    -0.463 OA
BRANCH   5   6
ATOM      6  C   UNL     1       6.094  -1.715   2.603  1.00  0.00     0.311 C 
ATOM      7  O   UNL     1       5.335  -2.565   3.054  1.00  0.00    -0.252 OA
BRANCH   6   8
ATOM      8  C   UNL     1       5.703  -0.788   1.469  1.00  0.00     0.129 C 
ATOM      9  C   UNL     1       4.925  -1.588   0.370  1.00  0.00     0.107 C 
ATOM     10  C   UNL     1       5.663  -1.158  -0.930  1.00  0.00     0.035 C 
ATOM     11  C   UNL     1       6.871  -0.153   0.660  1.00  0.00     0.028 C 
ATOM     12  C   UNL     1       7.027  -1.826  -0.899  1.00  0.00    -0.025 C 
ATOM     13  C   UNL     1       6.140   0.263  -0.611  1.00  0.00     0.018 C 
ATOM     14  C   UNL     1       7.747  -1.218   0.055  1.00  0.00    -0.027 C 
BRANCH   9  15
ATOM     15  N   UNL     1       3.469  -1.429   0.427  1.00  0.00    -0.317 N 
ATOM     16  O   UNL     1       1.450  -0.479   0.092  1.00  0.00    -0.225 OA
ATOM     17  C   UNL     1       2.632  -0.544  -0.188  1.00  0.00     0.407 C 
ATOM     18  H   UNL     1       3.014  -2.076   1.013  1.00  0.00     0.167 HD
BRANCH  17  19
ATOM     19  O   UNL     1       3.275   0.281  -1.039  1.00  0.00    -0.445 OA
BRANCH  19  20
ATOM     20  C   UNL     1       2.703   1.586  -1.211  1.00  0.00     0.270 C 
BRANCH  20  21
ATOM     21  C   UNL     1       3.263   2.509  -0.148  1.00  0.00    -0.011 A 
ATOM     22  C   UNL     1       3.164   2.189   1.217  1.00  0.00     0.007 A 
ATOM     23  C   UNL     1       3.962   3.667  -0.515  1.00  0.00     0.007 A 
ATOM     24  C   UNL     1       3.815   2.954   2.180  1.00  0.00     0.000 A 
ATOM     25  C   UNL     1       4.587   4.452   0.452  1.00  0.00     0.000 A 
ATOM     26  C   UNL     1       4.522   4.087   1.792  1.00  0.00     0.000 A 
ENDBRANCH  20  21
ENDBRANCH  19  20
ENDBRANCH  17  19
ENDBRANCH   9  15
ENDBRANCH   6   8
ENDBRANCH   5   6
ENDBRANCH   4   5
ENDBRANCH   3   4
ENDBRANCH   2   3
ENDBRANCH   1   2
BRANCH   1  27
ATOM     27  C   UNL     1       7.520   1.402   3.820  1.00  0.00     0.188 C 
BRANCH  27  28
ATOM     28  O   UNL     1       8.807   0.891   3.544  1.00  0.00    -0.376 OA
BRANCH  28  29
ATOM     29  C   UNL     1       9.907   1.742   3.848  1.00  0.00     0.202 C 
BRANCH  29  30
ATOM     30  C   UNL     1       9.989   2.490   5.200  1.00  0.00     0.261 C 
BRANCH  30  31
ATOM     31  O   UNL     1       8.761   2.997   5.756  1.00  0.00    -0.460 OA
BRANCH  31  32
ATOM     32  C   UNL     1       8.397   4.252   5.404  1.00  0.00     0.338 C 
ATOM     33  O   UNL     1       8.992   4.997   4.644  1.00  0.00    -0.246 OA
BRANCH  32  34
ATOM     34  C   UNL     1       7.051   4.548   5.945  1.00  0.00     0.060 A 
ATOM     35  C   UNL     1       5.941   4.305   5.133  1.00  0.00     0.016 A 
ATOM     36  C   UNL     1       6.879   5.178   7.175  1.00  0.00     0.016 A 
ATOM     37  C   UNL     1       4.670   4.732   5.510  1.00  0.00     0.010 A 
ATOM     38  C   UNL     1       5.592   5.587   7.567  1.00  0.00     0.010 A 
ATOM     39  C   UNL     1       4.483   5.401   6.720  1.00  0.00    -0.014 A 
BRANCH  39  40
ATOM     40  C   UNL     1       3.155   6.007   7.016  1.00  0.00     0.031 A 
ATOM     41  C   UNL     1       3.021   7.506   7.068  1.00  0.00     0.074 A 
ATOM     42  C   UNL     1       2.061   5.236   7.179  1.00  0.00     0.049 A 
ATOM     43  N   UNL     1       1.992   8.236   7.412  1.00  0.00    -0.248 NA
ATOM     44  C   UNL     1       4.206   8.288   6.680  1.00  0.00     0.031 C 
ATOM     45  C   UNL     1       2.032   3.775   7.083  1.00  0.00     0.029 A 
ATOM     46  N   UNL     1       0.761   5.575   7.471  1.00  0.00    -0.354 N 
ATOM     47  C   UNL     1       2.424   9.557   7.349  1.00  0.00     0.074 A 
ATOM     48  C   UNL     1       3.806   9.527   6.923  1.00  0.00     0.031 C 
ATOM     49  C   UNL     1       0.783   3.344   7.322  1.00  0.00     0.029 A 
ATOM     50  C   UNL     1      -0.061   4.487   7.654  1.00  0.00     0.049 A 
ATOM     51  H   UNL     1       0.449   6.506   7.541  1.00  0.00     0.167 HD
ATOM     52  C   UNL     1       1.732  10.690   7.618  1.00  0.00     0.034 A 
ATOM     53  C   UNL     1      -1.336   4.414   8.088  1.00  0.00     0.034 A 
ATOM     54  C   UNL     1       0.345  10.717   8.000  1.00  0.00     0.049 A 
ATOM     55  C   UNL     1      -2.069   5.685   8.424  1.00  0.00     0.074 A 
ATOM     56  C   UNL     1      -0.450  11.816   8.274  1.00  0.00     0.029 A 
ATOM     57  N   UNL     1      -0.453   9.596   8.168  1.00  0.00    -0.354 N 
ATOM     58  N   UNL     1      -1.659   6.927   8.327  1.00  0.00    -0.248 NA
ATOM     59  C   UNL     1      -3.449   5.546   8.912  1.00  0.00     0.031 C 
ATOM     60  C   UNL     1      -1.718  11.357   8.645  1.00  0.00     0.029 A 
ATOM     61  C   UNL     1      -1.727   9.974   8.556  1.00  0.00     0.049 A 
ATOM     62  H   UNL     1      -0.157   8.667   8.031  1.00  0.00     0.167 HD
ATOM     63  C   UNL     1      -2.737   7.717   8.710  1.00  0.00     0.074 A 
ATOM     64  C   UNL     1      -3.827   6.812   9.015  1.00  0.00     0.031 C 
ATOM     65  C   UNL     1      -2.816   9.067   8.815  1.00  0.00     0.034 A 
BRANCH  52  66
ATOM     66  C   UNL     1       2.473  12.000   7.524  1.00  0.00     0.023 A 
ATOM     67  C   UNL     1       2.848  12.518   6.267  1.00  0.00     0.012 A 
ATOM     68  C   UNL     1       2.764  12.739   8.688  1.00  0.00     0.148 A 
ATOM     69  C   UNL     1       3.534  13.729   6.175  1.00  0.00     0.002 A 
ATOM     70  C   UNL     1       3.404  13.968   8.585  1.00  0.00     0.091 A 
ATOM     71  F   UNL     1       2.417  12.222   9.876  1.00  0.00    -0.205 F 
ATOM     72  C   UNL     1       3.803  14.457   7.331  1.00  0.00     0.022 A 
BRANCH  70  73
ATOM     73  S   UNL     1       3.724  15.018  10.007  1.00  0.00     0.127 S 
ATOM     74  O   UNL     1       5.182  14.959  10.095  1.00  0.00    -0.237 OA
ATOM     75  O   UNL     1       3.192  16.306   9.561  1.00  0.00    -0.237 OA
ATOM     76  O   UNL     1       3.008  14.416  11.122  1.00  0.00    -0.744 OA
ENDBRANCH  70  73
ENDBRANCH  52  66
BRANCH  53  77
ATOM     77  C   UNL     1      -2.000   3.087   8.247  1.00  0.00     0.023 A 
ATOM     78  C   UNL     1      -3.088   2.745   7.422  1.00  0.00     0.012 A 
ATOM     79  C   UNL     1      -1.555   2.161   9.212  1.00  0.00     0.148 A 
ATOM     80  C   UNL     1      -3.740   1.520   7.575  1.00  0.00     0.002 A 
ATOM     81  C   UNL     1      -2.168   0.919   9.317  1.00  0.00     0.091 A 
ATOM     82  F   UNL     1      -0.531   2.512  10.003  1.00  0.00    -0.205 F 
ATOM     83  C   UNL     1      -3.274   0.603   8.513  1.00  0.00     0.022 A 
BRANCH  81  84
ATOM     84  S   UNL     1      -1.554  -0.370  10.407  1.00  0.00     0.127 S 
ATOM     85  O   UNL     1      -2.621  -0.455  11.401  1.00  0.00    -0.237 OA
ATOM     86  O   UNL     1      -1.464  -1.513   9.498  1.00  0.00    -0.237 OA
ATOM     87  O   UNL     1      -0.270   0.109  10.900  1.00  0.00    -0.744 OA
ENDBRANCH  81  84
ENDBRANCH  53  77
BRANCH  65  88
ATOM     88  C   UNL     1      -4.139   9.656   9.235  1.00  0.00     0.023 A 
ATOM     89  C   UNL     1      -4.598   9.494  10.558  1.00  0.00     0.012 A 
ATOM     90  C   UNL     1      -4.904  10.415   8.328  1.00  0.00     0.148 A 
ATOM     91  C   UNL     1      -5.819  10.038  10.957  1.00  0.00     0.002 A 
ATOM     92  C   UNL     1      -6.091  11.002   8.748  1.00  0.00     0.091 A 
ATOM     93  F   UNL     1      -4.460  10.546   7.069  1.00  0.00    -0.205 F 
ATOM     94  C   UNL     1      -6.559  10.801  10.056  1.00  0.00     0.022 A 
BRANCH  92  95
ATOM     95  S   UNL     1      -7.059  12.083   7.688  1.00  0.00     0.127 S 
ATOM     96  O   UNL     1      -8.223  11.249   7.396  1.00  0.00    -0.237 OA
ATOM     97  O   UNL     1      -7.329  13.219   8.569  1.00  0.00    -0.237 OA
ATOM     98  O   UNL     1      -6.209  12.392   6.546  1.00  0.00    -0.744 OA
ENDBRANCH  92  95
ENDBRANCH  65  88
ENDBRANCH  39  40
ENDBRANCH  32  34
ENDBRANCH  31  32
ENDBRANCH  30  31
ENDBRANCH  29  30
ENDBRANCH  28  29
ENDBRANCH  27  28
ENDBRANCH   1  27
TORSDOF 24
