REMARK SMILES CC1(C)C(Nc2cc(C(=O)OCCOCCOCCOC(=O)c3ccc(-c4c5nc(c(-c6cccc(S(=O)(=O)[O-])c6F)c6ccc([nH]6)c(-c6cccc(S(=O)(=O)[O-])c6F)c6nc(c(-c7cccc(S(=O)(=O)[O-])c7F)c7ccc4[nH]7)C=C6)C=C5)cc3)cc(Cl)n2)C1(C)C
REMARK SMILES IDX 16 1 15 2 14 3 13 4 12 5 11 6 9 7 10 8 8 9 6 10 7 11 89 12
REMARK SMILES IDX 87 13 86 14 88 15 5 16 4 18 1 19 2 20 3 21 90 22 91 23 92 24
REMARK SMILES IDX 17 25 18 26 19 27 20 28 21 29 22 30 23 31 24 32 85 33 25 34
REMARK SMILES IDX 84 35 26 36 27 37 28 38 78 39 29 40 83 41 77 42 79 43 30 44
REMARK SMILES IDX 82 45 76 46 75 47 31 49 63 50 43 51 62 52 44 53 47 54 61 55
REMARK SMILES IDX 80 56 45 57 46 58 60 60 81 61 48 62 32 63 33 64 41 65 34 66
REMARK SMILES IDX 36 67 42 68 35 69 37 70 38 71 39 72 40 73 64 74 65 75 73 76
REMARK SMILES IDX 66 77 68 78 74 79 67 80 69 81 70 82 71 83 72 84 49 85 50 86
REMARK SMILES IDX 58 87 51 88 53 89 59 90 52 91 54 92 55 93 56 94 57 95
REMARK H PARENT 5 17 79 48 47 59
REMARK Flexibility Score: inf
ROOT
ATOM      1  C   UNL     1      -0.251  -1.088  -6.577  1.00  0.00     0.188 C 
ENDROOT
BRANCH   1   2
ATOM      2  C   UNL     1       0.186  -2.564  -6.489  1.00  0.00     0.188 C 
BRANCH   2   3
ATOM      3  O   UNL     1       0.256  -3.326  -7.675  1.00  0.00    -0.376 OA
BRANCH   3   4
ATOM      4  C   UNL     1      -0.908  -3.591  -8.438  1.00  0.00     0.202 C 
BRANCH   4   5
ATOM      5  C   UNL     1      -2.340  -3.628  -7.869  1.00  0.00     0.261 C 
BRANCH   5   6
ATOM      6  O   UNL     1      -2.632  -2.783  -6.749  1.00  0.00    -0.460 OA
BRANCH   6   7
ATOM      7  C   UNL     1      -2.826  -3.412  -5.561  1.00  0.00     0.338 C 
ATOM      8  O   UNL     1      -2.785  -4.615  -5.357  1.00  0.00    -0.246 OA
BRANCH   7   9
ATOM      9  C   UNL     1      -2.994  -2.414  -4.480  1.00  0.00     0.066 A 
ATOM     10  C   UNL     1      -2.588  -1.696  -2.220  1.00  0.00     0.128 A 
ATOM     11  C   UNL     1      -2.370  -2.618  -3.240  1.00  0.00     0.062 A 
ATOM     12  N   UNL     1      -3.389  -0.628  -2.394  1.00  0.00    -0.219 NA
ATOM     13  C   UNL     1      -3.931  -0.438  -3.614  1.00  0.00     0.132 A 
ATOM     14  C   UNL     1      -3.772  -1.282  -4.689  1.00  0.00     0.057 A 
ATOM     15  Cl  UNL     1      -4.867   0.993  -3.755  1.00  0.00    -0.062 Cl
BRANCH  10  16
ATOM     16  N   UNL     1      -1.965  -1.789  -0.966  1.00  0.00    -0.366 N 
ATOM     17  H   UNL     1      -2.513  -1.816  -0.148  1.00  0.00     0.162 HD
BRANCH  16  18
ATOM     18  C   UNL     1      -0.503  -1.847  -0.866  1.00  0.00     0.093 C 
ATOM     19  C   UNL     1       1.258  -0.188  -0.110  1.00  0.00     0.014 C 
ATOM     20  C   UNL     1       0.220  -1.210   0.333  1.00  0.00    -0.008 C 
ATOM     21  C   UNL     1      -0.325  -0.863   1.697  1.00  0.00     0.014 C 
ATOM     22  C   UNL     1       0.288  -2.726   0.053  1.00  0.00    -0.008 C 
ATOM     23  C   UNL     1       1.605  -3.279  -0.388  1.00  0.00     0.014 C 
ATOM     24  C   UNL     1      -0.509  -3.768   0.810  1.00  0.00     0.014 C 
ENDBRANCH  16  18
ENDBRANCH  10  16
ENDBRANCH   7   9
ENDBRANCH   6   7
ENDBRANCH   5   6
ENDBRANCH   4   5
ENDBRANCH   3   4
ENDBRANCH   2   3
ENDBRANCH   1   2
BRANCH   1  25
ATOM     25  O   UNL     1      -0.754  -0.624  -7.808  1.00  0.00    -0.376 OA
BRANCH  25  26
ATOM     26  C   UNL     1       0.126  -0.355  -8.888  1.00  0.00     0.202 C 
BRANCH  26  27
ATOM     27  C   UNL     1       1.669  -0.342  -8.838  1.00  0.00     0.261 C 
BRANCH  27  28
ATOM     28  O   UNL     1       2.328  -0.950  -7.726  1.00  0.00    -0.460 OA
BRANCH  28  29
ATOM     29  C   UNL     1       2.860  -0.091  -6.821  1.00  0.00     0.338 C 
ATOM     30  O   UNL     1       2.790   1.126  -6.836  1.00  0.00    -0.246 OA
BRANCH  29  31
ATOM     31  C   UNL     1       3.383  -0.859  -5.675  1.00  0.00     0.060 A 
ATOM     32  C   UNL     1       2.733  -0.731  -4.445  1.00  0.00     0.016 A 
ATOM     33  C   UNL     1       4.523  -1.659  -5.791  1.00  0.00     0.016 A 
ATOM     34  C   UNL     1       3.236  -1.393  -3.327  1.00  0.00     0.010 A 
ATOM     35  C   UNL     1       5.035  -2.305  -4.656  1.00  0.00     0.010 A 
ATOM     36  C   UNL     1       4.406  -2.161  -3.410  1.00  0.00    -0.014 A 
BRANCH  36  37
ATOM     37  C   UNL     1       5.039  -2.653  -2.157  1.00  0.00     0.031 A 
ATOM     38  C   UNL     1       6.016  -1.760  -1.444  1.00  0.00     0.074 A 
ATOM     39  C   UNL     1       4.720  -3.846  -1.621  1.00  0.00     0.049 A 
ATOM     40  N   UNL     1       6.608  -1.933  -0.291  1.00  0.00    -0.248 NA
ATOM     41  C   UNL     1       6.390  -0.517  -2.136  1.00  0.00     0.031 C 
ATOM     42  C   UNL     1       3.799  -4.812  -2.213  1.00  0.00     0.029 A 
ATOM     43  N   UNL     1       5.084  -4.418  -0.423  1.00  0.00    -0.354 N 
ATOM     44  C   UNL     1       7.488  -0.867  -0.157  1.00  0.00     0.074 A 
ATOM     45  C   UNL     1       7.316  -0.029  -1.325  1.00  0.00     0.031 C 
ATOM     46  C   UNL     1       3.596  -5.812  -1.335  1.00  0.00     0.029 A 
ATOM     47  C   UNL     1       4.406  -5.583  -0.138  1.00  0.00     0.049 A 
ATOM     48  H   UNL     1       5.765  -4.031   0.173  1.00  0.00     0.167 HD
ATOM     49  C   UNL     1       8.381  -0.621   0.832  1.00  0.00     0.034 A 
ATOM     50  C   UNL     1       4.413  -6.353   0.973  1.00  0.00     0.034 A 
ATOM     51  C   UNL     1       8.552  -1.445   1.998  1.00  0.00     0.049 A 
ATOM     52  C   UNL     1       5.344  -6.001   2.110  1.00  0.00     0.074 A 
ATOM     53  C   UNL     1       9.434  -1.271   3.051  1.00  0.00     0.029 A 
ATOM     54  N   UNL     1       7.839  -2.603   2.265  1.00  0.00    -0.354 N 
ATOM     55  N   UNL     1       6.114  -4.951   2.258  1.00  0.00    -0.248 NA
ATOM     56  C   UNL     1       5.413  -6.954   3.230  1.00  0.00     0.031 C 
ATOM     57  C   UNL     1       9.280  -2.344   3.935  1.00  0.00     0.029 A 
ATOM     58  C   UNL     1       8.267  -3.159   3.460  1.00  0.00     0.049 A 
ATOM     59  H   UNL     1       7.132  -2.976   1.690  1.00  0.00     0.167 HD
ATOM     60  C   UNL     1       6.761  -5.120   3.480  1.00  0.00     0.074 A 
ATOM     61  C   UNL     1       6.244  -6.340   4.061  1.00  0.00     0.031 C 
ATOM     62  C   UNL     1       7.726  -4.356   4.050  1.00  0.00     0.034 A 
BRANCH  49  63
ATOM     63  C   UNL     1       9.280   0.576   0.670  1.00  0.00     0.023 A 
ATOM     64  C   UNL     1       8.763   1.879   0.813  1.00  0.00     0.012 A 
ATOM     65  C   UNL     1      10.655   0.401   0.412  1.00  0.00     0.148 A 
ATOM     66  C   UNL     1       9.594   2.990   0.664  1.00  0.00     0.002 A 
ATOM     67  C   UNL     1      11.485   1.510   0.317  1.00  0.00     0.091 A 
ATOM     68  F   UNL     1      11.121  -0.846   0.255  1.00  0.00    -0.205 F 
ATOM     69  C   UNL     1      10.954   2.805   0.427  1.00  0.00     0.022 A 
BRANCH  67  70
ATOM     70  S   UNL     1      13.262   1.373   0.098  1.00  0.00     0.127 S 
ATOM     71  O   UNL     1      13.432   1.890  -1.259  1.00  0.00    -0.237 OA
ATOM     72  O   UNL     1      13.768   2.250   1.154  1.00  0.00    -0.237 OA
ATOM     73  O   UNL     1      13.582  -0.037   0.272  1.00  0.00    -0.744 OA
ENDBRANCH  67  70
ENDBRANCH  49  63
BRANCH  50  74
ATOM     74  C   UNL     1       3.487  -7.521   1.103  1.00  0.00     0.023 A 
ATOM     75  C   UNL     1       2.526  -7.540   2.137  1.00  0.00     0.012 A 
ATOM     76  C   UNL     1       3.558  -8.618   0.227  1.00  0.00     0.148 A 
ATOM     77  C   UNL     1       1.682  -8.639   2.312  1.00  0.00     0.002 A 
ATOM     78  C   UNL     1       2.660  -9.672   0.355  1.00  0.00     0.091 A 
ATOM     79  F   UNL     1       4.506  -8.615  -0.721  1.00  0.00    -0.205 F 
ATOM     80  C   UNL     1       1.737  -9.698   1.411  1.00  0.00     0.022 A 
BRANCH  78  81
ATOM     81  S   UNL     1       2.559 -10.984  -0.867  1.00  0.00     0.127 S 
ATOM     82  O   UNL     1       3.170 -12.103  -0.156  1.00  0.00    -0.237 OA
ATOM     83  O   UNL     1       1.114 -11.096  -1.072  1.00  0.00    -0.237 OA
ATOM     84  O   UNL     1       3.289 -10.489  -2.026  1.00  0.00    -0.744 OA
ENDBRANCH  78  81
ENDBRANCH  50  74
BRANCH  62  85
ATOM     85  C   UNL     1       8.293  -4.809   5.375  1.00  0.00     0.023 A 
ATOM     86  C   UNL     1       9.094  -5.969   5.439  1.00  0.00     0.012 A 
ATOM     87  C   UNL     1       8.089  -4.052   6.546  1.00  0.00     0.148 A 
ATOM     88  C   UNL     1       9.642  -6.391   6.650  1.00  0.00     0.002 A 
ATOM     89  C   UNL     1       8.681  -4.450   7.739  1.00  0.00     0.091 A 
ATOM     90  F   UNL     1       7.315  -2.959   6.473  1.00  0.00    -0.205 F 
ATOM     91  C   UNL     1       9.444  -5.627   7.797  1.00  0.00     0.022 A 
BRANCH  89  92
ATOM     92  S   UNL     1       8.562  -3.479   9.247  1.00  0.00     0.127 S 
ATOM     93  O   UNL     1       7.673  -4.303  10.063  1.00  0.00    -0.237 OA
ATOM     94  O   UNL     1       9.952  -3.445   9.704  1.00  0.00    -0.237 OA
ATOM     95  O   UNL     1       8.025  -2.184   8.850  1.00  0.00    -0.744 OA
ENDBRANCH  89  92
ENDBRANCH  62  85
ENDBRANCH  36  37
ENDBRANCH  29  31
ENDBRANCH  28  29
ENDBRANCH  27  28
ENDBRANCH  26  27
ENDBRANCH  25  26
ENDBRANCH   1  25
TORSDOF 22
