REMARK SMILES O=C(OCCOCCOCCOC(=O)c1ccc(-c2c3nc(c(-c4cccc(S(=O)(=O)[O-])c4F)c4ccc([nH]4)c(-c4cccc(S(=O)(=O)[O-])c4F)c4nc(c(-c5cccc(S(=O)(=O)[O-])c5F)c5ccc2[nH]5)C=C4)C=C3)cc1)C1=Cc2cc(Cl)cc(-c3ccc(CO)cc3)c2O[C@@H]1C(F)(F)F
REMARK SMILES IDX 7 1 6 2 5 3 4 4 3 5 2 6 1 7 78 8 79 9 96 10 80 11 95 12
REMARK SMILES IDX 81 13 94 14 82 15 85 16 83 17 84 18 97 19 98 20 99 21 100 22
REMARK SMILES IDX 86 23 87 24 93 25 88 26 92 27 89 28 90 29 91 30 8 32 9 33
REMARK SMILES IDX 10 34 11 35 12 36 13 37 14 38 15 39 16 40 77 41 17 42 76 43
REMARK SMILES IDX 18 44 19 45 20 46 70 47 21 48 75 49 69 50 71 51 22 52 74 53
REMARK SMILES IDX 68 54 67 55 23 57 55 58 35 59 54 60 36 61 39 62 53 63 72 64
REMARK SMILES IDX 37 65 38 66 52 68 73 69 40 70 24 71 25 72 33 73 26 74 28 75
REMARK SMILES IDX 34 76 27 77 29 78 30 79 31 80 32 81 56 82 57 83 65 84 58 85
REMARK SMILES IDX 60 86 66 87 59 88 61 89 62 90 63 91 64 92 41 93 42 94 50 95
REMARK SMILES IDX 43 96 45 97 51 98 44 99 46 100 47 101 48 102 49 103
REMARK H PARENT 91 31 71 56 39 67
REMARK Flexibility Score: inf
ROOT
ATOM      1  C   UNL     1       2.272  -1.351  -1.781  1.00  0.00     0.188 C 
ENDROOT
BRANCH   1   2
ATOM      2  O   UNL     1       3.731  -0.970  -1.885  1.00  0.00    -0.376 OA
BRANCH   2   3
ATOM      3  C   UNL     1       4.601   0.174  -0.847  1.00  0.00     0.202 C 
BRANCH   3   4
ATOM      4  C   UNL     1       4.086   0.457   1.250  1.00  0.00     0.261 C 
BRANCH   4   5
ATOM      5  O   UNL     1       3.155   1.543   1.811  1.00  0.00    -0.460 OA
BRANCH   5   6
ATOM      6  C   UNL     1       3.235   2.696   1.124  1.00  0.00     0.338 C 
ATOM      7  O   UNL     1       2.500   3.649   1.189  1.00  0.00    -0.246 OA
BRANCH   6   8
ATOM      8  C   UNL     1       4.042   2.164   0.042  1.00  0.00     0.087 C 
ATOM      9  C   UNL     1       5.453   2.011   0.321  1.00  0.00     0.027 C 
ATOM     10  C   UNL     1       2.827   0.736  -0.339  1.00  0.00     0.316 C 
ATOM     11  C   UNL     1       6.237   0.436   0.638  1.00  0.00     0.019 A 
ATOM     12  O   UNL     1       3.612  -0.995   0.174  1.00  0.00    -0.475 OA
ATOM     13  C   UNL     1       7.547   0.477   1.038  1.00  0.00     0.032 A 
ATOM     14  C   UNL     1       5.382  -1.073   0.643  1.00  0.00     0.135 A 
ATOM     15  C   UNL     1       8.106  -0.758   1.365  1.00  0.00     0.042 A 
ATOM     16  C   UNL     1       6.040  -2.258   0.945  1.00  0.00     0.026 A 
ATOM     17  Cl  UNL     1       9.757  -0.774   1.889  1.00  0.00    -0.084 Cl
ATOM     18  C   UNL     1       7.410  -2.022   1.304  1.00  0.00     0.033 A 
BRANCH  10  19
ATOM     19  C   UNL     1       2.432   1.410  -1.864  1.00  0.00     0.430 C 
ATOM     20  F   UNL     1       2.898   0.836  -2.990  1.00  0.00    -0.167 F 
ATOM     21  F   UNL     1       1.087   1.523  -1.984  1.00  0.00    -0.167 F 
ATOM     22  F   UNL     1       2.907   2.688  -1.960  1.00  0.00    -0.167 F 
ENDBRANCH  10  19
BRANCH  16  23
ATOM     23  C   UNL     1       5.639  -3.663   0.910  1.00  0.00    -0.015 A 
ATOM     24  C   UNL     1       5.079  -4.297   2.022  1.00  0.00     0.009 A 
ATOM     25  C   UNL     1       6.061  -4.485  -0.154  1.00  0.00     0.009 A 
ATOM     26  C   UNL     1       4.813  -5.675   2.010  1.00  0.00     0.007 A 
ATOM     27  C   UNL     1       5.771  -5.856  -0.184  1.00  0.00     0.007 A 
ATOM     28  C   UNL     1       5.087  -6.451   0.876  1.00  0.00    -0.023 A 
BRANCH  28  29
ATOM     29  C   UNL     1       4.637  -7.886   0.795  1.00  0.00     0.191 C 
BRANCH  29  30
ATOM     30  O   UNL     1       5.661  -8.778   1.208  1.00  0.00    -0.392 OA
ATOM     31  H   UNL     1       6.431  -8.678   0.625  1.00  0.00     0.211 HD
ENDBRANCH  29  30
ENDBRANCH  28  29
ENDBRANCH  16  23
ENDBRANCH   6   8
ENDBRANCH   5   6
ENDBRANCH   4   5
ENDBRANCH   3   4
ENDBRANCH   2   3
ENDBRANCH   1   2
BRANCH   1  32
ATOM     32  C   UNL     1       1.717  -2.711  -2.240  1.00  0.00     0.188 C 
BRANCH  32  33
ATOM     33  O   UNL     1       2.377  -3.882  -1.843  1.00  0.00    -0.376 OA
BRANCH  33  34
ATOM     34  C   UNL     1       3.759  -3.886  -2.138  1.00  0.00     0.202 C 
BRANCH  34  35
ATOM     35  C   UNL     1       4.224  -3.774  -3.595  1.00  0.00     0.261 C 
BRANCH  35  36
ATOM     36  O   UNL     1       3.843  -2.560  -4.261  1.00  0.00    -0.460 OA
BRANCH  36  37
ATOM     37  C   UNL     1       2.873  -2.666  -5.202  1.00  0.00     0.338 C 
ATOM     38  O   UNL     1       2.293  -3.676  -5.559  1.00  0.00    -0.246 OA
BRANCH  37  39
ATOM     39  C   UNL     1       2.481  -1.305  -5.613  1.00  0.00     0.060 A 
ATOM     40  C   UNL     1       1.242  -0.780  -5.216  1.00  0.00     0.016 A 
ATOM     41  C   UNL     1       3.341  -0.564  -6.419  1.00  0.00     0.016 A 
ATOM     42  C   UNL     1       0.877   0.512  -5.591  1.00  0.00     0.010 A 
ATOM     43  C   UNL     1       2.953   0.709  -6.836  1.00  0.00     0.010 A 
ATOM     44  C   UNL     1       1.719   1.248  -6.428  1.00  0.00    -0.014 A 
BRANCH  44  45
ATOM     45  C   UNL     1       1.247   2.511  -7.035  1.00  0.00     0.031 A 
ATOM     46  C   UNL     1       0.563   2.438  -8.368  1.00  0.00     0.074 A 
ATOM     47  C   UNL     1       1.486   3.696  -6.447  1.00  0.00     0.049 A 
ATOM     48  N   UNL     1       0.186   3.409  -9.155  1.00  0.00    -0.248 NA
ATOM     49  C   UNL     1       0.276   1.090  -8.889  1.00  0.00     0.031 C 
ATOM     50  C   UNL     1       2.134   3.877  -5.150  1.00  0.00     0.029 A 
ATOM     51  N   UNL     1       1.250   4.976  -6.888  1.00  0.00    -0.354 N 
ATOM     52  C   UNL     1      -0.333   2.792 -10.285  1.00  0.00     0.074 A 
ATOM     53  C   UNL     1      -0.251   1.365 -10.073  1.00  0.00     0.031 C 
ATOM     54  C   UNL     1       2.284   5.192  -4.917  1.00  0.00     0.029 A 
ATOM     55  C   UNL     1       1.788   5.943  -6.069  1.00  0.00     0.049 A 
ATOM     56  H   UNL     1       0.746   5.181  -7.708  1.00  0.00     0.167 HD
ATOM     57  C   UNL     1      -0.818   3.370 -11.406  1.00  0.00     0.034 A 
ATOM     58  C   UNL     1       1.913   7.272  -6.258  1.00  0.00     0.034 A 
ATOM     59  C   UNL     1      -0.889   4.790 -11.611  1.00  0.00     0.049 A 
ATOM     60  C   UNL     1       1.387   7.881  -7.536  1.00  0.00     0.074 A 
ATOM     61  C   UNL     1      -1.421   5.471 -12.690  1.00  0.00     0.029 A 
ATOM     62  N   UNL     1      -0.381   5.742 -10.743  1.00  0.00    -0.354 N 
ATOM     63  N   UNL     1       0.774   7.300  -8.540  1.00  0.00    -0.248 NA
ATOM     64  C   UNL     1       1.557   9.333  -7.705  1.00  0.00     0.031 C 
ATOM     65  C   UNL     1      -1.179   6.834 -12.504  1.00  0.00     0.029 A 
ATOM     66  C   UNL     1      -0.553   7.005 -11.280  1.00  0.00     0.049 A 
ATOM     67  H   UNL     1       0.041   5.548  -9.875  1.00  0.00     0.167 HD
ATOM     68  C   UNL     1       0.466   8.314  -9.441  1.00  0.00     0.074 A 
ATOM     69  C   UNL     1       0.927   9.552  -8.851  1.00  0.00     0.031 C 
ATOM     70  C   UNL     1      -0.126   8.230 -10.658  1.00  0.00     0.034 A 
BRANCH  57  71
ATOM     71  C   UNL     1      -1.288   2.475 -12.517  1.00  0.00     0.023 A 
ATOM     72  C   UNL     1      -2.502   1.772 -12.397  1.00  0.00     0.012 A 
ATOM     73  C   UNL     1      -0.563   2.414 -13.723  1.00  0.00     0.148 A 
ATOM     74  C   UNL     1      -2.983   1.010 -13.461  1.00  0.00     0.002 A 
ATOM     75  C   UNL     1      -1.072   1.694 -14.794  1.00  0.00     0.091 A 
ATOM     76  F   UNL     1       0.603   3.072 -13.801  1.00  0.00    -0.205 F 
ATOM     77  C   UNL     1      -2.277   0.984 -14.662  1.00  0.00     0.022 A 
BRANCH  75  78
ATOM     78  S   UNL     1      -0.283   1.668 -16.406  1.00  0.00     0.127 S 
ATOM     79  O   UNL     1       0.056   0.252 -16.546  1.00  0.00    -0.237 OA
ATOM     80  O   UNL     1      -1.363   2.125 -17.279  1.00  0.00    -0.237 OA
ATOM     81  O   UNL     1       0.857   2.569 -16.316  1.00  0.00    -0.744 OA
ENDBRANCH  75  78
ENDBRANCH  57  71
BRANCH  58  82
ATOM     82  C   UNL     1       2.601   8.127  -5.245  1.00  0.00     0.023 A 
ATOM     83  C   UNL     1       1.886   9.144  -4.582  1.00  0.00     0.012 A 
ATOM     84  C   UNL     1       3.973   7.967  -4.968  1.00  0.00     0.148 A 
ATOM     85  C   UNL     1       2.534  10.017  -3.705  1.00  0.00     0.002 A 
ATOM     86  C   UNL     1       4.598   8.794  -4.042  1.00  0.00     0.091 A 
ATOM     87  F   UNL     1       4.647   7.012  -5.624  1.00  0.00    -0.205 F 
ATOM     88  C   UNL     1       3.887   9.837  -3.429  1.00  0.00     0.022 A 
BRANCH  86  89
ATOM     89  S   UNL     1       6.302   8.549  -3.530  1.00  0.00     0.127 S 
ATOM     90  O   UNL     1       6.965   9.704  -4.128  1.00  0.00    -0.237 OA
ATOM     91  O   UNL     1       6.189   8.590  -2.072  1.00  0.00    -0.237 OA
ATOM     92  O   UNL     1       6.691   7.250  -4.062  1.00  0.00    -0.744 OA
ENDBRANCH  86  89
ENDBRANCH  58  82
BRANCH  70  93
ATOM     93  C   UNL     1      -0.345   9.508 -11.425  1.00  0.00     0.023 A 
ATOM     94  C   UNL     1       0.751  10.189 -11.992  1.00  0.00     0.012 A 
ATOM     95  C   UNL     1      -1.651   9.985 -11.658  1.00  0.00     0.148 A 
ATOM     96  C   UNL     1       0.553  11.342 -12.750  1.00  0.00     0.002 A 
ATOM     97  C   UNL     1      -1.844  11.102 -12.459  1.00  0.00     0.091 A 
ATOM     98  F   UNL     1      -2.679   9.327 -11.103  1.00  0.00    -0.205 F 
ATOM     99  C   UNL     1      -0.744  11.791 -12.994  1.00  0.00     0.022 A 
BRANCH  97 100
ATOM    100  S   UNL     1      -3.477  11.699 -12.910  1.00  0.00     0.127 S 
ATOM    101  O   UNL     1      -3.512  13.001 -12.244  1.00  0.00    -0.237 OA
ATOM    102  O   UNL     1      -3.390  11.762 -14.368  1.00  0.00    -0.237 OA
ATOM    103  O   UNL     1      -4.424  10.718 -12.397  1.00  0.00    -0.744 OA
ENDBRANCH  97 100
ENDBRANCH  70  93
ENDBRANCH  44  45
ENDBRANCH  37  39
ENDBRANCH  36  37
ENDBRANCH  35  36
ENDBRANCH  34  35
ENDBRANCH  33  34
ENDBRANCH  32  33
ENDBRANCH   1  32
TORSDOF 24
