REMARK SMILES COc1cc(Cn2cc(C(=O)OCCOCCOCCOC(=O)c3ccc(-c4c5nc(c(-c6cccc(S(=O)(=O)[O-])c6F)c6ccc([nH]6)c(-c6cccc(S(=O)(=O)[O-])c6F)c6nc(c(-c7cccc(S(=O)(=O)[O-])c7F)c7ccc4[nH]7)C=C6)C=C5)cc3)c(=O)[nH]c2=O)ccn1
REMARK SMILES IDX 16 1 15 2 14 3 13 4 12 5 10 6 11 7 9 8 7 9 8 10 90 11 89 12
REMARK SMILES IDX 91 13 87 14 88 16 6 17 5 18 3 19 4 20 94 21 93 22 92 23 2 24
REMARK SMILES IDX 1 25 17 26 18 27 19 28 20 29 21 30 22 31 23 32 24 33 25 34
REMARK SMILES IDX 86 35 26 36 85 37 27 38 28 39 29 40 79 41 30 42 84 43 78 44
REMARK SMILES IDX 80 45 31 46 83 47 77 48 76 49 32 51 64 52 44 53 63 54 45 55
REMARK SMILES IDX 48 56 62 57 81 58 46 59 47 60 61 62 82 63 49 64 33 65 34 66
REMARK SMILES IDX 42 67 35 68 37 69 43 70 36 71 38 72 39 73 40 74 41 75 65 76
REMARK SMILES IDX 66 77 74 78 67 79 69 80 75 81 68 82 70 83 71 84 72 85 73 86
REMARK SMILES IDX 50 87 51 88 59 89 52 90 54 91 60 92 53 93 55 94 56 95 57 96
REMARK SMILES IDX 58 97
REMARK H PARENT 89 15 80 50 48 61
REMARK Flexibility Score: inf
ROOT
ATOM      1  C   UNL     1       4.559   9.247   5.489  1.00  0.00     0.188 C 
ENDROOT
BRANCH   1   2
ATOM      2  O   UNL     1       3.377   9.826   6.020  1.00  0.00    -0.376 OA
BRANCH   2   3
ATOM      3  C   UNL     1       2.277   9.944   5.133  1.00  0.00     0.202 C 
BRANCH   3   4
ATOM      4  C   UNL     1       1.597   8.628   4.740  1.00  0.00     0.261 C 
BRANCH   4   5
ATOM      5  O   UNL     1       2.487   7.579   4.336  1.00  0.00    -0.459 OA
BRANCH   5   6
ATOM      6  C   UNL     1       2.996   7.632   3.077  1.00  0.00     0.345 C 
ATOM      7  O   UNL     1       2.740   8.488   2.250  1.00  0.00    -0.246 OA
BRANCH   6   8
ATOM      8  C   UNL     1       3.923   6.497   2.889  1.00  0.00     0.141 A 
ATOM      9  N   UNL     1       4.334   4.152   3.159  1.00  0.00    -0.295 N 
ATOM     10  C   UNL     1       3.577   5.292   3.356  1.00  0.00     0.112 A 
ATOM     11  C   UNL     1       5.543   4.198   2.475  1.00  0.00     0.328 A 
ATOM     12  N   UNL     1       5.921   5.448   2.044  1.00  0.00    -0.273 N 
ATOM     13  O   UNL     1       6.251   3.217   2.265  1.00  0.00    -0.248 OA
ATOM     14  C   UNL     1       5.247   6.625   2.260  1.00  0.00     0.268 A 
ATOM     15  H   UNL     1       6.758   5.505   1.529  1.00  0.00     0.175 HD
ATOM     16  O   UNL     1       5.763   7.715   2.049  1.00  0.00    -0.268 OA
BRANCH   9  17
ATOM     17  C   UNL     1       3.825   2.858   3.637  1.00  0.00     0.162 C 
BRANCH  17  18
ATOM     18  C   UNL     1       2.443   2.570   3.091  1.00  0.00    -0.021 A 
ATOM     19  C   UNL     1       1.002   1.945   1.289  1.00  0.00     0.213 A 
ATOM     20  C   UNL     1       2.287   2.053   1.803  1.00  0.00     0.074 A 
ATOM     21  N   UNL     1      -0.109   2.347   1.937  1.00  0.00    -0.222 NA
ATOM     22  C   UNL     1       0.063   2.851   3.174  1.00  0.00     0.115 A 
ATOM     23  C   UNL     1       1.296   2.950   3.799  1.00  0.00     0.026 A 
BRANCH  19  24
ATOM     24  O   UNL     1       0.799   1.454   0.027  1.00  0.00    -0.481 OA
ATOM     25  C   UNL     1       1.024   0.049   0.017  1.00  0.00     0.280 C 
ENDBRANCH  19  24
ENDBRANCH  17  18
ENDBRANCH   9  17
ENDBRANCH   6   8
ENDBRANCH   5   6
ENDBRANCH   4   5
ENDBRANCH   3   4
ENDBRANCH   2   3
ENDBRANCH   1   2
BRANCH   1  26
ATOM     26  C   UNL     1       4.910   7.889   6.135  1.00  0.00     0.188 C 
BRANCH  26  27
ATOM     27  O   UNL     1       4.208   7.445   7.292  1.00  0.00    -0.376 OA
BRANCH  27  28
ATOM     28  C   UNL     1       3.938   8.375   8.333  1.00  0.00     0.202 C 
BRANCH  28  29
ATOM     29  C   UNL     1       5.106   9.126   8.991  1.00  0.00     0.261 C 
BRANCH  29  30
ATOM     30  O   UNL     1       6.005   9.777   8.080  1.00  0.00    -0.460 OA
BRANCH  30  31
ATOM     31  C   UNL     1       7.246   9.231   7.984  1.00  0.00     0.338 C 
ATOM     32  O   UNL     1       7.676   8.274   8.607  1.00  0.00    -0.246 OA
BRANCH  31  33
ATOM     33  C   UNL     1       7.958   9.850   6.845  1.00  0.00     0.060 A 
ATOM     34  C   UNL     1       8.179  11.227   6.793  1.00  0.00     0.016 A 
ATOM     35  C   UNL     1       8.408   9.022   5.807  1.00  0.00     0.016 A 
ATOM     36  C   UNL     1       8.865  11.772   5.702  1.00  0.00     0.010 A 
ATOM     37  C   UNL     1       9.069   9.571   4.708  1.00  0.00     0.010 A 
ATOM     38  C   UNL     1       9.318  10.949   4.655  1.00  0.00    -0.014 A 
BRANCH  38  39
ATOM     39  C   UNL     1      10.187  11.503   3.588  1.00  0.00     0.031 A 
ATOM     40  C   UNL     1       9.659  11.836   2.225  1.00  0.00     0.074 A 
ATOM     41  C   UNL     1      11.496  11.666   3.860  1.00  0.00     0.049 A 
ATOM     42  N   UNL     1      10.287  12.399   1.224  1.00  0.00    -0.248 NA
ATOM     43  C   UNL     1       8.257  11.497   1.943  1.00  0.00     0.031 C 
ATOM     44  C   UNL     1      12.139  11.312   5.128  1.00  0.00     0.029 A 
ATOM     45  N   UNL     1      12.520  12.154   3.089  1.00  0.00    -0.354 N 
ATOM     46  C   UNL     1       9.362  12.488   0.193  1.00  0.00     0.074 A 
ATOM     47  C   UNL     1       8.131  11.903   0.684  1.00  0.00     0.031 C 
ATOM     48  C   UNL     1      13.448  11.599   5.049  1.00  0.00     0.029 A 
ATOM     49  C   UNL     1      13.737  12.149   3.727  1.00  0.00     0.049 A 
ATOM     50  H   UNL     1      12.395  12.477   2.168  1.00  0.00     0.167 HD
ATOM     51  C   UNL     1       9.522  13.028  -1.040  1.00  0.00     0.034 A 
ATOM     52  C   UNL     1      14.951  12.549   3.304  1.00  0.00     0.034 A 
ATOM     53  C   UNL     1      10.748  13.609  -1.525  1.00  0.00     0.049 A 
ATOM     54  C   UNL     1      15.099  13.147   1.935  1.00  0.00     0.074 A 
ATOM     55  C   UNL     1      10.976  14.241  -2.736  1.00  0.00     0.029 A 
ATOM     56  N   UNL     1      11.953  13.614  -0.841  1.00  0.00    -0.354 N 
ATOM     57  N   UNL     1      14.174  13.371   1.034  1.00  0.00    -0.248 NA
ATOM     58  C   UNL     1      16.447  13.576   1.536  1.00  0.00     0.031 C 
ATOM     59  C   UNL     1      12.323  14.614  -2.791  1.00  0.00     0.029 A 
ATOM     60  C   UNL     1      12.931  14.225  -1.609  1.00  0.00     0.049 A 
ATOM     61  H   UNL     1      12.093  13.239   0.058  1.00  0.00     0.167 HD
ATOM     62  C   UNL     1      14.823  13.980  -0.032  1.00  0.00     0.074 A 
ATOM     63  C   UNL     1      16.217  14.110   0.342  1.00  0.00     0.031 C 
ATOM     64  C   UNL     1      14.309  14.381  -1.220  1.00  0.00     0.034 A 
BRANCH  51  65
ATOM     65  C   UNL     1       8.325  13.090  -1.948  1.00  0.00     0.023 A 
ATOM     66  C   UNL     1       7.371  14.107  -1.742  1.00  0.00     0.012 A 
ATOM     67  C   UNL     1       8.209  12.244  -3.068  1.00  0.00     0.148 A 
ATOM     68  C   UNL     1       6.315  14.279  -2.635  1.00  0.00     0.002 A 
ATOM     69  C   UNL     1       7.167  12.438  -3.969  1.00  0.00     0.091 A 
ATOM     70  F   UNL     1       9.127  11.282  -3.239  1.00  0.00    -0.205 F 
ATOM     71  C   UNL     1       6.219  13.453  -3.752  1.00  0.00     0.022 A 
BRANCH  69  72
ATOM     72  S   UNL     1       6.982  11.472  -5.472  1.00  0.00     0.127 S 
ATOM     73  O   UNL     1       5.718  10.777  -5.223  1.00  0.00    -0.237 OA
ATOM     74  O   UNL     1       6.913  12.511  -6.498  1.00  0.00    -0.237 OA
ATOM     75  O   UNL     1       8.154  10.611  -5.548  1.00  0.00    -0.744 OA
ENDBRANCH  69  72
ENDBRANCH  51  65
BRANCH  52  76
ATOM     76  C   UNL     1      16.105  12.464   4.236  1.00  0.00     0.023 A 
ATOM     77  C   UNL     1      16.567  13.636   4.864  1.00  0.00     0.012 A 
ATOM     78  C   UNL     1      16.689  11.225   4.561  1.00  0.00     0.148 A 
ATOM     79  C   UNL     1      17.601  13.576   5.798  1.00  0.00     0.002 A 
ATOM     80  C   UNL     1      17.692  11.168   5.521  1.00  0.00     0.091 A 
ATOM     81  F   UNL     1      16.227  10.127   3.947  1.00  0.00    -0.205 F 
ATOM     82  C   UNL     1      18.155  12.344   6.134  1.00  0.00     0.022 A 
BRANCH  80  83
ATOM     83  S   UNL     1      18.400   9.621   6.095  1.00  0.00     0.127 S 
ATOM     84  O   UNL     1      19.796   9.763   5.688  1.00  0.00    -0.237 OA
ATOM     85  O   UNL     1      18.166   9.703   7.536  1.00  0.00    -0.237 OA
ATOM     86  O   UNL     1      17.656   8.567   5.418  1.00  0.00    -0.744 OA
ENDBRANCH  80  83
ENDBRANCH  52  76
BRANCH  64  87
ATOM     87  C   UNL     1      15.249  14.994  -2.222  1.00  0.00     0.023 A 
ATOM     88  C   UNL     1      16.103  14.157  -2.965  1.00  0.00     0.012 A 
ATOM     89  C   UNL     1      15.219  16.375  -2.496  1.00  0.00     0.148 A 
ATOM     90  C   UNL     1      16.925  14.687  -3.959  1.00  0.00     0.002 A 
ATOM     91  C   UNL     1      16.017  16.892  -3.511  1.00  0.00     0.091 A 
ATOM     92  F   UNL     1      14.407  17.154  -1.766  1.00  0.00    -0.205 F 
ATOM     93  C   UNL     1      16.873  16.050  -4.239  1.00  0.00     0.022 A 
BRANCH  91  94
ATOM     94  S   UNL     1      15.973  18.623  -3.993  1.00  0.00     0.127 S 
ATOM     95  O   UNL     1      17.288  19.087  -3.556  1.00  0.00    -0.237 OA
ATOM     96  O   UNL     1      15.808  18.536  -5.444  1.00  0.00    -0.237 OA
ATOM     97  O   UNL     1      14.841  19.210  -3.288  1.00  0.00    -0.744 OA
ENDBRANCH  91  94
ENDBRANCH  64  87
ENDBRANCH  38  39
ENDBRANCH  31  33
ENDBRANCH  30  31
ENDBRANCH  29  30
ENDBRANCH  28  29
ENDBRANCH  27  28
ENDBRANCH  26  27
ENDBRANCH   1  26
TORSDOF 23
