REMARK SMILES CC(C)(C)[NH+]1CCN(C(=O)CCCC(=O)OCCOCCOCCOC(=O)c2ccc(-c3c4nc(c(-c5cccc(S(=O)(=O)[O-])c5F)c5ccc([nH]5)c(-c5cccc(S(=O)(=O)[O-])c5F)c5nc(c(-c6cccc(S(=O)(=O)[O-])c6F)c6ccc3[nH]6)C=C5)C=C4)cc2)CC1
REMARK SMILES IDX 20 1 19 2 18 3 17 4 16 5 14 6 15 7 13 8 12 9 11 10 9 11 5 12
REMARK SMILES IDX 6 13 92 14 7 16 91 17 8 18 10 19 2 20 1 21 3 22 4 23 21 24
REMARK SMILES IDX 22 25 23 26 24 27 25 28 26 29 27 30 28 31 29 32 90 33 30 34
REMARK SMILES IDX 89 35 31 36 32 37 33 38 83 39 34 40 88 41 82 42 84 43 35 44
REMARK SMILES IDX 87 45 81 46 80 47 36 49 68 50 48 51 67 52 49 53 52 54 66 55
REMARK SMILES IDX 85 56 50 57 51 58 65 60 86 61 53 62 37 63 38 64 46 65 39 66
REMARK SMILES IDX 41 67 47 68 40 69 42 70 43 71 44 72 45 73 69 74 70 75 78 76
REMARK SMILES IDX 71 77 73 78 79 79 72 80 74 81 75 82 76 83 77 84 54 85 55 86
REMARK SMILES IDX 63 87 56 88 58 89 64 90 57 91 59 92 60 93 61 94 62 95
REMARK H PARENT 5 15 84 48 52 59
REMARK Flexibility Score: inf
ROOT
ATOM      1  C   UNL     1       0.675  -8.704  -1.454  1.00  0.00     0.188 C 
ENDROOT
BRANCH   1   2
ATOM      2  O   UNL     1      -0.216  -8.398  -2.522  1.00  0.00    -0.376 OA
BRANCH   2   3
ATOM      3  C   UNL     1      -0.048  -7.167  -3.212  1.00  0.00     0.202 C 
BRANCH   3   4
ATOM      4  C   UNL     1       0.104  -5.897  -2.368  1.00  0.00     0.261 C 
BRANCH   4   5
ATOM      5  O   UNL     1       1.283  -5.882  -1.525  1.00  0.00    -0.463 OA
BRANCH   5   6
ATOM      6  C   UNL     1       1.098  -5.678  -0.196  1.00  0.00     0.305 C 
ATOM      7  O   UNL     1      -0.005  -5.510   0.313  1.00  0.00    -0.252 OA
BRANCH   6   8
ATOM      8  C   UNL     1       2.375  -5.588   0.647  1.00  0.00     0.123 C 
BRANCH   8   9
ATOM      9  C   UNL     1       3.824  -5.769   0.158  1.00  0.00     0.022 C 
BRANCH   9  10
ATOM     10  C   UNL     1       4.350  -5.122  -1.128  1.00  0.00     0.101 C 
BRANCH  10  11
ATOM     11  C   UNL     1       4.618  -3.615  -1.048  1.00  0.00     0.222 C 
ATOM     12  N   UNL     1       1.268  -0.952  -1.619  1.00  0.00    -0.328 N 
ATOM     13  C   UNL     1       2.647  -0.439  -1.748  1.00  0.00     0.284 C 
ATOM     14  C   UNL     1       1.228  -2.255  -2.284  1.00  0.00     0.284 C 
ATOM     15  H   UNL     1       0.652  -0.293  -2.096  1.00  0.00     0.348 HD
ATOM     16  C   UNL     1       3.756  -1.325  -1.159  1.00  0.00     0.181 C 
ATOM     17  C   UNL     1       2.306  -3.232  -1.826  1.00  0.00     0.181 C 
ATOM     18  N   UNL     1       3.622  -2.744  -1.479  1.00  0.00    -0.331 N 
ATOM     19  O   UNL     1       5.689  -3.204  -0.597  1.00  0.00    -0.275 OA
BRANCH  12  20
ATOM     20  C   UNL     1       0.580  -0.849  -0.303  1.00  0.00     0.089 C 
ATOM     21  C   UNL     1       0.797   0.556   0.298  1.00  0.00     0.078 C 
ATOM     22  C   UNL     1       0.955  -1.879   0.783  1.00  0.00     0.078 C 
ATOM     23  C   UNL     1      -0.946  -0.999  -0.542  1.00  0.00     0.078 C 
ENDBRANCH  12  20
ENDBRANCH  10  11
ENDBRANCH   9  10
ENDBRANCH   8   9
ENDBRANCH   6   8
ENDBRANCH   5   6
ENDBRANCH   4   5
ENDBRANCH   3   4
ENDBRANCH   2   3
ENDBRANCH   1   2
BRANCH   1  24
ATOM     24  C   UNL     1       2.182  -8.505  -1.702  1.00  0.00     0.188 C 
BRANCH  24  25
ATOM     25  O   UNL     1       2.512  -8.238  -3.048  1.00  0.00    -0.376 OA
BRANCH  25  26
ATOM     26  C   UNL     1       3.128  -9.283  -3.779  1.00  0.00     0.202 C 
BRANCH  26  27
ATOM     27  C   UNL     1       2.501 -10.690  -3.770  1.00  0.00     0.261 C 
BRANCH  27  28
ATOM     28  O   UNL     1       2.036 -11.202  -2.508  1.00  0.00    -0.460 OA
BRANCH  28  29
ATOM     29  C   UNL     1       2.957 -11.566  -1.586  1.00  0.00     0.338 C 
ATOM     30  O   UNL     1       4.169 -11.553  -1.732  1.00  0.00    -0.246 OA
BRANCH  29  31
ATOM     31  C   UNL     1       2.260 -11.706  -0.277  1.00  0.00     0.060 A 
ATOM     32  C   UNL     1       2.735 -10.974   0.824  1.00  0.00     0.016 A 
ATOM     33  C   UNL     1       1.120 -12.503  -0.141  1.00  0.00     0.016 A 
ATOM     34  C   UNL     1       2.110 -11.083   2.069  1.00  0.00     0.010 A 
ATOM     35  C   UNL     1       0.507 -12.629   1.113  1.00  0.00     0.010 A 
ATOM     36  C   UNL     1       1.030 -11.959   2.234  1.00  0.00    -0.014 A 
BRANCH  36  37
ATOM     37  C   UNL     1       0.648 -12.389   3.606  1.00  0.00     0.031 A 
ATOM     38  C   UNL     1       1.253 -13.669   4.127  1.00  0.00     0.074 A 
ATOM     39  C   UNL     1      -0.184 -11.677   4.387  1.00  0.00     0.049 A 
ATOM     40  N   UNL     1       1.088 -14.261   5.281  1.00  0.00    -0.248 NA
ATOM     41  C   UNL     1       2.170 -14.378   3.216  1.00  0.00     0.031 C 
ATOM     42  C   UNL     1      -0.833 -10.421   4.017  1.00  0.00     0.029 A 
ATOM     43  N   UNL     1      -0.638 -11.929   5.660  1.00  0.00    -0.354 N 
ATOM     44  C   UNL     1       1.855 -15.419   5.224  1.00  0.00     0.074 A 
ATOM     45  C   UNL     1       2.470 -15.459   3.916  1.00  0.00     0.031 C 
ATOM     46  C   UNL     1      -1.623 -10.025   5.032  1.00  0.00     0.029 A 
ATOM     47  C   UNL     1      -1.550 -11.005   6.116  1.00  0.00     0.049 A 
ATOM     48  H   UNL     1      -0.340 -12.700   6.195  1.00  0.00     0.167 HD
ATOM     49  C   UNL     1       2.051 -16.361   6.176  1.00  0.00     0.034 A 
ATOM     50  C   UNL     1      -2.250 -10.966   7.269  1.00  0.00     0.034 A 
ATOM     51  C   UNL     1       1.456 -16.323   7.482  1.00  0.00     0.049 A 
ATOM     52  C   UNL     1      -2.033 -12.040   8.308  1.00  0.00     0.074 A 
ATOM     53  C   UNL     1       1.620 -17.214   8.528  1.00  0.00     0.029 A 
ATOM     54  N   UNL     1       0.571 -15.351   7.919  1.00  0.00    -0.354 N 
ATOM     55  N   UNL     1      -1.216 -13.067   8.282  1.00  0.00    -0.248 NA
ATOM     56  C   UNL     1      -2.807 -11.926   9.554  1.00  0.00     0.031 C 
ATOM     57  C   UNL     1       0.812 -16.794   9.590  1.00  0.00     0.029 A 
ATOM     58  C   UNL     1       0.174 -15.621   9.217  1.00  0.00     0.049 A 
ATOM     59  H   UNL     1       0.269 -14.581   7.385  1.00  0.00     0.167 HD
ATOM     60  C   UNL     1      -1.346 -13.691   9.520  1.00  0.00     0.074 A 
ATOM     61  C   UNL     1      -2.304 -12.916  10.279  1.00  0.00     0.031 C 
ATOM     62  C   UNL     1      -0.736 -14.811   9.985  1.00  0.00     0.034 A 
BRANCH  49  63
ATOM     63  C   UNL     1       2.968 -17.507   5.838  1.00  0.00     0.023 A 
ATOM     64  C   UNL     1       4.356 -17.285   5.733  1.00  0.00     0.012 A 
ATOM     65  C   UNL     1       2.459 -18.807   5.656  1.00  0.00     0.148 A 
ATOM     66  C   UNL     1       5.221 -18.332   5.418  1.00  0.00     0.002 A 
ATOM     67  C   UNL     1       3.332 -19.855   5.390  1.00  0.00     0.091 A 
ATOM     68  F   UNL     1       1.134 -18.992   5.732  1.00  0.00    -0.205 F 
ATOM     69  C   UNL     1       4.711 -19.617   5.257  1.00  0.00     0.022 A 
BRANCH  67  70
ATOM     70  S   UNL     1       2.784 -21.558   5.245  1.00  0.00     0.127 S 
ATOM     71  O   UNL     1       2.981 -21.811   3.818  1.00  0.00    -0.237 OA
ATOM     72  O   UNL     1       3.721 -22.258   6.124  1.00  0.00    -0.237 OA
ATOM     73  O   UNL     1       1.399 -21.575   5.696  1.00  0.00    -0.744 OA
ENDBRANCH  67  70
ENDBRANCH  49  63
BRANCH  50  74
ATOM     74  C   UNL     1      -3.205  -9.849   7.533  1.00  0.00     0.023 A 
ATOM     75  C   UNL     1      -2.921  -8.915   8.550  1.00  0.00     0.012 A 
ATOM     76  C   UNL     1      -4.398  -9.718   6.797  1.00  0.00     0.148 A 
ATOM     77  C   UNL     1      -3.825  -7.896   8.854  1.00  0.00     0.002 A 
ATOM     78  C   UNL     1      -5.268  -8.668   7.067  1.00  0.00     0.091 A 
ATOM     79  F   UNL     1      -4.661 -10.628   5.848  1.00  0.00    -0.205 F 
ATOM     80  C   UNL     1      -4.992  -7.766   8.107  1.00  0.00     0.022 A 
BRANCH  78  81
ATOM     81  S   UNL     1      -6.737  -8.353   6.084  1.00  0.00     0.127 S 
ATOM     82  O   UNL     1      -7.804  -8.665   7.032  1.00  0.00    -0.237 OA
ATOM     83  O   UNL     1      -6.589  -6.931   5.770  1.00  0.00    -0.237 OA
ATOM     84  O   UNL     1      -6.638  -9.238   4.932  1.00  0.00    -0.744 OA
ENDBRANCH  78  81
ENDBRANCH  50  74
BRANCH  62  85
ATOM     85  C   UNL     1      -1.038 -15.243  11.398  1.00  0.00     0.023 A 
ATOM     86  C   UNL     1      -2.305 -15.768  11.724  1.00  0.00     0.012 A 
ATOM     87  C   UNL     1      -0.042 -15.183  12.394  1.00  0.00     0.148 A 
ATOM     88  C   UNL     1      -2.589 -16.182  13.025  1.00  0.00     0.002 A 
ATOM     89  C   UNL     1      -0.315 -15.647  13.675  1.00  0.00     0.091 A 
ATOM     90  F   UNL     1       1.154 -14.667  12.073  1.00  0.00    -0.205 F 
ATOM     91  C   UNL     1      -1.593 -16.131  13.997  1.00  0.00     0.022 A 
BRANCH  89  92
ATOM     92  S   UNL     1       0.940 -15.712  14.960  1.00  0.00     0.127 S 
ATOM     93  O   UNL     1       0.562 -14.580  15.804  1.00  0.00    -0.237 OA
ATOM     94  O   UNL     1       0.704 -17.026  15.561  1.00  0.00    -0.237 OA
ATOM     95  O   UNL     1       2.219 -15.586  14.274  1.00  0.00    -0.744 OA
ENDBRANCH  89  92
ENDBRANCH  62  85
ENDBRANCH  36  37
ENDBRANCH  29  31
ENDBRANCH  28  29
ENDBRANCH  27  28
ENDBRANCH  26  27
ENDBRANCH  25  26
ENDBRANCH  24  25
ENDBRANCH   1  24
TORSDOF 24
