REMARK SMILES COc1cccc(C[N@@H+]2C[C@H](C(=O)OCCOCCOCCOC(=O)c3ccc(-c4c5nc(c(-c6cccc(S(=O)(=O)[O-])c6F)c6ccc([nH]6)c(-c6cccc(S(=O)(=O)[O-])c6F)c6nc(c(-c7cccc(S(=O)(=O)[O-])c7F)c7ccc4[nH]7)C=C6)C=C5)cc3)C3(CC[NH+](C)CC3)C2)c1
REMARK SMILES IDX 18 1 17 2 16 3 15 4 14 5 12 6 13 7 11 8 9 9 10 10 96 11
REMARK SMILES IDX 89 13 90 14 95 15 91 16 94 17 92 18 93 19 8 21 7 22 3 23
REMARK SMILES IDX 4 24 97 25 5 26 6 27 2 28 1 29 19 30 20 31 21 32 22 33 23 34
REMARK SMILES IDX 24 35 25 36 26 37 27 38 88 39 28 40 87 41 29 42 30 43 31 44
REMARK SMILES IDX 81 45 32 46 86 47 80 48 82 49 33 50 85 51 79 52 78 53 34 55
REMARK SMILES IDX 66 56 46 57 65 58 47 59 50 60 64 61 83 62 48 63 49 64 63 66
REMARK SMILES IDX 84 67 51 68 35 69 36 70 44 71 37 72 39 73 45 74 38 75 40 76
REMARK SMILES IDX 41 77 42 78 43 79 67 80 68 81 76 82 69 83 71 84 77 85 70 86
REMARK SMILES IDX 72 87 73 88 74 89 75 90 52 91 53 92 61 93 54 94 56 95 62 96
REMARK SMILES IDX 55 97 57 98 58 99 59 100 60 101
REMARK H PARENT 9 12 92 20 82 54 50 65
REMARK Flexibility Score: inf
ROOT
ATOM      1  C   UNL     1      -0.118   6.223   5.111  1.00  0.00     0.188 C 
ENDROOT
BRANCH   1   2
ATOM      2  O   UNL     1      -0.624   7.499   5.451  1.00  0.00    -0.376 OA
BRANCH   2   3
ATOM      3  C   UNL     1       0.231   8.611   5.180  1.00  0.00     0.202 C 
BRANCH   3   4
ATOM      4  C   UNL     1       1.657   8.514   5.727  1.00  0.00     0.261 C 
BRANCH   4   5
ATOM      5  O   UNL     1       2.520   7.785   4.812  1.00  0.00    -0.463 OA
BRANCH   5   6
ATOM      6  C   UNL     1       3.340   6.868   5.349  1.00  0.00     0.315 C 
ATOM      7  O   UNL     1       3.364   6.628   6.556  1.00  0.00    -0.252 OA
BRANCH   6   8
ATOM      8  C   UNL     1       4.253   6.105   4.391  1.00  0.00     0.166 C 
ATOM      9  N   UNL     1       4.690   3.870   3.729  1.00  0.00    -0.330 N 
ATOM     10  C   UNL     1       3.976   4.644   4.720  1.00  0.00     0.278 C 
ATOM     11  C   UNL     1       4.793   4.646   2.502  1.00  0.00     0.271 C 
ATOM     12  H   UNL     1       5.645   3.707   4.049  1.00  0.00     0.348 HD
ATOM     13  C   UNL     1       4.376   6.125   2.829  1.00  0.00     0.049 C 
ATOM     14  C   UNL     1       5.489   7.106   2.391  1.00  0.00     0.075 C 
ATOM     15  C   UNL     1       3.183   6.436   1.902  1.00  0.00     0.075 C 
ATOM     16  C   UNL     1       5.011   8.561   2.450  1.00  0.00     0.262 C 
ATOM     17  C   UNL     1       2.746   7.895   1.830  1.00  0.00     0.262 C 
ATOM     18  N   UNL     1       3.833   8.857   1.629  1.00  0.00    -0.337 N 
ATOM     19  C   UNL     1       4.137   9.016   0.213  1.00  0.00     0.332 C 
ATOM     20  H   UNL     1       3.507   9.764   1.961  1.00  0.00     0.347 HD
BRANCH   9  21
ATOM     21  C   UNL     1       4.215   2.489   3.594  1.00  0.00     0.299 C 
BRANCH  21  22
ATOM     22  C   UNL     1       2.835   2.296   2.981  1.00  0.00     0.010 A 
ATOM     23  C   UNL     1       1.231   1.142   0.569  1.00  0.00     0.119 A 
ATOM     24  C   UNL     1      -0.307   1.499   1.410  1.00  0.00     0.046 A 
ATOM     25  C   UNL     1       2.746   1.546   1.360  1.00  0.00     0.056 A 
ATOM     26  C   UNL     1      -0.215   2.370   3.240  1.00  0.00     0.004 A 
ATOM     27  C   UNL     1       1.404   2.704   3.937  1.00  0.00     0.010 A 
BRANCH  23  28
ATOM     28  O   UNL     1       1.148   0.658  -0.698  1.00  0.00    -0.497 OA
ATOM     29  C   UNL     1       1.737  -0.632  -0.763  1.00  0.00     0.278 C 
ENDBRANCH  23  28
ENDBRANCH  21  22
ENDBRANCH   9  21
ENDBRANCH   6   8
ENDBRANCH   5   6
ENDBRANCH   4   5
ENDBRANCH   3   4
ENDBRANCH   2   3
ENDBRANCH   1   2
BRANCH   1  30
ATOM     30  C   UNL     1       0.045   5.929   3.624  1.00  0.00     0.188 C 
BRANCH  30  31
ATOM     31  O   UNL     1       0.053   7.011   2.700  1.00  0.00    -0.376 OA
BRANCH  31  32
ATOM     32  C   UNL     1      -1.234   7.509   2.331  1.00  0.00     0.202 C 
BRANCH  32  33
ATOM     33  C   UNL     1      -1.808   6.877   1.056  1.00  0.00     0.261 C 
BRANCH  33  34
ATOM     34  O   UNL     1      -1.863   5.457   1.181  1.00  0.00    -0.460 OA
BRANCH  34  35
ATOM     35  C   UNL     1      -0.730   4.837   0.777  1.00  0.00     0.338 C 
ATOM     36  O   UNL     1       0.165   5.276   0.078  1.00  0.00    -0.246 OA
BRANCH  35  37
ATOM     37  C   UNL     1      -0.656   3.583   1.515  1.00  0.00     0.060 A 
ATOM     38  C   UNL     1       0.957   2.851   1.826  1.00  0.00     0.016 A 
ATOM     39  C   UNL     1      -2.100   2.713   2.040  1.00  0.00     0.016 A 
ATOM     40  C   UNL     1       1.005   1.021   2.694  1.00  0.00     0.010 A 
ATOM     41  C   UNL     1      -2.046   1.116   2.816  1.00  0.00     0.010 A 
ATOM     42  C   UNL     1      -0.549   0.257   3.147  1.00  0.00    -0.014 A 
BRANCH  42  43
ATOM     43  C   UNL     1      -0.482  -1.110   3.631  1.00  0.00     0.031 A 
ATOM     44  C   UNL     1      -0.688  -2.203   2.645  1.00  0.00     0.074 A 
ATOM     45  C   UNL     1      -0.048  -1.317   4.882  1.00  0.00     0.049 A 
ATOM     46  N   UNL     1      -0.443  -3.475   2.773  1.00  0.00    -0.248 NA
ATOM     47  C   UNL     1      -1.166  -1.816   1.308  1.00  0.00     0.031 C 
ATOM     48  C   UNL     1       0.260  -0.271   5.859  1.00  0.00     0.029 A 
ATOM     49  N   UNL     1       0.202  -2.482   5.548  1.00  0.00    -0.354 N 
ATOM     50  C   UNL     1      -0.701  -4.026   1.527  1.00  0.00     0.074 A 
ATOM     51  C   UNL     1      -1.100  -2.958   0.646  1.00  0.00     0.031 C 
ATOM     52  C   UNL     1       0.619  -0.845   7.018  1.00  0.00     0.029 A 
ATOM     53  C   UNL     1       0.510  -2.290   6.872  1.00  0.00     0.049 A 
ATOM     54  H   UNL     1       0.166  -3.369   5.123  1.00  0.00     0.167 HD
ATOM     55  C   UNL     1      -0.646  -5.324   1.170  1.00  0.00     0.034 A 
ATOM     56  C   UNL     1       0.613  -3.196   7.859  1.00  0.00     0.034 A 
ATOM     57  C   UNL     1      -0.424  -6.370   2.123  1.00  0.00     0.049 A 
ATOM     58  C   UNL     1       0.455  -4.641   7.481  1.00  0.00     0.074 A 
ATOM     59  C   UNL     1      -0.458  -7.735   1.929  1.00  0.00     0.029 A 
ATOM     60  N   UNL     1      -0.207  -6.153   3.478  1.00  0.00    -0.354 N 
ATOM     61  N   UNL     1       0.269  -5.162   6.290  1.00  0.00    -0.248 NA
ATOM     62  C   UNL     1       0.539  -5.623   8.565  1.00  0.00     0.031 C 
ATOM     63  C   UNL     1      -0.344  -8.343   3.183  1.00  0.00     0.029 A 
ATOM     64  C   UNL     1      -0.151  -7.359   4.145  1.00  0.00     0.049 A 
ATOM     65  H   UNL     1      -0.108  -5.269   3.901  1.00  0.00     0.167 HD
ATOM     66  C   UNL     1       0.246  -6.536   6.472  1.00  0.00     0.074 A 
ATOM     67  C   UNL     1       0.454  -6.762   7.891  1.00  0.00     0.031 C 
ATOM     68  C   UNL     1       0.071  -7.525   5.560  1.00  0.00     0.034 A 
BRANCH  55  69
ATOM     69  C   UNL     1      -0.952  -5.658  -0.261  1.00  0.00     0.023 A 
ATOM     70  C   UNL     1      -0.020  -5.359  -1.276  1.00  0.00     0.012 A 
ATOM     71  C   UNL     1      -2.179  -6.257  -0.599  1.00  0.00     0.148 A 
ATOM     72  C   UNL     1      -0.313  -5.644  -2.610  1.00  0.00     0.002 A 
ATOM     73  C   UNL     1      -2.446  -6.576  -1.922  1.00  0.00     0.091 A 
ATOM     74  F   UNL     1      -3.067  -6.482   0.379  1.00  0.00    -0.205 F 
ATOM     75  C   UNL     1      -1.520  -6.262  -2.931  1.00  0.00     0.022 A 
BRANCH  73  76
ATOM     76  S   UNL     1      -3.949  -7.415  -2.427  1.00  0.00     0.127 S 
ATOM     77  O   UNL     1      -4.575  -6.409  -3.284  1.00  0.00    -0.237 OA
ATOM     78  O   UNL     1      -3.420  -8.580  -3.136  1.00  0.00    -0.237 OA
ATOM     79  O   UNL     1      -4.675  -7.719  -1.202  1.00  0.00    -0.744 OA
ENDBRANCH  73  76
ENDBRANCH  55  69
BRANCH  56  80
ATOM     80  C   UNL     1       0.799  -2.752   9.267  1.00  0.00     0.023 A 
ATOM     81  C   UNL     1       1.976  -3.068   9.968  1.00  0.00     0.012 A 
ATOM     82  C   UNL     1      -0.196  -1.984   9.906  1.00  0.00     0.148 A 
ATOM     83  C   UNL     1       2.147  -2.648  11.290  1.00  0.00     0.002 A 
ATOM     84  C   UNL     1       0.004  -1.521  11.199  1.00  0.00     0.091 A 
ATOM     85  F   UNL     1      -1.319  -1.708   9.227  1.00  0.00    -0.205 F 
ATOM     86  C   UNL     1       1.168  -1.866  11.901  1.00  0.00     0.022 A 
BRANCH  84  87
ATOM     87  S   UNL     1      -1.151  -0.411  12.012  1.00  0.00     0.127 S 
ATOM     88  O   UNL     1      -1.681  -1.260  13.076  1.00  0.00    -0.237 OA
ATOM     89  O   UNL     1      -0.266   0.664  12.463  1.00  0.00    -0.237 OA
ATOM     90  O   UNL     1      -2.107  -0.013  10.988  1.00  0.00    -0.744 OA
ENDBRANCH  84  87
ENDBRANCH  56  80
BRANCH  68  91
ATOM     91  C   UNL     1       0.152  -8.935   6.069  1.00  0.00     0.023 A 
ATOM     92  C   UNL     1      -0.871  -9.462   6.880  1.00  0.00     0.012 A 
ATOM     93  C   UNL     1       1.227  -9.754   5.676  1.00  0.00     0.148 A 
ATOM     94  C   UNL     1      -0.798 -10.777   7.334  1.00  0.00     0.002 A 
ATOM     95  C   UNL     1       1.258 -11.080   6.075  1.00  0.00     0.091 A 
ATOM     96  F   UNL     1       2.192  -9.221   4.913  1.00  0.00    -0.205 F 
ATOM     97  C   UNL     1       0.258 -11.588   6.921  1.00  0.00     0.022 A 
BRANCH  95  98
ATOM     98  S   UNL     1       2.514 -12.222   5.499  1.00  0.00     0.127 S 
ATOM     99  O   UNL     1       3.265 -12.480   6.727  1.00  0.00    -0.237 OA
ATOM    100  O   UNL     1       1.709 -13.349   5.026  1.00  0.00    -0.237 OA
ATOM    101  O   UNL     1       3.251 -11.523   4.455  1.00  0.00    -0.744 OA
ENDBRANCH  95  98
ENDBRANCH  68  91
ENDBRANCH  42  43
ENDBRANCH  35  37
ENDBRANCH  34  35
ENDBRANCH  33  34
ENDBRANCH  32  33
ENDBRANCH  31  32
ENDBRANCH  30  31
ENDBRANCH   1  30
TORSDOF 23
