REMARK SMILES CCn1nc(C)c(CN(C)C(=O)c2cnn(C)c2C(=O)OCCOCCOCCOC(=O)c2ccc(-c3c4nc(c(-c5cccc(S(=O)(=O)[O-])c5F)c5ccc([nH]5)c(-c5cccc(S(=O)(=O)[O-])c5F)c5nc(c(-c6cccc(S(=O)(=O)[O-])c6F)c6ccc3[nH]6)C=C5)C=C4)cc2)c1C
REMARK SMILES IDX 25 1 24 2 23 3 22 4 21 5 19 6 20 7 18 8 13 9 14 10 15 11
REMARK SMILES IDX 16 12 17 13 11 14 12 15 9 16 10 17 8 18 7 19 3 20 4 21 96 22
REMARK SMILES IDX 5 23 97 24 6 25 2 26 1 27 26 28 27 29 28 30 29 31 30 32
REMARK SMILES IDX 31 33 32 34 33 35 34 36 95 37 35 38 94 39 36 40 37 41 38 42
REMARK SMILES IDX 88 43 39 44 93 45 87 46 89 47 40 48 92 49 86 50 85 51 41 53
REMARK SMILES IDX 73 54 53 55 72 56 54 57 57 58 71 59 90 60 55 61 56 62 70 64
REMARK SMILES IDX 91 65 58 66 42 67 43 68 51 69 44 70 46 71 52 72 45 73 47 74
REMARK SMILES IDX 48 75 49 76 50 77 74 78 75 79 83 80 76 81 78 82 84 83 77 84
REMARK SMILES IDX 79 85 80 86 81 87 82 88 59 89 60 90 68 91 61 92 63 93 69 94
REMARK SMILES IDX 62 95 64 96 65 97 66 98 67 99
REMARK H PARENT 89 52 57 63
REMARK Flexibility Score: inf
ROOT
ATOM      1  C   UNL     1       6.986  -4.452   0.708  1.00  0.00     0.188 C 
ENDROOT
BRANCH   1   2
ATOM      2  O   UNL     1       6.799  -3.097   0.365  1.00  0.00    -0.376 OA
BRANCH   2   3
ATOM      3  C   UNL     1       6.362  -2.803  -0.953  1.00  0.00     0.202 C 
BRANCH   3   4
ATOM      4  C   UNL     1       5.155  -3.534  -1.584  1.00  0.00     0.261 C 
BRANCH   4   5
ATOM      5  O   UNL     1       4.894  -4.871  -1.141  1.00  0.00    -0.459 OA
BRANCH   5   6
ATOM      6  C   UNL     1       5.419  -5.899  -1.861  1.00  0.00     0.357 C 
ATOM      7  O   UNL     1       6.123  -5.771  -2.839  1.00  0.00    -0.244 OA
BRANCH   6   8
ATOM      8  C   UNL     1       5.165  -7.146  -1.170  1.00  0.00     0.159 A 
ATOM      9  C   UNL     1       4.022  -7.627  -0.528  1.00  0.00     0.092 A 
ATOM     10  C   UNL     1       4.386  -8.924  -0.106  1.00  0.00     0.150 A 
ATOM     11  N   UNL     1       5.664  -9.211  -0.345  1.00  0.00    -0.180 NA
ATOM     12  N   UNL     1       6.131  -8.100  -0.948  1.00  0.00    -0.261 N 
ATOM     13  C   UNL     1       7.561  -7.994  -1.138  1.00  0.00     0.174 C 
BRANCH   9  14
ATOM     14  C   UNL     1       2.729  -6.954  -0.442  1.00  0.00     0.257 C 
ATOM     15  O   UNL     1       2.296  -6.375  -1.437  1.00  0.00    -0.269 OA
BRANCH  14  16
ATOM     16  N   UNL     1       2.000  -7.033   0.754  1.00  0.00    -0.337 N 
ATOM     17  C   UNL     1       2.439  -7.736   1.952  1.00  0.00     0.147 C 
BRANCH  16  18
ATOM     18  C   UNL     1       0.673  -6.425   0.799  1.00  0.00     0.159 C 
BRANCH  18  19
ATOM     19  C   UNL     1       0.741  -4.934   0.903  1.00  0.00     0.015 A 
ATOM     20  N   UNL     1       0.640  -2.776   0.448  1.00  0.00    -0.270 N 
ATOM     21  N   UNL     1       1.039  -2.820   1.729  1.00  0.00    -0.178 NA
ATOM     22  C   UNL     1       0.329  -4.015  -0.054  1.00  0.00     0.041 A 
ATOM     23  C   UNL     1       1.151  -4.127   2.003  1.00  0.00     0.065 A 
ATOM     24  C   UNL     1      -0.319  -4.239  -1.372  1.00  0.00     0.067 C 
ATOM     25  C   UNL     1       1.630  -4.549   3.345  1.00  0.00     0.069 C 
BRANCH  20  26
ATOM     26  C   UNL     1       0.489  -1.503  -0.234  1.00  0.00     0.141 C 
ATOM     27  C   UNL     1       1.143  -0.299   0.426  1.00  0.00     0.029 C 
ENDBRANCH  20  26
ENDBRANCH  18  19
ENDBRANCH  16  18
ENDBRANCH  14  16
ENDBRANCH   9  14
ENDBRANCH   6   8
ENDBRANCH   5   6
ENDBRANCH   4   5
ENDBRANCH   3   4
ENDBRANCH   2   3
ENDBRANCH   1   2
BRANCH   1  28
ATOM     28  C   UNL     1       5.857  -5.037   1.578  1.00  0.00     0.188 C 
BRANCH  28  29
ATOM     29  O   UNL     1       4.641  -4.332   1.795  1.00  0.00    -0.376 OA
BRANCH  29  30
ATOM     30  C   UNL     1       4.618  -2.930   2.049  1.00  0.00     0.202 C 
BRANCH  30  31
ATOM     31  C   UNL     1       5.378  -2.358   3.235  1.00  0.00     0.261 C 
BRANCH  31  32
ATOM     32  O   UNL     1       6.705  -2.830   3.311  1.00  0.00    -0.460 OA
BRANCH  32  33
ATOM     33  C   UNL     1       6.868  -3.861   4.162  1.00  0.00     0.338 C 
ATOM     34  O   UNL     1       6.004  -4.505   4.734  1.00  0.00    -0.246 OA
BRANCH  33  35
ATOM     35  C   UNL     1       8.302  -4.064   4.357  1.00  0.00     0.060 A 
ATOM     36  C   UNL     1       8.670  -5.177   5.115  1.00  0.00     0.016 A 
ATOM     37  C   UNL     1       9.174  -2.999   4.093  1.00  0.00     0.016 A 
ATOM     38  C   UNL     1       9.828  -5.095   5.844  1.00  0.00     0.010 A 
ATOM     39  C   UNL     1      10.313  -2.905   4.843  1.00  0.00     0.010 A 
ATOM     40  C   UNL     1      10.560  -3.908   5.777  1.00  0.00    -0.014 A 
BRANCH  40  41
ATOM     41  C   UNL     1      11.602  -3.710   6.751  1.00  0.00     0.031 A 
ATOM     42  C   UNL     1      12.869  -4.366   6.393  1.00  0.00     0.074 A 
ATOM     43  C   UNL     1      11.408  -2.896   7.805  1.00  0.00     0.049 A 
ATOM     44  N   UNL     1      13.458  -5.333   7.012  1.00  0.00    -0.248 NA
ATOM     45  C   UNL     1      13.466  -4.021   5.094  1.00  0.00     0.031 C 
ATOM     46  C   UNL     1      10.280  -1.982   8.025  1.00  0.00     0.029 A 
ATOM     47  N   UNL     1      12.268  -2.582   8.809  1.00  0.00    -0.354 N 
ATOM     48  C   UNL     1      14.637  -5.535   6.306  1.00  0.00     0.074 A 
ATOM     49  C   UNL     1      14.476  -4.886   5.034  1.00  0.00     0.031 C 
ATOM     50  C   UNL     1      10.652  -1.042   8.921  1.00  0.00     0.029 A 
ATOM     51  C   UNL     1      11.984  -1.358   9.405  1.00  0.00     0.049 A 
ATOM     52  H   UNL     1      13.014  -3.160   9.087  1.00  0.00     0.167 HD
ATOM     53  C   UNL     1      15.767  -5.946   6.937  1.00  0.00     0.034 A 
ATOM     54  C   UNL     1      12.847  -0.609  10.133  1.00  0.00     0.034 A 
ATOM     55  C   UNL     1      15.483  -6.517   8.228  1.00  0.00     0.049 A 
ATOM     56  C   UNL     1      13.958  -1.492  10.560  1.00  0.00     0.074 A 
ATOM     57  C   UNL     1      14.690  -7.551   8.684  1.00  0.00     0.029 A 
ATOM     58  N   UNL     1      15.790  -5.754   9.328  1.00  0.00    -0.354 N 
ATOM     59  N   UNL     1      13.827  -2.469  11.413  1.00  0.00    -0.248 NA
ATOM     60  C   UNL     1      15.151  -1.549   9.728  1.00  0.00     0.031 C 
ATOM     61  C   UNL     1      14.204  -7.115   9.950  1.00  0.00     0.029 A 
ATOM     62  C   UNL     1      14.754  -5.859  10.215  1.00  0.00     0.049 A 
ATOM     63  H   UNL     1      16.611  -5.225   9.455  1.00  0.00     0.167 HD
ATOM     64  C   UNL     1      14.651  -3.474  10.921  1.00  0.00     0.074 A 
ATOM     65  C   UNL     1      15.534  -2.805   9.970  1.00  0.00     0.031 C 
ATOM     66  C   UNL     1      14.339  -4.793  11.102  1.00  0.00     0.034 A 
BRANCH  53  67
ATOM     67  C   UNL     1      17.149  -5.475   6.560  1.00  0.00     0.023 A 
ATOM     68  C   UNL     1      18.239  -6.135   7.164  1.00  0.00     0.012 A 
ATOM     69  C   UNL     1      17.429  -4.270   5.872  1.00  0.00     0.148 A 
ATOM     70  C   UNL     1      19.530  -5.599   7.125  1.00  0.00     0.002 A 
ATOM     71  C   UNL     1      18.727  -3.794   5.753  1.00  0.00     0.091 A 
ATOM     72  F   UNL     1      16.434  -3.485   5.448  1.00  0.00    -0.205 F 
ATOM     73  C   UNL     1      19.778  -4.436   6.407  1.00  0.00     0.022 A 
BRANCH  71  74
ATOM     74  S   UNL     1      19.091  -2.335   4.770  1.00  0.00     0.127 S 
ATOM     75  O   UNL     1      19.216  -1.310   5.802  1.00  0.00    -0.237 OA
ATOM     76  O   UNL     1      20.344  -2.715   4.117  1.00  0.00    -0.237 OA
ATOM     77  O   UNL     1      17.964  -2.200   3.855  1.00  0.00    -0.744 OA
ENDBRANCH  71  74
ENDBRANCH  53  67
BRANCH  54  78
ATOM     78  C   UNL     1      12.931   0.867  10.238  1.00  0.00     0.023 A 
ATOM     79  C   UNL     1      13.632   1.441  11.315  1.00  0.00     0.012 A 
ATOM     80  C   UNL     1      12.553   1.707   9.165  1.00  0.00     0.148 A 
ATOM     81  C   UNL     1      13.972   2.800  11.312  1.00  0.00     0.002 A 
ATOM     82  C   UNL     1      12.874   3.061   9.176  1.00  0.00     0.091 A 
ATOM     83  F   UNL     1      11.970   1.167   8.088  1.00  0.00    -0.205 F 
ATOM     84  C   UNL     1      13.596   3.609  10.242  1.00  0.00     0.022 A 
BRANCH  82  85
ATOM     85  S   UNL     1      12.415   4.155   7.825  1.00  0.00     0.127 S 
ATOM     86  O   UNL     1      11.948   5.345   8.539  1.00  0.00    -0.237 OA
ATOM     87  O   UNL     1      13.684   4.321   7.124  1.00  0.00    -0.237 OA
ATOM     88  O   UNL     1      11.367   3.455   7.091  1.00  0.00    -0.744 OA
ENDBRANCH  82  85
ENDBRANCH  54  78
BRANCH  66  89
ATOM     89  C   UNL     1      13.266  -5.140  12.104  1.00  0.00     0.023 A 
ATOM     90  C   UNL     1      11.936  -4.692  11.967  1.00  0.00     0.012 A 
ATOM     91  C   UNL     1      13.565  -6.075  13.111  1.00  0.00     0.148 A 
ATOM     92  C   UNL     1      10.935  -5.140  12.833  1.00  0.00     0.002 A 
ATOM     93  C   UNL     1      12.557  -6.556  13.938  1.00  0.00     0.091 A 
ATOM     94  F   UNL     1      14.833  -6.499  13.230  1.00  0.00    -0.205 F 
ATOM     95  C   UNL     1      11.243  -6.082  13.811  1.00  0.00     0.022 A 
BRANCH  93  96
ATOM     96  S   UNL     1      12.874  -7.869  15.121  1.00  0.00     0.127 S 
ATOM     97  O   UNL     1      13.044  -7.126  16.367  1.00  0.00    -0.237 OA
ATOM     98  O   UNL     1      11.649  -8.668  15.048  1.00  0.00    -0.237 OA
ATOM     99  O   UNL     1      14.060  -8.562  14.629  1.00  0.00    -0.744 OA
ENDBRANCH  93  96
ENDBRANCH  66  89
ENDBRANCH  40  41
ENDBRANCH  33  35
ENDBRANCH  32  33
ENDBRANCH  31  32
ENDBRANCH  30  31
ENDBRANCH  29  30
ENDBRANCH  28  29
ENDBRANCH   1  28
TORSDOF 25
