REMARK SMILES Cc1ccc(-c2nn(-c3ccccc3)cc2[C@@H]2[NH2+][C@H](C(=O)OCCOCCOCCOC(=O)c3ccc(-c4c5nc(c(-c6cccc(S(=O)(=O)[O-])c6F)c6ccc([nH]6)c(-c6cccc(S(=O)(=O)[O-])c6F)c6nc(c(-c7cccc(S(=O)(=O)[O-])c7F)c7ccc4[nH]7)C=C6)C=C5)cc3)CS2)cc1
REMARK SMILES IDX 27 1 26 2 25 3 24 4 23 5 22 6 20 7 21 8 19 9 17 10 18 11
REMARK SMILES IDX 98 12 97 15 16 16 6 17 7 18 8 19 15 20 5 21 1 22 2 23 3 24
REMARK SMILES IDX 100 25 4 26 99 27 9 28 10 29 14 30 11 31 13 32 12 33 28 34
REMARK SMILES IDX 29 35 30 36 31 37 32 38 33 39 34 40 35 41 96 42 36 43 95 44
REMARK SMILES IDX 37 45 38 46 39 47 89 48 40 49 94 50 88 51 90 52 41 53 93 54
REMARK SMILES IDX 87 55 86 56 42 58 74 59 54 60 73 61 55 62 58 63 72 64 91 65
REMARK SMILES IDX 56 66 57 67 71 69 92 70 59 71 43 72 44 73 52 74 45 75 47 76
REMARK SMILES IDX 53 77 46 78 48 79 49 80 50 81 51 82 75 83 76 84 84 85 77 86
REMARK SMILES IDX 79 87 85 88 78 89 80 90 81 91 82 92 83 93 60 94 61 95 69 96
REMARK SMILES IDX 62 97 64 98 70 99 63 100 65 101 66 102 67 103 68 104
REMARK H PARENT 18 13 18 14 90 57 58 68
REMARK Flexibility Score: inf
ROOT
ATOM      1  C   UNL     1      -3.377  -3.231  -3.576  1.00  0.00     0.188 C 
ENDROOT
BRANCH   1   2
ATOM      2  C   UNL     1      -4.353  -2.831  -2.469  1.00  0.00     0.188 C 
BRANCH   2   3
ATOM      3  O   UNL     1      -5.313  -1.823  -2.738  1.00  0.00    -0.376 OA
BRANCH   3   4
ATOM      4  C   UNL     1      -6.152  -1.609  -1.554  1.00  0.00     0.202 C 
BRANCH   4   5
ATOM      5  C   UNL     1      -5.518  -0.702  -0.430  1.00  0.00     0.261 C 
BRANCH   5   6
ATOM      6  O   UNL     1      -4.592  -0.919   0.753  1.00  0.00    -0.459 OA
BRANCH   6   7
ATOM      7  C   UNL     1      -4.563  -1.419   2.019  1.00  0.00     0.365 C 
ATOM      8  O   UNL     1      -5.379  -2.142   2.580  1.00  0.00    -0.245 OA
BRANCH   7   9
ATOM      9  C   UNL     1      -3.341  -1.113   2.843  1.00  0.00     0.304 C 
ATOM     10  C   UNL     1      -2.541   0.977   2.015  1.00  0.00     0.278 C 
ATOM     11  N   UNL     1      -2.246  -0.469   2.109  1.00  0.00    -0.319 N 
ATOM     12  S   UNL     1      -3.596   1.423   3.413  1.00  0.00    -0.087 SA
ATOM     13  H   UNL     1      -1.367  -0.611   2.606  1.00  0.00     0.348 HD
ATOM     14  H   UNL     1      -2.162  -0.873   1.176  1.00  0.00     0.348 HD
ATOM     15  C   UNL     1      -3.726  -0.263   4.045  1.00  0.00     0.153 C 
BRANCH  10  16
ATOM     16  C   UNL     1      -3.032   1.317   0.633  1.00  0.00     0.067 A 
ATOM     17  C   UNL     1      -2.358   0.988  -0.582  1.00  0.00     0.103 A 
ATOM     18  N   UNL     1      -3.031   1.347  -1.681  1.00  0.00    -0.167 NA
ATOM     19  N   UNL     1      -4.180   1.918  -1.208  1.00  0.00    -0.240 N 
ATOM     20  C   UNL     1      -4.135   2.023   0.179  1.00  0.00     0.126 A 
BRANCH  17  21
ATOM     21  C   UNL     1      -0.980   0.549  -0.637  1.00  0.00     0.003 A 
ATOM     22  C   UNL     1       3.155  -0.302   0.078  1.00  0.00     0.044 C 
ATOM     23  C   UNL     1       1.712  -0.023  -0.203  1.00  0.00    -0.051 A 
ATOM     24  C   UNL     1       0.778  -1.067  -0.309  1.00  0.00     0.004 A 
ATOM     25  C   UNL     1       1.291   1.302  -0.348  1.00  0.00     0.004 A 
ATOM     26  C   UNL     1      -0.575  -0.784  -0.525  1.00  0.00     0.011 A 
ATOM     27  C   UNL     1      -0.044   1.582  -0.571  1.00  0.00     0.011 A 
ENDBRANCH  17  21
BRANCH  19  28
ATOM     28  C   UNL     1      -5.336   2.048  -2.058  1.00  0.00     0.065 A 
ATOM     29  C   UNL     1      -5.391   1.378  -3.293  1.00  0.00     0.028 A 
ATOM     30  C   UNL     1      -6.494   2.670  -1.593  1.00  0.00     0.028 A 
ATOM     31  C   UNL     1      -6.596   1.296  -4.007  1.00  0.00     0.002 A 
ATOM     32  C   UNL     1      -7.694   2.599  -2.310  1.00  0.00     0.002 A 
ATOM     33  C   UNL     1      -7.749   1.903  -3.513  1.00  0.00     0.000 A 
ENDBRANCH  19  28
ENDBRANCH  10  16
ENDBRANCH   7   9
ENDBRANCH   6   7
ENDBRANCH   5   6
ENDBRANCH   4   5
ENDBRANCH   3   4
ENDBRANCH   2   3
ENDBRANCH   1   2
BRANCH   1  34
ATOM     34  O   UNL     1      -3.824  -4.067  -4.648  1.00  0.00    -0.376 OA
BRANCH  34  35
ATOM     35  C   UNL     1      -4.877  -4.993  -4.393  1.00  0.00     0.202 C 
BRANCH  35  36
ATOM     36  C   UNL     1      -4.555  -6.239  -3.531  1.00  0.00     0.261 C 
BRANCH  36  37
ATOM     37  O   UNL     1      -3.999  -5.893  -2.253  1.00  0.00    -0.460 OA
BRANCH  37  38
ATOM     38  C   UNL     1      -4.215  -6.794  -1.229  1.00  0.00     0.338 C 
ATOM     39  O   UNL     1      -4.338  -7.976  -1.347  1.00  0.00    -0.246 OA
BRANCH  38  40
ATOM     40  C   UNL     1      -4.601  -5.955  -0.042  1.00  0.00     0.060 A 
ATOM     41  C   UNL     1      -5.742  -6.232   0.691  1.00  0.00     0.016 A 
ATOM     42  C   UNL     1      -4.107  -4.693   0.066  1.00  0.00     0.016 A 
ATOM     43  C   UNL     1      -6.528  -5.177   1.258  1.00  0.00     0.010 A 
ATOM     44  C   UNL     1      -5.019  -3.692   0.450  1.00  0.00     0.010 A 
ATOM     45  C   UNL     1      -6.317  -3.829   0.989  1.00  0.00    -0.014 A 
BRANCH  45  46
ATOM     46  C   UNL     1      -7.540  -2.745   0.947  1.00  0.00     0.031 A 
ATOM     47  C   UNL     1      -7.776  -1.198   1.404  1.00  0.00     0.074 A 
ATOM     48  C   UNL     1      -8.543  -3.197   0.144  1.00  0.00     0.049 A 
ATOM     49  N   UNL     1      -8.546  -0.349   0.740  1.00  0.00    -0.248 NA
ATOM     50  C   UNL     1      -7.227  -0.452   2.566  1.00  0.00     0.031 C 
ATOM     51  C   UNL     1      -9.689  -2.509  -0.452  1.00  0.00     0.029 A 
ATOM     52  N   UNL     1      -8.828  -4.543  -0.131  1.00  0.00    -0.354 N 
ATOM     53  C   UNL     1      -8.472   0.935   1.286  1.00  0.00     0.074 A 
ATOM     54  C   UNL     1      -7.523   0.839   2.354  1.00  0.00     0.031 C 
ATOM     55  C   UNL     1     -10.670  -3.405  -0.643  1.00  0.00     0.029 A 
ATOM     56  C   UNL     1     -10.222  -4.646  -0.043  1.00  0.00     0.049 A 
ATOM     57  H   UNL     1      -8.186  -5.260  -0.340  1.00  0.00     0.167 HD
ATOM     58  C   UNL     1      -9.420   1.917   1.148  1.00  0.00     0.034 A 
ATOM     59  C   UNL     1     -10.768  -5.237   1.063  1.00  0.00     0.034 A 
ATOM     60  C   UNL     1     -10.732   1.308   1.054  1.00  0.00     0.049 A 
ATOM     61  C   UNL     1     -11.651  -4.314   1.892  1.00  0.00     0.074 A 
ATOM     62  C   UNL     1     -11.551   0.861   0.039  1.00  0.00     0.029 A 
ATOM     63  N   UNL     1     -11.255   0.798   2.235  1.00  0.00    -0.354 N 
ATOM     64  N   UNL     1     -11.888  -3.047   1.659  1.00  0.00    -0.248 NA
ATOM     65  C   UNL     1     -12.320  -4.786   3.101  1.00  0.00     0.031 C 
ATOM     66  C   UNL     1     -12.390  -0.150   0.607  1.00  0.00     0.029 A 
ATOM     67  C   UNL     1     -12.123  -0.247   1.967  1.00  0.00     0.049 A 
ATOM     68  H   UNL     1     -11.040   1.133   3.136  1.00  0.00     0.167 HD
ATOM     69  C   UNL     1     -12.488  -2.499   2.771  1.00  0.00     0.074 A 
ATOM     70  C   UNL     1     -12.858  -3.653   3.571  1.00  0.00     0.031 C 
ATOM     71  C   UNL     1     -12.522  -1.154   3.047  1.00  0.00     0.034 A 
BRANCH  58  72
ATOM     72  C   UNL     1      -9.180   3.440   1.170  1.00  0.00     0.023 A 
ATOM     73  C   UNL     1     -10.253   4.310   0.850  1.00  0.00     0.012 A 
ATOM     74  C   UNL     1      -7.909   4.062   1.268  1.00  0.00     0.148 A 
ATOM     75  C   UNL     1     -10.063   5.681   0.575  1.00  0.00     0.002 A 
ATOM     76  C   UNL     1      -7.712   5.420   0.958  1.00  0.00     0.091 A 
ATOM     77  F   UNL     1      -6.852   3.317   1.599  1.00  0.00    -0.205 F 
ATOM     78  C   UNL     1      -8.790   6.232   0.602  1.00  0.00     0.022 A 
BRANCH  76  79
ATOM     79  S   UNL     1      -6.070   6.174   0.845  1.00  0.00     0.127 S 
ATOM     80  O   UNL     1      -6.049   6.661  -0.535  1.00  0.00    -0.237 OA
ATOM     81  O   UNL     1      -6.131   7.223   1.860  1.00  0.00    -0.237 OA
ATOM     82  O   UNL     1      -5.120   5.103   1.115  1.00  0.00    -0.744 OA
ENDBRANCH  76  79
ENDBRANCH  58  72
BRANCH  59  83
ATOM     83  C   UNL     1      -9.979  -6.413   1.602  1.00  0.00     0.023 A 
ATOM     84  C   UNL     1      -9.618  -7.426   0.671  1.00  0.00     0.012 A 
ATOM     85  C   UNL     1      -9.354  -6.441   2.869  1.00  0.00     0.148 A 
ATOM     86  C   UNL     1      -8.637  -8.380   0.956  1.00  0.00     0.002 A 
ATOM     87  C   UNL     1      -8.353  -7.389   3.142  1.00  0.00     0.091 A 
ATOM     88  F   UNL     1      -9.642  -5.480   3.755  1.00  0.00    -0.205 F 
ATOM     89  C   UNL     1      -8.000  -8.360   2.190  1.00  0.00     0.022 A 
BRANCH  87  90
ATOM     90  S   UNL     1      -7.258  -7.219   4.575  1.00  0.00     0.127 S 
ATOM     91  O   UNL     1      -5.979  -7.725   4.069  1.00  0.00    -0.237 OA
ATOM     92  O   UNL     1      -7.257  -5.795   4.878  1.00  0.00    -0.237 OA
ATOM     93  O   UNL     1      -7.913  -8.087   5.549  1.00  0.00    -0.744 OA
ENDBRANCH  87  90
ENDBRANCH  59  83
BRANCH  71  94
ATOM     94  C   UNL     1     -12.826  -0.628   4.449  1.00  0.00     0.023 A 
ATOM     95  C   UNL     1     -12.519  -1.384   5.604  1.00  0.00     0.012 A 
ATOM     96  C   UNL     1     -13.263   0.698   4.674  1.00  0.00     0.148 A 
ATOM     97  C   UNL     1     -12.745  -0.909   6.900  1.00  0.00     0.002 A 
ATOM     98  C   UNL     1     -13.357   1.214   5.971  1.00  0.00     0.091 A 
ATOM     99  F   UNL     1     -13.574   1.480   3.629  1.00  0.00    -0.205 F 
ATOM    100  C   UNL     1     -13.150   0.402   7.087  1.00  0.00     0.022 A 
BRANCH  98 101
ATOM    101  S   UNL     1     -13.529   2.989   6.214  1.00  0.00     0.127 S 
ATOM    102  O   UNL     1     -14.952   3.207   5.974  1.00  0.00    -0.237 OA
ATOM    103  O   UNL     1     -13.114   3.176   7.606  1.00  0.00    -0.237 OA
ATOM    104  O   UNL     1     -12.606   3.553   5.236  1.00  0.00    -0.744 OA
ENDBRANCH  98 101
ENDBRANCH  71  94
ENDBRANCH  45  46
ENDBRANCH  38  40
ENDBRANCH  37  38
ENDBRANCH  36  37
ENDBRANCH  35  36
ENDBRANCH  34  35
ENDBRANCH   1  34
TORSDOF 23
