REMARK SMILES CC(C)N(c1cc2c(cc1Cl)C=C(C(=O)OCCOCCOCCOC(=O)c1ccc(-c3c4nc(c(-c5cccc(S(=O)(=O)[O-])c5F)c5ccc([nH]5)c(-c5cccc(S(=O)(=O)[O-])c5F)c5nc(c(-c6cccc(S(=O)(=O)[O-])c6F)c6ccc3[nH]6)C=C5)C=C4)cc1)[C@@H](C(F)(F)F)O2)C(C)C
REMARK SMILES IDX 21 1 20 2 19 3 18 4 17 5 16 6 14 7 15 8 13 9 5 10 6 11 10 12
REMARK SMILES IDX 7 13 9 14 11 15 8 16 96 17 12 18 91 19 4 20 2 21 1 22 3 23
REMARK SMILES IDX 97 24 98 25 99 26 92 27 93 28 94 29 95 30 22 31 23 32 24 33
REMARK SMILES IDX 25 34 26 35 27 36 28 37 29 38 90 39 30 40 89 41 31 42 32 43
REMARK SMILES IDX 33 44 83 45 34 46 88 47 82 48 84 49 35 50 87 51 81 52 80 53
REMARK SMILES IDX 36 55 68 56 48 57 67 58 49 59 52 60 66 61 85 62 50 63 51 64
REMARK SMILES IDX 65 66 86 67 53 68 37 69 38 70 46 71 39 72 41 73 47 74 40 75
REMARK SMILES IDX 42 76 43 77 44 78 45 79 69 80 70 81 78 82 71 83 73 84 79 85
REMARK SMILES IDX 72 86 74 87 75 88 76 89 77 90 54 91 55 92 63 93 56 94 58 95
REMARK SMILES IDX 64 96 57 97 59 98 60 99 61 100 62 101
REMARK H PARENT 84 54 52 65
REMARK Flexibility Score: inf
ROOT
ATOM      1  C   UNL     1      -4.599  -1.074  -8.010  1.00  0.00     0.188 C 
ENDROOT
BRANCH   1   2
ATOM      2  C   UNL     1      -4.889  -2.514  -8.485  1.00  0.00     0.188 C 
BRANCH   2   3
ATOM      3  O   UNL     1      -5.976  -2.634  -9.371  1.00  0.00    -0.376 OA
BRANCH   3   4
ATOM      4  C   UNL     1      -7.285  -2.904  -8.911  1.00  0.00     0.202 C 
BRANCH   4   5
ATOM      5  C   UNL     1      -7.805  -2.658  -7.484  1.00  0.00     0.261 C 
BRANCH   5   6
ATOM      6  O   UNL     1      -6.873  -2.191  -6.509  1.00  0.00    -0.460 OA
BRANCH   6   7
ATOM      7  C   UNL     1      -6.454  -3.111  -5.610  1.00  0.00     0.338 C 
ATOM      8  O   UNL     1      -6.771  -4.288  -5.570  1.00  0.00    -0.246 OA
BRANCH   7   9
ATOM      9  C   UNL     1      -5.447  -2.496  -4.725  1.00  0.00     0.087 C 
ATOM     10  C   UNL     1      -1.607  -1.751  -1.529  1.00  0.00     0.060 A 
ATOM     11  C   UNL     1      -2.719  -0.990  -1.964  1.00  0.00     0.074 A 
ATOM     12  C   UNL     1      -1.354  -2.947  -2.241  1.00  0.00     0.065 A 
ATOM     13  C   UNL     1      -3.594  -1.440  -2.959  1.00  0.00     0.130 A 
ATOM     14  C   UNL     1      -2.209  -3.376  -3.269  1.00  0.00     0.034 A 
ATOM     15  Cl  UNL     1      -0.083  -4.057  -1.858  1.00  0.00    -0.082 Cl
ATOM     16  C   UNL     1      -3.352  -2.650  -3.597  1.00  0.00     0.019 A 
ATOM     17  O   UNL     1      -4.676  -0.648  -3.223  1.00  0.00    -0.475 OA
ATOM     18  C   UNL     1      -4.321  -3.192  -4.531  1.00  0.00     0.027 C 
ATOM     19  C   UNL     1      -5.725  -1.156  -4.096  1.00  0.00     0.316 C 
BRANCH  10  20
ATOM     20  N   UNL     1      -0.889  -1.306  -0.395  1.00  0.00    -0.365 N 
BRANCH  20  21
ATOM     21  C   UNL     1       0.591  -1.254  -0.461  1.00  0.00     0.076 C 
ATOM     22  C   UNL     1       1.135   0.168  -0.318  1.00  0.00     0.030 C 
ATOM     23  C   UNL     1       1.287  -2.181   0.536  1.00  0.00     0.030 C 
ENDBRANCH  20  21
BRANCH  20  24
ATOM     24  C   UNL     1      -1.711  -1.014   0.805  1.00  0.00     0.076 C 
ATOM     25  C   UNL     1      -1.504  -2.013   1.939  1.00  0.00     0.030 C 
ATOM     26  C   UNL     1      -1.575   0.425   1.291  1.00  0.00     0.030 C 
ENDBRANCH  20  24
ENDBRANCH  10  20
BRANCH  19  27
ATOM     27  C   UNL     1      -7.056  -1.136  -3.328  1.00  0.00     0.430 C 
ATOM     28  F   UNL     1      -7.276   0.073  -2.754  1.00  0.00    -0.167 F 
ATOM     29  F   UNL     1      -8.112  -1.366  -4.145  1.00  0.00    -0.167 F 
ATOM     30  F   UNL     1      -7.097  -2.063  -2.345  1.00  0.00    -0.167 F 
ENDBRANCH  19  27
ENDBRANCH   7   9
ENDBRANCH   6   7
ENDBRANCH   5   6
ENDBRANCH   4   5
ENDBRANCH   3   4
ENDBRANCH   2   3
ENDBRANCH   1   2
BRANCH   1  31
ATOM     31  O   UNL     1      -5.390   0.002  -8.500  1.00  0.00    -0.376 OA
BRANCH  31  32
ATOM     32  C   UNL     1      -5.576   0.137  -9.906  1.00  0.00     0.202 C 
BRANCH  32  33
ATOM     33  C   UNL     1      -4.345   0.233 -10.816  1.00  0.00     0.261 C 
BRANCH  33  34
ATOM     34  O   UNL     1      -3.463  -0.897 -10.722  1.00  0.00    -0.460 OA
BRANCH  34  35
ATOM     35  C   UNL     1      -2.218  -0.628 -10.253  1.00  0.00     0.338 C 
ATOM     36  O   UNL     1      -1.767   0.463  -9.948  1.00  0.00    -0.246 OA
BRANCH  35  37
ATOM     37  C   UNL     1      -1.529  -1.902  -9.960  1.00  0.00     0.060 A 
ATOM     38  C   UNL     1      -1.375  -2.883 -10.941  1.00  0.00     0.016 A 
ATOM     39  C   UNL     1      -1.025  -2.103  -8.667  1.00  0.00     0.016 A 
ATOM     40  C   UNL     1      -0.684  -4.058 -10.630  1.00  0.00     0.010 A 
ATOM     41  C   UNL     1      -0.353  -3.285  -8.354  1.00  0.00     0.010 A 
ATOM     42  C   UNL     1      -0.158  -4.261  -9.341  1.00  0.00    -0.014 A 
BRANCH  42  43
ATOM     43  C   UNL     1       0.756  -5.400  -9.088  1.00  0.00     0.031 A 
ATOM     44  C   UNL     1       0.294  -6.664  -8.428  1.00  0.00     0.074 A 
ATOM     45  C   UNL     1       2.044  -5.263  -9.458  1.00  0.00     0.049 A 
ATOM     46  N   UNL     1       0.959  -7.775  -8.245  1.00  0.00    -0.248 NA
ATOM     47  C   UNL     1      -1.079  -6.689  -7.903  1.00  0.00     0.031 C 
ATOM     48  C   UNL     1       2.620  -4.055 -10.053  1.00  0.00     0.029 A 
ATOM     49  N   UNL     1       3.097  -6.138  -9.391  1.00  0.00    -0.354 N 
ATOM     50  C   UNL     1       0.090  -8.639  -7.592  1.00  0.00     0.074 A 
ATOM     51  C   UNL     1      -1.147  -7.912  -7.388  1.00  0.00     0.031 C 
ATOM     52  C   UNL     1       3.918  -4.271 -10.312  1.00  0.00     0.029 A 
ATOM     53  C   UNL     1       4.267  -5.627  -9.900  1.00  0.00     0.049 A 
ATOM     54  H   UNL     1       3.022  -7.045  -9.014  1.00  0.00     0.167 HD
ATOM     55  C   UNL     1       0.300  -9.926  -7.228  1.00  0.00     0.034 A 
ATOM     56  C   UNL     1       5.481  -6.192 -10.043  1.00  0.00     0.034 A 
ATOM     57  C   UNL     1       1.528 -10.645  -7.446  1.00  0.00     0.049 A 
ATOM     58  C   UNL     1       5.680  -7.623  -9.638  1.00  0.00     0.074 A 
ATOM     59  C   UNL     1       1.805 -11.973  -7.165  1.00  0.00     0.029 A 
ATOM     60  N   UNL     1       2.684 -10.104  -7.985  1.00  0.00    -0.354 N 
ATOM     61  N   UNL     1       4.801  -8.470  -9.162  1.00  0.00    -0.248 NA
ATOM     62  C   UNL     1       7.026  -8.186  -9.818  1.00  0.00     0.031 C 
ATOM     63  C   UNL     1       3.130 -12.232  -7.526  1.00  0.00     0.029 A 
ATOM     64  C   UNL     1       3.677 -11.067  -8.039  1.00  0.00     0.049 A 
ATOM     65  H   UNL     1       2.784  -9.171  -8.286  1.00  0.00     0.167 HD
ATOM     66  C   UNL     1       5.480  -9.672  -9.006  1.00  0.00     0.074 A 
ATOM     67  C   UNL     1       6.840  -9.449  -9.452  1.00  0.00     0.031 C 
ATOM     68  C   UNL     1       5.015 -10.849  -8.524  1.00  0.00     0.034 A 
BRANCH  55  69
ATOM     69  C   UNL     1      -0.845 -10.694  -6.625  1.00  0.00     0.023 A 
ATOM     70  C   UNL     1      -1.825 -11.226  -7.486  1.00  0.00     0.012 A 
ATOM     71  C   UNL     1      -0.874 -11.015  -5.255  1.00  0.00     0.148 A 
ATOM     72  C   UNL     1      -2.820 -12.068  -6.993  1.00  0.00     0.002 A 
ATOM     73  C   UNL     1      -1.855 -11.876  -4.774  1.00  0.00     0.091 A 
ATOM     74  F   UNL     1       0.068 -10.493  -4.457  1.00  0.00    -0.205 F 
ATOM     75  C   UNL     1      -2.828 -12.401  -5.641  1.00  0.00     0.022 A 
BRANCH  73  76
ATOM     76  S   UNL     1      -1.926 -12.420  -3.063  1.00  0.00     0.127 S 
ATOM     77  O   UNL     1      -3.195 -11.841  -2.623  1.00  0.00    -0.237 OA
ATOM     78  O   UNL     1      -1.936 -13.876  -3.204  1.00  0.00    -0.237 OA
ATOM     79  O   UNL     1      -0.741 -11.875  -2.416  1.00  0.00    -0.744 OA
ENDBRANCH  73  76
ENDBRANCH  55  69
BRANCH  56  80
ATOM     80  C   UNL     1       6.568  -5.416 -10.694  1.00  0.00     0.023 A 
ATOM     81  C   UNL     1       6.906  -5.703 -12.029  1.00  0.00     0.012 A 
ATOM     82  C   UNL     1       7.208  -4.354 -10.028  1.00  0.00     0.148 A 
ATOM     83  C   UNL     1       7.873  -4.949 -12.692  1.00  0.00     0.002 A 
ATOM     84  C   UNL     1       8.143  -3.582 -10.706  1.00  0.00     0.091 A 
ATOM     85  F   UNL     1       6.866  -4.105  -8.757  1.00  0.00    -0.205 F 
ATOM     86  C   UNL     1       8.484  -3.884 -12.035  1.00  0.00     0.022 A 
BRANCH  84  87
ATOM     87  S   UNL     1       8.910  -2.130  -9.980  1.00  0.00     0.127 S 
ATOM     88  O   UNL     1      10.309  -2.543  -9.895  1.00  0.00    -0.237 OA
ATOM     89  O   UNL     1       8.630  -1.108 -10.990  1.00  0.00    -0.237 OA
ATOM     90  O   UNL     1       8.238  -1.922  -8.706  1.00  0.00    -0.744 OA
ENDBRANCH  84  87
ENDBRANCH  56  80
BRANCH  68  91
ATOM     91  C   UNL     1       5.973 -12.005  -8.442  1.00  0.00     0.023 A 
ATOM     92  C   UNL     1       6.895 -12.060  -7.379  1.00  0.00     0.012 A 
ATOM     93  C   UNL     1       5.883 -13.085  -9.343  1.00  0.00     0.148 A 
ATOM     94  C   UNL     1       7.720 -13.172  -7.216  1.00  0.00     0.002 A 
ATOM     95  C   UNL     1       6.687 -14.203  -9.156  1.00  0.00     0.091 A 
ATOM     96  F   UNL     1       5.004 -13.002 -10.352  1.00  0.00    -0.205 F 
ATOM     97  C   UNL     1       7.609 -14.246  -8.096  1.00  0.00     0.022 A 
BRANCH  95  98
ATOM     98  S   UNL     1       6.571 -15.667 -10.191  1.00  0.00     0.127 S 
ATOM     99  O   UNL     1       7.871 -15.662 -10.860  1.00  0.00    -0.237 OA
ATOM    100  O   UNL     1       6.397 -16.731  -9.202  1.00  0.00    -0.237 OA
ATOM    101  O   UNL     1       5.425 -15.455 -11.065  1.00  0.00    -0.744 OA
ENDBRANCH  95  98
ENDBRANCH  68  91
ENDBRANCH  42  43
ENDBRANCH  35  37
ENDBRANCH  34  35
ENDBRANCH  33  34
ENDBRANCH  32  33
ENDBRANCH  31  32
ENDBRANCH   1  31
TORSDOF 24
