REMARK SMILES Cc1ccc(C(=O)OCCOCCOCCOC(=O)c2ccc(-c3c4nc(c(-c5cccc(S(=O)(=O)[O-])c5F)c5ccc([nH]5)c(-c5cccc(S(=O)(=O)[O-])c5F)c5nc(c(-c6cccc(S(=O)(=O)[O-])c6F)c6ccc3[nH]6)C=C5)C=C4)cc2)cc1NC(=O)C[C@@H]1SC(=O)N(c2ccccc2)C1=O
REMARK SMILES IDX 12 1 11 2 10 3 9 4 8 5 6 6 7 7 5 8 1 9 2 10 3 11 84 12 4 13
REMARK SMILES IDX 83 14 85 15 86 16 87 18 88 19 89 20 90 21 100 22 91 23 93 24
REMARK SMILES IDX 101 25 92 26 94 27 95 28 99 29 96 30 98 31 97 32 13 33 14 34
REMARK SMILES IDX 15 35 16 36 17 37 18 38 19 39 20 40 21 41 82 42 22 43 81 44
REMARK SMILES IDX 23 45 24 46 25 47 75 48 26 49 80 50 74 51 76 52 27 53 79 54
REMARK SMILES IDX 73 55 72 56 28 58 60 59 40 60 59 61 41 62 44 63 58 64 77 65
REMARK SMILES IDX 42 66 43 67 57 69 78 70 45 71 29 72 30 73 38 74 31 75 33 76
REMARK SMILES IDX 39 77 32 78 34 79 35 80 36 81 37 82 61 83 62 84 70 85 63 86
REMARK SMILES IDX 65 87 71 88 64 89 66 90 67 91 68 92 69 93 46 94 47 95 55 96
REMARK SMILES IDX 48 97 50 98 56 99 49 100 51 101 52 102 53 103 54 104
REMARK H PARENT 85 17 76 57 44 68
REMARK Flexibility Score: inf
ROOT
ATOM      1  C   UNL     1      -6.005  -0.830  -1.543  1.00  0.00     0.188 C 
ENDROOT
BRANCH   1   2
ATOM      2  O   UNL     1      -6.691   0.079  -0.615  1.00  0.00    -0.376 OA
BRANCH   2   3
ATOM      3  C   UNL     1      -6.454   1.525  -0.499  1.00  0.00     0.202 C 
BRANCH   3   4
ATOM      4  C   UNL     1      -5.782   2.432   0.787  1.00  0.00     0.261 C 
BRANCH   4   5
ATOM      5  O   UNL     1      -4.330   3.061   1.050  1.00  0.00    -0.460 OA
BRANCH   5   6
ATOM      6  C   UNL     1      -3.254   2.391   0.522  1.00  0.00     0.338 C 
ATOM      7  O   UNL     1      -3.794   1.576  -0.233  1.00  0.00    -0.246 OA
BRANCH   6   8
ATOM      8  C   UNL     1      -1.347   2.380   0.848  1.00  0.00     0.062 A 
ATOM      9  C   UNL     1       2.760   1.072   0.041  1.00  0.00     0.046 C 
ATOM     10  C   UNL     1       1.517   1.741   0.562  1.00  0.00    -0.027 A 
ATOM     11  C   UNL     1       0.850   1.014   1.486  1.00  0.00     0.006 A 
ATOM     12  C   UNL     1       0.863   2.922   0.092  1.00  0.00     0.044 A 
ATOM     13  C   UNL     1      -0.487   1.325   1.604  1.00  0.00     0.016 A 
ATOM     14  C   UNL     1      -0.472   3.315   0.428  1.00  0.00     0.042 A 
BRANCH  12  15
ATOM     15  N   UNL     1       1.519   3.701  -0.846  1.00  0.00    -0.326 N 
ATOM     16  C   UNL     1       0.971   4.546  -1.760  1.00  0.00     0.226 C 
ATOM     17  H   UNL     1       2.501   3.635  -0.851  1.00  0.00     0.169 HD
ATOM     18  O   UNL     1       1.746   5.250  -2.416  1.00  0.00    -0.275 OA
BRANCH  16  19
ATOM     19  C   UNL     1      -0.534   4.610  -2.041  1.00  0.00     0.125 C 
BRANCH  19  20
ATOM     20  C   UNL     1      -1.112   3.385  -2.747  1.00  0.00     0.156 C 
ATOM     21  S   UNL     1      -3.472   3.491  -2.911  1.00  0.00    -0.050 SA
ATOM     22  C   UNL     1      -0.564   1.443  -2.516  1.00  0.00     0.248 C 
ATOM     23  C   UNL     1      -3.750   1.242  -2.783  1.00  0.00     0.293 C 
ATOM     24  N   UNL     1      -2.249   0.311  -2.637  1.00  0.00    -0.240 N 
ATOM     25  O   UNL     1       0.669   1.319  -2.502  1.00  0.00    -0.273 OA
ATOM     26  O   UNL     1      -4.918   0.996  -2.660  1.00  0.00    -0.261 OA
BRANCH  24  27
ATOM     27  C   UNL     1      -2.553  -1.387  -2.611  1.00  0.00     0.053 A 
ATOM     28  C   UNL     1      -2.013  -2.234  -1.612  1.00  0.00     0.027 A 
ATOM     29  C   UNL     1      -2.630  -2.103  -3.821  1.00  0.00     0.027 A 
ATOM     30  C   UNL     1      -1.051  -3.248  -1.885  1.00  0.00     0.002 A 
ATOM     31  C   UNL     1      -1.800  -3.241  -4.095  1.00  0.00     0.002 A 
ATOM     32  C   UNL     1      -0.910  -3.737  -3.154  1.00  0.00     0.000 A 
ENDBRANCH  24  27
ENDBRANCH  19  20
ENDBRANCH  16  19
ENDBRANCH  12  15
ENDBRANCH   6   8
ENDBRANCH   5   6
ENDBRANCH   4   5
ENDBRANCH   3   4
ENDBRANCH   2   3
ENDBRANCH   1   2
BRANCH   1  33
ATOM     33  C   UNL     1      -6.435  -1.050  -3.085  1.00  0.00     0.188 C 
BRANCH  33  34
ATOM     34  O   UNL     1      -5.509  -0.742  -4.173  1.00  0.00    -0.376 OA
BRANCH  34  35
ATOM     35  C   UNL     1      -5.806   0.387  -5.015  1.00  0.00     0.202 C 
BRANCH  35  36
ATOM     36  C   UNL     1      -4.666   0.574  -6.082  1.00  0.00     0.261 C 
BRANCH  36  37
ATOM     37  O   UNL     1      -3.342   0.841  -5.486  1.00  0.00    -0.460 OA
BRANCH  37  38
ATOM     38  C   UNL     1      -2.144   0.149  -5.657  1.00  0.00     0.338 C 
ATOM     39  O   UNL     1      -1.947  -0.687  -6.516  1.00  0.00    -0.246 OA
BRANCH  38  40
ATOM     40  C   UNL     1      -1.181   0.547  -4.460  1.00  0.00     0.060 A 
ATOM     41  C   UNL     1      -0.335  -0.520  -3.338  1.00  0.00     0.016 A 
ATOM     42  C   UNL     1      -1.969   1.819  -3.698  1.00  0.00     0.016 A 
ATOM     43  C   UNL     1      -0.482  -0.454  -1.499  1.00  0.00     0.010 A 
ATOM     44  C   UNL     1      -2.138   1.886  -1.686  1.00  0.00     0.010 A 
ATOM     45  C   UNL     1      -1.623   0.529  -0.591  1.00  0.00    -0.014 A 
BRANCH  45  46
ATOM     46  C   UNL     1      -2.559   0.144   1.055  1.00  0.00     0.031 A 
ATOM     47  C   UNL     1      -2.725   1.289   2.613  1.00  0.00     0.074 A 
ATOM     48  C   UNL     1      -3.620  -0.745   1.231  1.00  0.00     0.049 A 
ATOM     49  N   UNL     1      -3.055   1.023   3.875  1.00  0.00    -0.248 NA
ATOM     50  C   UNL     1      -2.287   2.836   2.811  1.00  0.00     0.031 C 
ATOM     51  C   UNL     1      -4.747  -0.268   2.062  1.00  0.00     0.029 A 
ATOM     52  N   UNL     1      -4.165  -1.965   0.750  1.00  0.00    -0.354 N 
ATOM     53  C   UNL     1      -3.103   2.326   4.529  1.00  0.00     0.074 A 
ATOM     54  C   UNL     1      -2.016   3.078   4.076  1.00  0.00     0.031 C 
ATOM     55  C   UNL     1      -5.789  -1.081   2.025  1.00  0.00     0.029 A 
ATOM     56  C   UNL     1      -5.348  -2.306   1.450  1.00  0.00     0.049 A 
ATOM     57  H   UNL     1      -3.772  -2.503   0.025  1.00  0.00     0.167 HD
ATOM     58  C   UNL     1      -4.266   2.982   4.890  1.00  0.00     0.034 A 
ATOM     59  C   UNL     1      -5.882  -3.463   1.931  1.00  0.00     0.034 A 
ATOM     60  C   UNL     1      -5.276   2.000   5.168  1.00  0.00     0.049 A 
ATOM     61  C   UNL     1      -5.807  -3.451   3.455  1.00  0.00     0.074 A 
ATOM     62  C   UNL     1      -6.578   1.735   4.820  1.00  0.00     0.029 A 
ATOM     63  N   UNL     1      -4.822   0.889   5.844  1.00  0.00    -0.354 N 
ATOM     64  N   UNL     1      -6.106  -2.417   4.202  1.00  0.00    -0.248 NA
ATOM     65  C   UNL     1      -5.259  -4.544   4.260  1.00  0.00     0.031 C 
ATOM     66  C   UNL     1      -6.815   0.356   5.147  1.00  0.00     0.029 A 
ATOM     67  C   UNL     1      -5.680  -0.174   5.745  1.00  0.00     0.049 A 
ATOM     68  H   UNL     1      -3.974   0.862   6.343  1.00  0.00     0.167 HD
ATOM     69  C   UNL     1      -5.456  -2.544   5.413  1.00  0.00     0.074 A 
ATOM     70  C   UNL     1      -5.077  -3.943   5.450  1.00  0.00     0.031 C 
ATOM     71  C   UNL     1      -5.169  -1.467   6.217  1.00  0.00     0.034 A 
BRANCH  58  72
ATOM     72  C   UNL     1      -4.497   4.552   4.912  1.00  0.00     0.023 A 
ATOM     73  C   UNL     1      -5.458   5.024   5.826  1.00  0.00     0.012 A 
ATOM     74  C   UNL     1      -3.911   5.593   4.096  1.00  0.00     0.148 A 
ATOM     75  C   UNL     1      -5.794   6.391   5.949  1.00  0.00     0.002 A 
ATOM     76  C   UNL     1      -4.205   6.964   4.258  1.00  0.00     0.091 A 
ATOM     77  F   UNL     1      -3.083   5.295   3.096  1.00  0.00    -0.205 F 
ATOM     78  C   UNL     1      -5.161   7.363   5.184  1.00  0.00     0.022 A 
BRANCH  76  79
ATOM     79  S   UNL     1      -3.389   8.296   3.319  1.00  0.00     0.127 S 
ATOM     80  O   UNL     1      -4.519   8.968   2.676  1.00  0.00    -0.237 OA
ATOM     81  O   UNL     1      -2.747   9.076   4.377  1.00  0.00    -0.237 OA
ATOM     82  O   UNL     1      -2.464   7.646   2.397  1.00  0.00    -0.744 OA
ENDBRANCH  76  79
ENDBRANCH  58  72
BRANCH  59  83
ATOM     83  C   UNL     1      -5.990  -4.598   1.007  1.00  0.00     0.023 A 
ATOM     84  C   UNL     1      -7.026  -4.533   0.043  1.00  0.00     0.012 A 
ATOM     85  C   UNL     1      -4.887  -5.382   0.747  1.00  0.00     0.148 A 
ATOM     86  C   UNL     1      -6.849  -5.050  -1.245  1.00  0.00     0.002 A 
ATOM     87  C   UNL     1      -4.665  -5.787  -0.564  1.00  0.00     0.091 A 
ATOM     88  F   UNL     1      -3.941  -5.508   1.690  1.00  0.00    -0.205 F 
ATOM     89  C   UNL     1      -5.621  -5.606  -1.577  1.00  0.00     0.022 A 
BRANCH  87  90
ATOM     90  S   UNL     1      -2.936  -5.856  -0.979  1.00  0.00     0.127 S 
ATOM     91  O   UNL     1      -2.941  -5.829  -2.439  1.00  0.00    -0.237 OA
ATOM     92  O   UNL     1      -2.501  -4.645  -0.290  1.00  0.00    -0.237 OA
ATOM     93  O   UNL     1      -2.466  -7.104  -0.395  1.00  0.00    -0.744 OA
ENDBRANCH  87  90
ENDBRANCH  59  83
BRANCH  71  94
ATOM     94  C   UNL     1      -4.226  -1.476   7.446  1.00  0.00     0.023 A 
ATOM     95  C   UNL     1      -3.199  -2.421   7.629  1.00  0.00     0.012 A 
ATOM     96  C   UNL     1      -4.223  -0.383   8.366  1.00  0.00     0.148 A 
ATOM     97  C   UNL     1      -2.275  -2.324   8.687  1.00  0.00     0.002 A 
ATOM     98  C   UNL     1      -3.206  -0.207   9.305  1.00  0.00     0.091 A 
ATOM     99  F   UNL     1      -5.211   0.525   8.328  1.00  0.00    -0.205 F 
ATOM    100  C   UNL     1      -2.257  -1.202   9.507  1.00  0.00     0.022 A 
BRANCH  98 101
ATOM    101  S   UNL     1      -2.976   1.398  10.098  1.00  0.00     0.127 S 
ATOM    102  O   UNL     1      -3.902   1.327  11.224  1.00  0.00    -0.237 OA
ATOM    103  O   UNL     1      -1.560   1.378  10.472  1.00  0.00    -0.237 OA
ATOM    104  O   UNL     1      -3.297   2.357   9.047  1.00  0.00    -0.744 OA
ENDBRANCH  98 101
ENDBRANCH  71  94
ENDBRANCH  45  46
ENDBRANCH  38  40
ENDBRANCH  37  38
ENDBRANCH  36  37
ENDBRANCH  35  36
ENDBRANCH  34  35
ENDBRANCH  33  34
ENDBRANCH   1  33
TORSDOF 24
