REMARK SMILES C[C@H](NC(=O)c1cccc(NC(=O)c2ccccc2C(=O)OCCOCCOCCOC(=O)c2ccc(-c3c4nc(c(-c5cccc(S(=O)(=O)[O-])c5F)c5ccc([nH]5)c(-c5cccc(S(=O)(=O)[O-])c5F)c5nc(c(-c6cccc(S(=O)(=O)[O-])c6F)c6ccc3[nH]6)C=C5)C=C4)cc2)c1)c1ccccc1
REMARK SMILES IDX 26 1 25 2 24 3 23 4 22 5 20 6 21 7 19 8 14 9 15 10 16 11
REMARK SMILES IDX 18 12 17 13 12 14 11 15 13 17 10 18 6 19 7 20 97 21 8 22
REMARK SMILES IDX 9 23 4 24 3 25 5 27 2 28 1 29 98 30 99 31 103 32 100 33
REMARK SMILES IDX 102 34 101 35 27 36 28 37 29 38 30 39 31 40 32 41 33 42
REMARK SMILES IDX 34 43 35 44 96 45 36 46 95 47 37 48 38 49 39 50 89 51 40 52
REMARK SMILES IDX 94 53 88 54 90 55 41 56 93 57 87 58 86 59 42 61 74 62 54 63
REMARK SMILES IDX 73 64 55 65 58 66 72 67 91 68 56 69 57 70 71 72 92 73 59 74
REMARK SMILES IDX 43 75 44 76 52 77 45 78 47 79 53 80 46 81 48 82 49 83 50 84
REMARK SMILES IDX 51 85 75 86 76 87 84 88 77 89 79 90 85 91 78 92 80 93 81 94
REMARK SMILES IDX 82 95 83 96 60 97 61 98 69 99 62 100 64 101 70 102 63 103
REMARK SMILES IDX 65 104 66 105 67 106 68 107
REMARK H PARENT 11 16 3 26 90 60 58 71
REMARK Flexibility Score: inf
ROOT
ATOM      1  C   UNL     1      -2.381   5.776   3.095  1.00  0.00     0.188 C 
ENDROOT
BRANCH   1   2
ATOM      2  O   UNL     1      -2.774   4.475   2.694  1.00  0.00    -0.376 OA
BRANCH   2   3
ATOM      3  C   UNL     1      -1.876   3.407   2.867  1.00  0.00     0.202 C 
BRANCH   3   4
ATOM      4  C   UNL     1      -0.484   3.520   2.254  1.00  0.00     0.261 C 
BRANCH   4   5
ATOM      5  O   UNL     1       0.228   4.749   2.399  1.00  0.00    -0.460 OA
BRANCH   5   6
ATOM      6  C   UNL     1       0.162   5.588   1.342  1.00  0.00     0.339 C 
ATOM      7  O   UNL     1      -0.528   5.459   0.350  1.00  0.00    -0.246 OA
BRANCH   6   8
ATOM      8  C   UNL     1       0.965   6.802   1.617  1.00  0.00     0.072 A 
ATOM      9  C   UNL     1       2.218   6.807   2.252  1.00  0.00     0.054 A 
ATOM     10  C   UNL     1       2.820   8.050   2.533  1.00  0.00     0.015 A 
ATOM     11  C   UNL     1       2.224   9.251   2.135  1.00  0.00     0.001 A 
ATOM     12  C   UNL     1       0.385   8.015   1.197  1.00  0.00     0.016 A 
ATOM     13  C   UNL     1       1.013   9.232   1.453  1.00  0.00     0.001 A 
BRANCH   9  14
ATOM     14  C   UNL     1       2.976   5.615   2.722  1.00  0.00     0.256 C 
ATOM     15  N   UNL     1       3.165   4.456   1.994  1.00  0.00    -0.322 N 
ATOM     16  H   UNL     1       3.650   3.752   2.484  1.00  0.00     0.170 HD
ATOM     17  O   UNL     1       3.466   5.667   3.854  1.00  0.00    -0.269 OA
BRANCH  15  18
ATOM     18  C   UNL     1       2.798   4.089   0.688  1.00  0.00     0.042 A 
ATOM     19  C   UNL     1       1.838   2.331  -0.688  1.00  0.00     0.041 A 
ATOM     20  C   UNL     1       1.467   3.311  -1.622  1.00  0.00     0.014 A 
ATOM     21  C   UNL     1       2.564   2.724   0.440  1.00  0.00     0.040 A 
ATOM     22  C   UNL     1       1.866   4.637  -1.463  1.00  0.00     0.003 A 
ATOM     23  C   UNL     1       2.565   5.019  -0.322  1.00  0.00     0.026 A 
BRANCH  19  24
ATOM     24  C   UNL     1       1.604   0.927  -1.093  1.00  0.00     0.251 C 
ATOM     25  N   UNL     1       1.084  -0.091  -0.347  1.00  0.00    -0.346 N 
ATOM     26  H   UNL     1       1.153  -0.933  -0.851  1.00  0.00     0.164 HD
ATOM     27  O   UNL     1       1.922   0.634  -2.251  1.00  0.00    -0.269 OA
BRANCH  25  28
ATOM     28  C   UNL     1       0.459  -0.351   0.949  1.00  0.00     0.109 C 
ATOM     29  C   UNL     1       1.077   0.326   2.156  1.00  0.00     0.036 C 
BRANCH  28  30
ATOM     30  C   UNL     1      -1.060  -0.298   0.942  1.00  0.00    -0.026 A 
ATOM     31  C   UNL     1      -1.790   0.770   0.410  1.00  0.00     0.006 A 
ATOM     32  C   UNL     1      -1.780  -1.351   1.544  1.00  0.00     0.006 A 
ATOM     33  C   UNL     1      -3.187   0.811   0.528  1.00  0.00     0.000 A 
ATOM     34  C   UNL     1      -3.174  -1.320   1.641  1.00  0.00     0.000 A 
ATOM     35  C   UNL     1      -3.877  -0.227   1.150  1.00  0.00     0.000 A 
ENDBRANCH  28  30
ENDBRANCH  25  28
ENDBRANCH  19  24
ENDBRANCH  15  18
ENDBRANCH   9  14
ENDBRANCH   6   8
ENDBRANCH   5   6
ENDBRANCH   4   5
ENDBRANCH   3   4
ENDBRANCH   2   3
ENDBRANCH   1   2
BRANCH   1  36
ATOM     36  C   UNL     1      -1.419   5.992   4.291  1.00  0.00     0.188 C 
BRANCH  36  37
ATOM     37  O   UNL     1      -1.104   4.827   5.033  1.00  0.00    -0.376 OA
BRANCH  37  38
ATOM     38  C   UNL     1      -1.759   4.691   6.285  1.00  0.00     0.202 C 
BRANCH  38  39
ATOM     39  C   UNL     1      -3.296   4.606   6.273  1.00  0.00     0.261 C 
BRANCH  39  40
ATOM     40  O   UNL     1      -4.004   5.643   5.567  1.00  0.00    -0.460 OA
BRANCH  40  41
ATOM     41  C   UNL     1      -3.933   6.919   6.016  1.00  0.00     0.338 C 
ATOM     42  O   UNL     1      -3.353   7.303   7.017  1.00  0.00    -0.246 OA
BRANCH  41  43
ATOM     43  C   UNL     1      -4.457   7.800   4.934  1.00  0.00     0.060 A 
ATOM     44  C   UNL     1      -3.596   8.738   4.335  1.00  0.00     0.016 A 
ATOM     45  C   UNL     1      -5.740   7.611   4.418  1.00  0.00     0.016 A 
ATOM     46  C   UNL     1      -4.014   9.473   3.219  1.00  0.00     0.010 A 
ATOM     47  C   UNL     1      -6.172   8.380   3.329  1.00  0.00     0.010 A 
ATOM     48  C   UNL     1      -5.318   9.326   2.731  1.00  0.00    -0.014 A 
BRANCH  48  49
ATOM     49  C   UNL     1      -5.866  10.287   1.737  1.00  0.00     0.031 A 
ATOM     50  C   UNL     1      -6.646  11.465   2.255  1.00  0.00     0.074 A 
ATOM     51  C   UNL     1      -5.724  10.112   0.409  1.00  0.00     0.049 A 
ATOM     52  N   UNL     1      -7.302  12.384   1.596  1.00  0.00    -0.248 NA
ATOM     53  C   UNL     1      -6.696  11.622   3.718  1.00  0.00     0.031 C 
ATOM     54  C   UNL     1      -4.988   9.025  -0.232  1.00  0.00     0.029 A 
ATOM     55  N   UNL     1      -6.237  10.838  -0.643  1.00  0.00    -0.354 N 
ATOM     56  C   UNL     1      -7.876  13.203   2.561  1.00  0.00     0.074 A 
ATOM     57  C   UNL     1      -7.486  12.676   3.851  1.00  0.00     0.031 C 
ATOM     58  C   UNL     1      -5.136   9.127  -1.565  1.00  0.00     0.029 A 
ATOM     59  C   UNL     1      -6.003  10.265  -1.872  1.00  0.00     0.049 A 
ATOM     60  H   UNL     1      -6.724  11.686  -0.527  1.00  0.00     0.167 HD
ATOM     61  C   UNL     1      -8.656  14.295   2.393  1.00  0.00     0.034 A 
ATOM     62  C   UNL     1      -6.471  10.593  -3.096  1.00  0.00     0.034 A 
ATOM     63  C   UNL     1      -9.043  14.827   1.115  1.00  0.00     0.049 A 
ATOM     64  C   UNL     1      -7.379  11.790  -3.254  1.00  0.00     0.074 A 
ATOM     65  C   UNL     1      -9.778  15.968   0.849  1.00  0.00     0.029 A 
ATOM     66  N   UNL     1      -8.758  14.240  -0.106  1.00  0.00    -0.354 N 
ATOM     67  N   UNL     1      -7.798  12.637  -2.344  1.00  0.00    -0.248 NA
ATOM     68  C   UNL     1      -7.860  12.091  -4.612  1.00  0.00     0.031 C 
ATOM     69  C   UNL     1      -9.979  16.045  -0.532  1.00  0.00     0.029 A 
ATOM     70  C   UNL     1      -9.330  14.977  -1.129  1.00  0.00     0.049 A 
ATOM     71  H   UNL     1      -8.227  13.420  -0.229  1.00  0.00     0.167 HD
ATOM     72  C   UNL     1      -8.569  13.579  -3.022  1.00  0.00     0.074 A 
ATOM     73  C   UNL     1      -8.533  13.218  -4.423  1.00  0.00     0.031 C 
ATOM     74  C   UNL     1      -9.258  14.637  -2.526  1.00  0.00     0.034 A 
BRANCH  61  75
ATOM     75  C   UNL     1      -9.152  14.997   3.629  1.00  0.00     0.023 A 
ATOM     76  C   UNL     1      -8.260  15.752   4.416  1.00  0.00     0.012 A 
ATOM     77  C   UNL     1     -10.518  14.957   3.973  1.00  0.00     0.148 A 
ATOM     78  C   UNL     1      -8.715  16.436   5.543  1.00  0.00     0.002 A 
ATOM     79  C   UNL     1     -10.972  15.679   5.069  1.00  0.00     0.091 A 
ATOM     80  F   UNL     1     -11.344  14.214   3.223  1.00  0.00    -0.205 F 
ATOM     81  C   UNL     1     -10.070  16.409   5.862  1.00  0.00     0.022 A 
BRANCH  79  82
ATOM     82  S   UNL     1     -12.708  15.776   5.515  1.00  0.00     0.127 S 
ATOM     83  O   UNL     1     -12.726  15.051   6.785  1.00  0.00    -0.237 OA
ATOM     84  O   UNL     1     -12.913  17.219   5.633  1.00  0.00    -0.237 OA
ATOM     85  O   UNL     1     -13.441  15.143   4.427  1.00  0.00    -0.744 OA
ENDBRANCH  79  82
ENDBRANCH  61  75
BRANCH  62  86
ATOM     86  C   UNL     1      -6.108   9.768  -4.287  1.00  0.00     0.023 A 
ATOM     87  C   UNL     1      -5.303  10.320  -5.303  1.00  0.00     0.012 A 
ATOM     88  C   UNL     1      -6.573   8.445  -4.424  1.00  0.00     0.148 A 
ATOM     89  C   UNL     1      -4.996   9.582  -6.448  1.00  0.00     0.002 A 
ATOM     90  C   UNL     1      -6.215   7.696  -5.539  1.00  0.00     0.091 A 
ATOM     91  F   UNL     1      -7.359   7.946  -3.461  1.00  0.00    -0.205 F 
ATOM     92  C   UNL     1      -5.442   8.268  -6.561  1.00  0.00     0.022 A 
BRANCH  90  93
ATOM     93  S   UNL     1      -6.646   5.961  -5.716  1.00  0.00     0.127 S 
ATOM     94  O   UNL     1      -7.584   5.999  -6.835  1.00  0.00    -0.237 OA
ATOM     95  O   UNL     1      -5.347   5.361  -6.020  1.00  0.00    -0.237 OA
ATOM     96  O   UNL     1      -7.210   5.562  -4.434  1.00  0.00    -0.744 OA
ENDBRANCH  90  93
ENDBRANCH  62  86
BRANCH  74  97
ATOM     97  C   UNL     1     -10.017  15.509  -3.497  1.00  0.00     0.023 A 
ATOM     98  C   UNL     1     -11.189  15.022  -4.110  1.00  0.00     0.012 A 
ATOM     99  C   UNL     1      -9.617  16.840  -3.736  1.00  0.00     0.148 A 
ATOM    100  C   UNL     1     -11.932  15.833  -4.968  1.00  0.00     0.002 A 
ATOM    101  C   UNL     1     -10.390  17.659  -4.551  1.00  0.00     0.091 A 
ATOM    102  F   UNL     1      -8.494  17.283  -3.152  1.00  0.00    -0.205 F 
ATOM    103  C   UNL     1     -11.540  17.153  -5.178  1.00  0.00     0.022 A 
BRANCH 101 104
ATOM    104  S   UNL     1     -10.021  19.398  -4.808  1.00  0.00     0.127 S 
ATOM    105  O   UNL     1      -9.651  19.418  -6.222  1.00  0.00    -0.237 OA
ATOM    106  O   UNL     1     -11.302  20.034  -4.503  1.00  0.00    -0.237 OA
ATOM    107  O   UNL     1      -8.945  19.725  -3.881  1.00  0.00    -0.744 OA
ENDBRANCH 101 104
ENDBRANCH  74  97
ENDBRANCH  48  49
ENDBRANCH  41  43
ENDBRANCH  40  41
ENDBRANCH  39  40
ENDBRANCH  38  39
ENDBRANCH  37  38
ENDBRANCH  36  37
ENDBRANCH   1  36
TORSDOF 25
