REMARK SMILES CCOc1ccc(C[N@H+]2CC[NH2+][C@H](C(=O)OCCOCCOCCOC(=O)c3ccc(-c4c5nc(c(-c6cccc(S(=O)(=O)[O-])c6F)c6ccc([nH]6)c(-c6cccc(S(=O)(=O)[O-])c6F)c6nc(c(-c7cccc(S(=O)(=O)[O-])c7F)c7ccc4[nH]7)C=C6)C=C5)cc3)C2)c(OCC)c1C
REMARK SMILES IDX 20 1 19 2 18 3 17 4 16 5 14 6 15 7 13 8 9 9 10 10 91 11
REMARK SMILES IDX 11 13 12 14 8 17 7 18 4 19 5 20 96 21 6 22 92 23 97 24 3 25
REMARK SMILES IDX 2 26 1 27 93 28 94 29 95 30 21 31 22 32 23 33 24 34 25 35
REMARK SMILES IDX 26 36 27 37 28 38 29 39 90 40 30 41 89 42 31 43 32 44 33 45
REMARK SMILES IDX 83 46 34 47 88 48 82 49 84 50 35 51 87 52 81 53 80 54 36 56
REMARK SMILES IDX 68 57 48 58 67 59 49 60 52 61 66 62 85 63 50 64 51 65 65 67
REMARK SMILES IDX 86 68 53 69 37 70 38 71 46 72 39 73 41 74 47 75 40 76 42 77
REMARK SMILES IDX 43 78 44 79 45 80 69 81 70 82 78 83 71 84 73 85 79 86 72 87
REMARK SMILES IDX 74 88 75 89 76 90 77 91 54 92 55 93 63 94 56 95 58 96 64 97
REMARK SMILES IDX 57 98 59 99 60 100 61 101 62 102
REMARK H PARENT 9 12 12 15 12 16 84 55 52 66
REMARK Flexibility Score: inf
ROOT
ATOM      1  C   UNL     1       0.474   7.954   3.210  1.00  0.00     0.188 C 
ENDROOT
BRANCH   1   2
ATOM      2  O   UNL     1       0.897   8.879   2.240  1.00  0.00    -0.376 OA
BRANCH   2   3
ATOM      3  C   UNL     1       1.324   8.383   0.980  1.00  0.00     0.202 C 
BRANCH   3   4
ATOM      4  C   UNL     1       2.430   7.196   0.807  1.00  0.00     0.261 C 
BRANCH   4   5
ATOM      5  O   UNL     1       3.949   7.250   0.602  1.00  0.00    -0.459 OA
BRANCH   5   6
ATOM      6  C   UNL     1       4.905   7.012  -0.404  1.00  0.00     0.371 C 
ATOM      7  O   UNL     1       5.528   8.006  -0.801  1.00  0.00    -0.245 OA
BRANCH   6   8
ATOM      8  C   UNL     1       5.251   5.633  -1.115  1.00  0.00     0.348 C 
ATOM      9  N   UNL     1       7.077   3.922  -1.826  1.00  0.00    -0.321 N 
ATOM     10  C   UNL     1       6.611   3.949  -3.212  1.00  0.00     0.324 C 
ATOM     11  C   UNL     1       6.764   5.208  -1.111  1.00  0.00     0.341 C 
ATOM     12  H   UNL     1       8.096   3.951  -1.798  1.00  0.00     0.348 HD
ATOM     13  C   UNL     1       5.190   4.506  -3.339  1.00  0.00     0.323 C 
ATOM     14  N   UNL     1       4.971   5.765  -2.605  1.00  0.00    -0.325 N 
ATOM     15  H   UNL     1       4.000   6.052  -2.730  1.00  0.00     0.347 HD
ATOM     16  H   UNL     1       5.620   6.457  -2.980  1.00  0.00     0.347 HD
BRANCH   9  17
ATOM     17  C   UNL     1       7.054   2.610  -1.150  1.00  0.00     0.303 C 
BRANCH  17  18
ATOM     18  C   UNL     1       5.778   1.765  -1.024  1.00  0.00     0.049 A 
ATOM     19  C   UNL     1       3.449   0.009  -0.999  1.00  0.00     0.125 A 
ATOM     20  C   UNL     1       4.501  -0.204  -1.880  1.00  0.00     0.047 A 
ATOM     21  C   UNL     1       3.558   1.126  -0.181  1.00  0.00     0.034 A 
ATOM     22  C   UNL     1       5.601   0.689  -1.937  1.00  0.00     0.017 A 
ATOM     23  C   UNL     1       4.783   1.866  -0.047  1.00  0.00     0.134 A 
ATOM     24  C   UNL     1       2.348   1.852   0.323  1.00  0.00     0.052 C 
BRANCH  19  25
ATOM     25  O   UNL     1       2.410  -0.888  -1.050  1.00  0.00    -0.493 OA
BRANCH  25  26
ATOM     26  C   UNL     1       1.442  -0.865   0.010  1.00  0.00     0.226 C 
ATOM     27  C   UNL     1       0.877  -2.244   0.283  1.00  0.00     0.049 C 
ENDBRANCH  25  26
ENDBRANCH  19  25
BRANCH  23  28
ATOM     28  O   UNL     1       4.774   2.515   1.159  1.00  0.00    -0.493 OA
BRANCH  28  29
ATOM     29  C   UNL     1       5.670   3.539   1.514  1.00  0.00     0.226 C 
ATOM     30  C   UNL     1       6.746   3.100   2.479  1.00  0.00     0.049 C 
ENDBRANCH  28  29
ENDBRANCH  23  28
ENDBRANCH  17  18
ENDBRANCH   9  17
ENDBRANCH   6   8
ENDBRANCH   5   6
ENDBRANCH   4   5
ENDBRANCH   3   4
ENDBRANCH   2   3
ENDBRANCH   1   2
BRANCH   1  31
ATOM     31  C   UNL     1      -0.477   6.873   2.721  1.00  0.00     0.188 C 
BRANCH  31  32
ATOM     32  O   UNL     1      -1.735   7.365   2.242  1.00  0.00    -0.376 OA
BRANCH  32  33
ATOM     33  C   UNL     1      -2.232   6.598   1.139  1.00  0.00     0.202 C 
BRANCH  33  34
ATOM     34  C   UNL     1      -2.376   5.087   1.415  1.00  0.00     0.261 C 
BRANCH  34  35
ATOM     35  O   UNL     1      -1.827   4.359   0.307  1.00  0.00    -0.460 OA
BRANCH  35  36
ATOM     36  C   UNL     1      -0.490   4.190   0.395  1.00  0.00     0.338 C 
ATOM     37  O   UNL     1       0.117   3.830   1.398  1.00  0.00    -0.246 OA
BRANCH  36  38
ATOM     38  C   UNL     1       0.136   4.782  -0.810  1.00  0.00     0.060 A 
ATOM     39  C   UNL     1       1.498   4.816  -0.872  1.00  0.00     0.016 A 
ATOM     40  C   UNL     1      -0.550   5.500  -1.789  1.00  0.00     0.016 A 
ATOM     41  C   UNL     1       2.112   5.542  -1.875  1.00  0.00     0.010 A 
ATOM     42  C   UNL     1       0.124   6.496  -2.530  1.00  0.00     0.010 A 
ATOM     43  C   UNL     1       1.500   6.639  -2.433  1.00  0.00    -0.014 A 
BRANCH  43  44
ATOM     44  C   UNL     1       2.222   7.875  -2.880  1.00  0.00     0.031 A 
ATOM     45  C   UNL     1       3.032   7.788  -4.118  1.00  0.00     0.074 A 
ATOM     46  C   UNL     1       2.536   9.018  -2.187  1.00  0.00     0.049 A 
ATOM     47  N   UNL     1       4.139   8.430  -4.316  1.00  0.00    -0.248 NA
ATOM     48  C   UNL     1       2.674   6.866  -5.188  1.00  0.00     0.031 C 
ATOM     49  C   UNL     1       2.514  10.378  -2.732  1.00  0.00     0.029 A 
ATOM     50  N   UNL     1       2.974   9.252  -0.893  1.00  0.00    -0.354 N 
ATOM     51  C   UNL     1       4.435   8.262  -5.644  1.00  0.00     0.074 A 
ATOM     52  C   UNL     1       3.629   7.138  -6.079  1.00  0.00     0.031 C 
ATOM     53  C   UNL     1       2.869  11.270  -1.781  1.00  0.00     0.029 A 
ATOM     54  C   UNL     1       3.257  10.576  -0.558  1.00  0.00     0.049 A 
ATOM     55  H   UNL     1       3.081   8.521  -0.243  1.00  0.00     0.167 HD
ATOM     56  C   UNL     1       5.063   9.251  -6.341  1.00  0.00     0.034 A 
ATOM     57  C   UNL     1       4.021  11.007   0.499  1.00  0.00     0.034 A 
ATOM     58  C   UNL     1       5.297  10.446  -5.516  1.00  0.00     0.049 A 
ATOM     59  C   UNL     1       5.240  11.695  -0.036  1.00  0.00     0.074 A 
ATOM     60  C   UNL     1       4.519  11.578  -5.317  1.00  0.00     0.029 A 
ATOM     61  N   UNL     1       6.291  10.493  -4.544  1.00  0.00    -0.354 N 
ATOM     62  N   UNL     1       5.397  11.982  -1.290  1.00  0.00    -0.248 NA
ATOM     63  C   UNL     1       6.435  11.974   0.757  1.00  0.00     0.031 C 
ATOM     64  C   UNL     1       5.077  12.336  -4.264  1.00  0.00     0.029 A 
ATOM     65  C   UNL     1       6.205  11.678  -3.812  1.00  0.00     0.049 A 
ATOM     66  H   UNL     1       6.962   9.789  -4.394  1.00  0.00     0.167 HD
ATOM     67  C   UNL     1       6.733  12.136  -1.530  1.00  0.00     0.074 A 
ATOM     68  C   UNL     1       7.318  12.276  -0.208  1.00  0.00     0.031 C 
ATOM     69  C   UNL     1       7.214  12.016  -2.804  1.00  0.00     0.034 A 
BRANCH  56  70
ATOM     70  C   UNL     1       4.893   9.286  -7.851  1.00  0.00     0.023 A 
ATOM     71  C   UNL     1       4.571  10.517  -8.456  1.00  0.00     0.012 A 
ATOM     72  C   UNL     1       4.866   8.146  -8.683  1.00  0.00     0.148 A 
ATOM     73  C   UNL     1       4.077  10.595  -9.760  1.00  0.00     0.002 A 
ATOM     74  C   UNL     1       4.283   8.207  -9.951  1.00  0.00     0.091 A 
ATOM     75  F   UNL     1       5.396   6.996  -8.237  1.00  0.00    -0.205 F 
ATOM     76  C   UNL     1       3.879   9.432 -10.489  1.00  0.00     0.022 A 
BRANCH  74  77
ATOM     77  S   UNL     1       3.825   6.714 -10.851  1.00  0.00     0.127 S 
ATOM     78  O   UNL     1       2.519   7.069 -11.415  1.00  0.00    -0.237 OA
ATOM     79  O   UNL     1       4.896   6.591 -11.835  1.00  0.00    -0.237 OA
ATOM     80  O   UNL     1       3.756   5.663  -9.841  1.00  0.00    -0.744 OA
ENDBRANCH  74  77
ENDBRANCH  56  70
BRANCH  57  81
ATOM     81  C   UNL     1       4.081  10.322   1.847  1.00  0.00     0.023 A 
ATOM     82  C   UNL     1       3.124  10.657   2.829  1.00  0.00     0.012 A 
ATOM     83  C   UNL     1       5.022   9.334   2.197  1.00  0.00     0.148 A 
ATOM     84  C   UNL     1       3.043   9.962   4.052  1.00  0.00     0.002 A 
ATOM     85  C   UNL     1       4.889   8.586   3.373  1.00  0.00     0.091 A 
ATOM     86  F   UNL     1       6.071   9.122   1.395  1.00  0.00    -0.205 F 
ATOM     87  C   UNL     1       3.891   8.889   4.302  1.00  0.00     0.022 A 
BRANCH  85  88
ATOM     88  S   UNL     1       5.920   7.132   3.644  1.00  0.00     0.127 S 
ATOM     89  O   UNL     1       5.152   6.359   4.623  1.00  0.00    -0.237 OA
ATOM     90  O   UNL     1       6.013   6.489   2.339  1.00  0.00    -0.237 OA
ATOM     91  O   UNL     1       7.154   7.713   4.160  1.00  0.00    -0.744 OA
ENDBRANCH  85  88
ENDBRANCH  57  81
BRANCH  69  92
ATOM     92  C   UNL     1       8.644  12.222  -3.246  1.00  0.00     0.023 A 
ATOM     93  C   UNL     1       9.744  12.269  -2.374  1.00  0.00     0.012 A 
ATOM     94  C   UNL     1       8.929  12.377  -4.628  1.00  0.00     0.148 A 
ATOM     95  C   UNL     1      11.046  12.498  -2.833  1.00  0.00     0.002 A 
ATOM     96  C   UNL     1      10.231  12.498  -5.089  1.00  0.00     0.091 A 
ATOM     97  F   UNL     1       7.930  12.473  -5.516  1.00  0.00    -0.205 F 
ATOM     98  C   UNL     1      11.295  12.587  -4.194  1.00  0.00     0.022 A 
BRANCH  96  99
ATOM     99  S   UNL     1      10.580  12.450  -6.848  1.00  0.00     0.127 S 
ATOM    100  O   UNL     1      10.600  13.870  -7.190  1.00  0.00    -0.237 OA
ATOM    101  O   UNL     1      11.888  11.793  -6.888  1.00  0.00    -0.237 OA
ATOM    102  O   UNL     1       9.503  11.660  -7.430  1.00  0.00    -0.744 OA
ENDBRANCH  96  99
ENDBRANCH  69  92
ENDBRANCH  43  44
ENDBRANCH  36  38
ENDBRANCH  35  36
ENDBRANCH  34  35
ENDBRANCH  33  34
ENDBRANCH  32  33
ENDBRANCH  31  32
ENDBRANCH   1  31
TORSDOF 26
