REMARK SMILES Cc1ccc(/C=C/C(=O)NC[C@H]2CC[C@@H](C(=O)OCCOCCOCCOC(=O)c3ccc(-c4c5nc(c(-c6cccc(S(=O)(=O)[O-])c6F)c6ccc([nH]6)c(-c6cccc(S(=O)(=O)[O-])c6F)c6nc(c(-c7cccc(S(=O)(=O)[O-])c7F)c7ccc4[nH]7)C=C6)C=C5)cc3)CC2)s1
REMARK SMILES IDX 22 1 21 2 20 3 19 4 18 5 16 6 17 7 15 8 12 9 13 10 94 11
REMARK SMILES IDX 14 12 93 13 11 14 10 15 8 16 9 17 7 19 6 20 5 21 1 22 2 23
REMARK SMILES IDX 3 24 95 25 4 26 23 27 24 28 25 29 26 30 27 31 28 32 29 33
REMARK SMILES IDX 30 34 31 35 92 36 32 37 91 38 33 39 34 40 35 41 85 42 36 43
REMARK SMILES IDX 90 44 84 45 86 46 37 47 89 48 83 49 82 50 38 52 70 53 50 54
REMARK SMILES IDX 69 55 51 56 54 57 68 58 87 59 52 60 53 61 67 63 88 64 55 65
REMARK SMILES IDX 39 66 40 67 48 68 41 69 43 70 49 71 42 72 44 73 45 74 46 75
REMARK SMILES IDX 47 76 71 77 72 78 80 79 73 80 75 81 81 82 74 83 76 84 77 85
REMARK SMILES IDX 78 86 79 87 56 88 57 89 65 90 58 91 60 92 66 93 59 94 61 95
REMARK SMILES IDX 62 96 63 97 64 98
REMARK H PARENT 10 18 86 51 54 62
REMARK Flexibility Score: inf
ROOT
ATOM      1  C   UNL     1      -2.714  -1.314   5.708  1.00  0.00     0.188 C 
ENDROOT
BRANCH   1   2
ATOM      2  O   UNL     1      -1.430  -1.770   5.316  1.00  0.00    -0.376 OA
BRANCH   2   3
ATOM      3  C   UNL     1      -1.102  -1.622   3.939  1.00  0.00     0.202 C 
BRANCH   3   4
ATOM      4  C   UNL     1      -2.108  -2.174   2.919  1.00  0.00     0.261 C 
BRANCH   4   5
ATOM      5  O   UNL     1      -3.472  -1.690   3.019  1.00  0.00    -0.463 OA
BRANCH   5   6
ATOM      6  C   UNL     1      -4.420  -2.656   3.158  1.00  0.00     0.309 C 
ATOM      7  O   UNL     1      -4.169  -3.858   3.188  1.00  0.00    -0.252 OA
BRANCH   6   8
ATOM      8  C   UNL     1      -5.869  -2.167   3.215  1.00  0.00     0.099 C 
ATOM      9  C   UNL     1      -6.441  -0.316   0.926  1.00  0.00     0.008 C 
ATOM     10  C   UNL     1      -6.192  -1.823   0.734  1.00  0.00     0.006 C 
ATOM     11  C   UNL     1      -5.848   0.203   2.249  1.00  0.00     0.006 C 
ATOM     12  C   UNL     1      -6.587  -2.652   1.954  1.00  0.00     0.015 C 
ATOM     13  C   UNL     1      -6.197  -0.692   3.432  1.00  0.00     0.015 C 
BRANCH   9  14
ATOM     14  C   UNL     1      -5.960   0.451  -0.327  1.00  0.00     0.119 C 
BRANCH  14  15
ATOM     15  N   UNL     1      -5.669   1.849  -0.077  1.00  0.00    -0.352 N 
ATOM     16  C   UNL     1      -4.509   2.555  -0.059  1.00  0.00     0.244 C 
ATOM     17  O   UNL     1      -4.571   3.776   0.089  1.00  0.00    -0.270 OA
ATOM     18  H   UNL     1      -6.467   2.392   0.117  1.00  0.00     0.163 HD
BRANCH  16  19
ATOM     19  C   UNL     1      -3.173   1.945  -0.284  1.00  0.00     0.072 C 
ATOM     20  C   UNL     1      -2.781   0.710   0.053  1.00  0.00     0.024 C 
BRANCH  20  21
ATOM     21  C   UNL     1      -1.466   0.201  -0.159  1.00  0.00     0.027 A 
ATOM     22  C   UNL     1       2.460  -0.064  -0.016  1.00  0.00     0.056 C 
ATOM     23  C   UNL     1       0.984  -0.213  -0.156  1.00  0.00     0.002 A 
ATOM     24  C   UNL     1       0.268  -1.353  -0.441  1.00  0.00     0.016 A 
ATOM     25  S   UNL     1      -0.041   1.139   0.055  1.00  0.00    -0.141 S 
ATOM     26  C   UNL     1      -1.133  -1.109  -0.467  1.00  0.00     0.020 A 
ENDBRANCH  20  21
ENDBRANCH  16  19
ENDBRANCH  14  15
ENDBRANCH   9  14
ENDBRANCH   6   8
ENDBRANCH   5   6
ENDBRANCH   4   5
ENDBRANCH   3   4
ENDBRANCH   2   3
ENDBRANCH   1   2
BRANCH   1  27
ATOM     27  C   UNL     1      -3.043   0.152   5.415  1.00  0.00     0.188 C 
BRANCH  27  28
ATOM     28  O   UNL     1      -2.310   0.783   4.380  1.00  0.00    -0.376 OA
BRANCH  28  29
ATOM     29  C   UNL     1      -2.226   2.208   4.462  1.00  0.00     0.202 C 
BRANCH  29  30
ATOM     30  C   UNL     1      -1.367   2.751   5.630  1.00  0.00     0.261 C 
BRANCH  30  31
ATOM     31  O   UNL     1      -1.801   2.403   6.966  1.00  0.00    -0.460 OA
BRANCH  31  32
ATOM     32  C   UNL     1      -3.069   2.738   7.314  1.00  0.00     0.338 C 
ATOM     33  O   UNL     1      -3.800   3.502   6.703  1.00  0.00    -0.246 OA
BRANCH  32  34
ATOM     34  C   UNL     1      -3.547   1.801   8.376  1.00  0.00     0.060 A 
ATOM     35  C   UNL     1      -4.835   1.255   8.238  1.00  0.00     0.016 A 
ATOM     36  C   UNL     1      -2.737   1.392   9.440  1.00  0.00     0.016 A 
ATOM     37  C   UNL     1      -5.344   0.377   9.201  1.00  0.00     0.010 A 
ATOM     38  C   UNL     1      -3.253   0.521  10.412  1.00  0.00     0.010 A 
ATOM     39  C   UNL     1      -4.579   0.053  10.329  1.00  0.00    -0.014 A 
BRANCH  39  40
ATOM     40  C   UNL     1      -5.249  -0.528  11.527  1.00  0.00     0.031 A 
ATOM     41  C   UNL     1      -5.660   0.421  12.627  1.00  0.00     0.074 A 
ATOM     42  C   UNL     1      -5.518  -1.841  11.652  1.00  0.00     0.049 A 
ATOM     43  N   UNL     1      -6.259   0.174  13.763  1.00  0.00    -0.248 NA
ATOM     44  C   UNL     1      -5.349   1.845  12.413  1.00  0.00     0.031 C 
ATOM     45  C   UNL     1      -5.195  -2.874  10.672  1.00  0.00     0.029 A 
ATOM     46  N   UNL     1      -6.117  -2.531  12.681  1.00  0.00    -0.354 N 
ATOM     47  C   UNL     1      -6.362   1.400  14.412  1.00  0.00     0.074 A 
ATOM     48  C   UNL     1      -5.753   2.388  13.550  1.00  0.00     0.031 C 
ATOM     49  C   UNL     1      -5.580  -4.070  11.155  1.00  0.00     0.029 A 
ATOM     50  C   UNL     1      -6.159  -3.893  12.487  1.00  0.00     0.049 A 
ATOM     51  H   UNL     1      -6.482  -2.091  13.483  1.00  0.00     0.167 HD
ATOM     52  C   UNL     1      -6.923   1.689  15.609  1.00  0.00     0.034 A 
ATOM     53  C   UNL     1      -6.601  -4.880  13.296  1.00  0.00     0.034 A 
ATOM     54  C   UNL     1      -7.550   0.721  16.465  1.00  0.00     0.049 A 
ATOM     55  C   UNL     1      -7.200  -4.535  14.640  1.00  0.00     0.074 A 
ATOM     56  C   UNL     1      -8.193   0.930  17.672  1.00  0.00     0.029 A 
ATOM     57  N   UNL     1      -7.597  -0.641  16.218  1.00  0.00    -0.354 N 
ATOM     58  N   UNL     1      -7.401  -3.358  15.181  1.00  0.00    -0.248 NA
ATOM     59  C   UNL     1      -7.667  -5.658  15.469  1.00  0.00     0.031 C 
ATOM     60  C   UNL     1      -8.596  -0.311  18.174  1.00  0.00     0.029 A 
ATOM     61  C   UNL     1      -8.244  -1.288  17.256  1.00  0.00     0.049 A 
ATOM     62  H   UNL     1      -7.225  -1.084  15.421  1.00  0.00     0.167 HD
ATOM     63  C   UNL     1      -8.058  -3.596  16.386  1.00  0.00     0.074 A 
ATOM     64  C   UNL     1      -8.235  -5.028  16.489  1.00  0.00     0.031 C 
ATOM     65  C   UNL     1      -8.470  -2.708  17.326  1.00  0.00     0.034 A 
BRANCH  52  66
ATOM     66  C   UNL     1      -6.888   3.125  16.064  1.00  0.00     0.023 A 
ATOM     67  C   UNL     1      -7.701   4.086  15.428  1.00  0.00     0.012 A 
ATOM     68  C   UNL     1      -6.081   3.512  17.151  1.00  0.00     0.148 A 
ATOM     69  C   UNL     1      -7.681   5.417  15.841  1.00  0.00     0.002 A 
ATOM     70  C   UNL     1      -6.105   4.830  17.590  1.00  0.00     0.091 A 
ATOM     71  F   UNL     1      -5.297   2.590  17.726  1.00  0.00    -0.205 F 
ATOM     72  C   UNL     1      -6.893   5.786  16.928  1.00  0.00     0.022 A 
BRANCH  70  73
ATOM     73  S   UNL     1      -5.191   5.385  19.032  1.00  0.00     0.127 S 
ATOM     74  O   UNL     1      -4.154   6.217  18.422  1.00  0.00    -0.237 OA
ATOM     75  O   UNL     1      -6.210   6.128  19.774  1.00  0.00    -0.237 OA
ATOM     76  O   UNL     1      -4.714   4.179  19.695  1.00  0.00    -0.744 OA
ENDBRANCH  70  73
ENDBRANCH  52  66
BRANCH  53  77
ATOM     77  C   UNL     1      -6.534  -6.305  12.853  1.00  0.00     0.023 A 
ATOM     78  C   UNL     1      -7.727  -7.010  12.596  1.00  0.00     0.012 A 
ATOM     79  C   UNL     1      -5.301  -6.969  12.706  1.00  0.00     0.148 A 
ATOM     80  C   UNL     1      -7.696  -8.358  12.236  1.00  0.00     0.002 A 
ATOM     81  C   UNL     1      -5.275  -8.297  12.293  1.00  0.00     0.091 A 
ATOM     82  F   UNL     1      -4.178  -6.290  12.976  1.00  0.00    -0.205 F 
ATOM     83  C   UNL     1      -6.471  -8.998  12.075  1.00  0.00     0.022 A 
BRANCH  81  84
ATOM     84  S   UNL     1      -3.744  -9.173  11.950  1.00  0.00     0.127 S 
ATOM     85  O   UNL     1      -3.727 -10.173  13.014  1.00  0.00    -0.237 OA
ATOM     86  O   UNL     1      -3.998  -9.703  10.610  1.00  0.00    -0.237 OA
ATOM     87  O   UNL     1      -2.692  -8.168  12.012  1.00  0.00    -0.744 OA
ENDBRANCH  81  84
ENDBRANCH  53  77
BRANCH  65  88
ATOM     88  C   UNL     1      -9.211  -3.241  18.528  1.00  0.00     0.023 A 
ATOM     89  C   UNL     1      -8.530  -3.987  19.510  1.00  0.00     0.012 A 
ATOM     90  C   UNL     1     -10.575  -2.937  18.718  1.00  0.00     0.148 A 
ATOM     91  C   UNL     1      -9.203  -4.458  20.638  1.00  0.00     0.002 A 
ATOM     92  C   UNL     1     -11.226  -3.363  19.870  1.00  0.00     0.091 A 
ATOM     93  F   UNL     1     -11.213  -2.238  17.768  1.00  0.00    -0.205 F 
ATOM     94  C   UNL     1     -10.546  -4.137  20.824  1.00  0.00     0.022 A 
BRANCH  92  95
ATOM     95  S   UNL     1     -12.925  -2.909  20.240  1.00  0.00     0.127 S 
ATOM     96  O   UNL     1     -13.628  -4.168  20.004  1.00  0.00    -0.237 OA
ATOM     97  O   UNL     1     -12.842  -2.511  21.645  1.00  0.00    -0.237 OA
ATOM     98  O   UNL     1     -13.258  -1.825  19.325  1.00  0.00    -0.744 OA
ENDBRANCH  92  95
ENDBRANCH  65  88
ENDBRANCH  39  40
ENDBRANCH  32  34
ENDBRANCH  31  32
ENDBRANCH  30  31
ENDBRANCH  29  30
ENDBRANCH  28  29
ENDBRANCH  27  28
ENDBRANCH   1  27
TORSDOF 24
