REMARK SMILES COc1ccccc1[C@H](C)NC(=O)[C@@H]1CC=CC[C@@H]1C(=O)OCCOCCOCCOC(=O)c1ccc(-c2c3nc(c(-c4cccc(S(=O)(=O)[O-])c4F)c4ccc([nH]4)c(-c4cccc(S(=O)(=O)[O-])c4F)c4nc(c(-c5cccc(S(=O)(=O)[O-])c5F)c5ccc2[nH]5)C=C4)C=C3)cc1
REMARK SMILES IDX 26 1 25 2 24 3 23 4 22 5 20 6 21 7 19 8 14 9 15 10 16 11
REMARK SMILES IDX 18 12 17 13 12 14 11 15 13 17 9 18 10 19 8 20 3 21 4 22 5 23
REMARK SMILES IDX 7 24 6 25 2 26 1 27 27 28 28 29 29 30 30 31 31 32 32 33
REMARK SMILES IDX 33 34 34 35 35 36 96 37 36 38 95 39 37 40 38 41 39 42 89 43
REMARK SMILES IDX 40 44 94 45 88 46 90 47 41 48 93 49 87 50 86 51 42 53 74 54
REMARK SMILES IDX 54 55 73 56 55 57 58 58 72 59 91 60 56 61 57 62 71 64 92 65
REMARK SMILES IDX 59 66 43 67 44 68 52 69 45 70 47 71 53 72 46 73 48 74 49 75
REMARK SMILES IDX 50 76 51 77 75 78 76 79 84 80 77 81 79 82 85 83 78 84 80 85
REMARK SMILES IDX 81 86 82 87 83 88 60 89 61 90 69 91 62 92 64 93 70 94 63 95
REMARK SMILES IDX 65 96 66 97 67 98 68 99
REMARK H PARENT 11 16 90 52 58 63
REMARK Flexibility Score: inf
ROOT
ATOM      1  C   UNL     1       2.080  -1.123  -3.588  1.00  0.00     0.188 C 
ENDROOT
BRANCH   1   2
ATOM      2  O   UNL     1       1.808  -2.150  -4.536  1.00  0.00    -0.376 OA
BRANCH   2   3
ATOM      3  C   UNL     1       1.227  -3.369  -4.092  1.00  0.00     0.202 C 
BRANCH   3   4
ATOM      4  C   UNL     1       2.041  -4.192  -3.088  1.00  0.00     0.261 C 
BRANCH   4   5
ATOM      5  O   UNL     1       2.209  -3.544  -1.808  1.00  0.00    -0.463 OA
BRANCH   5   6
ATOM      6  C   UNL     1       3.463  -3.499  -1.307  1.00  0.00     0.310 C 
ATOM      7  O   UNL     1       4.438  -3.998  -1.862  1.00  0.00    -0.252 OA
BRANCH   6   8
ATOM      8  C   UNL     1       3.627  -2.711  -0.002  1.00  0.00     0.115 C 
ATOM      9  C   UNL     1       2.483  -2.574   1.032  1.00  0.00     0.097 C 
ATOM     10  C   UNL     1       1.796  -1.200   1.132  1.00  0.00     0.041 C 
ATOM     11  C   UNL     1       2.712  -0.043   0.930  1.00  0.00    -0.030 C 
ATOM     12  C   UNL     1       4.420  -1.417  -0.283  1.00  0.00     0.043 C 
ATOM     13  C   UNL     1       3.887  -0.148   0.304  1.00  0.00    -0.030 C 
BRANCH   9  14
ATOM     14  C   UNL     1       1.420  -3.643   0.907  1.00  0.00     0.224 C 
ATOM     15  N   UNL     1       1.704  -4.914   1.273  1.00  0.00    -0.349 N 
ATOM     16  H   UNL     1       1.108  -5.590   0.878  1.00  0.00     0.164 HD
ATOM     17  O   UNL     1       0.286  -3.423   0.482  1.00  0.00    -0.275 OA
BRANCH  15  18
ATOM     18  C   UNL     1       2.746  -5.468   2.156  1.00  0.00     0.113 C 
ATOM     19  C   UNL     1       2.043  -5.508   3.522  1.00  0.00     0.036 C 
BRANCH  18  20
ATOM     20  C   UNL     1       3.247  -6.824   1.651  1.00  0.00     0.016 A 
ATOM     21  C   UNL     1       4.298  -7.586   2.204  1.00  0.00     0.124 A 
ATOM     22  C   UNL     1       4.614  -8.850   1.655  1.00  0.00     0.047 A 
ATOM     23  C   UNL     1       3.978  -9.348   0.523  1.00  0.00     0.004 A 
ATOM     24  C   UNL     1       2.678  -7.337   0.449  1.00  0.00     0.010 A 
ATOM     25  C   UNL     1       3.033  -8.566  -0.107  1.00  0.00     0.001 A 
BRANCH  21  26
ATOM     26  O   UNL     1       5.276  -7.210   3.084  1.00  0.00    -0.496 OA
ATOM     27  C   UNL     1       4.980  -6.540   4.287  1.00  0.00     0.278 C 
ENDBRANCH  21  26
ENDBRANCH  18  20
ENDBRANCH  15  18
ENDBRANCH   9  14
ENDBRANCH   6   8
ENDBRANCH   5   6
ENDBRANCH   4   5
ENDBRANCH   3   4
ENDBRANCH   2   3
ENDBRANCH   1   2
BRANCH   1  28
ATOM     28  C   UNL     1       1.110  -0.927  -2.418  1.00  0.00     0.188 C 
BRANCH  28  29
ATOM     29  O   UNL     1      -0.215  -1.328  -2.724  1.00  0.00    -0.376 OA
BRANCH  29  30
ATOM     30  C   UNL     1      -1.221  -0.386  -2.401  1.00  0.00     0.202 C 
BRANCH  30  31
ATOM     31  C   UNL     1      -1.358   0.661  -3.509  1.00  0.00     0.261 C 
BRANCH  31  32
ATOM     32  O   UNL     1      -0.168   1.435  -3.747  1.00  0.00    -0.460 OA
BRANCH  32  33
ATOM     33  C   UNL     1       0.224   2.267  -2.761  1.00  0.00     0.338 C 
ATOM     34  O   UNL     1      -0.344   2.458  -1.689  1.00  0.00    -0.246 OA
BRANCH  33  35
ATOM     35  C   UNL     1       1.567   2.775  -3.093  1.00  0.00     0.060 A 
ATOM     36  C   UNL     1       2.633   2.506  -2.224  1.00  0.00     0.016 A 
ATOM     37  C   UNL     1       1.774   3.521  -4.253  1.00  0.00     0.016 A 
ATOM     38  C   UNL     1       3.909   2.999  -2.503  1.00  0.00     0.010 A 
ATOM     39  C   UNL     1       3.046   4.030  -4.522  1.00  0.00     0.010 A 
ATOM     40  C   UNL     1       4.115   3.796  -3.636  1.00  0.00    -0.014 A 
BRANCH  40  41
ATOM     41  C   UNL     1       5.391   4.529  -3.826  1.00  0.00     0.031 A 
ATOM     42  C   UNL     1       5.424   5.999  -3.510  1.00  0.00     0.074 A 
ATOM     43  C   UNL     1       6.489   3.919  -4.308  1.00  0.00     0.049 A 
ATOM     44  N   UNL     1       6.364   6.877  -3.738  1.00  0.00    -0.248 NA
ATOM     45  C   UNL     1       4.228   6.552  -2.853  1.00  0.00     0.031 C 
ATOM     46  C   UNL     1       6.597   2.497  -4.625  1.00  0.00     0.029 A 
ATOM     47  N   UNL     1       7.714   4.437  -4.652  1.00  0.00    -0.354 N 
ATOM     48  C   UNL     1       5.855   8.095  -3.304  1.00  0.00     0.074 A 
ATOM     49  C   UNL     1       4.526   7.841  -2.791  1.00  0.00     0.031 C 
ATOM     50  C   UNL     1       7.811   2.261  -5.154  1.00  0.00     0.029 A 
ATOM     51  C   UNL     1       8.546   3.521  -5.254  1.00  0.00     0.049 A 
ATOM     52  H   UNL     1       7.972   5.372  -4.484  1.00  0.00     0.167 HD
ATOM     53  C   UNL     1       6.441   9.315  -3.327  1.00  0.00     0.034 A 
ATOM     54  C   UNL     1       9.741   3.689  -5.856  1.00  0.00     0.034 A 
ATOM     55  C   UNL     1       7.771   9.560  -3.813  1.00  0.00     0.049 A 
ATOM     56  C   UNL     1      10.361   5.064  -5.901  1.00  0.00     0.074 A 
ATOM     57  C   UNL     1       8.470  10.754  -3.837  1.00  0.00     0.029 A 
ATOM     58  N   UNL     1       8.599   8.600  -4.371  1.00  0.00    -0.354 N 
ATOM     59  N   UNL     1       9.908   6.192  -5.408  1.00  0.00    -0.248 NA
ATOM     60  C   UNL     1      11.667   5.186  -6.567  1.00  0.00     0.031 C 
ATOM     61  C   UNL     1       9.710  10.521  -4.439  1.00  0.00     0.029 A 
ATOM     62  C   UNL     1       9.797   9.175  -4.756  1.00  0.00     0.049 A 
ATOM     63  H   UNL     1       8.369   7.649  -4.479  1.00  0.00     0.167 HD
ATOM     64  C   UNL     1      10.887   7.146  -5.670  1.00  0.00     0.074 A 
ATOM     65  C   UNL     1      11.964   6.461  -6.354  1.00  0.00     0.031 C 
ATOM     66  C   UNL     1      10.888   8.471  -5.382  1.00  0.00     0.034 A 
BRANCH  53  67
ATOM     67  C   UNL     1       5.643  10.481  -2.808  1.00  0.00     0.023 A 
ATOM     68  C   UNL     1       5.412  10.616  -1.425  1.00  0.00     0.012 A 
ATOM     69  C   UNL     1       5.158  11.466  -3.691  1.00  0.00     0.148 A 
ATOM     70  C   UNL     1       4.680  11.695  -0.930  1.00  0.00     0.002 A 
ATOM     71  C   UNL     1       4.469  12.562  -3.186  1.00  0.00     0.091 A 
ATOM     72  F   UNL     1       5.367  11.307  -5.005  1.00  0.00    -0.205 F 
ATOM     73  C   UNL     1       4.218  12.672  -1.809  1.00  0.00     0.022 A 
BRANCH  71  74
ATOM     74  S   UNL     1       3.903  13.911  -4.228  1.00  0.00     0.127 S 
ATOM     75  O   UNL     1       2.456  13.702  -4.221  1.00  0.00    -0.237 OA
ATOM     76  O   UNL     1       4.353  15.086  -3.481  1.00  0.00    -0.237 OA
ATOM     77  O   UNL     1       4.556  13.725  -5.516  1.00  0.00    -0.744 OA
ENDBRANCH  71  74
ENDBRANCH  53  67
BRANCH  54  78
ATOM     78  C   UNL     1      10.441   2.521  -6.464  1.00  0.00     0.023 A 
ATOM     79  C   UNL     1      11.631   2.043  -5.882  1.00  0.00     0.012 A 
ATOM     80  C   UNL     1       9.928   1.876  -7.607  1.00  0.00     0.148 A 
ATOM     81  C   UNL     1      12.312   0.961  -6.442  1.00  0.00     0.002 A 
ATOM     82  C   UNL     1      10.582   0.765  -8.127  1.00  0.00     0.091 A 
ATOM     83  F   UNL     1       8.806   2.360  -8.159  1.00  0.00    -0.205 F 
ATOM     84  C   UNL     1      11.782   0.316  -7.557  1.00  0.00     0.022 A 
BRANCH  82  85
ATOM     85  S   UNL     1       9.913  -0.201  -9.487  1.00  0.00     0.127 S 
ATOM     86  O   UNL     1      10.873   0.079 -10.552  1.00  0.00    -0.237 OA
ATOM     87  O   UNL     1       9.971  -1.559  -8.946  1.00  0.00    -0.237 OA
ATOM     88  O   UNL     1       8.565   0.305  -9.704  1.00  0.00    -0.744 OA
ENDBRANCH  82  85
ENDBRANCH  54  78
BRANCH  66  89
ATOM     89  C   UNL     1      12.107   9.277  -5.751  1.00  0.00     0.023 A 
ATOM     90  C   UNL     1      12.355   9.604  -7.098  1.00  0.00     0.012 A 
ATOM     91  C   UNL     1      12.950   9.796  -4.746  1.00  0.00     0.148 A 
ATOM     92  C   UNL     1      13.436  10.416  -7.442  1.00  0.00     0.002 A 
ATOM     93  C   UNL     1      13.995  10.645  -5.092  1.00  0.00     0.091 A 
ATOM     94  F   UNL     1      12.705   9.460  -3.471  1.00  0.00    -0.205 F 
ATOM     95  C   UNL     1      14.246  10.947  -6.440  1.00  0.00     0.022 A 
BRANCH  93  96
ATOM     96  S   UNL     1      15.027  11.454  -3.865  1.00  0.00     0.127 S 
ATOM     97  O   UNL     1      16.306  10.770  -4.053  1.00  0.00    -0.237 OA
ATOM     98  O   UNL     1      15.008  12.847  -4.314  1.00  0.00    -0.237 OA
ATOM     99  O   UNL     1      14.382  11.225  -2.579  1.00  0.00    -0.744 OA
ENDBRANCH  93  96
ENDBRANCH  66  89
ENDBRANCH  40  41
ENDBRANCH  33  35
ENDBRANCH  32  33
ENDBRANCH  31  32
ENDBRANCH  30  31
ENDBRANCH  29  30
ENDBRANCH  28  29
ENDBRANCH   1  28
TORSDOF 24
