REMARK SMILES Cc1nc(N2CCN(c3ccccc3)CC2)nc(OCC(=O)OCCOCCOCCOC(=O)c2ccc(-c3c4nc(c(-c5cccc(S(=O)(=O)[O-])c5F)c5ccc([nH]5)c(-c5cccc(S(=O)(=O)[O-])c5F)c5nc(c(-c6cccc(S(=O)(=O)[O-])c6F)c6ccc3[nH]6)C=C5)C=C4)cc2)c1C
REMARK SMILES IDX 27 1 26 2 25 3 24 4 23 5 21 6 22 7 20 8 19 9 18 10 1 11 2 12
REMARK SMILES IDX 3 13 98 14 4 15 99 16 17 17 5 18 6 19 16 20 7 21 15 22 8 23
REMARK SMILES IDX 9 24 10 25 14 26 11 27 13 28 12 29 28 30 29 31 30 32 31 33
REMARK SMILES IDX 32 34 33 35 34 36 35 37 36 38 97 39 37 40 96 41 38 42 39 43
REMARK SMILES IDX 40 44 90 45 41 46 95 47 89 48 91 49 42 50 94 51 88 52 87 53
REMARK SMILES IDX 43 55 75 56 55 57 74 58 56 59 59 60 73 61 92 62 57 63 58 64
REMARK SMILES IDX 72 66 93 67 60 68 44 69 45 70 53 71 46 72 48 73 54 74 47 75
REMARK SMILES IDX 49 76 50 77 51 78 52 79 76 80 77 81 85 82 78 83 80 84 86 85
REMARK SMILES IDX 79 86 81 87 82 88 83 89 84 90 61 91 62 92 70 93 63 94 65 95
REMARK SMILES IDX 71 96 64 97 66 98 67 99 68 100 69 101
REMARK H PARENT 91 54 59 65
REMARK Flexibility Score: inf
ROOT
ATOM      1  C   UNL     1      -1.679  -0.138   2.950  1.00  0.00     0.188 C 
ENDROOT
BRANCH   1   2
ATOM      2  O   UNL     1      -2.389   0.291   4.109  1.00  0.00    -0.376 OA
BRANCH   2   3
ATOM      3  C   UNL     1      -3.071  -0.701   4.867  1.00  0.00     0.202 C 
BRANCH   3   4
ATOM      4  C   UNL     1      -4.307  -1.287   4.182  1.00  0.00     0.261 C 
BRANCH   4   5
ATOM      5  O   UNL     1      -3.937  -2.231   3.159  1.00  0.00    -0.461 OA
BRANCH   5   6
ATOM      6  C   UNL     1      -4.475  -2.070   1.917  1.00  0.00     0.344 C 
ATOM      7  O   UNL     1      -5.277  -1.200   1.604  1.00  0.00    -0.248 OA
BRANCH   6   8
ATOM      8  C   UNL     1      -3.998  -3.158   0.958  1.00  0.00     0.353 C 
BRANCH   8   9
ATOM      9  O   UNL     1      -2.676  -3.555   1.257  1.00  0.00    -0.465 OA
BRANCH   9  10
ATOM     10  C   UNL     1      -1.658  -3.597   0.363  1.00  0.00     0.221 A 
ATOM     11  C   UNL     1       0.468  -1.977  -2.305  1.00  0.00     0.067 C 
ATOM     12  C   UNL     1      -0.134  -2.882  -1.269  1.00  0.00     0.050 A 
ATOM     13  N   UNL     1       0.700  -3.881  -0.920  1.00  0.00    -0.218 NA
ATOM     14  C   UNL     1      -1.367  -2.682  -0.644  1.00  0.00     0.033 A 
ATOM     15  C   UNL     1       0.332  -4.714   0.050  1.00  0.00     0.229 A 
ATOM     16  C   UNL     1      -2.280  -1.572  -1.054  1.00  0.00     0.052 C 
ATOM     17  N   UNL     1      -0.814  -4.589   0.712  1.00  0.00    -0.177 NA
BRANCH  15  18
ATOM     18  N   UNL     1       1.167  -5.774   0.367  1.00  0.00    -0.337 N 
ATOM     19  C   UNL     1       2.358  -5.353   1.120  1.00  0.00     0.141 C 
ATOM     20  C   UNL     1       1.487  -6.594  -0.812  1.00  0.00     0.141 C 
ATOM     21  C   UNL     1       3.181  -6.590   1.559  1.00  0.00     0.138 C 
ATOM     22  C   UNL     1       2.296  -7.839  -0.402  1.00  0.00     0.138 C 
ATOM     23  N   UNL     1       3.475  -7.463   0.406  1.00  0.00    -0.368 N 
BRANCH  23  24
ATOM     24  C   UNL     1       4.483  -8.414   0.486  1.00  0.00     0.037 A 
ATOM     25  C   UNL     1       4.771  -9.121   1.659  1.00  0.00     0.026 A 
ATOM     26  C   UNL     1       5.251  -8.700  -0.652  1.00  0.00     0.026 A 
ATOM     27  C   UNL     1       5.787 -10.083   1.693  1.00  0.00     0.002 A 
ATOM     28  C   UNL     1       6.275  -9.649  -0.623  1.00  0.00     0.002 A 
ATOM     29  C   UNL     1       6.541 -10.344   0.552  1.00  0.00     0.000 A 
ENDBRANCH  23  24
ENDBRANCH  15  18
ENDBRANCH   9  10
ENDBRANCH   8   9
ENDBRANCH   6   8
ENDBRANCH   5   6
ENDBRANCH   4   5
ENDBRANCH   3   4
ENDBRANCH   2   3
ENDBRANCH   1   2
BRANCH   1  30
ATOM     30  C   UNL     1      -0.849  -1.425   3.071  1.00  0.00     0.188 C 
BRANCH  30  31
ATOM     31  O   UNL     1      -0.078  -1.462   4.270  1.00  0.00    -0.376 OA
BRANCH  31  32
ATOM     32  C   UNL     1       1.321  -1.619   4.048  1.00  0.00     0.202 C 
BRANCH  32  33
ATOM     33  C   UNL     1       1.988  -0.252   3.942  1.00  0.00     0.261 C 
BRANCH  33  34
ATOM     34  O   UNL     1       1.558   0.448   2.760  1.00  0.00    -0.460 OA
BRANCH  34  35
ATOM     35  C   UNL     1       2.339   0.276   1.673  1.00  0.00     0.338 C 
ATOM     36  O   UNL     1       3.333  -0.420   1.586  1.00  0.00    -0.246 OA
BRANCH  35  37
ATOM     37  C   UNL     1       1.808   1.086   0.562  1.00  0.00     0.060 A 
ATOM     38  C   UNL     1       0.584   0.760  -0.021  1.00  0.00     0.016 A 
ATOM     39  C   UNL     1       2.604   2.091   0.012  1.00  0.00     0.016 A 
ATOM     40  C   UNL     1       0.203   1.375  -1.216  1.00  0.00     0.010 A 
ATOM     41  C   UNL     1       2.194   2.735  -1.160  1.00  0.00     0.010 A 
ATOM     42  C   UNL     1       1.018   2.342  -1.820  1.00  0.00    -0.014 A 
BRANCH  42  43
ATOM     43  C   UNL     1       0.707   2.864  -3.180  1.00  0.00     0.031 A 
ATOM     44  C   UNL     1       1.670   2.613  -4.314  1.00  0.00     0.074 A 
ATOM     45  C   UNL     1      -0.438   3.527  -3.431  1.00  0.00     0.049 A 
ATOM     46  N   UNL     1       1.701   3.149  -5.507  1.00  0.00    -0.248 NA
ATOM     47  C   UNL     1       2.728   1.616  -4.079  1.00  0.00     0.031 C 
ATOM     48  C   UNL     1      -1.514   3.751  -2.468  1.00  0.00     0.029 A 
ATOM     49  N   UNL     1      -0.879   4.148  -4.577  1.00  0.00    -0.354 N 
ATOM     50  C   UNL     1       2.809   2.600  -6.143  1.00  0.00     0.074 A 
ATOM     51  C   UNL     1       3.415   1.673  -5.212  1.00  0.00     0.031 C 
ATOM     52  C   UNL     1      -2.491   4.456  -3.060  1.00  0.00     0.029 A 
ATOM     53  C   UNL     1      -2.067   4.821  -4.409  1.00  0.00     0.049 A 
ATOM     54  H   UNL     1      -0.393   4.113  -5.432  1.00  0.00     0.167 HD
ATOM     55  C   UNL     1       3.276   2.845  -7.390  1.00  0.00     0.034 A 
ATOM     56  C   UNL     1      -2.711   5.690  -5.215  1.00  0.00     0.034 A 
ATOM     57  C   UNL     1       2.652   3.737  -8.330  1.00  0.00     0.049 A 
ATOM     58  C   UNL     1      -2.114   6.039  -6.551  1.00  0.00     0.074 A 
ATOM     59  C   UNL     1       3.069   4.068  -9.608  1.00  0.00     0.029 A 
ATOM     60  N   UNL     1       1.477   4.435  -8.101  1.00  0.00    -0.354 N 
ATOM     61  N   UNL     1      -1.050   5.542  -7.133  1.00  0.00    -0.248 NA
ATOM     62  C   UNL     1      -2.801   7.074  -7.338  1.00  0.00     0.031 C 
ATOM     63  C   UNL     1       2.154   4.979 -10.145  1.00  0.00     0.029 A 
ATOM     64  C   UNL     1       1.159   5.203  -9.208  1.00  0.00     0.049 A 
ATOM     65  H   UNL     1       0.947   4.391  -7.273  1.00  0.00     0.167 HD
ATOM     66  C   UNL     1      -0.943   6.197  -8.355  1.00  0.00     0.074 A 
ATOM     67  C   UNL     1      -2.068   7.103  -8.444  1.00  0.00     0.031 C 
ATOM     68  C   UNL     1       0.017   6.075  -9.305  1.00  0.00     0.034 A 
BRANCH  55  69
ATOM     69  C   UNL     1       4.526   2.131  -7.831  1.00  0.00     0.023 A 
ATOM     70  C   UNL     1       4.452   0.788  -8.247  1.00  0.00     0.012 A 
ATOM     71  C   UNL     1       5.751   2.821  -7.927  1.00  0.00     0.148 A 
ATOM     72  C   UNL     1       5.582   0.138  -8.744  1.00  0.00     0.002 A 
ATOM     73  C   UNL     1       6.864   2.178  -8.457  1.00  0.00     0.091 A 
ATOM     74  F   UNL     1       5.803   4.092  -7.502  1.00  0.00    -0.205 F 
ATOM     75  C   UNL     1       6.783   0.836  -8.861  1.00  0.00     0.022 A 
BRANCH  73  76
ATOM     76  S   UNL     1       8.432   3.017  -8.716  1.00  0.00     0.127 S 
ATOM     77  O   UNL     1       9.261   2.421  -7.669  1.00  0.00    -0.237 OA
ATOM     78  O   UNL     1       8.781   2.608 -10.077  1.00  0.00    -0.237 OA
ATOM     79  O   UNL     1       8.156   4.438  -8.562  1.00  0.00    -0.744 OA
ENDBRANCH  73  76
ENDBRANCH  55  69
BRANCH  56  80
ATOM     80  C   UNL     1      -3.986   6.309  -4.752  1.00  0.00     0.023 A 
ATOM     81  C   UNL     1      -5.194   5.979  -5.395  1.00  0.00     0.012 A 
ATOM     82  C   UNL     1      -4.017   7.159  -3.628  1.00  0.00     0.148 A 
ATOM     83  C   UNL     1      -6.408   6.480  -4.922  1.00  0.00     0.002 A 
ATOM     84  C   UNL     1      -5.235   7.592  -3.119  1.00  0.00     0.091 A 
ATOM     85  F   UNL     1      -2.853   7.499  -3.055  1.00  0.00    -0.205 F 
ATOM     86  C   UNL     1      -6.431   7.267  -3.773  1.00  0.00     0.022 A 
BRANCH  84  87
ATOM     87  S   UNL     1      -5.356   8.452  -1.545  1.00  0.00     0.127 S 
ATOM     88  O   UNL     1      -5.652   9.817  -1.971  1.00  0.00    -0.237 OA
ATOM     89  O   UNL     1      -6.468   7.751  -0.901  1.00  0.00    -0.237 OA
ATOM     90  O   UNL     1      -4.068   8.252  -0.894  1.00  0.00    -0.744 OA
ENDBRANCH  84  87
ENDBRANCH  56  80
BRANCH  68  91
ATOM     91  C   UNL     1      -0.092   6.943 -10.531  1.00  0.00     0.023 A 
ATOM     92  C   UNL     1       0.235   8.310 -10.438  1.00  0.00     0.012 A 
ATOM     93  C   UNL     1      -0.426   6.395 -11.785  1.00  0.00     0.148 A 
ATOM     94  C   UNL     1       0.213   9.123 -11.571  1.00  0.00     0.002 A 
ATOM     95  C   UNL     1      -0.405   7.202 -12.917  1.00  0.00     0.091 A 
ATOM     96  F   UNL     1      -0.753   5.096 -11.849  1.00  0.00    -0.205 F 
ATOM     97  C   UNL     1      -0.094   8.567 -12.811  1.00  0.00     0.022 A 
BRANCH  95  98
ATOM     98  S   UNL     1      -0.700   6.550 -14.566  1.00  0.00     0.127 S 
ATOM     99  O   UNL     1      -2.055   7.027 -14.836  1.00  0.00    -0.237 OA
ATOM    100  O   UNL     1       0.345   7.205 -15.354  1.00  0.00    -0.237 OA
ATOM    101  O   UNL     1      -0.553   5.105 -14.454  1.00  0.00    -0.744 OA
ENDBRANCH  95  98
ENDBRANCH  68  91
ENDBRANCH  42  43
ENDBRANCH  35  37
ENDBRANCH  34  35
ENDBRANCH  33  34
ENDBRANCH  32  33
ENDBRANCH  31  32
ENDBRANCH  30  31
ENDBRANCH   1  30
TORSDOF 24
