REMARK SMILES O=C(OCCOCCOCCOC(=O)c1cc(Br)ccc1OCc1ccccc1F)c1ccc(-c2c3nc(c(-c4cccc(S(=O)(=O)[O-])c4F)c4ccc([nH]4)c(-c4cccc(S(=O)(=O)[O-])c4F)c4nc(c(-c5cccc(S(=O)(=O)[O-])c5F)c5ccc2[nH]5)C=C4)C=C3)cc1
REMARK SMILES IDX 7 1 6 2 5 3 4 4 3 5 2 6 1 7 31 8 32 9 93 10 33 11 92 12
REMARK SMILES IDX 34 13 35 14 36 15 86 16 37 17 91 18 85 19 87 20 38 21 90 22
REMARK SMILES IDX 84 23 83 24 39 26 71 27 51 28 70 29 52 30 55 31 69 32 88 33
REMARK SMILES IDX 53 34 54 35 68 37 89 38 56 39 40 40 41 41 49 42 42 43 44 44
REMARK SMILES IDX 50 45 43 46 45 47 46 48 47 49 48 50 72 51 73 52 81 53 74 54
REMARK SMILES IDX 76 55 82 56 75 57 77 58 78 59 79 60 80 61 57 62 58 63 66 64
REMARK SMILES IDX 59 65 61 66 67 67 60 68 62 69 63 70 64 71 65 72 8 73 9 74
REMARK SMILES IDX 10 75 11 76 12 77 13 78 14 79 15 80 16 81 21 82 17 83 20 84
REMARK SMILES IDX 18 85 19 86 22 87 23 88 24 89 25 90 29 91 26 92 28 93 30 94
REMARK SMILES IDX 27 95
REMARK H PARENT 87 25 55 36
REMARK Flexibility Score: inf
ROOT
ATOM      1  C   UNL     1       3.707  -0.236  -2.180  1.00  0.00     0.188 C 
ENDROOT
BRANCH   1   2
ATOM      2  O   UNL     1       4.670  -1.292  -2.119  1.00  0.00    -0.376 OA
BRANCH   2   3
ATOM      3  C   UNL     1       5.320  -1.416  -0.852  1.00  0.00     0.202 C 
BRANCH   3   4
ATOM      4  C   UNL     1       4.439  -1.992   0.275  1.00  0.00     0.261 C 
BRANCH   4   5
ATOM      5  O   UNL     1       3.071  -1.518   0.250  1.00  0.00    -0.460 OA
BRANCH   5   6
ATOM      6  C   UNL     1       2.403  -0.768   1.154  1.00  0.00     0.338 C 
ATOM      7  O   UNL     1       1.208  -0.969   1.349  1.00  0.00    -0.246 OA
BRANCH   6   8
ATOM      8  C   UNL     1       3.061   0.381   1.831  1.00  0.00     0.060 A 
ATOM      9  C   UNL     1       4.225   0.979   1.358  1.00  0.00     0.016 A 
ATOM     10  C   UNL     1       2.435   0.944   2.953  1.00  0.00     0.016 A 
ATOM     11  C   UNL     1       4.864   1.980   2.078  1.00  0.00     0.010 A 
ATOM     12  C   UNL     1       3.030   2.007   3.643  1.00  0.00     0.010 A 
ATOM     13  C   UNL     1       4.290   2.474   3.249  1.00  0.00    -0.014 A 
BRANCH  13  14
ATOM     14  C   UNL     1       5.118   3.333   4.123  1.00  0.00     0.031 A 
ATOM     15  C   UNL     1       5.701   2.724   5.368  1.00  0.00     0.074 A 
ATOM     16  C   UNL     1       5.468   4.573   3.733  1.00  0.00     0.049 A 
ATOM     17  N   UNL     1       6.548   3.240   6.216  1.00  0.00    -0.248 NA
ATOM     18  C   UNL     1       5.301   1.341   5.687  1.00  0.00     0.031 C 
ATOM     19  C   UNL     1       5.019   5.223   2.501  1.00  0.00     0.029 A 
ATOM     20  N   UNL     1       6.309   5.492   4.308  1.00  0.00    -0.354 N 
ATOM     21  C   UNL     1       6.762   2.259   7.176  1.00  0.00     0.074 A 
ATOM     22  C   UNL     1       5.953   1.119   6.817  1.00  0.00     0.031 C 
ATOM     23  C   UNL     1       5.613   6.423   2.403  1.00  0.00     0.029 A 
ATOM     24  C   UNL     1       6.445   6.649   3.576  1.00  0.00     0.049 A 
ATOM     25  H   UNL     1       6.771   5.338   5.163  1.00  0.00     0.167 HD
ATOM     26  C   UNL     1       7.579   2.296   8.251  1.00  0.00     0.034 A 
ATOM     27  C   UNL     1       7.159   7.764   3.823  1.00  0.00     0.034 A 
ATOM     28  C   UNL     1       8.395   3.423   8.589  1.00  0.00     0.049 A 
ATOM     29  C   UNL     1       8.009   7.805   5.062  1.00  0.00     0.074 A 
ATOM     30  C   UNL     1       9.239   3.577   9.671  1.00  0.00     0.029 A 
ATOM     31  N   UNL     1       8.464   4.593   7.848  1.00  0.00    -0.354 N 
ATOM     32  N   UNL     1       8.239   6.848   5.929  1.00  0.00    -0.248 NA
ATOM     33  C   UNL     1       8.711   9.063   5.352  1.00  0.00     0.031 C 
ATOM     34  C   UNL     1       9.805   4.853   9.596  1.00  0.00     0.029 A 
ATOM     35  C   UNL     1       9.324   5.485   8.458  1.00  0.00     0.049 A 
ATOM     36  H   UNL     1       7.973   4.763   7.012  1.00  0.00     0.167 HD
ATOM     37  C   UNL     1       9.115   7.383   6.864  1.00  0.00     0.074 A 
ATOM     38  C   UNL     1       9.401   8.739   6.439  1.00  0.00     0.031 C 
ATOM     39  C   UNL     1       9.618   6.814   7.986  1.00  0.00     0.034 A 
BRANCH  26  40
ATOM     40  C   UNL     1       7.626   1.077   9.126  1.00  0.00     0.023 A 
ATOM     41  C   UNL     1       8.367  -0.049   8.713  1.00  0.00     0.012 A 
ATOM     42  C   UNL     1       6.956   1.054  10.364  1.00  0.00     0.148 A 
ATOM     43  C   UNL     1       8.422  -1.190   9.512  1.00  0.00     0.002 A 
ATOM     44  C   UNL     1       7.042  -0.075  11.168  1.00  0.00     0.091 A 
ATOM     45  F   UNL     1       6.238   2.128  10.720  1.00  0.00    -0.205 F 
ATOM     46  C   UNL     1       7.768  -1.200  10.741  1.00  0.00     0.022 A 
BRANCH  44  47
ATOM     47  S   UNL     1       6.271  -0.176  12.787  1.00  0.00     0.127 S 
ATOM     48  O   UNL     1       5.266  -1.216  12.569  1.00  0.00    -0.237 OA
ATOM     49  O   UNL     1       7.393  -0.579  13.634  1.00  0.00    -0.237 OA
ATOM     50  O   UNL     1       5.739   1.151  13.063  1.00  0.00    -0.744 OA
ENDBRANCH  44  47
ENDBRANCH  26  40
BRANCH  27  51
ATOM     51  C   UNL     1       7.125   8.912   2.870  1.00  0.00     0.023 A 
ATOM     52  C   UNL     1       8.265   9.207   2.098  1.00  0.00     0.012 A 
ATOM     53  C   UNL     1       5.970   9.705   2.714  1.00  0.00     0.148 A 
ATOM     54  C   UNL     1       8.260  10.276   1.199  1.00  0.00     0.002 A 
ATOM     55  C   UNL     1       5.961  10.752   1.796  1.00  0.00     0.091 A 
ATOM     56  F   UNL     1       4.899   9.424   3.470  1.00  0.00    -0.205 F 
ATOM     57  C   UNL     1       7.107  11.041   1.040  1.00  0.00     0.022 A 
BRANCH  55  58
ATOM     58  S   UNL     1       4.494  11.747   1.491  1.00  0.00     0.127 S 
ATOM     59  O   UNL     1       4.797  12.961   2.243  1.00  0.00    -0.237 OA
ATOM     60  O   UNL     1       4.521  11.905   0.036  1.00  0.00    -0.237 OA
ATOM     61  O   UNL     1       3.377  10.954   1.989  1.00  0.00    -0.744 OA
ENDBRANCH  55  58
ENDBRANCH  27  51
BRANCH  39  62
ATOM     62  C   UNL     1      10.515   7.647   8.856  1.00  0.00     0.023 A 
ATOM     63  C   UNL     1       9.939   8.613   9.704  1.00  0.00     0.012 A 
ATOM     64  C   UNL     1      11.889   7.359   8.957  1.00  0.00     0.148 A 
ATOM     65  C   UNL     1      10.720   9.281  10.643  1.00  0.00     0.002 A 
ATOM     66  C   UNL     1      12.652   7.995   9.927  1.00  0.00     0.091 A 
ATOM     67  F   UNL     1      12.412   6.445   8.125  1.00  0.00    -0.205 F 
ATOM     68  C   UNL     1      12.071   8.960  10.766  1.00  0.00     0.022 A 
BRANCH  66  69
ATOM     69  S   UNL     1      14.368   7.564  10.236  1.00  0.00     0.127 S 
ATOM     70  O   UNL     1      15.065   8.755   9.753  1.00  0.00    -0.237 OA
ATOM     71  O   UNL     1      14.386   7.390  11.688  1.00  0.00    -0.237 OA
ATOM     72  O   UNL     1      14.619   6.345   9.478  1.00  0.00    -0.744 OA
ENDBRANCH  66  69
ENDBRANCH  39  62
ENDBRANCH  13  14
ENDBRANCH   6   8
ENDBRANCH   5   6
ENDBRANCH   4   5
ENDBRANCH   3   4
ENDBRANCH   2   3
ENDBRANCH   1   2
BRANCH   1  73
ATOM     73  C   UNL     1       3.363   0.127  -3.620  1.00  0.00     0.188 C 
BRANCH  73  74
ATOM     74  O   UNL     1       4.474   0.398  -4.467  1.00  0.00    -0.376 OA
BRANCH  74  75
ATOM     75  C   UNL     1       5.381   1.392  -3.994  1.00  0.00     0.202 C 
BRANCH  75  76
ATOM     76  C   UNL     1       4.785   2.798  -3.932  1.00  0.00     0.261 C 
BRANCH  76  77
ATOM     77  O   UNL     1       3.929   2.998  -2.781  1.00  0.00    -0.460 OA
BRANCH  77  78
ATOM     78  C   UNL     1       2.998   3.971  -2.991  1.00  0.00     0.342 C 
ATOM     79  O   UNL     1       2.780   4.524  -4.058  1.00  0.00    -0.246 OA
BRANCH  78  80
ATOM     80  C   UNL     1       2.549   4.573  -1.723  1.00  0.00     0.103 A 
ATOM     81  C   UNL     1       3.282   5.749  -1.461  1.00  0.00     0.035 A 
ATOM     82  C   UNL     1       1.411   4.285  -0.955  1.00  0.00     0.134 A 
ATOM     83  C   UNL     1       2.893   6.629  -0.461  1.00  0.00     0.019 A 
ATOM     84  C   UNL     1       1.114   5.140   0.129  1.00  0.00     0.048 A 
ATOM     85  Br  UNL     1       3.727   8.314  -0.358  1.00  0.00    -0.051 Br
ATOM     86  C   UNL     1       1.836   6.310   0.372  1.00  0.00     0.019 A 
BRANCH  82  87
ATOM     87  O   UNL     1       0.397   3.387  -1.106  1.00  0.00    -0.488 OA
BRANCH  87  88
ATOM     88  C   UNL     1       0.417   2.278  -1.990  1.00  0.00     0.268 C 
BRANCH  88  89
ATOM     89  C   UNL     1       0.137   2.583  -3.439  1.00  0.00     0.025 A 
ATOM     90  C   UNL     1      -0.097   3.872  -3.929  1.00  0.00     0.010 A 
ATOM     91  C   UNL     1       0.217   1.534  -4.359  1.00  0.00     0.129 A 
ATOM     92  C   UNL     1      -0.066   4.117  -5.305  1.00  0.00     0.001 A 
ATOM     93  C   UNL     1       0.240   1.766  -5.730  1.00  0.00     0.039 A 
ATOM     94  F   UNL     1       0.351   0.275  -3.916  1.00  0.00    -0.207 F 
ATOM     95  C   UNL     1       0.136   3.070  -6.203  1.00  0.00     0.003 A 
ENDBRANCH  88  89
ENDBRANCH  87  88
ENDBRANCH  82  87
ENDBRANCH  78  80
ENDBRANCH  77  78
ENDBRANCH  76  77
ENDBRANCH  75  76
ENDBRANCH  74  75
ENDBRANCH  73  74
ENDBRANCH   1  73
TORSDOF 23
