REMARK SMILES CC(C)(C)OC(=O)N[C@H](Cc1ccc(N=[N+]=[N-])cc1)C(=O)OCCOCCOCCOC(=O)c1ccc(-c2c3nc(c(-c4cccc(S(=O)(=O)[O-])c4F)c4ccc([nH]4)c(-c4cccc(S(=O)(=O)[O-])c4F)c4nc(c(-c5cccc(S(=O)(=O)[O-])c5F)c5ccc2[nH]5)C=C4)C=C3)cc1
REMARK SMILES IDX 26 1 25 2 24 3 23 4 22 5 20 6 21 7 9 8 8 9 6 10 7 11 5 13
REMARK SMILES IDX 2 14 1 15 3 16 4 17 10 18 11 19 12 20 19 21 13 22 18 23
REMARK SMILES IDX 14 24 15 25 16 26 17 27 27 28 28 29 29 30 30 31 31 32 32 33
REMARK SMILES IDX 33 34 34 35 35 36 96 37 36 38 95 39 37 40 38 41 39 42 89 43
REMARK SMILES IDX 40 44 94 45 88 46 90 47 41 48 93 49 87 50 86 51 42 53 74 54
REMARK SMILES IDX 54 55 73 56 55 57 58 58 72 59 91 60 56 61 57 62 71 64 92 65
REMARK SMILES IDX 59 66 43 67 44 68 52 69 45 70 47 71 53 72 46 73 48 74 49 75
REMARK SMILES IDX 50 76 51 77 75 78 76 79 84 80 77 81 79 82 85 83 78 84 80 85
REMARK SMILES IDX 81 86 82 87 83 88 60 89 61 90 69 91 62 92 64 93 70 94 63 95
REMARK SMILES IDX 65 96 66 97 67 98 68 99
REMARK H PARENT 8 12 90 52 58 63
REMARK Flexibility Score: inf
ROOT
ATOM      1  C   UNL     1      -0.385   0.840  -6.244  1.00  0.00     0.188 C 
ENDROOT
BRANCH   1   2
ATOM      2  O   UNL     1      -0.166   1.216  -7.596  1.00  0.00    -0.376 OA
BRANCH   2   3
ATOM      3  C   UNL     1       0.184   0.228  -8.554  1.00  0.00     0.202 C 
BRANCH   3   4
ATOM      4  C   UNL     1       1.412  -0.663  -8.289  1.00  0.00     0.261 C 
BRANCH   4   5
ATOM      5  O   UNL     1       1.388  -1.487  -7.091  1.00  0.00    -0.462 OA
BRANCH   5   6
ATOM      6  C   UNL     1       2.214  -1.084  -6.087  1.00  0.00     0.329 C 
ATOM      7  O   UNL     1       2.982  -0.130  -6.209  1.00  0.00    -0.250 OA
BRANCH   6   8
ATOM      8  C   UNL     1       2.270  -1.979  -4.818  1.00  0.00     0.199 C 
BRANCH   8   9
ATOM      9  N   UNL     1       3.645  -2.490  -4.981  1.00  0.00    -0.308 N 
ATOM     10  C   UNL     1       4.575  -2.737  -4.035  1.00  0.00     0.408 C 
ATOM     11  O   UNL     1       5.688  -3.121  -4.366  1.00  0.00    -0.225 OA
ATOM     12  H   UNL     1       3.921  -2.676  -5.907  1.00  0.00     0.168 HD
BRANCH  10  13
ATOM     13  O   UNL     1       4.117  -2.566  -2.775  1.00  0.00    -0.444 OA
BRANCH  13  14
ATOM     14  C   UNL     1       4.982  -2.933  -1.671  1.00  0.00     0.106 C 
ATOM     15  C   UNL     1       4.172  -2.643  -0.400  1.00  0.00     0.056 C 
ATOM     16  C   UNL     1       6.256  -2.078  -1.639  1.00  0.00     0.056 C 
ATOM     17  C   UNL     1       5.290  -4.437  -1.716  1.00  0.00     0.056 C 
ENDBRANCH  13  14
ENDBRANCH  10  13
ENDBRANCH   8   9
BRANCH   8  18
ATOM     18  C   UNL     1       1.335  -3.180  -4.525  1.00  0.00     0.072 C 
BRANCH  18  19
ATOM     19  C   UNL     1      -0.054  -3.046  -3.900  1.00  0.00    -0.045 A 
ATOM     20  C   UNL     1      -1.168  -3.514  -4.615  1.00  0.00     0.004 A 
ATOM     21  C   UNL     1      -0.274  -2.623  -2.579  1.00  0.00     0.004 A 
ATOM     22  C   UNL     1      -2.452  -3.535  -4.047  1.00  0.00     0.010 A 
ATOM     23  C   UNL     1      -1.569  -2.658  -2.008  1.00  0.00     0.010 A 
ATOM     24  C   UNL     1      -2.676  -3.102  -2.742  1.00  0.00     0.038 A 
BRANCH  24  25
ATOM     25  N   UNL     1      -3.972  -3.232  -2.211  1.00  0.00    -0.061 NA
ATOM     26  N   UNL     1      -4.404  -2.218  -1.618  1.00  0.00     0.005 N 
ATOM     27  N   UNL     1      -4.812  -1.327  -1.042  1.00  0.00    -0.003 NA
ENDBRANCH  24  25
ENDBRANCH  18  19
ENDBRANCH   8  18
ENDBRANCH   6   8
ENDBRANCH   5   6
ENDBRANCH   4   5
ENDBRANCH   3   4
ENDBRANCH   2   3
ENDBRANCH   1   2
BRANCH   1  28
ATOM     28  C   UNL     1      -1.000  -0.533  -5.955  1.00  0.00     0.188 C 
BRANCH  28  29
ATOM     29  O   UNL     1      -1.611  -1.161  -7.063  1.00  0.00    -0.376 OA
BRANCH  29  30
ATOM     30  C   UNL     1      -3.010  -1.353  -6.981  1.00  0.00     0.202 C 
BRANCH  30  31
ATOM     31  C   UNL     1      -3.870  -0.101  -6.758  1.00  0.00     0.261 C 
BRANCH  31  32
ATOM     32  O   UNL     1      -3.448   0.767  -5.685  1.00  0.00    -0.460 OA
BRANCH  32  33
ATOM     33  C   UNL     1      -3.741   0.349  -4.432  1.00  0.00     0.338 C 
ATOM     34  O   UNL     1      -4.358  -0.659  -4.139  1.00  0.00    -0.246 OA
BRANCH  33  35
ATOM     35  C   UNL     1      -3.087   1.228  -3.436  1.00  0.00     0.060 A 
ATOM     36  C   UNL     1      -1.928   0.803  -2.770  1.00  0.00     0.016 A 
ATOM     37  C   UNL     1      -3.710   2.414  -3.062  1.00  0.00     0.016 A 
ATOM     38  C   UNL     1      -1.437   1.515  -1.677  1.00  0.00     0.010 A 
ATOM     39  C   UNL     1      -3.210   3.135  -1.974  1.00  0.00     0.010 A 
ATOM     40  C   UNL     1      -2.102   2.666  -1.245  1.00  0.00    -0.014 A 
BRANCH  40  41
ATOM     41  C   UNL     1      -1.706   3.337   0.017  1.00  0.00     0.031 A 
ATOM     42  C   UNL     1      -2.631   3.284   1.203  1.00  0.00     0.074 A 
ATOM     43  C   UNL     1      -0.547   4.017   0.082  1.00  0.00     0.049 A 
ATOM     44  N   UNL     1      -2.548   3.911   2.347  1.00  0.00    -0.248 NA
ATOM     45  C   UNL     1      -3.817   2.420   1.077  1.00  0.00     0.031 C 
ATOM     46  C   UNL     1       0.428   4.124  -1.003  1.00  0.00     0.029 A 
ATOM     47  N   UNL     1      -0.012   4.777   1.091  1.00  0.00    -0.354 N 
ATOM     48  C   UNL     1      -3.697   3.570   3.053  1.00  0.00     0.074 A 
ATOM     49  C   UNL     1      -4.459   2.675   2.209  1.00  0.00     0.031 C 
ATOM     50  C   UNL     1       1.430   4.927  -0.613  1.00  0.00     0.029 A 
ATOM     51  C   UNL     1       1.141   5.430   0.726  1.00  0.00     0.049 A 
ATOM     52  H   UNL     1      -0.414   4.848   1.987  1.00  0.00     0.167 HD
ATOM     53  C   UNL     1      -4.081   3.971   4.289  1.00  0.00     0.034 A 
ATOM     54  C   UNL     1       1.860   6.363   1.380  1.00  0.00     0.034 A 
ATOM     55  C   UNL     1      -3.301   4.851   5.121  1.00  0.00     0.049 A 
ATOM     56  C   UNL     1       1.413   6.791   2.750  1.00  0.00     0.074 A 
ATOM     57  C   UNL     1      -3.568   5.285   6.407  1.00  0.00     0.029 A 
ATOM     58  N   UNL     1      -2.107   5.446   4.740  1.00  0.00    -0.354 N 
ATOM     59  N   UNL     1       0.366   6.399   3.438  1.00  0.00    -0.248 NA
ATOM     60  C   UNL     1       2.263   7.764   3.448  1.00  0.00     0.031 C 
ATOM     61  C   UNL     1      -2.558   6.177   6.787  1.00  0.00     0.029 A 
ATOM     62  C   UNL     1      -1.631   6.254   5.760  1.00  0.00     0.049 A 
ATOM     63  H   UNL     1      -1.662   5.314   3.872  1.00  0.00     0.167 HD
ATOM     64  C   UNL     1       0.450   7.050   4.663  1.00  0.00     0.074 A 
ATOM     65  C   UNL     1       1.666   7.839   4.629  1.00  0.00     0.031 C 
ATOM     66  C   UNL     1      -0.402   7.008   5.718  1.00  0.00     0.034 A 
BRANCH  53  67
ATOM     67  C   UNL     1      -5.407   3.472   4.813  1.00  0.00     0.023 A 
ATOM     68  C   UNL     1      -5.572   2.112   5.149  1.00  0.00     0.012 A 
ATOM     69  C   UNL     1      -6.482   4.363   5.011  1.00  0.00     0.148 A 
ATOM     70  C   UNL     1      -6.795   1.640   5.629  1.00  0.00     0.002 A 
ATOM     71  C   UNL     1      -7.681   3.895   5.538  1.00  0.00     0.091 A 
ATOM     72  F   UNL     1      -6.316   5.649   4.672  1.00  0.00    -0.205 F 
ATOM     73  C   UNL     1      -7.845   2.533   5.832  1.00  0.00     0.022 A 
BRANCH  71  74
ATOM     74  S   UNL     1      -9.066   4.977   5.913  1.00  0.00     0.127 S 
ATOM     75  O   UNL     1     -10.056   4.542   4.928  1.00  0.00    -0.237 OA
ATOM     76  O   UNL     1      -9.377   4.606   7.294  1.00  0.00    -0.237 OA
ATOM     77  O   UNL     1      -8.575   6.337   5.743  1.00  0.00    -0.744 OA
ENDBRANCH  71  74
ENDBRANCH  53  67
BRANCH  54  78
ATOM     78  C   UNL     1       3.083   6.937   0.751  1.00  0.00     0.023 A 
ATOM     79  C   UNL     1       4.349   6.637   1.288  1.00  0.00     0.012 A 
ATOM     80  C   UNL     1       2.998   7.750  -0.396  1.00  0.00     0.148 A 
ATOM     81  C   UNL     1       5.507   7.161   0.713  1.00  0.00     0.002 A 
ATOM     82  C   UNL     1       4.158   8.219  -1.000  1.00  0.00     0.091 A 
ATOM     83  F   UNL     1       1.782   8.032  -0.885  1.00  0.00    -0.205 F 
ATOM     84  C   UNL     1       5.413   7.941  -0.437  1.00  0.00     0.022 A 
BRANCH  82  85
ATOM     85  S   UNL     1       4.141   9.120  -2.553  1.00  0.00     0.127 S 
ATOM     86  O   UNL     1       4.588  10.446  -2.134  1.00  0.00    -0.237 OA
ATOM     87  O   UNL     1       5.111   8.364  -3.347  1.00  0.00    -0.237 OA
ATOM     88  O   UNL     1       2.772   9.041  -3.041  1.00  0.00    -0.744 OA
ENDBRANCH  82  85
ENDBRANCH  54  78
BRANCH  66  89
ATOM     89  C   UNL     1      -0.018   7.800   6.942  1.00  0.00     0.023 A 
ATOM     90  C   UNL     1      -0.031   9.209   6.912  1.00  0.00     0.012 A 
ATOM     91  C   UNL     1       0.336   7.138   8.134  1.00  0.00     0.148 A 
ATOM     92  C   UNL     1       0.359   9.944   8.031  1.00  0.00     0.002 A 
ATOM     93  C   UNL     1       0.664   7.877   9.262  1.00  0.00     0.091 A 
ATOM     94  F   UNL     1       0.360   5.797   8.139  1.00  0.00    -0.205 F 
ATOM     95  C   UNL     1       0.697   9.280   9.208  1.00  0.00     0.022 A 
BRANCH  93  96
ATOM     96  S   UNL     1       1.010   7.107  10.847  1.00  0.00     0.127 S 
ATOM     97  O   UNL     1       2.457   7.286  10.956  1.00  0.00    -0.237 OA
ATOM     98  O   UNL     1       0.223   7.926  11.768  1.00  0.00    -0.237 OA
ATOM     99  O   UNL     1       0.558   5.727  10.729  1.00  0.00    -0.744 OA
ENDBRANCH  93  96
ENDBRANCH  66  89
ENDBRANCH  40  41
ENDBRANCH  33  35
ENDBRANCH  32  33
ENDBRANCH  31  32
ENDBRANCH  30  31
ENDBRANCH  29  30
ENDBRANCH  28  29
ENDBRANCH   1  28
TORSDOF 26
