REMARK SMILES CC(C)(C)[N@H+](CCC(=O)OCCOCCOCCOC(=O)c1ccc(-c2c3nc(c(-c4cccc(S(=O)(=O)[O-])c4F)c4ccc([nH]4)c(-c4cccc(S(=O)(=O)[O-])c4F)c4nc(c(-c5cccc(S(=O)(=O)[O-])c5F)c5ccc2[nH]5)C=C4)C=C3)cc1)C[C@H]1COc2ccccc21
REMARK SMILES IDX 14 1 13 2 12 3 11 4 10 5 8 6 9 7 7 8 6 9 5 10 2 12 1 13 3 14
REMARK SMILES IDX 4 15 85 16 86 17 87 18 94 19 88 20 89 21 93 22 90 23 92 24
REMARK SMILES IDX 91 25 15 26 16 27 17 28 18 29 19 30 20 31 21 32 22 33 23 34
REMARK SMILES IDX 84 35 24 36 83 37 25 38 26 39 27 40 77 41 28 42 82 43 76 44
REMARK SMILES IDX 78 45 29 46 81 47 75 48 74 49 30 51 62 52 42 53 61 54 43 55
REMARK SMILES IDX 46 56 60 57 79 58 44 59 45 60 59 62 80 63 47 64 31 65 32 66
REMARK SMILES IDX 40 67 33 68 35 69 41 70 34 71 36 72 37 73 38 74 39 75 63 76
REMARK SMILES IDX 64 77 72 78 65 79 67 80 73 81 66 82 68 83 69 84 70 85 71 86
REMARK SMILES IDX 48 87 49 88 57 89 50 90 52 91 58 92 51 93 53 94 54 95 55 96
REMARK SMILES IDX 56 97
REMARK H PARENT 5 11 78 50 46 61
REMARK Flexibility Score: inf
ROOT
ATOM      1  C   UNL     1      -0.109   2.143   3.497  1.00  0.00     0.188 C 
ENDROOT
BRANCH   1   2
ATOM      2  O   UNL     1      -1.074   1.686   2.576  1.00  0.00    -0.376 OA
BRANCH   2   3
ATOM      3  C   UNL     1      -1.175   2.469   1.394  1.00  0.00     0.202 C 
BRANCH   3   4
ATOM      4  C   UNL     1      -1.123   3.995   1.616  1.00  0.00     0.261 C 
BRANCH   4   5
ATOM      5  O   UNL     1       0.279   4.459   1.665  1.00  0.00    -0.463 OA
BRANCH   5   6
ATOM      6  C   UNL     1       0.435   5.818   1.677  1.00  0.00     0.311 C 
ATOM      7  O   UNL     1      -0.451   6.567   2.090  1.00  0.00    -0.252 OA
BRANCH   6   8
ATOM      8  C   UNL     1       1.810   6.382   1.204  1.00  0.00     0.184 C 
BRANCH   8   9
ATOM      9  C   UNL     1       2.786   5.964   0.010  1.00  0.00     0.274 C 
BRANCH   9  10
ATOM     10  N   UNL     1       2.517   6.114  -1.470  1.00  0.00    -0.330 N 
ATOM     11  H   UNL     1       1.602   6.551  -1.363  1.00  0.00     0.348 HD
BRANCH  10  12
ATOM     12  C   UNL     1       3.232   7.153  -2.287  1.00  0.00     0.089 C 
ATOM     13  C   UNL     1       3.553   8.465  -1.542  1.00  0.00     0.078 C 
ATOM     14  C   UNL     1       2.284   7.551  -3.455  1.00  0.00     0.078 C 
ATOM     15  C   UNL     1       4.570   6.676  -2.925  1.00  0.00     0.078 C 
ENDBRANCH  10  12
BRANCH  10  16
ATOM     16  C   UNL     1       2.377   4.822  -2.223  1.00  0.00     0.274 C 
BRANCH  16  17
ATOM     17  C   UNL     1       0.939   4.262  -2.493  1.00  0.00     0.116 C 
ATOM     18  C   UNL     1       0.392   3.947  -1.135  1.00  0.00     0.244 C 
ATOM     19  C   UNL     1      -0.147   5.237  -2.851  1.00  0.00     0.006 A 
ATOM     20  O   UNL     1       0.009   5.237  -0.620  1.00  0.00    -0.492 OA
ATOM     21  C   UNL     1      -0.477   5.907  -1.691  1.00  0.00     0.123 A 
ATOM     22  C   UNL     1      -0.968   5.431  -3.934  1.00  0.00     0.008 A 
ATOM     23  C   UNL     1      -1.321   6.983  -1.583  1.00  0.00     0.047 A 
ATOM     24  C   UNL     1      -1.961   6.430  -3.839  1.00  0.00     0.001 A 
ATOM     25  C   UNL     1      -2.084   7.253  -2.700  1.00  0.00     0.004 A 
ENDBRANCH  16  17
ENDBRANCH  10  16
ENDBRANCH   9  10
ENDBRANCH   8   9
ENDBRANCH   6   8
ENDBRANCH   5   6
ENDBRANCH   4   5
ENDBRANCH   3   4
ENDBRANCH   2   3
ENDBRANCH   1   2
BRANCH   1  26
ATOM     26  C   UNL     1       1.359   2.015   3.094  1.00  0.00     0.188 C 
BRANCH  26  27
ATOM     27  O   UNL     1       1.732   1.345   1.892  1.00  0.00    -0.376 OA
BRANCH  27  28
ATOM     28  C   UNL     1       3.158   1.442   1.654  1.00  0.00     0.202 C 
BRANCH  28  29
ATOM     29  C   UNL     1       4.044   0.769   2.732  1.00  0.00     0.261 C 
BRANCH  29  30
ATOM     30  O   UNL     1       3.958   1.377   4.042  1.00  0.00    -0.460 OA
BRANCH  30  31
ATOM     31  C   UNL     1       4.283   2.696   4.137  1.00  0.00     0.338 C 
ATOM     32  O   UNL     1       4.966   3.308   3.355  1.00  0.00    -0.246 OA
BRANCH  31  33
ATOM     33  C   UNL     1       3.431   3.331   5.203  1.00  0.00     0.060 A 
ATOM     34  C   UNL     1       3.153   4.701   5.082  1.00  0.00     0.016 A 
ATOM     35  C   UNL     1       2.797   2.595   6.214  1.00  0.00     0.016 A 
ATOM     36  C   UNL     1       2.295   5.340   5.989  1.00  0.00     0.010 A 
ATOM     37  C   UNL     1       1.928   3.231   7.112  1.00  0.00     0.010 A 
ATOM     38  C   UNL     1       1.706   4.618   7.035  1.00  0.00    -0.014 A 
BRANCH  38  39
ATOM     39  C   UNL     1       1.076   5.331   8.180  1.00  0.00     0.031 A 
ATOM     40  C   UNL     1       1.909   5.535   9.421  1.00  0.00     0.074 A 
ATOM     41  C   UNL     1      -0.192   5.786   8.156  1.00  0.00     0.049 A 
ATOM     42  N   UNL     1       1.591   6.098  10.557  1.00  0.00    -0.248 NA
ATOM     43  C   UNL     1       3.291   5.026   9.370  1.00  0.00     0.031 C 
ATOM     44  C   UNL     1      -1.119   5.673   7.034  1.00  0.00     0.029 A 
ATOM     45  N   UNL     1      -0.923   6.423   9.133  1.00  0.00    -0.354 N 
ATOM     46  C   UNL     1       2.719   5.989  11.362  1.00  0.00     0.074 A 
ATOM     47  C   UNL     1       3.723   5.287  10.594  1.00  0.00     0.031 C 
ATOM     48  C   UNL     1      -2.306   6.197   7.394  1.00  0.00     0.029 A 
ATOM     49  C   UNL     1      -2.230   6.670   8.777  1.00  0.00     0.049 A 
ATOM     50  H   UNL     1      -0.547   6.679  10.006  1.00  0.00     0.167 HD
ATOM     51  C   UNL     1       2.921   6.448  12.618  1.00  0.00     0.034 A 
ATOM     52  C   UNL     1      -3.246   7.204   9.488  1.00  0.00     0.034 A 
ATOM     53  C   UNL     1       1.945   7.166  13.389  1.00  0.00     0.049 A 
ATOM     54  C   UNL     1      -3.007   7.681  10.903  1.00  0.00     0.074 A 
ATOM     55  C   UNL     1       2.082   7.709  14.654  1.00  0.00     0.029 A 
ATOM     56  N   UNL     1       0.650   7.429  12.977  1.00  0.00    -0.354 N 
ATOM     57  N   UNL     1      -1.896   7.692  11.598  1.00  0.00    -0.248 NA
ATOM     58  C   UNL     1      -4.161   8.250  11.620  1.00  0.00     0.031 C 
ATOM     59  C   UNL     1       0.859   8.280  15.019  1.00  0.00     0.029 A 
ATOM     60  C   UNL     1      -0.030   8.115  13.969  1.00  0.00     0.049 A 
ATOM     61  H   UNL     1       0.269   7.168  12.108  1.00  0.00     0.167 HD
ATOM     62  C   UNL     1      -2.206   8.303  12.811  1.00  0.00     0.074 A 
ATOM     63  C   UNL     1      -3.606   8.664  12.752  1.00  0.00     0.031 C 
ATOM     64  C   UNL     1      -1.405   8.532  13.882  1.00  0.00     0.034 A 
BRANCH  51  65
ATOM     65  C   UNL     1       4.274   6.208  13.230  1.00  0.00     0.023 A 
ATOM     66  C   UNL     1       5.382   6.955  12.781  1.00  0.00     0.012 A 
ATOM     67  C   UNL     1       4.442   5.271  14.267  1.00  0.00     0.148 A 
ATOM     68  C   UNL     1       6.645   6.750  13.333  1.00  0.00     0.002 A 
ATOM     69  C   UNL     1       5.695   5.104  14.842  1.00  0.00     0.091 A 
ATOM     70  F   UNL     1       3.381   4.551  14.657  1.00  0.00    -0.205 F 
ATOM     71  C   UNL     1       6.799   5.833  14.369  1.00  0.00     0.022 A 
BRANCH  69  72
ATOM     72  S   UNL     1       5.979   4.000  16.230  1.00  0.00     0.127 S 
ATOM     73  O   UNL     1       6.708   2.906  15.591  1.00  0.00    -0.237 OA
ATOM     74  O   UNL     1       6.786   4.831  17.124  1.00  0.00    -0.237 OA
ATOM     75  O   UNL     1       4.660   3.659  16.745  1.00  0.00    -0.744 OA
ENDBRANCH  69  72
ENDBRANCH  51  65
BRANCH  52  76
ATOM     76  C   UNL     1      -4.596   7.361   8.870  1.00  0.00     0.023 A 
ATOM     77  C   UNL     1      -5.085   8.653   8.591  1.00  0.00     0.012 A 
ATOM     78  C   UNL     1      -5.405   6.245   8.579  1.00  0.00     0.148 A 
ATOM     79  C   UNL     1      -6.365   8.833   8.064  1.00  0.00     0.002 A 
ATOM     80  C   UNL     1      -6.660   6.429   8.008  1.00  0.00     0.091 A 
ATOM     81  F   UNL     1      -4.934   5.026   8.875  1.00  0.00    -0.205 F 
ATOM     82  C   UNL     1      -7.149   7.722   7.765  1.00  0.00     0.022 A 
BRANCH  80  83
ATOM     83  S   UNL     1      -7.699   5.056   7.495  1.00  0.00     0.127 S 
ATOM     84  O   UNL     1      -8.794   5.132   8.459  1.00  0.00    -0.237 OA
ATOM     85  O   UNL     1      -8.055   5.442   6.129  1.00  0.00    -0.237 OA
ATOM     86  O   UNL     1      -6.859   3.870   7.587  1.00  0.00    -0.744 OA
ENDBRANCH  80  83
ENDBRANCH  52  76
BRANCH  64  87
ATOM     87  C   UNL     1      -1.993   9.241  15.078  1.00  0.00     0.023 A 
ATOM     88  C   UNL     1      -2.895   8.563  15.921  1.00  0.00     0.012 A 
ATOM     89  C   UNL     1      -1.575  10.543  15.420  1.00  0.00     0.148 A 
ATOM     90  C   UNL     1      -3.393   9.179  17.070  1.00  0.00     0.002 A 
ATOM     91  C   UNL     1      -2.039  11.133  16.591  1.00  0.00     0.091 A 
ATOM     92  F   UNL     1      -0.728  11.180  14.599  1.00  0.00    -0.205 F 
ATOM     93  C   UNL     1      -2.956  10.457  17.412  1.00  0.00     0.022 A 
BRANCH  91  94
ATOM     94  S   UNL     1      -1.455  12.734  17.161  1.00  0.00     0.127 S 
ATOM     95  O   UNL     1      -2.610  13.588  16.890  1.00  0.00    -0.237 OA
ATOM     96  O   UNL     1      -1.201  12.487  18.581  1.00  0.00    -0.237 OA
ATOM     97  O   UNL     1      -0.262  13.027  16.378  1.00  0.00    -0.744 OA
ENDBRANCH  91  94
ENDBRANCH  64  87
ENDBRANCH  38  39
ENDBRANCH  31  33
ENDBRANCH  30  31
ENDBRANCH  29  30
ENDBRANCH  28  29
ENDBRANCH  27  28
ENDBRANCH  26  27
ENDBRANCH   1  26
TORSDOF 25
