REMARK SMILES CS(=O)(=O)c1ccc(C2=NN(c3ccc(C(=O)OCCOCCOCCOC(=O)c4ccc(-c5c6nc(c(-c7cccc(S(=O)(=O)[O-])c7F)c7ccc([nH]7)c(-c7cccc(S(=O)(=O)[O-])c7F)c7nc(c(-c8cccc(S(=O)(=O)[O-])c8F)c8ccc5[nH]8)C=C7)C=C6)cc4)cc3)[C@H](c3ccc(Cl)cc3)C2)cc1
REMARK SMILES IDX 22 1 21 2 20 3 19 4 18 5 16 6 17 7 15 8 12 9 13 10 94 11
REMARK SMILES IDX 14 12 93 13 11 14 9 15 10 16 103 17 95 18 8 19 5 20 6 21
REMARK SMILES IDX 105 22 7 23 104 24 2 25 1 26 3 27 4 28 96 29 97 30 102 31
REMARK SMILES IDX 98 32 101 33 99 34 100 35 23 36 24 37 25 38 26 39 27 40
REMARK SMILES IDX 28 41 29 42 30 43 31 44 92 45 32 46 91 47 33 48 34 49 35 50
REMARK SMILES IDX 85 51 36 52 90 53 84 54 86 55 37 56 89 57 83 58 82 59 38 61
REMARK SMILES IDX 70 62 50 63 69 64 51 65 54 66 68 67 87 68 52 69 53 70 67 72
REMARK SMILES IDX 88 73 55 74 39 75 40 76 48 77 41 78 43 79 49 80 42 81 44 82
REMARK SMILES IDX 45 83 46 84 47 85 71 86 72 87 80 88 73 89 75 90 81 91 74 92
REMARK SMILES IDX 76 93 77 94 78 95 79 96 56 97 57 98 65 99 58 100 60 101
REMARK SMILES IDX 66 102 59 103 61 104 62 105 63 106 64 107
REMARK H PARENT 86 60 54 71
REMARK Flexibility Score: inf
ROOT
ATOM      1  C   UNL     1       9.731   3.687   9.954  1.00  0.00     0.188 C 
ENDROOT
BRANCH   1   2
ATOM      2  O   UNL     1      10.692   3.785  10.979  1.00  0.00    -0.376 OA
BRANCH   2   3
ATOM      3  C   UNL     1      10.382   4.415  12.209  1.00  0.00     0.202 C 
BRANCH   3   4
ATOM      4  C   UNL     1       9.027   5.044  12.588  1.00  0.00     0.261 C 
BRANCH   4   5
ATOM      5  O   UNL     1       7.883   4.666  11.820  1.00  0.00    -0.460 OA
BRANCH   5   6
ATOM      6  C   UNL     1       7.350   5.641  11.039  1.00  0.00     0.338 C 
ATOM      7  O   UNL     1       7.720   6.800  10.965  1.00  0.00    -0.246 OA
BRANCH   6   8
ATOM      8  C   UNL     1       6.303   5.072  10.157  1.00  0.00     0.060 A 
ATOM      9  C   UNL     1       4.241   4.159   8.477  1.00  0.00     0.060 A 
ATOM     10  C   UNL     1       5.171   5.096   8.011  1.00  0.00     0.029 A 
ATOM     11  C   UNL     1       4.437   3.596   9.748  1.00  0.00     0.029 A 
ATOM     12  C   UNL     1       6.193   5.559   8.848  1.00  0.00     0.018 A 
ATOM     13  C   UNL     1       5.446   4.060  10.596  1.00  0.00     0.018 A 
BRANCH   9  14
ATOM     14  N   UNL     1       3.050   3.890   7.785  1.00  0.00    -0.257 N 
ATOM     15  C   UNL     1       2.064   3.791   5.888  1.00  0.00     0.071 C 
ATOM     16  N   UNL     1       3.118   3.380   6.521  1.00  0.00    -0.176 NA
ATOM     17  C   UNL     1       1.167   4.731   6.641  1.00  0.00     0.091 C 
ATOM     18  C   UNL     1       1.929   4.839   7.969  1.00  0.00     0.144 C 
BRANCH  15  19
ATOM     19  C   UNL     1       1.700   3.326   4.537  1.00  0.00    -0.002 A 
ATOM     20  C   UNL     1       0.893   2.345   2.054  1.00  0.00     0.067 A 
ATOM     21  C   UNL     1       1.332   1.455   3.036  1.00  0.00     0.021 A 
ATOM     22  C   UNL     1       0.874   3.724   2.301  1.00  0.00     0.021 A 
ATOM     23  C   UNL     1       1.748   1.952   4.275  1.00  0.00     0.011 A 
ATOM     24  C   UNL     1       1.266   4.216   3.551  1.00  0.00     0.011 A 
BRANCH  20  25
ATOM     25  S   UNL     1       0.333   1.773   0.464  1.00  0.00     0.175 S 
ATOM     26  C   UNL     1       1.088   0.197   0.177  1.00  0.00     0.163 C 
ATOM     27  O   UNL     1       0.867   2.692  -0.523  1.00  0.00    -0.224 OA
ATOM     28  O   UNL     1      -1.097   1.566   0.593  1.00  0.00    -0.224 OA
ENDBRANCH  20  25
ENDBRANCH  15  19
BRANCH  18  29
ATOM     29  C   UNL     1       1.168   4.554   9.265  1.00  0.00    -0.023 A 
ATOM     30  C   UNL     1      -0.016   3.806   9.337  1.00  0.00     0.007 A 
ATOM     31  C   UNL     1       1.722   5.012  10.480  1.00  0.00     0.007 A 
ATOM     32  C   UNL     1      -0.601   3.502  10.574  1.00  0.00     0.021 A 
ATOM     33  C   UNL     1       1.171   4.665  11.716  1.00  0.00     0.021 A 
ATOM     34  C   UNL     1       0.008   3.910  11.757  1.00  0.00     0.041 A 
ATOM     35  Cl  UNL     1      -0.674   3.467  13.273  1.00  0.00    -0.084 Cl
ENDBRANCH  18  29
ENDBRANCH   9  14
ENDBRANCH   6   8
ENDBRANCH   5   6
ENDBRANCH   4   5
ENDBRANCH   3   4
ENDBRANCH   2   3
ENDBRANCH   1   2
BRANCH   1  36
ATOM     36  C   UNL     1       8.745   2.504  10.052  1.00  0.00     0.188 C 
BRANCH  36  37
ATOM     37  O   UNL     1       8.690   1.712  11.224  1.00  0.00    -0.376 OA
BRANCH  37  38
ATOM     38  C   UNL     1       9.865   1.051  11.668  1.00  0.00     0.202 C 
BRANCH  38  39
ATOM     39  C   UNL     1      10.885   0.405  10.710  1.00  0.00     0.261 C 
BRANCH  39  40
ATOM     40  O   UNL     1      11.161   1.098   9.488  1.00  0.00    -0.460 OA
BRANCH  40  41
ATOM     41  C   UNL     1      10.665   0.527   8.363  1.00  0.00     0.338 C 
ATOM     42  O   UNL     1      10.005  -0.499   8.282  1.00  0.00    -0.246 OA
BRANCH  41  43
ATOM     43  C   UNL     1      10.893   1.437   7.227  1.00  0.00     0.060 A 
ATOM     44  C   UNL     1       9.798   2.076   6.623  1.00  0.00     0.016 A 
ATOM     45  C   UNL     1      12.185   1.633   6.744  1.00  0.00     0.016 A 
ATOM     46  C   UNL     1       9.995   2.917   5.529  1.00  0.00     0.010 A 
ATOM     47  C   UNL     1      12.376   2.451   5.630  1.00  0.00     0.010 A 
ATOM     48  C   UNL     1      11.282   3.079   5.004  1.00  0.00    -0.014 A 
BRANCH  48  49
ATOM     49  C   UNL     1      11.493   3.754   3.703  1.00  0.00     0.031 A 
ATOM     50  C   UNL     1      11.677   2.897   2.483  1.00  0.00     0.074 A 
ATOM     51  C   UNL     1      11.597   5.092   3.620  1.00  0.00     0.049 A 
ATOM     52  N   UNL     1      12.047   3.239   1.278  1.00  0.00    -0.248 NA
ATOM     53  C   UNL     1      11.419   1.456   2.650  1.00  0.00     0.031 C 
ATOM     54  C   UNL     1      11.413   6.026   4.729  1.00  0.00     0.029 A 
ATOM     55  N   UNL     1      11.934   5.891   2.555  1.00  0.00    -0.354 N 
ATOM     56  C   UNL     1      12.120   2.054   0.557  1.00  0.00     0.074 A 
ATOM     57  C   UNL     1      11.745   0.985   1.456  1.00  0.00     0.031 C 
ATOM     58  C   UNL     1      11.686   7.270   4.297  1.00  0.00     0.029 A 
ATOM     59  C   UNL     1      12.104   7.213   2.898  1.00  0.00     0.049 A 
ATOM     60  H   UNL     1      12.043   5.552   1.637  1.00  0.00     0.167 HD
ATOM     61  C   UNL     1      12.469   1.874  -0.737  1.00  0.00     0.034 A 
ATOM     62  C   UNL     1      12.587   8.244   2.175  1.00  0.00     0.034 A 
ATOM     63  C   UNL     1      12.829   2.943  -1.626  1.00  0.00     0.049 A 
ATOM     64  C   UNL     1      13.011   8.010   0.746  1.00  0.00     0.074 A 
ATOM     65  C   UNL     1      13.148   2.870  -2.970  1.00  0.00     0.029 A 
ATOM     66  N   UNL     1      12.941   4.274  -1.258  1.00  0.00    -0.354 N 
ATOM     67  N   UNL     1      12.978   6.903   0.044  1.00  0.00    -0.248 NA
ATOM     68  C   UNL     1      13.519   9.173   0.001  1.00  0.00     0.031 C 
ATOM     69  C   UNL     1      13.497   4.152  -3.404  1.00  0.00     0.029 A 
ATOM     70  C   UNL     1      13.343   5.031  -2.343  1.00  0.00     0.049 A 
ATOM     71  H   UNL     1      12.762   4.629  -0.357  1.00  0.00     0.167 HD
ATOM     72  C   UNL     1      13.412   7.245  -1.233  1.00  0.00     0.074 A 
ATOM     73  C   UNL     1      13.698   8.664  -1.211  1.00  0.00     0.031 C 
ATOM     74  C   UNL     1      13.563   6.455  -2.324  1.00  0.00     0.034 A 
BRANCH  61  75
ATOM     75  C   UNL     1      12.485   0.467  -1.272  1.00  0.00     0.023 A 
ATOM     76  C   UNL     1      11.273  -0.218  -1.488  1.00  0.00     0.012 A 
ATOM     77  C   UNL     1      13.702  -0.153  -1.616  1.00  0.00     0.148 A 
ATOM     78  C   UNL     1      11.274  -1.512  -2.008  1.00  0.00     0.002 A 
ATOM     79  C   UNL     1      13.693  -1.422  -2.179  1.00  0.00     0.091 A 
ATOM     80  F   UNL     1      14.845   0.508  -1.381  1.00  0.00    -0.205 F 
ATOM     81  C   UNL     1      12.481  -2.108  -2.364  1.00  0.00     0.022 A 
BRANCH  79  82
ATOM     82  S   UNL     1      15.186  -2.241  -2.748  1.00  0.00     0.127 S 
ATOM     83  O   UNL     1      15.303  -3.339  -1.789  1.00  0.00    -0.237 OA
ATOM     84  O   UNL     1      14.813  -2.650  -4.102  1.00  0.00    -0.237 OA
ATOM     85  O   UNL     1      16.244  -1.242  -2.682  1.00  0.00    -0.744 OA
ENDBRANCH  79  82
ENDBRANCH  61  75
BRANCH  62  86
ATOM     86  C   UNL     1      12.688   9.602   2.782  1.00  0.00     0.023 A 
ATOM     87  C   UNL     1      11.856  10.636   2.309  1.00  0.00     0.012 A 
ATOM     88  C   UNL     1      13.602   9.878   3.819  1.00  0.00     0.148 A 
ATOM     89  C   UNL     1      11.955  11.926   2.831  1.00  0.00     0.002 A 
ATOM     90  C   UNL     1      13.657  11.151   4.373  1.00  0.00     0.091 A 
ATOM     91  F   UNL     1      14.395   8.886   4.246  1.00  0.00    -0.205 F 
ATOM     92  C   UNL     1      12.848  12.181   3.868  1.00  0.00     0.022 A 
BRANCH  90  93
ATOM     93  S   UNL     1      14.692  11.549   5.786  1.00  0.00     0.127 S 
ATOM     94  O   UNL     1      15.661  12.470   5.197  1.00  0.00    -0.237 OA
ATOM     95  O   UNL     1      13.728  12.168   6.697  1.00  0.00    -0.237 OA
ATOM     96  O   UNL     1      15.232  10.279   6.251  1.00  0.00    -0.744 OA
ENDBRANCH  90  93
ENDBRANCH  62  86
BRANCH  74  97
ATOM     97  C   UNL     1      13.990   7.098  -3.618  1.00  0.00     0.023 A 
ATOM     98  C   UNL     1      15.320   7.524  -3.796  1.00  0.00     0.012 A 
ATOM     99  C   UNL     1      13.090   7.165  -4.702  1.00  0.00     0.148 A 
ATOM    100  C   UNL     1      15.743   8.027  -5.027  1.00  0.00     0.002 A 
ATOM    101  C   UNL     1      13.532   7.616  -5.939  1.00  0.00     0.091 A 
ATOM    102  F   UNL     1      11.825   6.766  -4.506  1.00  0.00    -0.205 F 
ATOM    103  C   UNL     1      14.855   8.058  -6.101  1.00  0.00     0.022 A 
BRANCH 101 104
ATOM    104  S   UNL     1      12.492   7.593  -7.404  1.00  0.00     0.127 S 
ATOM    105  O   UNL     1      12.329   9.020  -7.676  1.00  0.00    -0.237 OA
ATOM    106  O   UNL     1      13.332   6.881  -8.367  1.00  0.00    -0.237 OA
ATOM    107  O   UNL     1      11.273   6.891  -7.026  1.00  0.00    -0.744 OA
ENDBRANCH 101 104
ENDBRANCH  74  97
ENDBRANCH  48  49
ENDBRANCH  41  43
ENDBRANCH  40  41
ENDBRANCH  39  40
ENDBRANCH  38  39
ENDBRANCH  37  38
ENDBRANCH  36  37
ENDBRANCH   1  36
TORSDOF 24
