REMARK SMILES CC[C@@H](C)c1ccc(NC(=O)[C@@H]2[C@@H](C(=O)OCCOCCOCCOCCOC(=O)c3ccc(-c4c5nc(c(-c6cccc(S(=O)(=O)[O-])c6F)c6ccc([nH]6)c(-c6cccc(S(=O)(=O)[O-])c6F)c6nc(c(-c7cccc(S(=O)(=O)[O-])c7F)c7ccc4[nH]7)C=C6)C=C5)cc3)[C@@H]3C=C[C@H]2C3)cc1
REMARK SMILES IDX 21 1 20 2 19 3 18 4 17 5 16 6 14 7 15 8 13 9 12 10 97 11
REMARK SMILES IDX 94 12 96 13 98 14 95 15 10 16 9 17 11 19 8 20 5 21 6 22
REMARK SMILES IDX 100 23 7 24 99 25 3 26 4 27 2 28 1 29 22 30 23 31 24 32
REMARK SMILES IDX 25 33 26 34 27 35 28 36 29 37 30 38 31 39 32 40 93 41 33 42
REMARK SMILES IDX 92 43 34 44 35 45 36 46 86 47 37 48 91 49 85 50 87 51 38 52
REMARK SMILES IDX 90 53 84 54 83 55 39 57 71 58 51 59 70 60 52 61 55 62 69 63
REMARK SMILES IDX 88 64 53 65 54 66 68 68 89 69 56 70 40 71 41 72 49 73 42 74
REMARK SMILES IDX 44 75 50 76 43 77 45 78 46 79 47 80 48 81 72 82 73 83 81 84
REMARK SMILES IDX 74 85 76 86 82 87 75 88 77 89 78 90 79 91 80 92 57 93 58 94
REMARK SMILES IDX 66 95 59 96 61 97 67 98 60 99 62 100 63 101 64 102 65 103
REMARK H PARENT 9 18 87 56 55 67
REMARK Flexibility Score: inf
ROOT
ATOM      1  C   UNL     1      -3.863  -2.347   4.500  1.00  0.00     0.188 C 
ENDROOT
BRANCH   1   2
ATOM      2  C   UNL     1      -4.654  -3.017   3.369  1.00  0.00     0.188 C 
BRANCH   2   3
ATOM      3  O   UNL     1      -6.061  -3.136   3.470  1.00  0.00    -0.376 OA
BRANCH   3   4
ATOM      4  C   UNL     1      -6.673  -4.044   4.381  1.00  0.00     0.202 C 
BRANCH   4   5
ATOM      5  C   UNL     1      -5.998  -5.307   4.940  1.00  0.00     0.261 C 
BRANCH   5   6
ATOM      6  O   UNL     1      -4.666  -5.129   5.438  1.00  0.00    -0.463 OA
BRANCH   6   7
ATOM      7  C   UNL     1      -3.720  -5.839   4.792  1.00  0.00     0.310 C 
ATOM      8  O   UNL     1      -3.952  -6.634   3.882  1.00  0.00    -0.252 OA
BRANCH   7   9
ATOM      9  C   UNL     1      -2.292  -5.463   5.126  1.00  0.00     0.119 C 
ATOM     10  C   UNL     1      -1.514  -6.791   5.344  1.00  0.00     0.100 C 
ATOM     11  C   UNL     1      -0.829  -6.572   6.724  1.00  0.00     0.025 C 
ATOM     12  C   UNL     1      -1.937  -4.652   6.421  1.00  0.00     0.027 C 
ATOM     13  C   UNL     1       0.215  -5.495   6.630  1.00  0.00    -0.027 C 
ATOM     14  C   UNL     1      -1.904  -5.751   7.471  1.00  0.00     0.017 C 
ATOM     15  C   UNL     1      -0.442  -4.332   6.482  1.00  0.00    -0.027 C 
BRANCH  10  16
ATOM     16  C   UNL     1      -0.697  -7.521   4.247  1.00  0.00     0.228 C 
ATOM     17  N   UNL     1      -0.061  -7.055   3.129  1.00  0.00    -0.326 N 
ATOM     18  H   UNL     1       0.246  -7.789   2.549  1.00  0.00     0.169 HD
ATOM     19  O   UNL     1      -0.599  -8.757   4.378  1.00  0.00    -0.274 OA
BRANCH  17  20
ATOM     20  C   UNL     1       0.265  -5.797   2.596  1.00  0.00     0.041 A 
ATOM     21  C   UNL     1       0.840  -3.163   1.622  1.00  0.00    -0.045 A 
ATOM     22  C   UNL     1       0.261  -3.378   2.857  1.00  0.00     0.006 A 
ATOM     23  C   UNL     1       1.148  -4.313   0.866  1.00  0.00     0.006 A 
ATOM     24  C   UNL     1       0.095  -4.662   3.330  1.00  0.00     0.026 A 
ATOM     25  C   UNL     1       0.837  -5.620   1.338  1.00  0.00     0.026 A 
BRANCH  21  26
ATOM     26  C   UNL     1       1.218  -1.740   1.219  1.00  0.00     0.016 C 
ATOM     27  C   UNL     1       0.949  -0.697   2.334  1.00  0.00     0.013 C 
BRANCH  26  28
ATOM     28  C   UNL     1       0.529  -1.308  -0.088  1.00  0.00     0.004 C 
ATOM     29  C   UNL     1       0.910   0.107  -0.513  1.00  0.00     0.004 C 
ENDBRANCH  26  28
ENDBRANCH  21  26
ENDBRANCH  17  20
ENDBRANCH  10  16
ENDBRANCH   7   9
ENDBRANCH   6   7
ENDBRANCH   5   6
ENDBRANCH   4   5
ENDBRANCH   3   4
ENDBRANCH   2   3
ENDBRANCH   1   2
BRANCH   1  30
ATOM     30  O   UNL     1      -4.315  -2.605   5.809  1.00  0.00    -0.377 OA
BRANCH  30  31
ATOM     31  C   UNL     1      -5.362  -1.847   6.393  1.00  0.00     0.188 C 
BRANCH  31  32
ATOM     32  C   UNL     1      -6.129  -0.794   5.574  1.00  0.00     0.188 C 
BRANCH  32  33
ATOM     33  O   UNL     1      -5.334  -0.058   4.660  1.00  0.00    -0.376 OA
BRANCH  33  34
ATOM     34  C   UNL     1      -4.821   1.197   5.081  1.00  0.00     0.202 C 
BRANCH  34  35
ATOM     35  C   UNL     1      -3.843   1.206   6.266  1.00  0.00     0.261 C 
BRANCH  35  36
ATOM     36  O   UNL     1      -4.347   0.736   7.527  1.00  0.00    -0.460 OA
BRANCH  36  37
ATOM     37  C   UNL     1      -5.461   1.316   8.029  1.00  0.00     0.338 C 
ATOM     38  O   UNL     1      -6.067   2.258   7.566  1.00  0.00    -0.246 OA
BRANCH  37  39
ATOM     39  C   UNL     1      -5.942   0.472   9.146  1.00  0.00     0.060 A 
ATOM     40  C   UNL     1      -7.221  -0.096   9.063  1.00  0.00     0.016 A 
ATOM     41  C   UNL     1      -5.141   0.247  10.268  1.00  0.00     0.016 A 
ATOM     42  C   UNL     1      -7.720  -0.853  10.123  1.00  0.00     0.010 A 
ATOM     43  C   UNL     1      -5.652  -0.494  11.338  1.00  0.00     0.010 A 
ATOM     44  C   UNL     1      -6.958  -1.014  11.287  1.00  0.00    -0.014 A 
BRANCH  44  45
ATOM     45  C   UNL     1      -7.597  -1.541  12.518  1.00  0.00     0.031 A 
ATOM     46  C   UNL     1      -8.065  -0.555  13.555  1.00  0.00     0.074 A 
ATOM     47  C   UNL     1      -7.763  -2.860  12.718  1.00  0.00     0.049 A 
ATOM     48  N   UNL     1      -8.607  -0.774  14.724  1.00  0.00    -0.248 NA
ATOM     49  C   UNL     1      -7.893   0.872  13.230  1.00  0.00     0.031 C 
ATOM     50  C   UNL     1      -7.367  -3.914  11.787  1.00  0.00     0.029 A 
ATOM     51  N   UNL     1      -8.286  -3.537  13.793  1.00  0.00    -0.354 N 
ATOM     52  C   UNL     1      -8.807   0.480  15.289  1.00  0.00     0.074 A 
ATOM     53  C   UNL     1      -8.323   1.457  14.338  1.00  0.00     0.031 C 
ATOM     54  C   UNL     1      -7.629  -5.109  12.346  1.00  0.00     0.029 A 
ATOM     55  C   UNL     1      -8.184  -4.904  13.684  1.00  0.00     0.049 A 
ATOM     56  H   UNL     1      -8.694  -3.087  14.567  1.00  0.00     0.167 HD
ATOM     57  C   UNL     1      -9.350   0.794  16.488  1.00  0.00     0.034 A 
ATOM     58  C   UNL     1      -8.475  -5.874  14.575  1.00  0.00     0.034 A 
ATOM     59  C   UNL     1      -9.843  -0.175  17.427  1.00  0.00     0.049 A 
ATOM     60  C   UNL     1      -9.049  -5.498  15.918  1.00  0.00     0.074 A 
ATOM     61  C   UNL     1     -10.460   0.047  18.645  1.00  0.00     0.029 A 
ATOM     62  N   UNL     1      -9.756  -1.549  17.267  1.00  0.00    -0.354 N 
ATOM     63  N   UNL     1      -9.340  -4.310  16.390  1.00  0.00    -0.248 NA
ATOM     64  C   UNL     1      -9.364  -6.600  16.840  1.00  0.00     0.031 C 
ATOM     65  C   UNL     1     -10.706  -1.194  19.242  1.00  0.00     0.029 A 
ATOM     66  C   UNL     1     -10.289  -2.188  18.372  1.00  0.00     0.049 A 
ATOM     67  H   UNL     1      -9.372  -2.002  16.482  1.00  0.00     0.167 HD
ATOM     68  C   UNL     1      -9.909  -4.524  17.642  1.00  0.00     0.074 A 
ATOM     69  C   UNL     1      -9.937  -5.957  17.848  1.00  0.00     0.031 C 
ATOM     70  C   UNL     1     -10.359  -3.617  18.544  1.00  0.00     0.034 A 
BRANCH  57  71
ATOM     71  C   UNL     1      -9.441   2.252  16.856  1.00  0.00     0.023 A 
ATOM     72  C   UNL     1     -10.367   3.089  16.202  1.00  0.00     0.012 A 
ATOM     73  C   UNL     1      -8.645   2.777  17.893  1.00  0.00     0.148 A 
ATOM     74  C   UNL     1     -10.476   4.435  16.551  1.00  0.00     0.002 A 
ATOM     75  C   UNL     1      -8.793   4.106  18.268  1.00  0.00     0.091 A 
ATOM     76  F   UNL     1      -7.754   1.970  18.486  1.00  0.00    -0.205 F 
ATOM     77  C   UNL     1      -9.698   4.939  17.591  1.00  0.00     0.022 A 
BRANCH  75  78
ATOM     78  S   UNL     1      -7.899   4.828  19.648  1.00  0.00     0.127 S 
ATOM     79  O   UNL     1      -7.008   5.764  18.963  1.00  0.00    -0.237 OA
ATOM     80  O   UNL     1      -8.974   5.459  20.413  1.00  0.00    -0.237 OA
ATOM     81  O   UNL     1      -7.238   3.721  20.324  1.00  0.00    -0.744 OA
ENDBRANCH  75  78
ENDBRANCH  57  71
BRANCH  58  82
ATOM     82  C   UNL     1      -8.237  -7.305  14.228  1.00  0.00     0.023 A 
ATOM     83  C   UNL     1      -9.331  -8.179  14.072  1.00  0.00     0.012 A 
ATOM     84  C   UNL     1      -6.931  -7.805  14.061  1.00  0.00     0.148 A 
ATOM     85  C   UNL     1      -9.127  -9.531  13.792  1.00  0.00     0.002 A 
ATOM     86  C   UNL     1      -6.737  -9.139  13.725  1.00  0.00     0.091 A 
ATOM     87  F   UNL     1      -5.903  -6.961  14.232  1.00  0.00    -0.205 F 
ATOM     88  C   UNL     1      -7.832 -10.008  13.609  1.00  0.00     0.022 A 
BRANCH  86  89
ATOM     89  S   UNL     1      -5.115  -9.811  13.348  1.00  0.00     0.127 S 
ATOM     90  O   UNL     1      -4.899 -10.718  14.472  1.00  0.00    -0.237 OA
ATOM     91  O   UNL     1      -5.356 -10.467  12.062  1.00  0.00    -0.237 OA
ATOM     92  O   UNL     1      -4.219  -8.665  13.280  1.00  0.00    -0.744 OA
ENDBRANCH  86  89
ENDBRANCH  58  82
BRANCH  70  93
ATOM     93  C   UNL     1     -10.977  -4.134  19.819  1.00  0.00     0.023 A 
ATOM     94  C   UNL     1     -10.170  -4.729  20.808  1.00  0.00     0.012 A 
ATOM     95  C   UNL     1     -12.354  -3.956  20.066  1.00  0.00     0.148 A 
ATOM     96  C   UNL     1     -10.729  -5.172  22.007  1.00  0.00     0.002 A 
ATOM     97  C   UNL     1     -12.893  -4.349  21.284  1.00  0.00     0.091 A 
ATOM     98  F   UNL     1     -13.108  -3.400  19.107  1.00  0.00    -0.205 F 
ATOM     99  C   UNL     1     -12.086  -4.971  22.250  1.00  0.00     0.022 A 
BRANCH  97 100
ATOM    100  S   UNL     1     -14.607  -4.038  21.725  1.00  0.00     0.127 S 
ATOM    101  O   UNL     1     -15.168  -5.388  21.710  1.00  0.00    -0.237 OA
ATOM    102  O   UNL     1     -14.481  -3.446  23.057  1.00  0.00    -0.237 OA
ATOM    103  O   UNL     1     -15.128  -3.135  20.708  1.00  0.00    -0.744 OA
ENDBRANCH  97 100
ENDBRANCH  70  93
ENDBRANCH  44  45
ENDBRANCH  37  39
ENDBRANCH  36  37
ENDBRANCH  35  36
ENDBRANCH  34  35
ENDBRANCH  33  34
ENDBRANCH  32  33
ENDBRANCH  31  32
ENDBRANCH  30  31
ENDBRANCH   1  30
TORSDOF 27
