REMARK SMILES O=C(OCCOCCOCCOCCOC(=O)c1ccc([C@H]2Nc3ccc(Cl)cc3[C@@H]3C=CC[C@@H]23)cc1)c1ccc(-c2c3nc(c(-c4cccc(S(=O)(=O)[O-])c4F)c4ccc([nH]4)c(-c4cccc(S(=O)(=O)[O-])c4F)c4nc(c(-c5cccc(S(=O)(=O)[O-])c5F)c5ccc2[nH]5)C=C4)C=C3)cc1
REMARK SMILES IDX 8 1 7 2 6 3 5 4 4 5 3 6 2 7 1 8 38 9 39 10 100 11 40 12
REMARK SMILES IDX 99 13 41 14 42 15 43 16 93 17 44 18 98 19 92 20 94 21 45 22
REMARK SMILES IDX 97 23 91 24 90 25 46 27 78 28 58 29 77 30 59 31 62 32 76 33
REMARK SMILES IDX 95 34 60 35 61 36 75 38 96 39 63 40 47 41 48 42 56 43 49 44
REMARK SMILES IDX 51 45 57 46 50 47 52 48 53 49 54 50 55 51 79 52 80 53 88 54
REMARK SMILES IDX 81 55 83 56 89 57 82 58 84 59 85 60 86 61 87 62 64 63 65 64
REMARK SMILES IDX 73 65 66 66 68 67 74 68 67 69 69 70 70 71 71 72 72 73 9 74
REMARK SMILES IDX 10 75 11 76 12 77 13 78 14 79 15 80 16 81 17 82 18 83 19 84
REMARK SMILES IDX 37 85 20 86 36 87 21 88 22 89 23 90 35 91 24 92 31 94 34 95
REMARK SMILES IDX 25 96 30 97 32 98 33 99 26 100 29 101 27 102 28 103
REMARK H PARENT 94 26 62 37 23 93
REMARK Flexibility Score: inf
ROOT
ATOM      1  C   UNL     1       2.092   0.775  -2.833  1.00  0.00     0.188 C 
ENDROOT
BRANCH   1   2
ATOM      2  C   UNL     1       2.560  -0.016  -1.613  1.00  0.00     0.188 C 
BRANCH   2   3
ATOM      3  O   UNL     1       3.926   0.221  -1.307  1.00  0.00    -0.376 OA
BRANCH   3   4
ATOM      4  C   UNL     1       4.688  -0.775  -0.640  1.00  0.00     0.202 C 
BRANCH   4   5
ATOM      5  C   UNL     1       4.028  -1.634   0.442  1.00  0.00     0.261 C 
BRANCH   5   6
ATOM      6  O   UNL     1       2.646  -1.361   0.749  1.00  0.00    -0.460 OA
BRANCH   6   7
ATOM      7  C   UNL     1       2.071  -0.463   1.581  1.00  0.00     0.338 C 
ATOM      8  O   UNL     1       0.877  -0.586   1.849  1.00  0.00    -0.246 OA
BRANCH   7   9
ATOM      9  C   UNL     1       2.812   0.676   2.180  1.00  0.00     0.060 A 
ATOM     10  C   UNL     1       3.840   1.358   1.542  1.00  0.00     0.016 A 
ATOM     11  C   UNL     1       2.379   1.161   3.420  1.00  0.00     0.016 A 
ATOM     12  C   UNL     1       4.590   2.322   2.191  1.00  0.00     0.010 A 
ATOM     13  C   UNL     1       3.056   2.214   4.043  1.00  0.00     0.010 A 
ATOM     14  C   UNL     1       4.223   2.732   3.465  1.00  0.00    -0.014 A 
BRANCH  14  15
ATOM     15  C   UNL     1       5.191   3.531   4.241  1.00  0.00     0.031 A 
ATOM     16  C   UNL     1       5.848   2.867   5.417  1.00  0.00     0.074 A 
ATOM     17  C   UNL     1       5.570   4.751   3.818  1.00  0.00     0.049 A 
ATOM     18  N   UNL     1       6.677   3.362   6.293  1.00  0.00    -0.248 NA
ATOM     19  C   UNL     1       5.528   1.443   5.639  1.00  0.00     0.031 C 
ATOM     20  C   UNL     1       5.071   5.424   2.615  1.00  0.00     0.029 A 
ATOM     21  N   UNL     1       6.482   5.631   4.335  1.00  0.00    -0.354 N 
ATOM     22  C   UNL     1       6.901   2.344   7.212  1.00  0.00     0.074 A 
ATOM     23  C   UNL     1       6.141   1.196   6.783  1.00  0.00     0.031 C 
ATOM     24  C   UNL     1       5.705   6.598   2.472  1.00  0.00     0.029 A 
ATOM     25  C   UNL     1       6.590   6.797   3.613  1.00  0.00     0.049 A 
ATOM     26  H   UNL     1       7.010   5.447   5.145  1.00  0.00     0.167 HD
ATOM     27  C   UNL     1       7.673   2.373   8.320  1.00  0.00     0.034 A 
ATOM     28  C   UNL     1       7.303   7.909   3.874  1.00  0.00     0.034 A 
ATOM     29  C   UNL     1       8.459   3.513   8.691  1.00  0.00     0.049 A 
ATOM     30  C   UNL     1       8.140   7.923   5.126  1.00  0.00     0.074 A 
ATOM     31  C   UNL     1       9.261   3.688   9.800  1.00  0.00     0.029 A 
ATOM     32  N   UNL     1       8.541   4.678   7.940  1.00  0.00    -0.354 N 
ATOM     33  N   UNL     1       8.331   6.962   6.001  1.00  0.00    -0.248 NA
ATOM     34  C   UNL     1       8.866   9.162   5.424  1.00  0.00     0.031 C 
ATOM     35  C   UNL     1       9.811   4.973   9.732  1.00  0.00     0.029 A 
ATOM     36  C   UNL     1       9.380   5.582   8.561  1.00  0.00     0.049 A 
ATOM     37  H   UNL     1       8.071   4.837   7.090  1.00  0.00     0.167 HD
ATOM     38  C   UNL     1       9.223   7.468   6.936  1.00  0.00     0.074 A 
ATOM     39  C   UNL     1       9.550   8.815   6.506  1.00  0.00     0.031 C 
ATOM     40  C   UNL     1       9.718   6.889   8.058  1.00  0.00     0.034 A 
BRANCH  27  41
ATOM     41  C   UNL     1       7.649   1.158   9.208  1.00  0.00     0.023 A 
ATOM     42  C   UNL     1       8.278  -0.038   8.806  1.00  0.00     0.012 A 
ATOM     43  C   UNL     1       6.959   1.197  10.435  1.00  0.00     0.148 A 
ATOM     44  C   UNL     1       8.183  -1.188   9.592  1.00  0.00     0.002 A 
ATOM     45  C   UNL     1       6.907   0.061  11.234  1.00  0.00     0.091 A 
ATOM     46  F   UNL     1       6.339   2.333  10.783  1.00  0.00    -0.205 F 
ATOM     47  C   UNL     1       7.504  -1.136  10.807  1.00  0.00     0.022 A 
BRANCH  45  48
ATOM     48  S   UNL     1       6.108   0.046  12.842  1.00  0.00     0.127 S 
ATOM     49  O   UNL     1       4.953  -0.814  12.590  1.00  0.00    -0.237 OA
ATOM     50  O   UNL     1       7.141  -0.552  13.689  1.00  0.00    -0.237 OA
ATOM     51  O   UNL     1       5.797   1.434  13.151  1.00  0.00    -0.744 OA
ENDBRANCH  45  48
ENDBRANCH  27  41
BRANCH  28  52
ATOM     52  C   UNL     1       7.257   9.079   2.948  1.00  0.00     0.023 A 
ATOM     53  C   UNL     1       8.419   9.470   2.256  1.00  0.00     0.012 A 
ATOM     54  C   UNL     1       6.063   9.797   2.734  1.00  0.00     0.148 A 
ATOM     55  C   UNL     1       8.401  10.569   1.393  1.00  0.00     0.002 A 
ATOM     56  C   UNL     1       6.036  10.853   1.830  1.00  0.00     0.091 A 
ATOM     57  F   UNL     1       4.969   9.430   3.416  1.00  0.00    -0.205 F 
ATOM     58  C   UNL     1       7.208  11.252   1.171  1.00  0.00     0.022 A 
BRANCH  56  59
ATOM     59  S   UNL     1       4.515  11.703   1.389  1.00  0.00     0.127 S 
ATOM     60  O   UNL     1       4.688  12.990   2.056  1.00  0.00    -0.237 OA
ATOM     61  O   UNL     1       4.604  11.748  -0.071  1.00  0.00    -0.237 OA
ATOM     62  O   UNL     1       3.438  10.864   1.896  1.00  0.00    -0.744 OA
ENDBRANCH  56  59
ENDBRANCH  28  52
BRANCH  40  63
ATOM     63  C   UNL     1      10.705   7.687   8.862  1.00  0.00     0.023 A 
ATOM     64  C   UNL     1      10.264   8.769   9.646  1.00  0.00     0.012 A 
ATOM     65  C   UNL     1      12.057   7.298   8.903  1.00  0.00     0.148 A 
ATOM     66  C   UNL     1      11.166   9.476  10.438  1.00  0.00     0.002 A 
ATOM     67  C   UNL     1      12.938   7.972   9.737  1.00  0.00     0.091 A 
ATOM     68  F   UNL     1      12.455   6.277   8.130  1.00  0.00    -0.205 F 
ATOM     69  C   UNL     1      12.498   9.069  10.495  1.00  0.00     0.022 A 
BRANCH  67  70
ATOM     70  S   UNL     1      14.638   7.437   9.951  1.00  0.00     0.127 S 
ATOM     71  O   UNL     1      15.363   8.424   9.153  1.00  0.00    -0.237 OA
ATOM     72  O   UNL     1      14.825   7.564  11.397  1.00  0.00    -0.237 OA
ATOM     73  O   UNL     1      14.690   6.067   9.458  1.00  0.00    -0.744 OA
ENDBRANCH  67  70
ENDBRANCH  40  63
ENDBRANCH  14  15
ENDBRANCH   7   9
ENDBRANCH   6   7
ENDBRANCH   5   6
ENDBRANCH   4   5
ENDBRANCH   3   4
ENDBRANCH   2   3
ENDBRANCH   1   2
BRANCH   1  74
ATOM     74  O   UNL     1       2.807   0.530  -4.040  1.00  0.00    -0.377 OA
BRANCH  74  75
ATOM     75  C   UNL     1       4.231   0.586  -3.962  1.00  0.00     0.188 C 
BRANCH  75  76
ATOM     76  C   UNL     1       4.910   1.853  -3.381  1.00  0.00     0.188 C 
BRANCH  76  77
ATOM     77  O   UNL     1       4.004   2.844  -2.924  1.00  0.00    -0.376 OA
BRANCH  77  78
ATOM     78  C   UNL     1       3.903   4.011  -3.731  1.00  0.00     0.202 C 
BRANCH  78  79
ATOM     79  C   UNL     1       3.328   3.818  -5.144  1.00  0.00     0.261 C 
BRANCH  79  80
ATOM     80  O   UNL     1       3.953   2.793  -5.946  1.00  0.00    -0.460 OA
BRANCH  80  81
ATOM     81  C   UNL     1       5.172   3.033  -6.495  1.00  0.00     0.338 C 
ATOM     82  O   UNL     1       5.807   4.059  -6.449  1.00  0.00    -0.246 OA
BRANCH  81  83
ATOM     83  C   UNL     1       5.688   1.719  -6.985  1.00  0.00     0.060 A 
ATOM     84  C   UNL     1       6.855   1.190  -6.418  1.00  0.00     0.016 A 
ATOM     85  C   UNL     1       4.933   0.934  -7.856  1.00  0.00     0.016 A 
ATOM     86  C   UNL     1       7.188  -0.163  -6.613  1.00  0.00     0.007 A 
ATOM     87  C   UNL     1       5.308  -0.395  -8.097  1.00  0.00     0.007 A 
ATOM     88  C   UNL     1       6.385  -0.994  -7.411  1.00  0.00    -0.025 A 
BRANCH  88  89
ATOM     89  C   UNL     1       6.527  -2.521  -7.456  1.00  0.00     0.114 C 
ATOM     90  N   UNL     1       7.872  -3.000  -7.049  1.00  0.00    -0.378 N 
ATOM     91  C   UNL     1       5.477  -3.265  -6.606  1.00  0.00     0.031 C 
ATOM     92  C   UNL     1       8.044  -3.901  -5.992  1.00  0.00     0.038 A 
ATOM     93  H   UNL     1       8.664  -2.676  -7.536  1.00  0.00     0.161 HD
ATOM     94  C   UNL     1       5.872  -3.107  -5.129  1.00  0.00     0.049 C 
ATOM     95  C   UNL     1       3.975  -3.009  -6.682  1.00  0.00     0.034 C 
ATOM     96  C   UNL     1       9.122  -4.789  -5.973  1.00  0.00     0.027 A 
ATOM     97  C   UNL     1       7.052  -4.027  -4.984  1.00  0.00    -0.016 A 
ATOM     98  C   UNL     1       4.582  -3.367  -4.428  1.00  0.00    -0.023 C 
ATOM     99  C   UNL     1       3.544  -3.270  -5.269  1.00  0.00    -0.030 C 
ATOM    100  C   UNL     1       9.207  -5.788  -4.992  1.00  0.00     0.022 A 
ATOM    101  C   UNL     1       7.156  -5.000  -3.983  1.00  0.00     0.027 A 
ATOM    102  C   UNL     1       8.227  -5.887  -4.005  1.00  0.00     0.041 A 
ATOM    103  Cl  UNL     1       8.313  -7.144  -2.832  1.00  0.00    -0.084 Cl
ENDBRANCH  88  89
ENDBRANCH  81  83
ENDBRANCH  80  81
ENDBRANCH  79  80
ENDBRANCH  78  79
ENDBRANCH  77  78
ENDBRANCH  76  77
ENDBRANCH  75  76
ENDBRANCH  74  75
ENDBRANCH   1  74
TORSDOF 24
