REMARK SMILES O=C(OCCOCCOCCOCCOC(=O)[C@H]1CC2=c3ccccc3=N[C@H]2[C@@H](c2ccccc2)[NH2+]1)c1ccc(-c2c3nc(c(-c4cccc(S(=O)(=O)[O-])c4F)c4ccc([nH]4)c(-c4cccc(S(=O)(=O)[O-])c4F)c4nc(c(-c5cccc(S(=O)(=O)[O-])c5F)c5ccc2[nH]5)C=C4)C=C3)cc1
REMARK SMILES IDX 8 1 7 2 6 3 5 4 4 5 3 6 2 7 1 8 37 9 38 10 99 11 39 12 98 13
REMARK SMILES IDX 40 14 41 15 42 16 92 17 43 18 97 19 91 20 93 21 44 22 96 23
REMARK SMILES IDX 90 24 89 25 45 27 77 28 57 29 76 30 58 31 61 32 75 33 94 34
REMARK SMILES IDX 59 35 60 36 74 38 95 39 62 40 46 41 47 42 55 43 48 44 50 45
REMARK SMILES IDX 56 46 49 47 51 48 52 49 53 50 54 51 78 52 79 53 87 54 80 55
REMARK SMILES IDX 82 56 88 57 81 58 83 59 84 60 85 61 86 62 63 63 64 64 72 65
REMARK SMILES IDX 65 66 67 67 73 68 66 69 68 70 69 71 70 72 71 73 9 74 10 75
REMARK SMILES IDX 11 76 12 77 13 78 14 79 15 80 16 81 17 82 18 83 19 84 36 85
REMARK SMILES IDX 20 86 29 87 21 90 28 91 22 92 26 93 27 94 23 95 25 96 24 97
REMARK SMILES IDX 30 98 31 99 35 100 32 101 34 102 33 103
REMARK H PARENT 93 26 61 37 36 88 36 89
REMARK Flexibility Score: inf
ROOT
ATOM      1  C   UNL     1       2.154   2.018  -1.415  1.00  0.00     0.188 C 
ENDROOT
BRANCH   1   2
ATOM      2  C   UNL     1       2.588   0.628  -0.955  1.00  0.00     0.188 C 
BRANCH   2   3
ATOM      3  O   UNL     1       3.936   0.598  -0.480  1.00  0.00    -0.376 OA
BRANCH   3   4
ATOM      4  C   UNL     1       4.779  -0.410  -1.037  1.00  0.00     0.202 C 
BRANCH   4   5
ATOM      5  C   UNL     1       4.619  -1.812  -0.458  1.00  0.00     0.261 C 
BRANCH   5   6
ATOM      6  O   UNL     1       3.282  -2.113  -0.055  1.00  0.00    -0.460 OA
BRANCH   6   7
ATOM      7  C   UNL     1       2.648  -1.743   1.085  1.00  0.00     0.338 C 
ATOM      8  O   UNL     1       1.483  -2.122   1.219  1.00  0.00    -0.246 OA
BRANCH   7   9
ATOM      9  C   UNL     1       3.217  -0.834   2.146  1.00  0.00     0.060 A 
ATOM     10  C   UNL     1       2.357  -0.529   3.218  1.00  0.00     0.016 A 
ATOM     11  C   UNL     1       4.477  -0.225   2.146  1.00  0.00     0.016 A 
ATOM     12  C   UNL     1       2.744   0.349   4.234  1.00  0.00     0.010 A 
ATOM     13  C   UNL     1       4.857   0.685   3.126  1.00  0.00     0.010 A 
ATOM     14  C   UNL     1       4.003   0.954   4.187  1.00  0.00    -0.014 A 
BRANCH  14  15
ATOM     15  C   UNL     1       4.567   1.637   5.359  1.00  0.00     0.031 A 
ATOM     16  C   UNL     1       4.718   3.120   5.412  1.00  0.00     0.074 A 
ATOM     17  C   UNL     1       5.079   0.832   6.309  1.00  0.00     0.049 A 
ATOM     18  N   UNL     1       5.100   3.854   6.420  1.00  0.00    -0.248 NA
ATOM     19  C   UNL     1       4.434   3.880   4.183  1.00  0.00     0.031 C 
ATOM     20  C   UNL     1       5.117  -0.634   6.223  1.00  0.00     0.029 A 
ATOM     21  N   UNL     1       5.679   1.110   7.503  1.00  0.00    -0.354 N 
ATOM     22  C   UNL     1       5.111   5.162   5.955  1.00  0.00     0.074 A 
ATOM     23  C   UNL     1       4.718   5.122   4.564  1.00  0.00     0.031 C 
ATOM     24  C   UNL     1       5.685  -1.126   7.330  1.00  0.00     0.029 A 
ATOM     25  C   UNL     1       6.038  -0.016   8.203  1.00  0.00     0.049 A 
ATOM     26  H   UNL     1       5.839   2.025   7.829  1.00  0.00     0.167 HD
ATOM     27  C   UNL     1       5.409   6.280   6.654  1.00  0.00     0.034 A 
ATOM     28  C   UNL     1       6.558  -0.139   9.437  1.00  0.00     0.034 A 
ATOM     29  C   UNL     1       5.789   6.255   8.042  1.00  0.00     0.049 A 
ATOM     30  C   UNL     1       6.772   1.112  10.228  1.00  0.00     0.074 A 
ATOM     31  C   UNL     1       5.978   7.319   8.902  1.00  0.00     0.029 A 
ATOM     32  N   UNL     1       6.065   5.099   8.760  1.00  0.00    -0.354 N 
ATOM     33  N   UNL     1       6.556   2.352   9.858  1.00  0.00    -0.248 NA
ATOM     34  C   UNL     1       7.261   0.963  11.602  1.00  0.00     0.031 C 
ATOM     35  C   UNL     1       6.396   6.808  10.133  1.00  0.00     0.029 A 
ATOM     36  C   UNL     1       6.446   5.423  10.047  1.00  0.00     0.049 A 
ATOM     37  H   UNL     1       5.998   4.183   8.405  1.00  0.00     0.167 HD
ATOM     38  C   UNL     1       6.869   3.137  10.955  1.00  0.00     0.074 A 
ATOM     39  C   UNL     1       7.279   2.228  12.010  1.00  0.00     0.031 C 
ATOM     40  C   UNL     1       6.829   4.485  11.074  1.00  0.00     0.034 A 
BRANCH  27  41
ATOM     41  C   UNL     1       5.273   7.620   5.982  1.00  0.00     0.023 A 
ATOM     42  C   UNL     1       3.986   8.149   5.759  1.00  0.00     0.012 A 
ATOM     43  C   UNL     1       6.404   8.412   5.698  1.00  0.00     0.148 A 
ATOM     44  C   UNL     1       3.824   9.441   5.260  1.00  0.00     0.002 A 
ATOM     45  C   UNL     1       6.234   9.710   5.227  1.00  0.00     0.091 A 
ATOM     46  F   UNL     1       7.619   7.889   5.910  1.00  0.00    -0.205 F 
ATOM     47  C   UNL     1       4.946  10.225   5.005  1.00  0.00     0.022 A 
BRANCH  45  48
ATOM     48  S   UNL     1       7.608  10.826   4.914  1.00  0.00     0.127 S 
ATOM     49  O   UNL     1       7.483  11.052   3.474  1.00  0.00    -0.237 OA
ATOM     50  O   UNL     1       7.260  11.980   5.743  1.00  0.00    -0.237 OA
ATOM     51  O   UNL     1       8.810  10.114   5.324  1.00  0.00    -0.744 OA
ENDBRANCH  45  48
ENDBRANCH  27  41
BRANCH  28  52
ATOM     52  C   UNL     1       6.733  -1.506   9.992  1.00  0.00     0.023 A 
ATOM     53  C   UNL     1       5.730  -2.030  10.829  1.00  0.00     0.012 A 
ATOM     54  C   UNL     1       7.765  -2.350   9.536  1.00  0.00     0.148 A 
ATOM     55  C   UNL     1       5.745  -3.376  11.197  1.00  0.00     0.002 A 
ATOM     56  C   UNL     1       7.755  -3.698   9.879  1.00  0.00     0.091 A 
ATOM     57  F   UNL     1       8.693  -1.830   8.721  1.00  0.00    -0.205 F 
ATOM     58  C   UNL     1       6.748  -4.211  10.712  1.00  0.00     0.022 A 
BRANCH  56  59
ATOM     59  S   UNL     1       8.932  -4.879   9.207  1.00  0.00     0.127 S 
ATOM     60  O   UNL     1       9.647  -5.303  10.409  1.00  0.00    -0.237 OA
ATOM     61  O   UNL     1       8.046  -5.890   8.629  1.00  0.00    -0.237 OA
ATOM     62  O   UNL     1       9.725  -4.142   8.234  1.00  0.00    -0.744 OA
ENDBRANCH  56  59
ENDBRANCH  28  52
BRANCH  40  63
ATOM     63  C   UNL     1       7.257   5.079  12.382  1.00  0.00     0.023 A 
ATOM     64  C   UNL     1       8.631   5.248  12.636  1.00  0.00     0.012 A 
ATOM     65  C   UNL     1       6.304   5.623  13.262  1.00  0.00     0.148 A 
ATOM     66  C   UNL     1       9.052   5.963  13.754  1.00  0.00     0.002 A 
ATOM     67  C   UNL     1       6.731   6.363  14.354  1.00  0.00     0.091 A 
ATOM     68  F   UNL     1       5.005   5.441  12.986  1.00  0.00    -0.205 F 
ATOM     69  C   UNL     1       8.104   6.532  14.603  1.00  0.00     0.022 A 
BRANCH  67  70
ATOM     70  S   UNL     1       5.592   7.201  15.459  1.00  0.00     0.127 S 
ATOM     71  O   UNL     1       5.880   6.546  16.735  1.00  0.00    -0.237 OA
ATOM     72  O   UNL     1       6.042   8.589  15.368  1.00  0.00    -0.237 OA
ATOM     73  O   UNL     1       4.257   6.953  14.931  1.00  0.00    -0.744 OA
ENDBRANCH  67  70
ENDBRANCH  40  63
ENDBRANCH  14  15
ENDBRANCH   7   9
ENDBRANCH   6   7
ENDBRANCH   5   6
ENDBRANCH   4   5
ENDBRANCH   3   4
ENDBRANCH   2   3
ENDBRANCH   1   2
BRANCH   1  74
ATOM     74  O   UNL     1       2.829   2.514  -2.561  1.00  0.00    -0.377 OA
BRANCH  74  75
ATOM     75  C   UNL     1       4.248   2.458  -2.538  1.00  0.00     0.188 C 
BRANCH  75  76
ATOM     76  C   UNL     1       5.015   3.133  -1.392  1.00  0.00     0.188 C 
BRANCH  76  77
ATOM     77  O   UNL     1       4.164   3.850  -0.529  1.00  0.00    -0.376 OA
BRANCH  77  78
ATOM     78  C   UNL     1       3.995   5.231  -0.786  1.00  0.00     0.202 C 
BRANCH  78  79
ATOM     79  C   UNL     1       3.674   5.758  -2.196  1.00  0.00     0.261 C 
BRANCH  79  80
ATOM     80  O   UNL     1       4.200   5.097  -3.358  1.00  0.00    -0.459 OA
BRANCH  80  81
ATOM     81  C   UNL     1       5.511   5.209  -3.732  1.00  0.00     0.365 C 
ATOM     82  O   UNL     1       6.393   5.689  -3.050  1.00  0.00    -0.245 OA
BRANCH  81  83
ATOM     83  C   UNL     1       5.697   4.680  -5.190  1.00  0.00     0.298 C 
ATOM     84  C   UNL     1       6.079   3.160  -5.463  1.00  0.00     0.111 C 
ATOM     85  N   UNL     1       4.503   5.139  -5.938  1.00  0.00    -0.326 N 
ATOM     86  C   UNL     1       4.990   2.389  -6.204  1.00  0.00    -0.024 C 
ATOM     87  C   UNL     1       4.537   4.588  -7.290  1.00  0.00     0.243 C 
ATOM     88  H   UNL     1       4.502   6.158  -5.986  1.00  0.00     0.347 HD
ATOM     89  H   UNL     1       3.659   4.822  -5.462  1.00  0.00     0.347 HD
ATOM     90  C   UNL     1       4.387   1.255  -5.858  1.00  0.00     0.002 A 
ATOM     91  C   UNL     1       4.120   3.102  -7.224  1.00  0.00     0.196 C 
ATOM     92  C   UNL     1       4.727   0.077  -5.130  1.00  0.00     0.010 A 
ATOM     93  C   UNL     1       2.973   1.680  -6.051  1.00  0.00     0.066 A 
ATOM     94  N   UNL     1       2.747   2.764  -6.748  1.00  0.00    -0.270 NA
ATOM     95  C   UNL     1       3.742  -0.679  -4.620  1.00  0.00     0.001 A 
ATOM     96  C   UNL     1       1.970   0.888  -5.288  1.00  0.00     0.028 A 
ATOM     97  C   UNL     1       2.366  -0.214  -4.625  1.00  0.00     0.002 A 
BRANCH  87  98
ATOM     98  C   UNL     1       4.033   5.591  -8.307  1.00  0.00     0.012 A 
ATOM     99  C   UNL     1       3.694   5.226  -9.612  1.00  0.00     0.010 A 
ATOM    100  C   UNL     1       4.199   6.967  -8.024  1.00  0.00     0.010 A 
ATOM    101  C   UNL     1       3.562   6.207 -10.603  1.00  0.00     0.001 A 
ATOM    102  C   UNL     1       4.064   7.940  -9.007  1.00  0.00     0.001 A 
ATOM    103  C   UNL     1       3.759   7.556 -10.304  1.00  0.00     0.000 A 
ENDBRANCH  87  98
ENDBRANCH  81  83
ENDBRANCH  80  81
ENDBRANCH  79  80
ENDBRANCH  78  79
ENDBRANCH  77  78
ENDBRANCH  76  77
ENDBRANCH  75  76
ENDBRANCH  74  75
ENDBRANCH   1  74
TORSDOF 24
