REMARK SMILES CS(=O)(=O)c1ccc(/C=C(/C(=O)OCCOCCOCCOCCOC(=O)c2ccc(-c3c4nc(c(-c5cccc(S(=O)(=O)[O-])c5F)c5ccc([nH]5)c(-c5cccc(S(=O)(=O)[O-])c5F)c5nc(c(-c6cccc(S(=O)(=O)[O-])c6F)c6ccc3[nH]6)C=C5)C=C4)cc2)c2ccccc2)cc1
REMARK SMILES IDX 20 1 19 2 18 3 17 4 16 5 15 6 14 7 13 8 11 9 12 10 10 11
REMARK SMILES IDX 9 12 8 13 5 14 6 15 98 16 7 17 97 18 2 19 1 20 3 21 4 22
REMARK SMILES IDX 91 23 92 24 96 25 93 26 95 27 94 28 21 29 22 30 23 31 24 32
REMARK SMILES IDX 25 33 26 34 27 35 28 36 29 37 90 38 30 39 89 40 31 41 32 42
REMARK SMILES IDX 33 43 83 44 34 45 88 46 82 47 84 48 35 49 87 50 81 51 80 52
REMARK SMILES IDX 36 54 68 55 48 56 67 57 49 58 52 59 66 60 85 61 50 62 51 63
REMARK SMILES IDX 65 65 86 66 53 67 37 68 38 69 46 70 39 71 41 72 47 73 40 74
REMARK SMILES IDX 42 75 43 76 44 77 45 78 69 79 70 80 78 81 71 82 73 83 79 84
REMARK SMILES IDX 72 85 74 86 75 87 76 88 77 89 54 90 55 91 63 92 56 93 58 94
REMARK SMILES IDX 64 95 57 96 59 97 60 98 61 99 62 100
REMARK H PARENT 84 53 52 64
REMARK Flexibility Score: inf
ROOT
ATOM      1  C   UNL     1      -0.253   7.099   9.132  1.00  0.00     0.188 C 
ENDROOT
BRANCH   1   2
ATOM      2  O   UNL     1      -0.074   6.275   7.992  1.00  0.00    -0.377 OA
BRANCH   2   3
ATOM      3  C   UNL     1       0.475   4.981   8.145  1.00  0.00     0.188 C 
BRANCH   3   4
ATOM      4  C   UNL     1       1.607   4.738   9.163  1.00  0.00     0.188 C 
BRANCH   4   5
ATOM      5  O   UNL     1       2.209   5.917   9.683  1.00  0.00    -0.376 OA
BRANCH   5   6
ATOM      6  C   UNL     1       3.519   6.200   9.208  1.00  0.00     0.202 C 
BRANCH   6   7
ATOM      7  C   UNL     1       3.552   6.774   7.788  1.00  0.00     0.261 C 
BRANCH   7   8
ATOM      8  O   UNL     1       3.025   5.892   6.783  1.00  0.00    -0.460 OA
BRANCH   8   9
ATOM      9  C   UNL     1       3.688   4.735   6.550  1.00  0.00     0.338 C 
ATOM     10  O   UNL     1       4.723   4.386   7.098  1.00  0.00    -0.246 OA
BRANCH   9  11
ATOM     11  C   UNL     1       2.902   3.863   5.615  1.00  0.00     0.067 C 
ATOM     12  C   UNL     1       2.229   4.454   4.599  1.00  0.00     0.024 C 
BRANCH  12  13
ATOM     13  C   UNL     1       1.516   3.832   3.463  1.00  0.00    -0.025 A 
ATOM     14  C   UNL     1       0.522   2.623   1.136  1.00  0.00     0.067 A 
ATOM     15  C   UNL     1       0.377   1.982   2.364  1.00  0.00     0.021 A 
ATOM     16  C   UNL     1       1.050   3.911   1.070  1.00  0.00     0.021 A 
ATOM     17  C   UNL     1       0.853   2.599   3.522  1.00  0.00     0.009 A 
ATOM     18  C   UNL     1       1.538   4.512   2.234  1.00  0.00     0.009 A 
BRANCH  14  19
ATOM     19  S   UNL     1       0.123   1.752  -0.357  1.00  0.00     0.175 S 
ATOM     20  C   UNL     1       0.987   0.207  -0.200  1.00  0.00     0.163 C 
ATOM     21  O   UNL     1       0.738   2.460  -1.464  1.00  0.00    -0.224 OA
ATOM     22  O   UNL     1      -1.300   1.479  -0.333  1.00  0.00    -0.224 OA
ENDBRANCH  14  19
ENDBRANCH  12  13
BRANCH  11  23
ATOM     23  C   UNL     1       2.932   2.405   5.842  1.00  0.00    -0.011 A 
ATOM     24  C   UNL     1       2.051   1.822   6.770  1.00  0.00     0.009 A 
ATOM     25  C   UNL     1       3.766   1.574   5.089  1.00  0.00     0.009 A 
ATOM     26  C   UNL     1       1.989   0.438   6.928  1.00  0.00     0.001 A 
ATOM     27  C   UNL     1       3.701   0.186   5.247  1.00  0.00     0.001 A 
ATOM     28  C   UNL     1       2.811  -0.380   6.161  1.00  0.00     0.000 A 
ENDBRANCH  11  23
ENDBRANCH   9  11
ENDBRANCH   8   9
ENDBRANCH   7   8
ENDBRANCH   6   7
ENDBRANCH   5   6
ENDBRANCH   4   5
ENDBRANCH   3   4
ENDBRANCH   2   3
ENDBRANCH   1   2
BRANCH   1  29
ATOM     29  C   UNL     1      -0.648   6.457  10.475  1.00  0.00     0.188 C 
BRANCH  29  30
ATOM     30  O   UNL     1      -1.115   5.114  10.383  1.00  0.00    -0.376 OA
BRANCH  30  31
ATOM     31  C   UNL     1      -2.516   4.927  10.530  1.00  0.00     0.202 C 
BRANCH  31  32
ATOM     32  C   UNL     1      -3.339   5.344   9.306  1.00  0.00     0.261 C 
BRANCH  32  33
ATOM     33  O   UNL     1      -3.316   6.748   9.011  1.00  0.00    -0.460 OA
BRANCH  33  34
ATOM     34  C   UNL     1      -3.759   7.593   9.967  1.00  0.00     0.338 C 
ATOM     35  O   UNL     1      -4.222   7.304  11.056  1.00  0.00    -0.246 OA
BRANCH  34  36
ATOM     36  C   UNL     1      -3.407   8.959   9.540  1.00  0.00     0.060 A 
ATOM     37  C   UNL     1      -2.592   9.740  10.370  1.00  0.00     0.016 A 
ATOM     38  C   UNL     1      -3.856   9.448   8.312  1.00  0.00     0.016 A 
ATOM     39  C   UNL     1      -2.246  11.033   9.980  1.00  0.00     0.010 A 
ATOM     40  C   UNL     1      -3.527  10.748   7.933  1.00  0.00     0.010 A 
ATOM     41  C   UNL     1      -2.747  11.554   8.779  1.00  0.00    -0.014 A 
BRANCH  41  42
ATOM     42  C   UNL     1      -2.635  13.002   8.495  1.00  0.00     0.031 A 
ATOM     43  C   UNL     1      -3.780  13.889   8.895  1.00  0.00     0.074 A 
ATOM     44  C   UNL     1      -1.563  13.511   7.864  1.00  0.00     0.049 A 
ATOM     45  N   UNL     1      -3.938  15.172   8.709  1.00  0.00    -0.248 NA
ATOM     46  C   UNL     1      -4.902  13.237   9.593  1.00  0.00     0.031 C 
ATOM     47  C   UNL     1      -0.398  12.747   7.423  1.00  0.00     0.029 A 
ATOM     48  N   UNL     1      -1.302  14.795   7.456  1.00  0.00    -0.354 N 
ATOM     49  C   UNL     1      -5.182  15.478   9.245  1.00  0.00     0.074 A 
ATOM     50  C   UNL     1      -5.744  14.247   9.753  1.00  0.00     0.031 C 
ATOM     51  C   UNL     1       0.442  13.573   6.773  1.00  0.00     0.029 A 
ATOM     52  C   UNL     1      -0.137  14.916   6.736  1.00  0.00     0.049 A 
ATOM     53  H   UNL     1      -1.892  15.556   7.660  1.00  0.00     0.167 HD
ATOM     54  C   UNL     1      -5.797  16.681   9.322  1.00  0.00     0.034 A 
ATOM     55  C   UNL     1       0.385  15.986   6.103  1.00  0.00     0.034 A 
ATOM     56  C   UNL     1      -5.236  17.904   8.822  1.00  0.00     0.049 A 
ATOM     57  C   UNL     1      -0.335  17.309   6.178  1.00  0.00     0.074 A 
ATOM     58  C   UNL     1      -5.759  19.182   8.893  1.00  0.00     0.029 A 
ATOM     59  N   UNL     1      -4.032  17.999   8.142  1.00  0.00    -0.354 N 
ATOM     60  N   UNL     1      -1.444  17.614   6.810  1.00  0.00    -0.248 NA
ATOM     61  C   UNL     1       0.285  18.445   5.479  1.00  0.00     0.031 C 
ATOM     62  C   UNL     1      -4.880  20.049   8.235  1.00  0.00     0.029 A 
ATOM     63  C   UNL     1      -3.800  19.312   7.775  1.00  0.00     0.049 A 
ATOM     64  H   UNL     1      -3.431  17.244   7.949  1.00  0.00     0.167 HD
ATOM     65  C   UNL     1      -1.635  18.978   6.612  1.00  0.00     0.074 A 
ATOM     66  C   UNL     1      -0.516  19.445   5.820  1.00  0.00     0.031 C 
ATOM     67  C   UNL     1      -2.652  19.771   7.034  1.00  0.00     0.034 A 
BRANCH  54  68
ATOM     68  C   UNL     1      -7.139  16.729   9.999  1.00  0.00     0.023 A 
ATOM     69  C   UNL     1      -7.212  16.610  11.402  1.00  0.00     0.012 A 
ATOM     70  C   UNL     1      -8.318  16.927   9.258  1.00  0.00     0.148 A 
ATOM     71  C   UNL     1      -8.442  16.661  12.055  1.00  0.00     0.002 A 
ATOM     72  C   UNL     1      -9.537  17.017   9.919  1.00  0.00     0.091 A 
ATOM     73  F   UNL     1      -8.229  17.007   7.923  1.00  0.00    -0.205 F 
ATOM     74  C   UNL     1      -9.602  16.875  11.315  1.00  0.00     0.022 A 
BRANCH  72  75
ATOM     75  S   UNL     1     -11.078  17.360   9.062  1.00  0.00     0.127 S 
ATOM     76  O   UNL     1     -11.748  16.062   9.131  1.00  0.00    -0.237 OA
ATOM     77  O   UNL     1     -11.674  18.399   9.902  1.00  0.00    -0.237 OA
ATOM     78  O   UNL     1     -10.703  17.802   7.726  1.00  0.00    -0.744 OA
ENDBRANCH  72  75
ENDBRANCH  54  68
BRANCH  55  79
ATOM     79  C   UNL     1       1.678  15.864   5.371  1.00  0.00     0.023 A 
ATOM     80  C   UNL     1       2.822  16.514   5.874  1.00  0.00     0.012 A 
ATOM     81  C   UNL     1       1.784  15.103   4.191  1.00  0.00     0.148 A 
ATOM     82  C   UNL     1       4.041  16.434   5.198  1.00  0.00     0.002 A 
ATOM     83  C   UNL     1       3.013  14.983   3.552  1.00  0.00     0.091 A 
ATOM     84  F   UNL     1       0.680  14.509   3.716  1.00  0.00    -0.205 F 
ATOM     85  C   UNL     1       4.139  15.662   4.044  1.00  0.00     0.022 A 
BRANCH  83  86
ATOM     86  S   UNL     1       3.261  13.910   2.133  1.00  0.00     0.127 S 
ATOM     87  O   UNL     1       3.436  14.876   1.052  1.00  0.00    -0.237 OA
ATOM     88  O   UNL     1       4.474  13.183   2.512  1.00  0.00    -0.237 OA
ATOM     89  O   UNL     1       2.067  13.080   2.056  1.00  0.00    -0.744 OA
ENDBRANCH  83  86
ENDBRANCH  55  79
BRANCH  67  90
ATOM     90  C   UNL     1      -2.597  21.234   6.679  1.00  0.00     0.023 A 
ATOM     91  C   UNL     1      -2.858  21.642   5.356  1.00  0.00     0.012 A 
ATOM     92  C   UNL     1      -2.376  22.209   7.673  1.00  0.00     0.148 A 
ATOM     93  C   UNL     1      -2.870  22.995   5.022  1.00  0.00     0.002 A 
ATOM     94  C   UNL     1      -2.437  23.557   7.341  1.00  0.00     0.091 A 
ATOM     95  F   UNL     1      -2.113  21.800   8.923  1.00  0.00    -0.205 F 
ATOM     96  C   UNL     1      -2.673  23.952   6.015  1.00  0.00     0.022 A 
BRANCH  94  97
ATOM     97  S   UNL     1      -2.291  24.857   8.573  1.00  0.00     0.127 S 
ATOM     98  O   UNL     1      -0.946  25.367   8.311  1.00  0.00    -0.237 OA
ATOM     99  O   UNL     1      -3.372  25.768   8.197  1.00  0.00    -0.237 OA
ATOM    100  O   UNL     1      -2.474  24.206   9.864  1.00  0.00    -0.744 OA
ENDBRANCH  94  97
ENDBRANCH  67  90
ENDBRANCH  41  42
ENDBRANCH  34  36
ENDBRANCH  33  34
ENDBRANCH  32  33
ENDBRANCH  31  32
ENDBRANCH  30  31
ENDBRANCH  29  30
ENDBRANCH   1  29
TORSDOF 26
