REMARK SMILES CN1C(=O)C[C@@H](C(=O)OCCOCCOCCOCCOC(=O)c2ccc(-c3c4nc(c(-c5cccc(S(=O)(=O)[O-])c5F)c5ccc([nH]5)c(-c5cccc(S(=O)(=O)[O-])c5F)c5nc(c(-c6cccc(S(=O)(=O)[O-])c6F)c6ccc3[nH]6)C=C5)C=C4)cc2)C12CCN(c1ccc(Cl)cn1)CC2
REMARK SMILES IDX 16 1 15 2 14 3 13 4 12 5 11 6 10 7 9 8 7 9 8 10 6 11 1 12
REMARK SMILES IDX 2 13 3 14 87 15 4 16 5 17 88 18 99 19 89 20 98 21 90 22
REMARK SMILES IDX 91 23 92 24 97 25 93 26 96 27 94 28 95 29 17 30 18 31 19 32
REMARK SMILES IDX 20 33 21 34 22 35 23 36 24 37 25 38 86 39 26 40 85 41 27 42
REMARK SMILES IDX 28 43 29 44 79 45 30 46 84 47 78 48 80 49 31 50 83 51 77 52
REMARK SMILES IDX 76 53 32 55 64 56 44 57 63 58 45 59 48 60 62 61 81 62 46 63
REMARK SMILES IDX 47 64 61 66 82 67 49 68 33 69 34 70 42 71 35 72 37 73 43 74
REMARK SMILES IDX 36 75 38 76 39 77 40 78 41 79 65 80 66 81 74 82 67 83 69 84
REMARK SMILES IDX 75 85 68 86 70 87 71 88 72 89 73 90 50 91 51 92 59 93 52 94
REMARK SMILES IDX 54 95 60 96 53 97 55 98 56 99 57 100 58 101
REMARK H PARENT 80 54 48 65
REMARK Flexibility Score: inf
ROOT
ATOM      1  C   UNL     1      -0.852   0.581   5.763  1.00  0.00     0.188 C 
ENDROOT
BRANCH   1   2
ATOM      2  O   UNL     1      -0.973   1.641   4.815  1.00  0.00    -0.377 OA
BRANCH   2   3
ATOM      3  C   UNL     1      -1.127   2.985   5.232  1.00  0.00     0.188 C 
BRANCH   3   4
ATOM      4  C   UNL     1      -2.525   3.588   5.131  1.00  0.00     0.188 C 
BRANCH   4   5
ATOM      5  O   UNL     1      -3.633   2.762   5.406  1.00  0.00    -0.376 OA
BRANCH   5   6
ATOM      6  C   UNL     1      -3.850   1.613   4.590  1.00  0.00     0.202 C 
BRANCH   6   7
ATOM      7  C   UNL     1      -3.635   1.639   3.058  1.00  0.00     0.261 C 
BRANCH   7   8
ATOM      8  O   UNL     1      -2.268   1.774   2.565  1.00  0.00    -0.463 OA
BRANCH   8   9
ATOM      9  C   UNL     1      -1.993   2.931   1.932  1.00  0.00     0.311 C 
ATOM     10  O   UNL     1      -2.804   3.860   1.861  1.00  0.00    -0.252 OA
BRANCH   9  11
ATOM     11  C   UNL     1      -0.650   3.107   1.226  1.00  0.00     0.134 C 
ATOM     12  C   UNL     1       0.987   0.029  -0.133  1.00  0.00     0.147 C 
ATOM     13  N   UNL     1       0.334   1.312   0.082  1.00  0.00    -0.339 N 
ATOM     14  C   UNL     1      -0.618   1.807  -0.787  1.00  0.00     0.223 C 
ATOM     15  C   UNL     1       0.638   2.226   1.203  1.00  0.00     0.060 C 
ATOM     16  O   UNL     1      -1.013   1.295  -1.819  1.00  0.00    -0.275 OA
ATOM     17  C   UNL     1      -1.054   3.147  -0.272  1.00  0.00     0.118 C 
ATOM     18  C   UNL     1       1.066   1.422   2.437  1.00  0.00     0.051 C 
ATOM     19  C   UNL     1       1.850   3.154   0.783  1.00  0.00     0.051 C 
ATOM     20  C   UNL     1       1.858   2.159   3.498  1.00  0.00     0.120 C 
ATOM     21  C   UNL     1       2.489   3.930   1.951  1.00  0.00     0.120 C 
ATOM     22  N   UNL     1       2.940   2.953   2.927  1.00  0.00    -0.356 N 
BRANCH  22  23
ATOM     23  C   UNL     1       3.847   3.354   3.917  1.00  0.00     0.128 A 
ATOM     24  C   UNL     1       4.699   2.380   4.457  1.00  0.00     0.048 A 
ATOM     25  N   UNL     1       3.801   4.601   4.433  1.00  0.00    -0.238 NA
ATOM     26  C   UNL     1       5.474   2.659   5.581  1.00  0.00     0.026 A 
ATOM     27  C   UNL     1       4.570   4.853   5.530  1.00  0.00     0.134 A 
ATOM     28  C   UNL     1       5.395   3.920   6.142  1.00  0.00     0.059 A 
ATOM     29  Cl  UNL     1       6.273   4.298   7.567  1.00  0.00    -0.083 Cl
ENDBRANCH  22  23
ENDBRANCH   9  11
ENDBRANCH   8   9
ENDBRANCH   7   8
ENDBRANCH   6   7
ENDBRANCH   5   6
ENDBRANCH   4   5
ENDBRANCH   3   4
ENDBRANCH   2   3
ENDBRANCH   1   2
BRANCH   1  30
ATOM     30  C   UNL     1      -0.820   0.931   7.253  1.00  0.00     0.188 C 
BRANCH  30  31
ATOM     31  O   UNL     1       0.275   1.712   7.747  1.00  0.00    -0.376 OA
BRANCH  31  32
ATOM     32  C   UNL     1       1.498   1.713   7.019  1.00  0.00     0.202 C 
BRANCH  32  33
ATOM     33  C   UNL     1       2.487   0.609   7.377  1.00  0.00     0.261 C 
BRANCH  33  34
ATOM     34  O   UNL     1       2.042  -0.663   6.886  1.00  0.00    -0.460 OA
BRANCH  34  35
ATOM     35  C   UNL     1       1.420  -1.431   7.806  1.00  0.00     0.338 C 
ATOM     36  O   UNL     1       1.265  -1.181   8.994  1.00  0.00    -0.246 OA
BRANCH  35  37
ATOM     37  C   UNL     1       0.782  -2.575   7.141  1.00  0.00     0.060 A 
ATOM     38  C   UNL     1      -0.541  -2.868   7.493  1.00  0.00     0.016 A 
ATOM     39  C   UNL     1       1.488  -3.393   6.254  1.00  0.00     0.016 A 
ATOM     40  C   UNL     1      -1.144  -4.023   7.016  1.00  0.00     0.010 A 
ATOM     41  C   UNL     1       0.886  -4.560   5.785  1.00  0.00     0.010 A 
ATOM     42  C   UNL     1      -0.409  -4.901   6.213  1.00  0.00    -0.014 A 
BRANCH  42  43
ATOM     43  C   UNL     1      -0.915  -6.275   6.025  1.00  0.00     0.031 A 
ATOM     44  C   UNL     1      -0.366  -7.358   6.912  1.00  0.00     0.074 A 
ATOM     45  C   UNL     1      -1.866  -6.536   5.115  1.00  0.00     0.049 A 
ATOM     46  N   UNL     1      -0.635  -8.635   6.923  1.00  0.00    -0.248 NA
ATOM     47  C   UNL     1       0.623  -6.942   7.922  1.00  0.00     0.031 C 
ATOM     48  C   UNL     1      -2.484  -5.548   4.232  1.00  0.00     0.029 A 
ATOM     49  N   UNL     1      -2.461  -7.720   4.771  1.00  0.00    -0.354 N 
ATOM     50  C   UNL     1       0.174  -9.181   7.912  1.00  0.00     0.074 A 
ATOM     51  C   UNL     1       0.953  -8.100   8.472  1.00  0.00     0.031 C 
ATOM     52  C   UNL     1      -3.356  -6.174   3.425  1.00  0.00     0.029 A 
ATOM     53  C   UNL     1      -3.331  -7.606   3.715  1.00  0.00     0.049 A 
ATOM     54  H   UNL     1      -2.284  -8.570   5.236  1.00  0.00     0.167 HD
ATOM     55  C   UNL     1       0.252 -10.467   8.323  1.00  0.00     0.034 A 
ATOM     56  C   UNL     1      -4.003  -8.560   3.043  1.00  0.00     0.034 A 
ATOM     57  C   UNL     1      -0.535 -11.528   7.758  1.00  0.00     0.049 A 
ATOM     58  C   UNL     1      -3.865  -9.992   3.488  1.00  0.00     0.074 A 
ATOM     59  C   UNL     1      -0.565 -12.864   8.115  1.00  0.00     0.029 A 
ATOM     60  N   UNL     1      -1.419 -11.376   6.699  1.00  0.00    -0.354 N 
ATOM     61  N   UNL     1      -3.166 -10.485   4.482  1.00  0.00    -0.248 NA
ATOM     62  C   UNL     1      -4.632 -10.995   2.737  1.00  0.00     0.031 C 
ATOM     63  C   UNL     1      -1.434 -13.526   7.242  1.00  0.00     0.029 A 
ATOM     64  C   UNL     1      -1.986 -12.595   6.375  1.00  0.00     0.049 A 
ATOM     65  H   UNL     1      -1.614 -10.524   6.245  1.00  0.00     0.167 HD
ATOM     66  C   UNL     1      -3.438 -11.848   4.503  1.00  0.00     0.074 A 
ATOM     67  C   UNL     1      -4.380 -12.098   3.429  1.00  0.00     0.031 C 
ATOM     68  C   UNL     1      -2.952 -12.809   5.328  1.00  0.00     0.034 A 
BRANCH  55  69
ATOM     69  C   UNL     1       1.227 -10.790   9.425  1.00  0.00     0.023 A 
ATOM     70  C   UNL     1       0.987 -10.337  10.739  1.00  0.00     0.012 A 
ATOM     71  C   UNL     1       2.374 -11.563   9.162  1.00  0.00     0.148 A 
ATOM     72  C   UNL     1       1.895 -10.611  11.762  1.00  0.00     0.002 A 
ATOM     73  C   UNL     1       3.248 -11.876  10.196  1.00  0.00     0.091 A 
ATOM     74  F   UNL     1       2.600 -11.964   7.902  1.00  0.00    -0.205 F 
ATOM     75  C   UNL     1       3.018 -11.388  11.493  1.00  0.00     0.022 A 
BRANCH  73  76
ATOM     76  S   UNL     1       4.681 -12.933   9.968  1.00  0.00     0.127 S 
ATOM     77  O   UNL     1       5.779 -11.982  10.132  1.00  0.00    -0.237 OA
ATOM     78  O   UNL     1       4.533 -13.890  11.065  1.00  0.00    -0.237 OA
ATOM     79  O   UNL     1       4.549 -13.509   8.637  1.00  0.00    -0.744 OA
ENDBRANCH  73  76
ENDBRANCH  55  69
BRANCH  56  80
ATOM     80  C   UNL     1      -4.877  -8.187   1.898  1.00  0.00     0.023 A 
ATOM     81  C   UNL     1      -6.274  -8.317   2.012  1.00  0.00     0.012 A 
ATOM     82  C   UNL     1      -4.329  -7.678   0.704  1.00  0.00     0.148 A 
ATOM     83  C   UNL     1      -7.108  -7.974   0.948  1.00  0.00     0.002 A 
ATOM     84  C   UNL     1      -5.168  -7.287  -0.331  1.00  0.00     0.091 A 
ATOM     85  F   UNL     1      -2.995  -7.571   0.614  1.00  0.00    -0.205 F 
ATOM     86  C   UNL     1      -6.557  -7.450  -0.218  1.00  0.00     0.022 A 
BRANCH  84  87
ATOM     87  S   UNL     1      -4.557  -6.488  -1.819  1.00  0.00     0.127 S 
ATOM     88  O   UNL     1      -4.858  -7.489  -2.839  1.00  0.00    -0.237 OA
ATOM     89  O   UNL     1      -5.387  -5.284  -1.870  1.00  0.00    -0.237 OA
ATOM     90  O   UNL     1      -3.143  -6.237  -1.580  1.00  0.00    -0.744 OA
ENDBRANCH  84  87
ENDBRANCH  56  80
BRANCH  68  91
ATOM     91  C   UNL     1      -3.465 -14.213   5.139  1.00  0.00     0.023 A 
ATOM     92  C   UNL     1      -3.075 -14.965   4.013  1.00  0.00     0.012 A 
ATOM     93  C   UNL     1      -4.277 -14.810   6.124  1.00  0.00     0.148 A 
ATOM     94  C   UNL     1      -3.518 -16.277   3.852  1.00  0.00     0.002 A 
ATOM     95  C   UNL     1      -4.666 -16.136   5.985  1.00  0.00     0.091 A 
ATOM     96  F   UNL     1      -4.648 -14.072   7.180  1.00  0.00    -0.205 F 
ATOM     97  C   UNL     1      -4.301 -16.866   4.842  1.00  0.00     0.022 A 
BRANCH  95  98
ATOM     98  S   UNL     1      -5.587 -17.008   7.257  1.00  0.00     0.127 S 
ATOM     99  O   UNL     1      -6.889 -17.180   6.616  1.00  0.00    -0.237 OA
ATOM    100  O   UNL     1      -4.812 -18.240   7.407  1.00  0.00    -0.237 OA
ATOM    101  O   UNL     1      -5.579 -16.141   8.427  1.00  0.00    -0.744 OA
ENDBRANCH  95  98
ENDBRANCH  68  91
ENDBRANCH  42  43
ENDBRANCH  35  37
ENDBRANCH  34  35
ENDBRANCH  33  34
ENDBRANCH  32  33
ENDBRANCH  31  32
ENDBRANCH  30  31
ENDBRANCH   1  30
TORSDOF 24
