REMARK SMILES O=C(OCCOCCOCCOCCOC(=O)[C@H]1CCCC[C@H]1C(=O)N1CCN(S(=O)(=O)c2ccc(F)cc2)CC1)c1ccc(-c2c3nc(c(-c4cccc(S(=O)(=O)[O-])c4F)c4ccc([nH]4)c(-c4cccc(S(=O)(=O)[O-])c4F)c4nc(c(-c5cccc(S(=O)(=O)[O-])c5F)c5ccc2[nH]5)C=C4)C=C3)cc1
REMARK SMILES IDX 9 1 8 2 7 3 6 4 5 5 4 6 3 7 2 8 1 9 42 10 43 11 104 12 44 13
REMARK SMILES IDX 103 14 45 15 46 16 47 17 97 18 48 19 102 20 96 21 98 22
REMARK SMILES IDX 49 23 101 24 95 25 94 26 50 28 82 29 62 30 81 31 63 32 66 33
REMARK SMILES IDX 80 34 99 35 64 36 65 37 79 39 100 40 67 41 51 42 52 43 60 44
REMARK SMILES IDX 53 45 55 46 61 47 54 48 56 49 57 50 58 51 59 52 83 53 84 54
REMARK SMILES IDX 92 55 85 56 87 57 93 58 86 59 88 60 89 61 90 62 91 63 68 64
REMARK SMILES IDX 69 65 77 66 70 67 72 68 78 69 71 70 73 71 74 72 75 73 76 74
REMARK SMILES IDX 10 75 11 76 12 77 13 78 14 79 15 80 16 81 17 82 18 83 19 84
REMARK SMILES IDX 23 85 20 86 22 87 21 88 24 89 25 90 26 91 27 92 41 93 28 94
REMARK SMILES IDX 40 95 29 96 30 97 31 98 32 99 33 100 34 101 39 102 35 103
REMARK SMILES IDX 38 104 36 105 37 106
REMARK H PARENT 98 27 66 38
REMARK Flexibility Score: inf
ROOT
ATOM      1  O   UNL     1       7.351   4.439   1.227  1.00  0.00    -0.377 OA
ENDROOT
BRANCH   1   2
ATOM      2  C   UNL     1       8.383   4.576   0.262  1.00  0.00     0.188 C 
BRANCH   2   3
ATOM      3  C   UNL     1       9.093   3.337  -0.257  1.00  0.00     0.188 C 
BRANCH   3   4
ATOM      4  O   UNL     1       8.467   2.140   0.120  1.00  0.00    -0.376 OA
BRANCH   4   5
ATOM      5  C   UNL     1       9.038   1.236   1.036  1.00  0.00     0.202 C 
BRANCH   5   6
ATOM      6  C   UNL     1      10.373   0.644   0.627  1.00  0.00     0.261 C 
BRANCH   6   7
ATOM      7  O   UNL     1      10.998   1.194  -0.551  1.00  0.00    -0.460 OA
BRANCH   7   8
ATOM      8  C   UNL     1      10.695   1.214  -1.867  1.00  0.00     0.338 C 
ATOM      9  O   UNL     1      11.424   1.874  -2.608  1.00  0.00    -0.246 OA
BRANCH   8  10
ATOM     10  C   UNL     1       9.575   0.464  -2.503  1.00  0.00     0.060 A 
ATOM     11  C   UNL     1       8.339   0.219  -1.921  1.00  0.00     0.016 A 
ATOM     12  C   UNL     1       9.748   0.057  -3.836  1.00  0.00     0.016 A 
ATOM     13  C   UNL     1       7.339  -0.480  -2.557  1.00  0.00     0.010 A 
ATOM     14  C   UNL     1       8.735  -0.632  -4.512  1.00  0.00     0.010 A 
ATOM     15  C   UNL     1       7.546  -0.939  -3.843  1.00  0.00    -0.014 A 
BRANCH  15  16
ATOM     16  C   UNL     1       6.583  -1.940  -4.313  1.00  0.00     0.031 A 
ATOM     17  C   UNL     1       7.010  -3.368  -4.258  1.00  0.00     0.074 A 
ATOM     18  C   UNL     1       5.306  -1.590  -4.541  1.00  0.00     0.049 A 
ATOM     19  N   UNL     1       6.334  -4.432  -4.574  1.00  0.00    -0.248 NA
ATOM     20  C   UNL     1       8.366  -3.640  -3.744  1.00  0.00     0.031 C 
ATOM     21  C   UNL     1       4.778  -0.232  -4.408  1.00  0.00     0.029 A 
ATOM     22  N   UNL     1       4.216  -2.339  -4.894  1.00  0.00    -0.354 N 
ATOM     23  C   UNL     1       7.203  -5.490  -4.373  1.00  0.00     0.074 A 
ATOM     24  C   UNL     1       8.445  -4.953  -3.873  1.00  0.00     0.031 C 
ATOM     25  C   UNL     1       3.468  -0.254  -4.687  1.00  0.00     0.029 A 
ATOM     26  C   UNL     1       3.080  -1.591  -5.072  1.00  0.00     0.049 A 
ATOM     27  H   UNL     1       4.245  -3.317  -5.008  1.00  0.00     0.167 HD
ATOM     28  C   UNL     1       6.973  -6.796  -4.614  1.00  0.00     0.034 A 
ATOM     29  C   UNL     1       1.862  -1.922  -5.534  1.00  0.00     0.034 A 
ATOM     30  C   UNL     1       5.720  -7.278  -5.118  1.00  0.00     0.049 A 
ATOM     31  C   UNL     1       1.656  -3.356  -5.890  1.00  0.00     0.074 A 
ATOM     32  C   UNL     1       5.374  -8.565  -5.469  1.00  0.00     0.029 A 
ATOM     33  N   UNL     1       4.612  -6.474  -5.362  1.00  0.00    -0.354 N 
ATOM     34  N   UNL     1       2.499  -4.350  -5.751  1.00  0.00    -0.248 NA
ATOM     35  C   UNL     1       0.354  -3.728  -6.447  1.00  0.00     0.031 C 
ATOM     36  C   UNL     1       4.075  -8.530  -5.981  1.00  0.00     0.029 A 
ATOM     37  C   UNL     1       3.586  -7.234  -5.885  1.00  0.00     0.049 A 
ATOM     38  H   UNL     1       4.566  -5.506  -5.188  1.00  0.00     0.167 HD
ATOM     39  C   UNL     1       1.828  -5.478  -6.182  1.00  0.00     0.074 A 
ATOM     40  C   UNL     1       0.500  -5.041  -6.580  1.00  0.00     0.031 C 
ATOM     41  C   UNL     1       2.272  -6.755  -6.243  1.00  0.00     0.034 A 
BRANCH  28  42
ATOM     42  C   UNL     1       8.129  -7.735  -4.438  1.00  0.00     0.023 A 
ATOM     43  C   UNL     1       8.617  -8.055  -3.155  1.00  0.00     0.012 A 
ATOM     44  C   UNL     1       8.763  -8.270  -5.574  1.00  0.00     0.148 A 
ATOM     45  C   UNL     1       9.743  -8.864  -3.010  1.00  0.00     0.002 A 
ATOM     46  C   UNL     1       9.849  -9.119  -5.421  1.00  0.00     0.091 A 
ATOM     47  F   UNL     1       8.312  -7.911  -6.785  1.00  0.00    -0.205 F 
ATOM     48  C   UNL     1      10.352  -9.404  -4.141  1.00  0.00     0.022 A 
BRANCH  46  49
ATOM     49  S   UNL     1      10.648  -9.919  -6.813  1.00  0.00     0.127 S 
ATOM     50  O   UNL     1      11.970  -9.294  -6.794  1.00  0.00    -0.237 OA
ATOM     51  O   UNL     1      10.631 -11.324  -6.404  1.00  0.00    -0.237 OA
ATOM     52  O   UNL     1       9.833  -9.613  -7.980  1.00  0.00    -0.744 OA
ENDBRANCH  46  49
ENDBRANCH  28  42
BRANCH  29  53
ATOM     53  C   UNL     1       0.796  -0.887  -5.665  1.00  0.00     0.023 A 
ATOM     54  C   UNL     1      -0.259  -0.854  -4.735  1.00  0.00     0.012 A 
ATOM     55  C   UNL     1       0.866   0.117  -6.656  1.00  0.00     0.148 A 
ATOM     56  C   UNL     1      -1.226   0.154  -4.792  1.00  0.00     0.002 A 
ATOM     57  C   UNL     1      -0.091   1.128  -6.695  1.00  0.00     0.091 A 
ATOM     58  F   UNL     1       1.875   0.073  -7.537  1.00  0.00    -0.205 F 
ATOM     59  C   UNL     1      -1.137   1.149  -5.763  1.00  0.00     0.022 A 
BRANCH  57  60
ATOM     60  S   UNL     1      -0.013   2.461  -7.901  1.00  0.00     0.127 S 
ATOM     61  O   UNL     1      -0.877   1.954  -8.963  1.00  0.00    -0.237 OA
ATOM     62  O   UNL     1      -0.557   3.599  -7.159  1.00  0.00    -0.237 OA
ATOM     63  O   UNL     1       1.400   2.596  -8.231  1.00  0.00    -0.744 OA
ENDBRANCH  57  60
ENDBRANCH  29  53
BRANCH  41  64
ATOM     64  C   UNL     1       1.305  -7.791  -6.727  1.00  0.00     0.023 A 
ATOM     65  C   UNL     1       1.013  -7.893  -8.099  1.00  0.00     0.012 A 
ATOM     66  C   UNL     1       0.828  -8.760  -5.827  1.00  0.00     0.148 A 
ATOM     67  C   UNL     1       0.252  -8.958  -8.570  1.00  0.00     0.002 A 
ATOM     68  C   UNL     1       0.126  -9.850  -6.312  1.00  0.00     0.091 A 
ATOM     69  F   UNL     1       1.109  -8.615  -4.523  1.00  0.00    -0.205 F 
ATOM     70  C   UNL     1      -0.172  -9.946  -7.682  1.00  0.00     0.022 A 
BRANCH  68  71
ATOM     71  S   UNL     1      -0.336 -11.231  -5.265  1.00  0.00     0.127 S 
ATOM     72  O   UNL     1      -1.795 -11.142  -5.284  1.00  0.00    -0.237 OA
ATOM     73  O   UNL     1       0.219 -12.368  -5.998  1.00  0.00    -0.237 OA
ATOM     74  O   UNL     1       0.282 -10.983  -3.969  1.00  0.00    -0.744 OA
ENDBRANCH  68  71
ENDBRANCH  41  64
ENDBRANCH  15  16
ENDBRANCH   8  10
ENDBRANCH   7   8
ENDBRANCH   6   7
ENDBRANCH   5   6
ENDBRANCH   4   5
ENDBRANCH   3   4
ENDBRANCH   2   3
ENDBRANCH   1   2
BRANCH   1  75
ATOM     75  C   UNL     1       6.489   3.302   1.232  1.00  0.00     0.188 C 
BRANCH  75  76
ATOM     76  C   UNL     1       5.793   2.878  -0.078  1.00  0.00     0.188 C 
BRANCH  76  77
ATOM     77  O   UNL     1       6.135   3.687  -1.198  1.00  0.00    -0.376 OA
BRANCH  77  78
ATOM     78  C   UNL     1       5.169   4.670  -1.540  1.00  0.00     0.202 C 
BRANCH  78  79
ATOM     79  C   UNL     1       5.375   6.060  -0.914  1.00  0.00     0.261 C 
BRANCH  79  80
ATOM     80  O   UNL     1       5.267   6.303   0.516  1.00  0.00    -0.463 OA
BRANCH  80  81
ATOM     81  C   UNL     1       4.606   5.546   1.408  1.00  0.00     0.309 C 
ATOM     82  O   UNL     1       3.971   4.536   1.135  1.00  0.00    -0.252 OA
BRANCH  81  83
ATOM     83  C   UNL     1       4.668   6.040   2.843  1.00  0.00     0.111 C 
ATOM     84  C   UNL     1       6.099   6.323   3.327  1.00  0.00     0.016 C 
ATOM     85  C   UNL     1       3.755   7.246   3.103  1.00  0.00     0.093 C 
ATOM     86  C   UNL     1       6.706   7.569   2.693  1.00  0.00     0.001 C 
ATOM     87  C   UNL     1       4.311   8.503   2.429  1.00  0.00     0.014 C 
ATOM     88  C   UNL     1       5.773   8.771   2.833  1.00  0.00     0.001 C 
BRANCH  85  89
ATOM     89  C   UNL     1       2.244   6.988   2.886  1.00  0.00     0.226 C 
ATOM     90  O   UNL     1       1.488   6.845   3.847  1.00  0.00    -0.275 OA
ATOM     91  N   UNL     1       1.802   6.825   1.593  1.00  0.00    -0.340 N 
ATOM     92  C   UNL     1       0.993   7.823   0.892  1.00  0.00     0.136 C 
ATOM     93  C   UNL     1       1.415   5.491   1.166  1.00  0.00     0.136 C 
ATOM     94  C   UNL     1       1.123   7.706  -0.659  1.00  0.00     0.124 C 
ATOM     95  C   UNL     1       1.877   5.372  -0.273  1.00  0.00     0.124 C 
ATOM     96  N   UNL     1       1.174   6.299  -1.165  1.00  0.00    -0.194 NA
BRANCH  96  97
ATOM     97  S   UNL     1       0.039   5.648  -2.229  1.00  0.00     0.243 S 
ATOM     98  O   UNL     1      -0.797   4.764  -1.458  1.00  0.00    -0.207 OA
ATOM     99  O   UNL     1      -0.510   6.760  -2.989  1.00  0.00    -0.207 OA
BRANCH  97 100
ATOM    100  C   UNL     1       1.057   4.657  -3.328  1.00  0.00     0.082 A 
ATOM    101  C   UNL     1       1.680   3.500  -2.843  1.00  0.00     0.025 A 
ATOM    102  C   UNL     1       1.289   5.059  -4.645  1.00  0.00     0.025 A 
ATOM    103  C   UNL     1       2.706   2.910  -3.571  1.00  0.00     0.040 A 
ATOM    104  C   UNL     1       2.233   4.376  -5.423  1.00  0.00     0.040 A 
ATOM    105  C   UNL     1       2.976   3.349  -4.859  1.00  0.00     0.123 A 
ATOM    106  F   UNL     1       3.957   2.765  -5.559  1.00  0.00    -0.207 F 
ENDBRANCH  97 100
ENDBRANCH  96  97
ENDBRANCH  85  89
ENDBRANCH  81  83
ENDBRANCH  80  81
ENDBRANCH  79  80
ENDBRANCH  78  79
ENDBRANCH  77  78
ENDBRANCH  76  77
ENDBRANCH  75  76
ENDBRANCH   1  75
TORSDOF 26
