REMARK SMILES O=C(OCCOCCOCCOCCOC(=O)[C@@H]1CCC(=O)N1C(=O)/C=C/c1ccccc1)c1ccc(-c2c3nc(c(-c4cccc(S(=O)(=O)[O-])c4F)c4ccc([nH]4)c(-c4cccc(S(=O)(=O)[O-])c4F)c4nc(c(-c5cccc(S(=O)(=O)[O-])c5F)c5ccc2[nH]5)C=C4)C=C3)cc1
REMARK SMILES IDX 9 1 8 2 7 3 6 4 5 5 4 6 3 7 2 8 1 9 34 10 35 11 96 12 36 13
REMARK SMILES IDX 95 14 37 15 38 16 39 17 89 18 40 19 94 20 88 21 90 22 41 23
REMARK SMILES IDX 93 24 87 25 86 26 42 28 74 29 54 30 73 31 55 32 58 33 72 34
REMARK SMILES IDX 91 35 56 36 57 37 71 39 92 40 59 41 43 42 44 43 52 44 45 45
REMARK SMILES IDX 47 46 53 47 46 48 48 49 49 50 50 51 51 52 75 53 76 54 84 55
REMARK SMILES IDX 77 56 79 57 85 58 78 59 80 60 81 61 82 62 83 63 60 64 61 65
REMARK SMILES IDX 69 66 62 67 64 68 70 69 63 70 65 71 66 72 67 73 68 74 10 75
REMARK SMILES IDX 11 76 12 77 13 78 14 79 15 80 16 81 17 82 18 83 19 84 23 85
REMARK SMILES IDX 20 86 21 87 22 88 24 89 25 90 26 91 27 92 28 93 29 94 33 95
REMARK SMILES IDX 30 96 32 97 31 98
REMARK H PARENT 90 27 58 38
REMARK Flexibility Score: inf
ROOT
ATOM      1  O   UNL     1       2.723  -2.621  -2.771  1.00  0.00    -0.377 OA
ENDROOT
BRANCH   1   2
ATOM      2  C   UNL     1       1.923  -1.639  -2.114  1.00  0.00     0.188 C 
BRANCH   2   3
ATOM      3  C   UNL     1       2.263  -1.435  -0.640  1.00  0.00     0.188 C 
BRANCH   3   4
ATOM      4  O   UNL     1       3.571  -0.871  -0.511  1.00  0.00    -0.376 OA
BRANCH   4   5
ATOM      5  C   UNL     1       4.346  -1.400   0.566  1.00  0.00     0.202 C 
BRANCH   5   6
ATOM      6  C   UNL     1       4.197  -0.607   1.863  1.00  0.00     0.261 C 
BRANCH   6   7
ATOM      7  O   UNL     1       2.839  -0.200   2.081  1.00  0.00    -0.460 OA
BRANCH   7   8
ATOM      8  C   UNL     1       2.233   0.939   1.660  1.00  0.00     0.338 C 
ATOM      9  O   UNL     1       1.042   1.086   1.938  1.00  0.00    -0.246 OA
BRANCH   8  10
ATOM     10  C   UNL     1       2.918   2.046   0.909  1.00  0.00     0.060 A 
ATOM     11  C   UNL     1       4.095   1.935   0.163  1.00  0.00     0.016 A 
ATOM     12  C   UNL     1       2.287   3.304   0.938  1.00  0.00     0.016 A 
ATOM     13  C   UNL     1       4.678   3.033  -0.457  1.00  0.00     0.010 A 
ATOM     14  C   UNL     1       2.857   4.416   0.308  1.00  0.00     0.010 A 
ATOM     15  C   UNL     1       4.082   4.284  -0.350  1.00  0.00    -0.014 A 
BRANCH  15  16
ATOM     16  C   UNL     1       4.883   5.455  -0.738  1.00  0.00     0.031 A 
ATOM     17  C   UNL     1       5.621   6.174   0.351  1.00  0.00     0.074 A 
ATOM     18  C   UNL     1       5.046   5.769  -2.034  1.00  0.00     0.049 A 
ATOM     19  N   UNL     1       6.382   7.229   0.279  1.00  0.00    -0.248 NA
ATOM     20  C   UNL     1       5.500   5.609   1.710  1.00  0.00     0.031 C 
ATOM     21  C   UNL     1       4.455   5.041  -3.157  1.00  0.00     0.029 A 
ATOM     22  N   UNL     1       5.764   6.774  -2.623  1.00  0.00    -0.354 N 
ATOM     23  C   UNL     1       6.790   7.483   1.583  1.00  0.00     0.074 A 
ATOM     24  C   UNL     1       6.215   6.462   2.425  1.00  0.00     0.031 C 
ATOM     25  C   UNL     1       4.828   5.632  -4.304  1.00  0.00     0.029 A 
ATOM     26  C   UNL     1       5.641   6.804  -3.991  1.00  0.00     0.049 A 
ATOM     27  H   UNL     1       6.316   7.412  -2.115  1.00  0.00     0.167 HD
ATOM     28  C   UNL     1       7.572   8.489   2.033  1.00  0.00     0.034 A 
ATOM     29  C   UNL     1       6.112   7.704  -4.876  1.00  0.00     0.034 A 
ATOM     30  C   UNL     1       8.131   9.489   1.171  1.00  0.00     0.049 A 
ATOM     31  C   UNL     1       6.933   8.850  -4.343  1.00  0.00     0.074 A 
ATOM     32  C   UNL     1       8.887  10.595   1.504  1.00  0.00     0.029 A 
ATOM     33  N   UNL     1       7.979   9.500  -0.209  1.00  0.00    -0.354 N 
ATOM     34  N   UNL     1       7.321   9.083  -3.110  1.00  0.00    -0.248 NA
ATOM     35  C   UNL     1       7.391   9.851  -5.315  1.00  0.00     0.031 C 
ATOM     36  C   UNL     1       9.179  11.285   0.322  1.00  0.00     0.029 A 
ATOM     37  C   UNL     1       8.624  10.595  -0.747  1.00  0.00     0.049 A 
ATOM     38  H   UNL     1       7.485   8.825  -0.728  1.00  0.00     0.167 HD
ATOM     39  C   UNL     1       8.082  10.243  -3.158  1.00  0.00     0.074 A 
ATOM     40  C   UNL     1       8.123  10.651  -4.550  1.00  0.00     0.031 C 
ATOM     41  C   UNL     1       8.677  10.928  -2.149  1.00  0.00     0.034 A 
BRANCH  28  42
ATOM     42  C   UNL     1       7.815   8.552   3.515  1.00  0.00     0.023 A 
ATOM     43  C   UNL     1       8.706   7.644   4.122  1.00  0.00     0.012 A 
ATOM     44  C   UNL     1       7.121   9.480   4.314  1.00  0.00     0.148 A 
ATOM     45  C   UNL     1       8.874   7.635   5.507  1.00  0.00     0.002 A 
ATOM     46  C   UNL     1       7.320   9.489   5.689  1.00  0.00     0.091 A 
ATOM     47  F   UNL     1       6.252  10.310   3.720  1.00  0.00    -0.205 F 
ATOM     48  C   UNL     1       8.186   8.560   6.289  1.00  0.00     0.022 A 
BRANCH  46  49
ATOM     49  S   UNL     1       6.509  10.667   6.775  1.00  0.00     0.127 S 
ATOM     50  O   UNL     1       5.550   9.812   7.474  1.00  0.00    -0.237 OA
ATOM     51  O   UNL     1       7.621  11.138   7.601  1.00  0.00    -0.237 OA
ATOM     52  O   UNL     1       5.928  11.680   5.906  1.00  0.00    -0.744 OA
ENDBRANCH  46  49
ENDBRANCH  28  42
BRANCH  29  53
ATOM     53  C   UNL     1       5.822   7.552  -6.332  1.00  0.00     0.023 A 
ATOM     54  C   UNL     1       6.872   7.287  -7.232  1.00  0.00     0.012 A 
ATOM     55  C   UNL     1       4.504   7.634  -6.827  1.00  0.00     0.148 A 
ATOM     56  C   UNL     1       6.618   7.127  -8.597  1.00  0.00     0.002 A 
ATOM     57  C   UNL     1       4.251   7.416  -8.177  1.00  0.00     0.091 A 
ATOM     58  F   UNL     1       3.517   7.917  -5.965  1.00  0.00    -0.205 F 
ATOM     59  C   UNL     1       5.308   7.178  -9.067  1.00  0.00     0.022 A 
BRANCH  57  60
ATOM     60  S   UNL     1       2.581   7.330  -8.836  1.00  0.00     0.127 S 
ATOM     61  O   UNL     1       2.467   8.609  -9.532  1.00  0.00    -0.237 OA
ATOM     62  O   UNL     1       2.657   6.158  -9.710  1.00  0.00    -0.237 OA
ATOM     63  O   UNL     1       1.715   7.155  -7.678  1.00  0.00    -0.744 OA
ENDBRANCH  57  60
ENDBRANCH  29  53
BRANCH  41  64
ATOM     64  C   UNL     1       9.439  12.170  -2.515  1.00  0.00     0.023 A 
ATOM     65  C   UNL     1       8.736  13.352  -2.818  1.00  0.00     0.012 A 
ATOM     66  C   UNL     1      10.844  12.190  -2.446  1.00  0.00     0.148 A 
ATOM     67  C   UNL     1       9.426  14.536  -3.066  1.00  0.00     0.002 A 
ATOM     68  C   UNL     1      11.522  13.385  -2.648  1.00  0.00     0.091 A 
ATOM     69  F   UNL     1      11.489  11.046  -2.178  1.00  0.00    -0.205 F 
ATOM     70  C   UNL     1      10.816  14.556  -2.966  1.00  0.00     0.022 A 
BRANCH  68  71
ATOM     71  S   UNL     1      13.300  13.517  -2.433  1.00  0.00     0.127 S 
ATOM     72  O   UNL     1      13.766  13.553  -3.818  1.00  0.00    -0.237 OA
ATOM     73  O   UNL     1      13.434  14.783  -1.710  1.00  0.00    -0.237 OA
ATOM     74  O   UNL     1      13.696  12.343  -1.666  1.00  0.00    -0.744 OA
ENDBRANCH  68  71
ENDBRANCH  41  64
ENDBRANCH  15  16
ENDBRANCH   8  10
ENDBRANCH   7   8
ENDBRANCH   6   7
ENDBRANCH   5   6
ENDBRANCH   4   5
ENDBRANCH   3   4
ENDBRANCH   2   3
ENDBRANCH   1   2
BRANCH   1  75
ATOM     75  C   UNL     1       4.130  -2.417  -2.739  1.00  0.00     0.188 C 
BRANCH  75  76
ATOM     76  C   UNL     1       4.715  -1.190  -3.451  1.00  0.00     0.188 C 
BRANCH  76  77
ATOM     77  O   UNL     1       3.755  -0.297  -3.988  1.00  0.00    -0.376 OA
BRANCH  77  78
ATOM     78  C   UNL     1       3.544  -0.403  -5.394  1.00  0.00     0.202 C 
BRANCH  78  79
ATOM     79  C   UNL     1       2.641  -1.577  -5.819  1.00  0.00     0.261 C 
BRANCH  79  80
ATOM     80  O   UNL     1       3.154  -2.907  -5.557  1.00  0.00    -0.462 OA
BRANCH  80  81
ATOM     81  C   UNL     1       4.312  -3.249  -6.167  1.00  0.00     0.329 C 
ATOM     82  O   UNL     1       4.907  -2.521  -6.954  1.00  0.00    -0.250 OA
BRANCH  81  83
ATOM     83  C   UNL     1       4.921  -4.550  -5.618  1.00  0.00     0.204 C 
ATOM     84  C   UNL     1       5.970  -5.057  -6.601  1.00  0.00     0.047 C 
ATOM     85  N   UNL     1       4.026  -5.687  -5.392  1.00  0.00    -0.265 N 
ATOM     86  C   UNL     1       6.023  -6.529  -6.292  1.00  0.00     0.103 C 
ATOM     87  C   UNL     1       4.570  -6.819  -6.019  1.00  0.00     0.230 C 
ATOM     88  O   UNL     1       4.031  -7.867  -6.284  1.00  0.00    -0.274 OA
BRANCH  85  89
ATOM     89  C   UNL     1       3.451  -5.906  -4.155  1.00  0.00     0.253 C 
ATOM     90  O   UNL     1       3.922  -5.483  -3.102  1.00  0.00    -0.269 OA
BRANCH  89  91
ATOM     91  C   UNL     1       2.366  -6.921  -4.122  1.00  0.00     0.072 C 
ATOM     92  C   UNL     1       2.640  -8.073  -3.486  1.00  0.00     0.014 C 
BRANCH  92  93
ATOM     93  C   UNL     1       1.797  -9.276  -3.471  1.00  0.00    -0.025 A 
ATOM     94  C   UNL     1       2.433 -10.523  -3.355  1.00  0.00     0.008 A 
ATOM     95  C   UNL     1       0.400  -9.241  -3.536  1.00  0.00     0.008 A 
ATOM     96  C   UNL     1       1.694 -11.707  -3.320  1.00  0.00     0.001 A 
ATOM     97  C   UNL     1      -0.341 -10.428  -3.502  1.00  0.00     0.001 A 
ATOM     98  C   UNL     1       0.305 -11.659  -3.395  1.00  0.00     0.000 A 
ENDBRANCH  92  93
ENDBRANCH  89  91
ENDBRANCH  85  89
ENDBRANCH  81  83
ENDBRANCH  80  81
ENDBRANCH  79  80
ENDBRANCH  78  79
ENDBRANCH  77  78
ENDBRANCH  76  77
ENDBRANCH  75  76
ENDBRANCH   1  75
TORSDOF 26
