REMARK SMILES O=C(OCCOCCOCCOCCOC(=O)[C@@H](CCc1ccccc1)[C@@H]1CCS(=O)(=O)C1)c1ccc(-c2c3nc(c(-c4cccc(S(=O)(=O)[O-])c4F)c4ccc([nH]4)c(-c4cccc(S(=O)(=O)[O-])c4F)c4nc(c(-c5cccc(S(=O)(=O)[O-])c5F)c5ccc2[nH]5)C=C4)C=C3)cc1
REMARK SMILES IDX 9 1 8 2 7 3 6 4 5 5 4 6 3 7 2 8 1 9 34 10 35 11 96 12 36 13
REMARK SMILES IDX 95 14 37 15 38 16 39 17 89 18 40 19 94 20 88 21 90 22 41 23
REMARK SMILES IDX 93 24 87 25 86 26 42 28 74 29 54 30 73 31 55 32 58 33 72 34
REMARK SMILES IDX 91 35 56 36 57 37 71 39 92 40 59 41 43 42 44 43 52 44 45 45
REMARK SMILES IDX 47 46 53 47 46 48 48 49 49 50 50 51 51 52 75 53 76 54 84 55
REMARK SMILES IDX 77 56 79 57 85 58 78 59 80 60 81 61 82 62 83 63 60 64 61 65
REMARK SMILES IDX 69 66 62 67 64 68 70 69 63 70 65 71 66 72 67 73 68 74 10 75
REMARK SMILES IDX 11 76 12 77 13 78 14 79 15 80 16 81 17 82 18 83 19 84 20 85
REMARK SMILES IDX 21 86 22 87 26 88 23 89 25 90 24 91 27 92 28 93 33 94 29 95
REMARK SMILES IDX 30 96 31 97 32 98
REMARK H PARENT 90 27 58 38
REMARK Flexibility Score: inf
ROOT
ATOM      1  O   UNL     1       3.450   3.295  -1.175  1.00  0.00    -0.377 OA
ENDROOT
BRANCH   1   2
ATOM      2  C   UNL     1       2.339   2.515  -0.732  1.00  0.00     0.188 C 
BRANCH   2   3
ATOM      3  C   UNL     1       2.513   1.028  -0.968  1.00  0.00     0.188 C 
BRANCH   3   4
ATOM      4  O   UNL     1       3.792   0.673  -0.504  1.00  0.00    -0.376 OA
BRANCH   4   5
ATOM      5  C   UNL     1       4.617  -0.228  -1.203  1.00  0.00     0.202 C 
BRANCH   5   6
ATOM      6  C   UNL     1       4.028  -1.599  -1.452  1.00  0.00     0.261 C 
BRANCH   6   7
ATOM      7  O   UNL     1       2.697  -1.835  -0.952  1.00  0.00    -0.460 OA
BRANCH   7   8
ATOM      8  C   UNL     1       2.137  -1.903   0.275  1.00  0.00     0.338 C 
ATOM      9  O   UNL     1       0.925  -2.118   0.334  1.00  0.00    -0.246 OA
BRANCH   8  10
ATOM     10  C   UNL     1       2.865  -1.773   1.567  1.00  0.00     0.060 A 
ATOM     11  C   UNL     1       3.922  -0.907   1.815  1.00  0.00     0.016 A 
ATOM     12  C   UNL     1       2.362  -2.492   2.662  1.00  0.00     0.016 A 
ATOM     13  C   UNL     1       4.563  -0.834   3.029  1.00  0.00     0.010 A 
ATOM     14  C   UNL     1       2.961  -2.390   3.922  1.00  0.00     0.010 A 
ATOM     15  C   UNL     1       4.099  -1.593   4.083  1.00  0.00    -0.014 A 
BRANCH  15  16
ATOM     16  C   UNL     1       4.999  -1.688   5.235  1.00  0.00     0.031 A 
ATOM     17  C   UNL     1       5.778  -2.956   5.372  1.00  0.00     0.074 A 
ATOM     18  C   UNL     1       5.258  -0.594   5.973  1.00  0.00     0.049 A 
ATOM     19  N   UNL     1       6.592  -3.326   6.316  1.00  0.00    -0.248 NA
ATOM     20  C   UNL     1       5.637  -3.940   4.278  1.00  0.00     0.031 C 
ATOM     21  C   UNL     1       4.672   0.736   5.758  1.00  0.00     0.029 A 
ATOM     22  N   UNL     1       6.098  -0.418   7.035  1.00  0.00    -0.354 N 
ATOM     23  C   UNL     1       7.003  -4.605   5.968  1.00  0.00     0.074 A 
ATOM     24  C   UNL     1       6.368  -4.948   4.720  1.00  0.00     0.031 C 
ATOM     25  C   UNL     1       5.160   1.584   6.676  1.00  0.00     0.029 A 
ATOM     26  C   UNL     1       6.018   0.839   7.585  1.00  0.00     0.049 A 
ATOM     27  H   UNL     1       6.699  -1.121   7.372  1.00  0.00     0.167 HD
ATOM     28  C   UNL     1       7.838  -5.417   6.649  1.00  0.00     0.034 A 
ATOM     29  C   UNL     1       6.536   1.295   8.739  1.00  0.00     0.034 A 
ATOM     30  C   UNL     1       8.446  -5.025   7.886  1.00  0.00     0.049 A 
ATOM     31  C   UNL     1       7.365   0.330   9.543  1.00  0.00     0.074 A 
ATOM     32  C   UNL     1       9.240  -5.766   8.736  1.00  0.00     0.029 A 
ATOM     33  N   UNL     1       8.310  -3.762   8.450  1.00  0.00    -0.354 N 
ATOM     34  N   UNL     1       7.713  -0.902   9.248  1.00  0.00    -0.248 NA
ATOM     35  C   UNL     1       7.883   0.812  10.827  1.00  0.00     0.031 C 
ATOM     36  C   UNL     1       9.557  -4.958   9.833  1.00  0.00     0.029 A 
ATOM     37  C   UNL     1       9.003  -3.699   9.641  1.00  0.00     0.049 A 
ATOM     38  H   UNL     1       7.796  -3.020   8.057  1.00  0.00     0.167 HD
ATOM     39  C   UNL     1       8.519  -1.333  10.291  1.00  0.00     0.074 A 
ATOM     40  C   UNL     1       8.625  -0.217  11.213  1.00  0.00     0.031 C 
ATOM     41  C   UNL     1       9.109  -2.538  10.489  1.00  0.00     0.034 A 
BRANCH  28  42
ATOM     42  C   UNL     1       8.060  -6.794   6.092  1.00  0.00     0.023 A 
ATOM     43  C   UNL     1       8.820  -6.977   4.918  1.00  0.00     0.012 A 
ATOM     44  C   UNL     1       7.467  -7.910   6.713  1.00  0.00     0.148 A 
ATOM     45  C   UNL     1       8.952  -8.244   4.350  1.00  0.00     0.002 A 
ATOM     46  C   UNL     1       7.643  -9.175   6.168  1.00  0.00     0.091 A 
ATOM     47  F   UNL     1       6.717  -7.707   7.806  1.00  0.00    -0.205 F 
ATOM     48  C   UNL     1       8.371  -9.342   4.979  1.00  0.00     0.022 A 
BRANCH  46  49
ATOM     49  S   UNL     1       6.985 -10.659   6.934  1.00  0.00     0.127 S 
ATOM     50  O   UNL     1       6.042 -11.123   5.916  1.00  0.00    -0.237 OA
ATOM     51  O   UNL     1       8.185 -11.482   7.075  1.00  0.00    -0.237 OA
ATOM     52  O   UNL     1       6.380 -10.235   8.188  1.00  0.00    -0.744 OA
ENDBRANCH  46  49
ENDBRANCH  28  42
BRANCH  29  53
ATOM     53  C   UNL     1       6.241   2.675   9.222  1.00  0.00     0.023 A 
ATOM     54  C   UNL     1       7.286   3.603   9.391  1.00  0.00     0.012 A 
ATOM     55  C   UNL     1       4.923   3.068   9.537  1.00  0.00     0.148 A 
ATOM     56  C   UNL     1       7.032   4.876   9.907  1.00  0.00     0.002 A 
ATOM     57  C   UNL     1       4.669   4.354   9.997  1.00  0.00     0.091 A 
ATOM     58  F   UNL     1       3.938   2.171   9.387  1.00  0.00    -0.205 F 
ATOM     59  C   UNL     1       5.725   5.254  10.203  1.00  0.00     0.022 A 
BRANCH  57  60
ATOM     60  S   UNL     1       3.004   4.958  10.296  1.00  0.00     0.127 S 
ATOM     61  O   UNL     1       2.968   5.022  11.755  1.00  0.00    -0.237 OA
ATOM     62  O   UNL     1       3.027   6.256   9.622  1.00  0.00    -0.237 OA
ATOM     63  O   UNL     1       2.116   3.980   9.682  1.00  0.00    -0.744 OA
ENDBRANCH  57  60
ENDBRANCH  29  53
BRANCH  41  64
ATOM     64  C   UNL     1       9.967  -2.679  11.713  1.00  0.00     0.023 A 
ATOM     65  C   UNL     1       9.374  -2.759  12.987  1.00  0.00     0.012 A 
ATOM     66  C   UNL     1      11.361  -2.817  11.578  1.00  0.00     0.148 A 
ATOM     67  C   UNL     1      10.166  -2.938  14.118  1.00  0.00     0.002 A 
ATOM     68  C   UNL     1      12.135  -3.058  12.701  1.00  0.00     0.091 A 
ATOM     69  F   UNL     1      11.898  -2.719  10.353  1.00  0.00    -0.205 F 
ATOM     70  C   UNL     1      11.543  -3.102  13.974  1.00  0.00     0.022 A 
BRANCH  68  71
ATOM     71  S   UNL     1      13.893  -3.400  12.593  1.00  0.00     0.127 S 
ATOM     72  O   UNL     1      14.467  -2.183  13.164  1.00  0.00    -0.237 OA
ATOM     73  O   UNL     1      14.026  -4.592  13.432  1.00  0.00    -0.237 OA
ATOM     74  O   UNL     1      14.176  -3.620  11.181  1.00  0.00    -0.744 OA
ENDBRANCH  68  71
ENDBRANCH  41  64
ENDBRANCH  15  16
ENDBRANCH   8  10
ENDBRANCH   7   8
ENDBRANCH   6   7
ENDBRANCH   5   6
ENDBRANCH   4   5
ENDBRANCH   3   4
ENDBRANCH   2   3
ENDBRANCH   1   2
BRANCH   1  75
ATOM     75  C   UNL     1       4.758   3.059  -0.642  1.00  0.00     0.188 C 
BRANCH  75  76
ATOM     76  C   UNL     1       4.993   2.992   0.871  1.00  0.00     0.188 C 
BRANCH  76  77
ATOM     77  O   UNL     1       3.803   2.897   1.624  1.00  0.00    -0.376 OA
BRANCH  77  78
ATOM     78  C   UNL     1       3.468   4.068   2.349  1.00  0.00     0.202 C 
BRANCH  78  79
ATOM     79  C   UNL     1       3.048   5.347   1.588  1.00  0.00     0.261 C 
BRANCH  79  80
ATOM     80  O   UNL     1       3.328   5.499   0.174  1.00  0.00    -0.463 OA
BRANCH  80  81
ATOM     81  C   UNL     1       4.519   6.025  -0.183  1.00  0.00     0.309 C 
ATOM     82  O   UNL     1       5.435   6.241   0.606  1.00  0.00    -0.252 OA
BRANCH  81  83
ATOM     83  C   UNL     1       4.630   6.475  -1.654  1.00  0.00     0.103 C 
BRANCH  83  84
ATOM     84  C   UNL     1       4.287   5.540  -2.862  1.00  0.00     0.020 C 
BRANCH  84  85
ATOM     85  C   UNL     1       2.832   5.226  -3.255  1.00  0.00     0.036 C 
BRANCH  85  86
ATOM     86  C   UNL     1       2.031   6.314  -3.922  1.00  0.00    -0.048 A 
ATOM     87  C   UNL     1       2.612   7.323  -4.694  1.00  0.00     0.004 A 
ATOM     88  C   UNL     1       0.646   6.343  -3.712  1.00  0.00     0.004 A 
ATOM     89  C   UNL     1       1.884   8.467  -5.013  1.00  0.00     0.000 A 
ATOM     90  C   UNL     1      -0.098   7.460  -4.082  1.00  0.00     0.000 A 
ATOM     91  C   UNL     1       0.536   8.548  -4.676  1.00  0.00     0.000 A 
ENDBRANCH  85  86
ENDBRANCH  84  85
ENDBRANCH  83  84
BRANCH  83  92
ATOM     92  C   UNL     1       4.146   7.928  -1.844  1.00  0.00     0.019 C 
ATOM     93  C   UNL     1       5.140   8.997  -1.359  1.00  0.00     0.021 C 
ATOM     94  C   UNL     1       2.777   8.251  -1.234  1.00  0.00     0.141 C 
ATOM     95  C   UNL     1       4.835   9.349   0.084  1.00  0.00     0.137 C 
ATOM     96  S   UNL     1       3.065   9.225   0.236  1.00  0.00     0.150 S 
ATOM     97  O   UNL     1       2.746   8.429   1.405  1.00  0.00    -0.229 OA
ATOM     98  O   UNL     1       2.496  10.536   0.027  1.00  0.00    -0.229 OA
ENDBRANCH  83  92
ENDBRANCH  81  83
ENDBRANCH  80  81
ENDBRANCH  79  80
ENDBRANCH  78  79
ENDBRANCH  77  78
ENDBRANCH  76  77
ENDBRANCH  75  76
ENDBRANCH   1  75
TORSDOF 27
