REMARK SMILES Cc1ccc(-c2cnnc(-n3nc(C)c4c3NC(=O)C[C@@H]4c3ccc(C(=O)OCCOCCOCCOCCOC(=O)c4ccc(-c5c6nc(c(-c7cccc(S(=O)(=O)[O-])c7F)c7ccc([nH]7)c(-c7cccc(S(=O)(=O)[O-])c7F)c7nc(c(-c8cccc(S(=O)(=O)[O-])c8F)c8ccc5[nH]8)C=C7)C=C6)cc4)cc3)n2)cc1
REMARK SMILES IDX 34 1 33 2 32 3 31 4 30 5 29 6 28 7 26 8 27 9 25 10 22 11
REMARK SMILES IDX 23 12 107 13 24 14 106 15 21 16 11 17 12 18 16 19 13 20
REMARK SMILES IDX 15 21 17 22 14 23 18 24 20 26 19 27 10 28 6 29 7 30 108 31
REMARK SMILES IDX 8 32 9 33 5 34 1 35 2 36 3 37 110 38 4 39 109 40 35 41 36 42
REMARK SMILES IDX 37 43 38 44 39 45 40 46 41 47 42 48 43 49 44 50 105 51 45 52
REMARK SMILES IDX 104 53 46 54 47 55 48 56 98 57 49 58 103 59 97 60 99 61
REMARK SMILES IDX 50 62 102 63 96 64 95 65 51 67 83 68 63 69 82 70 64 71 67 72
REMARK SMILES IDX 81 73 100 74 65 75 66 76 80 78 101 79 68 80 52 81 53 82
REMARK SMILES IDX 61 83 54 84 56 85 62 86 55 87 57 88 58 89 59 90 60 91 84 92
REMARK SMILES IDX 85 93 93 94 86 95 88 96 94 97 87 98 89 99 90 100 91 101
REMARK SMILES IDX 92 102 69 103 70 104 78 105 71 106 73 107 79 108 72 109
REMARK SMILES IDX 74 110 75 111 76 112 77 113
REMARK H PARENT 17 25 99 66 67 77
REMARK Flexibility Score: inf
ROOT
ATOM      1  O   UNL     1      -7.513   8.342  -6.685  1.00  0.00    -0.377 OA
ENDROOT
BRANCH   1   2
ATOM      2  C   UNL     1      -8.083   7.224  -7.349  1.00  0.00     0.188 C 
BRANCH   2   3
ATOM      3  C   UNL     1      -9.283   7.399  -8.345  1.00  0.00     0.188 C 
BRANCH   3   4
ATOM      4  O   UNL     1     -10.737   7.892  -7.938  1.00  0.00    -0.376 OA
BRANCH   4   5
ATOM      5  C   UNL     1     -12.296   7.257  -8.196  1.00  0.00     0.202 C 
BRANCH   5   6
ATOM      6  C   UNL     1     -13.056   5.671  -8.796  1.00  0.00     0.261 C 
BRANCH   6   7
ATOM      7  O   UNL     1     -12.283   4.096  -9.371  1.00  0.00    -0.460 OA
BRANCH   7   8
ATOM      8  C   UNL     1     -10.958   3.391  -9.912  1.00  0.00     0.338 C 
ATOM      9  O   UNL     1     -10.886   3.037 -11.094  1.00  0.00    -0.246 OA
BRANCH   8  10
ATOM     10  C   UNL     1      -9.621   2.843  -9.059  1.00  0.00     0.060 A 
ATOM     11  C   UNL     1      -7.717   1.643  -7.155  1.00  0.00    -0.040 A 
ATOM     12  C   UNL     1      -8.283   0.932  -8.250  1.00  0.00     0.005 A 
ATOM     13  C   UNL     1      -7.942   2.998  -7.176  1.00  0.00     0.005 A 
ATOM     14  C   UNL     1      -9.233   1.509  -9.162  1.00  0.00     0.016 A 
ATOM     15  C   UNL     1      -8.776   3.562  -8.168  1.00  0.00     0.016 A 
BRANCH  11  16
ATOM     16  C   UNL     1      -6.838   0.957  -6.122  1.00  0.00     0.064 C 
ATOM     17  N   UNL     1      -5.840   2.021  -2.787  1.00  0.00    -0.180 N 
ATOM     18  N   UNL     1      -7.128   2.414  -2.629  1.00  0.00    -0.168 NA
ATOM     19  C   UNL     1      -5.577   1.976  -4.147  1.00  0.00     0.143 A 
ATOM     20  C   UNL     1      -7.720   2.102  -3.792  1.00  0.00     0.066 A 
ATOM     21  C   UNL     1      -6.779   1.620  -4.752  1.00  0.00     0.026 A 
ATOM     22  N   UNL     1      -4.471   2.274  -4.920  1.00  0.00    -0.310 N 
ATOM     23  C   UNL     1      -9.165   2.401  -3.892  1.00  0.00     0.069 C 
ATOM     24  C   UNL     1      -4.542   1.926  -6.304  1.00  0.00     0.226 C 
ATOM     25  H   UNL     1      -3.674   2.705  -4.536  1.00  0.00     0.171 HD
ATOM     26  C   UNL     1      -5.407   0.747  -6.644  1.00  0.00     0.113 C 
ATOM     27  O   UNL     1      -3.783   2.526  -7.074  1.00  0.00    -0.275 OA
BRANCH  17  28
ATOM     28  C   UNL     1      -5.139   1.373  -1.708  1.00  0.00     0.272 A 
ATOM     29  C   UNL     1      -3.323   0.366  -0.721  1.00  0.00     0.095 A 
ATOM     30  C   UNL     1      -4.158  -0.195   0.232  1.00  0.00     0.164 A 
ATOM     31  N   UNL     1      -3.805   1.128  -1.755  1.00  0.00    -0.208 NA
ATOM     32  N   UNL     1      -5.470   0.060   0.229  1.00  0.00    -0.153 NA
ATOM     33  N   UNL     1      -5.952   0.889  -0.728  1.00  0.00    -0.109 NA
BRANCH  29  34
ATOM     34  C   UNL     1      -1.863   0.244  -0.563  1.00  0.00     0.002 A 
ATOM     35  C   UNL     1       2.421  -0.033   0.077  1.00  0.00     0.044 C 
ATOM     36  C   UNL     1       0.934   0.069  -0.102  1.00  0.00    -0.051 A 
ATOM     37  C   UNL     1       0.154  -1.089  -0.184  1.00  0.00     0.004 A 
ATOM     38  C   UNL     1       0.308   1.312  -0.217  1.00  0.00     0.004 A 
ATOM     39  C   UNL     1      -1.227  -1.002  -0.408  1.00  0.00     0.011 A 
ATOM     40  C   UNL     1      -1.071   1.397  -0.447  1.00  0.00     0.011 A 
ENDBRANCH  29  34
ENDBRANCH  17  28
ENDBRANCH  11  16
ENDBRANCH   8  10
ENDBRANCH   7   8
ENDBRANCH   6   7
ENDBRANCH   5   6
ENDBRANCH   4   5
ENDBRANCH   3   4
ENDBRANCH   2   3
ENDBRANCH   1   2
BRANCH   1  41
ATOM     41  C   UNL     1      -8.403   9.442  -6.641  1.00  0.00     0.188 C 
BRANCH  41  42
ATOM     42  C   UNL     1      -8.315  10.323  -7.886  1.00  0.00     0.188 C 
BRANCH  42  43
ATOM     43  O   UNL     1      -8.022   9.599  -9.060  1.00  0.00    -0.376 OA
BRANCH  43  44
ATOM     44  C   UNL     1      -6.741   9.560  -9.633  1.00  0.00     0.202 C 
BRANCH  44  45
ATOM     45  C   UNL     1      -6.551  10.848 -10.418  1.00  0.00     0.261 C 
BRANCH  45  46
ATOM     46  O   UNL     1      -7.507  10.915 -11.509  1.00  0.00    -0.460 OA
BRANCH  46  47
ATOM     47  C   UNL     1      -8.797  11.202 -11.147  1.00  0.00     0.338 C 
ATOM     48  O   UNL     1      -9.127  12.231 -10.580  1.00  0.00    -0.246 OA
BRANCH  47  49
ATOM     49  C   UNL     1      -9.661   9.985 -11.361  1.00  0.00     0.060 A 
ATOM     50  C   UNL     1     -10.917   9.903 -10.776  1.00  0.00     0.016 A 
ATOM     51  C   UNL     1      -9.101   8.805 -11.870  1.00  0.00     0.016 A 
ATOM     52  C   UNL     1     -11.462   8.631 -10.517  1.00  0.00     0.010 A 
ATOM     53  C   UNL     1      -9.557   7.553 -11.421  1.00  0.00     0.010 A 
ATOM     54  C   UNL     1     -10.665   7.454 -10.564  1.00  0.00    -0.014 A 
BRANCH  54  55
ATOM     55  C   UNL     1     -10.995   5.988  -9.834  1.00  0.00     0.031 A 
ATOM     56  C   UNL     1     -11.992   5.495 -11.236  1.00  0.00     0.074 A 
ATOM     57  C   UNL     1     -10.865   5.380  -8.256  1.00  0.00     0.049 A 
ATOM     58  N   UNL     1     -13.180   4.942 -11.183  1.00  0.00    -0.248 NA
ATOM     59  C   UNL     1     -11.786   5.909 -12.650  1.00  0.00     0.031 C 
ATOM     60  C   UNL     1     -11.276   3.974  -7.446  1.00  0.00     0.029 A 
ATOM     61  N   UNL     1     -10.611   5.976  -6.850  1.00  0.00    -0.354 N 
ATOM     62  C   UNL     1     -13.460   4.383 -12.380  1.00  0.00     0.074 A 
ATOM     63  C   UNL     1     -12.793   5.281 -13.278  1.00  0.00     0.031 C 
ATOM     64  C   UNL     1     -11.244   3.990  -6.115  1.00  0.00     0.029 A 
ATOM     65  C   UNL     1     -11.301   5.353  -5.784  1.00  0.00     0.049 A 
ATOM     66  H   UNL     1     -10.007   6.741  -6.707  1.00  0.00     0.167 HD
ATOM     67  C   UNL     1     -13.916   3.092 -12.421  1.00  0.00     0.034 A 
ATOM     68  C   UNL     1     -12.364   5.840  -5.061  1.00  0.00     0.034 A 
ATOM     69  C   UNL     1     -14.117   2.488 -11.034  1.00  0.00     0.049 A 
ATOM     70  C   UNL     1     -13.654   4.987  -5.362  1.00  0.00     0.074 A 
ATOM     71  C   UNL     1     -13.453   1.474 -10.345  1.00  0.00     0.029 A 
ATOM     72  N   UNL     1     -14.920   3.099 -10.040  1.00  0.00    -0.354 N 
ATOM     73  N   UNL     1     -13.785   4.179  -6.396  1.00  0.00    -0.248 NA
ATOM     74  C   UNL     1     -14.826   4.899  -4.503  1.00  0.00     0.031 C 
ATOM     75  C   UNL     1     -13.776   1.545  -8.949  1.00  0.00     0.029 A 
ATOM     76  C   UNL     1     -14.687   2.575  -8.743  1.00  0.00     0.049 A 
ATOM     77  H   UNL     1     -15.572   3.811 -10.229  1.00  0.00     0.167 HD
ATOM     78  C   UNL     1     -15.030   3.614  -6.471  1.00  0.00     0.074 A 
ATOM     79  C   UNL     1     -15.587   4.005  -5.172  1.00  0.00     0.031 C 
ATOM     80  C   UNL     1     -15.536   2.933  -7.570  1.00  0.00     0.034 A 
BRANCH  67  81
ATOM     81  C   UNL     1     -13.729   2.267 -13.717  1.00  0.00     0.023 A 
ATOM     82  C   UNL     1     -13.667   0.861 -13.623  1.00  0.00     0.012 A 
ATOM     83  C   UNL     1     -13.562   2.784 -15.034  1.00  0.00     0.148 A 
ATOM     84  C   UNL     1     -13.353   0.037 -14.719  1.00  0.00     0.002 A 
ATOM     85  C   UNL     1     -13.195   1.974 -16.118  1.00  0.00     0.091 A 
ATOM     86  F   UNL     1     -13.856   4.061 -15.290  1.00  0.00    -0.205 F 
ATOM     87  C   UNL     1     -13.084   0.594 -15.960  1.00  0.00     0.022 A 
BRANCH  85  88
ATOM     88  S   UNL     1     -12.825   2.639 -17.758  1.00  0.00     0.127 S 
ATOM     89  O   UNL     1     -11.535   2.017 -18.066  1.00  0.00    -0.237 OA
ATOM     90  O   UNL     1     -13.942   2.139 -18.557  1.00  0.00    -0.237 OA
ATOM     91  O   UNL     1     -12.762   4.088 -17.609  1.00  0.00    -0.744 OA
ENDBRANCH  85  88
ENDBRANCH  67  81
BRANCH  68  92
ATOM     92  C   UNL     1     -12.284   7.301  -4.679  1.00  0.00     0.023 A 
ATOM     93  C   UNL     1     -11.090   7.735  -4.045  1.00  0.00     0.012 A 
ATOM     94  C   UNL     1     -13.132   8.291  -5.208  1.00  0.00     0.148 A 
ATOM     95  C   UNL     1     -10.686   9.075  -4.068  1.00  0.00     0.002 A 
ATOM     96  C   UNL     1     -12.660   9.603  -5.347  1.00  0.00     0.091 A 
ATOM     97  F   UNL     1     -14.309   7.909  -5.722  1.00  0.00    -0.205 F 
ATOM     98  C   UNL     1     -11.444  10.000  -4.773  1.00  0.00     0.022 A 
BRANCH  96  99
ATOM     99  S   UNL     1     -13.387  10.763  -6.527  1.00  0.00     0.127 S 
ATOM    100  O   UNL     1     -13.886  11.811  -5.640  1.00  0.00    -0.237 OA
ATOM    101  O   UNL     1     -12.227  11.139  -7.334  1.00  0.00    -0.237 OA
ATOM    102  O   UNL     1     -14.400   9.996  -7.238  1.00  0.00    -0.744 OA
ENDBRANCH  96  99
ENDBRANCH  68  92
BRANCH  80 103
ATOM    103  C   UNL     1     -16.984   2.456  -7.651  1.00  0.00     0.023 A 
ATOM    104  C   UNL     1     -18.017   3.080  -6.931  1.00  0.00     0.012 A 
ATOM    105  C   UNL     1     -17.375   1.448  -8.575  1.00  0.00     0.148 A 
ATOM    106  C   UNL     1     -19.349   2.673  -7.045  1.00  0.00     0.002 A 
ATOM    107  C   UNL     1     -18.715   1.152  -8.792  1.00  0.00     0.091 A 
ATOM    108  F   UNL     1     -16.451   0.735  -9.233  1.00  0.00    -0.205 F 
ATOM    109  C   UNL     1     -19.703   1.729  -7.996  1.00  0.00     0.022 A 
BRANCH 107 110
ATOM    110  S   UNL     1     -19.236   0.163 -10.201  1.00  0.00     0.127 S 
ATOM    111  O   UNL     1     -19.447  -1.146  -9.588  1.00  0.00    -0.237 OA
ATOM    112  O   UNL     1     -20.462   0.848 -10.618  1.00  0.00    -0.237 OA
ATOM    113  O   UNL     1     -18.146   0.252 -11.163  1.00  0.00    -0.744 OA
ENDBRANCH 107 110
ENDBRANCH  80 103
ENDBRANCH  54  55
ENDBRANCH  47  49
ENDBRANCH  46  47
ENDBRANCH  45  46
ENDBRANCH  44  45
ENDBRANCH  43  44
ENDBRANCH  42  43
ENDBRANCH  41  42
ENDBRANCH   1  41
TORSDOF 26
