REMARK SMILES Nc1cc(F)c([C@H]([NH3+])C(=O)OCCOCCOCCOCCOC(=O)c2ccc(-c3c4nc(c(-c5cccc(S(=O)(=O)[O-])c5F)c5ccc([nH]5)c(-c5cccc(S(=O)(=O)[O-])c5F)c5nc(c(-c6cccc(S(=O)(=O)[O-])c6F)c6ccc3[nH]6)C=C5)C=C4)cc2)cc1F
REMARK SMILES IDX 18 1 17 2 16 3 15 4 14 5 13 6 12 7 11 8 9 9 10 10 7 11 6 12
REMARK SMILES IDX 2 13 3 14 90 15 4 16 89 17 91 18 5 19 1 20 8 23 19 27 20 28
REMARK SMILES IDX 21 29 22 30 23 31 24 32 25 33 26 34 27 35 88 36 28 37 87 38
REMARK SMILES IDX 29 39 30 40 31 41 81 42 32 43 86 44 80 45 82 46 33 47 85 48
REMARK SMILES IDX 79 49 78 50 34 52 66 53 46 54 65 55 47 56 50 57 64 58 83 59
REMARK SMILES IDX 48 60 49 61 63 63 84 64 51 65 35 66 36 67 44 68 37 69 39 70
REMARK SMILES IDX 45 71 38 72 40 73 41 74 42 75 43 76 67 77 68 78 76 79 69 80
REMARK SMILES IDX 71 81 77 82 70 83 72 84 73 85 74 86 75 87 52 88 53 89 61 90
REMARK SMILES IDX 54 91 56 92 62 93 55 94 57 95 58 96 59 97 60 98
REMARK H PARENT 1 21 1 22 8 24 8 25 8 26 82 51 50 62
REMARK Flexibility Score: inf
ROOT
ATOM      1  C   UNL     1      -2.276  -1.550  -5.190  1.00  0.00     0.188 C 
ENDROOT
BRANCH   1   2
ATOM      2  O   UNL     1      -2.042  -0.150  -5.028  1.00  0.00    -0.377 OA
BRANCH   2   3
ATOM      3  C   UNL     1      -3.068   0.596  -4.410  1.00  0.00     0.188 C 
BRANCH   3   4
ATOM      4  C   UNL     1      -3.934   1.410  -5.379  1.00  0.00     0.188 C 
BRANCH   4   5
ATOM      5  O   UNL     1      -4.081   1.038  -6.740  1.00  0.00    -0.376 OA
BRANCH   5   6
ATOM      6  C   UNL     1      -2.967   0.718  -7.564  1.00  0.00     0.202 C 
BRANCH   6   7
ATOM      7  C   UNL     1      -1.705   1.588  -7.634  1.00  0.00     0.261 C 
BRANCH   7   8
ATOM      8  O   UNL     1      -1.131   1.949  -6.373  1.00  0.00    -0.459 OA
BRANCH   8   9
ATOM      9  C   UNL     1      -1.329   3.238  -5.987  1.00  0.00     0.369 C 
ATOM     10  O   UNL     1      -1.978   4.059  -6.626  1.00  0.00    -0.245 OA
BRANCH   9  11
ATOM     11  C   UNL     1      -0.651   3.556  -4.636  1.00  0.00     0.326 C 
BRANCH  11  12
ATOM     12  C   UNL     1       0.610   4.348  -4.846  1.00  0.00     0.060 A 
ATOM     13  C   UNL     1       2.930   5.904  -5.224  1.00  0.00     0.071 A 
ATOM     14  C   UNL     1       1.668   6.460  -5.427  1.00  0.00     0.068 A 
ATOM     15  C   UNL     1       3.015   4.548  -4.883  1.00  0.00     0.146 A 
ATOM     16  C   UNL     1       0.526   5.691  -5.223  1.00  0.00     0.135 A 
ATOM     17  C   UNL     1       1.879   3.773  -4.700  1.00  0.00     0.055 A 
ATOM     18  F   UNL     1       4.218   3.982  -4.701  1.00  0.00    -0.205 F 
ATOM     19  F   UNL     1      -0.674   6.268  -5.378  1.00  0.00    -0.206 F 
BRANCH  13  20
ATOM     20  N   UNL     1       4.077   6.652  -5.437  1.00  0.00    -0.396 N 
ATOM     21  H   UNL     1       4.006   7.604  -5.676  1.00  0.00     0.156 HD
ATOM     22  H   UNL     1       4.963   6.231  -5.349  1.00  0.00     0.156 HD
ENDBRANCH  13  20
ENDBRANCH  11  12
BRANCH  11  23
ATOM     23  N   UNL     1      -0.379   2.366  -3.793  1.00  0.00    -0.342 N 
ATOM     24  H   UNL     1       0.296   1.764  -4.264  1.00  0.00     0.345 HD
ATOM     25  H   UNL     1      -1.247   1.850  -3.643  1.00  0.00     0.345 HD
ATOM     26  H   UNL     1      -0.001   2.664  -2.895  1.00  0.00     0.345 HD
ENDBRANCH  11  23
ENDBRANCH   9  11
ENDBRANCH   8   9
ENDBRANCH   7   8
ENDBRANCH   6   7
ENDBRANCH   5   6
ENDBRANCH   4   5
ENDBRANCH   3   4
ENDBRANCH   2   3
ENDBRANCH   1   2
BRANCH   1  27
ATOM     27  C   UNL     1      -3.721  -2.036  -5.454  1.00  0.00     0.188 C 
BRANCH  27  28
ATOM     28  O   UNL     1      -4.677  -1.574  -4.506  1.00  0.00    -0.376 OA
BRANCH  28  29
ATOM     29  C   UNL     1      -5.011  -2.422  -3.415  1.00  0.00     0.202 C 
BRANCH  29  30
ATOM     30  C   UNL     1      -3.906  -2.718  -2.387  1.00  0.00     0.261 C 
BRANCH  30  31
ATOM     31  O   UNL     1      -2.752  -3.425  -2.868  1.00  0.00    -0.460 OA
BRANCH  31  32
ATOM     32  C   UNL     1      -2.932  -4.591  -3.526  1.00  0.00     0.338 C 
ATOM     33  O   UNL     1      -3.981  -5.187  -3.684  1.00  0.00    -0.246 OA
BRANCH  32  34
ATOM     34  C   UNL     1      -1.660  -4.894  -4.222  1.00  0.00     0.060 A 
ATOM     35  C   UNL     1      -0.452  -4.910  -3.521  1.00  0.00     0.016 A 
ATOM     36  C   UNL     1      -1.677  -5.114  -5.606  1.00  0.00     0.016 A 
ATOM     37  C   UNL     1       0.737  -5.181  -4.202  1.00  0.00     0.010 A 
ATOM     38  C   UNL     1      -0.484  -5.370  -6.288  1.00  0.00     0.010 A 
ATOM     39  C   UNL     1       0.728  -5.433  -5.586  1.00  0.00    -0.014 A 
BRANCH  39  40
ATOM     40  C   UNL     1       1.938  -5.986  -6.241  1.00  0.00     0.031 A 
ATOM     41  C   UNL     1       2.843  -5.163  -7.104  1.00  0.00     0.074 A 
ATOM     42  C   UNL     1       2.196  -7.294  -6.053  1.00  0.00     0.049 A 
ATOM     43  N   UNL     1       3.970  -5.515  -7.668  1.00  0.00    -0.248 NA
ATOM     44  C   UNL     1       2.439  -3.777  -7.377  1.00  0.00     0.031 C 
ATOM     45  C   UNL     1       1.350  -8.208  -5.281  1.00  0.00     0.029 A 
ATOM     46  N   UNL     1       3.228  -8.082  -6.492  1.00  0.00    -0.354 N 
ATOM     47  C   UNL     1       4.422  -4.397  -8.356  1.00  0.00     0.074 A 
ATOM     48  C   UNL     1       3.428  -3.360  -8.162  1.00  0.00     0.031 C 
ATOM     49  C   UNL     1       1.905  -9.428  -5.288  1.00  0.00     0.029 A 
ATOM     50  C   UNL     1       3.136  -9.386  -6.072  1.00  0.00     0.049 A 
ATOM     51  H   UNL     1       3.963  -7.745  -7.054  1.00  0.00     0.167 HD
ATOM     52  C   UNL     1       5.572  -4.246  -9.057  1.00  0.00     0.034 A 
ATOM     53  C   UNL     1       3.953 -10.436  -6.279  1.00  0.00     0.034 A 
ATOM     54  C   UNL     1       6.553  -5.283  -9.250  1.00  0.00     0.049 A 
ATOM     55  C   UNL     1       5.218 -10.245  -7.059  1.00  0.00     0.074 A 
ATOM     56  C   UNL     1       7.765  -5.203  -9.916  1.00  0.00     0.029 A 
ATOM     57  N   UNL     1       6.438  -6.586  -8.792  1.00  0.00    -0.354 N 
ATOM     58  N   UNL     1       5.685  -9.149  -7.603  1.00  0.00    -0.248 NA
ATOM     59  C   UNL     1       6.083 -11.420  -7.228  1.00  0.00     0.031 C 
ATOM     60  C   UNL     1       8.376  -6.460  -9.871  1.00  0.00     0.029 A 
ATOM     61  C   UNL     1       7.554  -7.320  -9.161  1.00  0.00     0.049 A 
ATOM     62  H   UNL     1       5.675  -6.939  -8.280  1.00  0.00     0.167 HD
ATOM     63  C   UNL     1       6.908  -9.494  -8.162  1.00  0.00     0.074 A 
ATOM     64  C   UNL     1       7.115 -10.900  -7.882  1.00  0.00     0.031 C 
ATOM     65  C   UNL     1       7.772  -8.711  -8.852  1.00  0.00     0.034 A 
BRANCH  52  66
ATOM     66  C   UNL     1       5.883  -2.881  -9.612  1.00  0.00     0.023 A 
ATOM     67  C   UNL     1       6.350  -1.884  -8.733  1.00  0.00     0.012 A 
ATOM     68  C   UNL     1       5.825  -2.615 -10.994  1.00  0.00     0.148 A 
ATOM     69  C   UNL     1       6.741  -0.636  -9.217  1.00  0.00     0.002 A 
ATOM     70  C   UNL     1       6.242  -1.377 -11.473  1.00  0.00     0.091 A 
ATOM     71  F   UNL     1       5.372  -3.577 -11.811  1.00  0.00    -0.205 F 
ATOM     72  C   UNL     1       6.696  -0.387 -10.585  1.00  0.00     0.022 A 
BRANCH  70  73
ATOM     73  S   UNL     1       6.271  -0.967 -13.222  1.00  0.00     0.127 S 
ATOM     74  O   UNL     1       5.233   0.060 -13.299  1.00  0.00    -0.237 OA
ATOM     75  O   UNL     1       7.636  -0.469 -13.399  1.00  0.00    -0.237 OA
ATOM     76  O   UNL     1       5.974  -2.203 -13.931  1.00  0.00    -0.744 OA
ENDBRANCH  70  73
ENDBRANCH  52  66
BRANCH  53  77
ATOM     77  C   UNL     1       3.610 -11.733  -5.642  1.00  0.00     0.023 A 
ATOM     78  C   UNL     1       4.264 -12.104  -4.453  1.00  0.00     0.012 A 
ATOM     79  C   UNL     1       2.551 -12.522  -6.130  1.00  0.00     0.148 A 
ATOM     80  C   UNL     1       3.865 -13.243  -3.754  1.00  0.00     0.002 A 
ATOM     81  C   UNL     1       2.135 -13.633  -5.410  1.00  0.00     0.091 A 
ATOM     82  F   UNL     1       1.940 -12.131  -7.257  1.00  0.00    -0.205 F 
ATOM     83  C   UNL     1       2.795 -14.000  -4.225  1.00  0.00     0.022 A 
BRANCH  81  84
ATOM     84  S   UNL     1       0.700 -14.608  -5.874  1.00  0.00     0.127 S 
ATOM     85  O   UNL     1       1.286 -15.935  -6.050  1.00  0.00    -0.237 OA
ATOM     86  O   UNL     1      -0.151 -14.461  -4.693  1.00  0.00    -0.237 OA
ATOM     87  O   UNL     1       0.176 -13.995  -7.086  1.00  0.00    -0.744 OA
ENDBRANCH  81  84
ENDBRANCH  53  77
BRANCH  65  88
ATOM     88  C   UNL     1       9.041  -9.338  -9.363  1.00  0.00     0.023 A 
ATOM     89  C   UNL     1       9.000 -10.137 -10.523  1.00  0.00     0.012 A 
ATOM     90  C   UNL     1      10.282  -9.040  -8.768  1.00  0.00     0.148 A 
ATOM     91  C   UNL     1      10.177 -10.635 -11.080  1.00  0.00     0.002 A 
ATOM     92  C   UNL     1      11.454  -9.512  -9.348  1.00  0.00     0.091 A 
ATOM     93  F   UNL     1      10.293  -8.285  -7.660  1.00  0.00    -0.205 F 
ATOM     94  C   UNL     1      11.403 -10.312 -10.501  1.00  0.00     0.022 A 
BRANCH  92  95
ATOM     95  S   UNL     1      13.085  -9.099  -8.718  1.00  0.00     0.127 S 
ATOM     96  O   UNL     1      13.578 -10.407  -8.287  1.00  0.00    -0.237 OA
ATOM     97  O   UNL     1      13.746  -8.559  -9.905  1.00  0.00    -0.237 OA
ATOM     98  O   UNL     1      12.874  -8.136  -7.645  1.00  0.00    -0.744 OA
ENDBRANCH  92  95
ENDBRANCH  65  88
ENDBRANCH  39  40
ENDBRANCH  32  34
ENDBRANCH  31  32
ENDBRANCH  30  31
ENDBRANCH  29  30
ENDBRANCH  28  29
ENDBRANCH  27  28
ENDBRANCH   1  27
TORSDOF 26
