REMARK SMILES CC(C)Cc1cc2c(cc1Cl)C=C(C(=O)OCCOCCOCCOCCOC(=O)c1ccc(-c3c4nc(c(-c5cccc(S(=O)(=O)[O-])c5F)c5ccc([nH]5)c(-c5cccc(S(=O)(=O)[O-])c5F)c5nc(c(-c6cccc(S(=O)(=O)[O-])c6F)c6ccc3[nH]6)C=C5)C=C4)cc1)[C@@H](C(F)(F)F)O2
REMARK SMILES IDX 23 1 22 2 21 3 20 4 19 5 18 6 17 7 16 8 14 9 15 10 13 11
REMARK SMILES IDX 5 12 6 13 10 14 7 15 9 16 11 17 8 18 99 19 12 20 94 21 4 22
REMARK SMILES IDX 2 23 1 24 3 25 95 26 96 27 97 28 98 29 24 30 25 31 26 32
REMARK SMILES IDX 27 33 28 34 29 35 30 36 31 37 32 38 93 39 33 40 92 41 34 42
REMARK SMILES IDX 35 43 36 44 86 45 37 46 91 47 85 48 87 49 38 50 90 51 84 52
REMARK SMILES IDX 83 53 39 55 71 56 51 57 70 58 52 59 55 60 69 61 88 62 53 63
REMARK SMILES IDX 54 64 68 66 89 67 56 68 40 69 41 70 49 71 42 72 44 73 50 74
REMARK SMILES IDX 43 75 45 76 46 77 47 78 48 79 72 80 73 81 81 82 74 83 76 84
REMARK SMILES IDX 82 85 75 86 77 87 78 88 79 89 80 90 57 91 58 92 66 93 59 94
REMARK SMILES IDX 61 95 67 96 60 97 62 98 63 99 64 100 65 101
REMARK H PARENT 87 54 55 65
REMARK Flexibility Score: inf
ROOT
ATOM      1  C   UNL     1      -1.575   4.661   8.120  1.00  0.00     0.188 C 
ENDROOT
BRANCH   1   2
ATOM      2  O   UNL     1      -2.283   4.401   6.909  1.00  0.00    -0.377 OA
BRANCH   2   3
ATOM      3  C   UNL     1      -1.585   4.681   5.703  1.00  0.00     0.188 C 
BRANCH   3   4
ATOM      4  C   UNL     1      -1.890   6.094   5.174  1.00  0.00     0.188 C 
BRANCH   4   5
ATOM      5  O   UNL     1      -2.492   6.948   6.130  1.00  0.00    -0.376 OA
BRANCH   5   6
ATOM      6  C   UNL     1      -3.895   6.931   6.360  1.00  0.00     0.202 C 
BRANCH   6   7
ATOM      7  C   UNL     1      -4.814   5.702   6.193  1.00  0.00     0.261 C 
BRANCH   7   8
ATOM      8  O   UNL     1      -4.444   4.724   5.219  1.00  0.00    -0.460 OA
BRANCH   8   9
ATOM      9  C   UNL     1      -4.697   4.991   3.927  1.00  0.00     0.338 C 
ATOM     10  O   UNL     1      -5.239   5.982   3.472  1.00  0.00    -0.246 OA
BRANCH   9  11
ATOM     11  C   UNL     1      -4.021   3.948   3.122  1.00  0.00     0.087 C 
ATOM     12  C   UNL     1      -1.459   1.449  -0.411  1.00  0.00    -0.025 A 
ATOM     13  C   UNL     1      -2.126   1.078   0.772  1.00  0.00     0.052 A 
ATOM     14  C   UNL     1      -1.342   2.817  -0.707  1.00  0.00     0.045 A 
ATOM     15  C   UNL     1      -2.706   2.039   1.605  1.00  0.00     0.128 A 
ATOM     16  C   UNL     1      -1.902   3.777   0.139  1.00  0.00     0.032 A 
ATOM     17  Cl  UNL     1      -0.570   3.389  -2.143  1.00  0.00    -0.084 Cl
ATOM     18  C   UNL     1      -2.614   3.388   1.276  1.00  0.00     0.019 A 
ATOM     19  O   UNL     1      -3.360   1.569   2.707  1.00  0.00    -0.475 OA
ATOM     20  C   UNL     1      -3.305   4.380   2.077  1.00  0.00     0.027 C 
ATOM     21  C   UNL     1      -4.094   2.503   3.553  1.00  0.00     0.316 C 
BRANCH  12  22
ATOM     22  C   UNL     1      -0.946   0.363  -1.332  1.00  0.00     0.040 C 
BRANCH  22  23
ATOM     23  C   UNL     1       0.585   0.192  -1.355  1.00  0.00    -0.013 C 
ATOM     24  C   UNL     1       1.132  -0.283  -0.009  1.00  0.00     0.008 C 
ATOM     25  C   UNL     1       0.972  -0.799  -2.456  1.00  0.00     0.008 C 
ENDBRANCH  22  23
ENDBRANCH  12  22
BRANCH  21  26
ATOM     26  C   UNL     1      -5.543   2.011   3.674  1.00  0.00     0.430 C 
ATOM     27  F   UNL     1      -5.591   0.698   4.003  1.00  0.00    -0.167 F 
ATOM     28  F   UNL     1      -6.227   2.682   4.628  1.00  0.00    -0.167 F 
ATOM     29  F   UNL     1      -6.218   2.161   2.511  1.00  0.00    -0.167 F 
ENDBRANCH  21  26
ENDBRANCH   9  11
ENDBRANCH   8   9
ENDBRANCH   7   8
ENDBRANCH   6   7
ENDBRANCH   5   6
ENDBRANCH   4   5
ENDBRANCH   3   4
ENDBRANCH   2   3
ENDBRANCH   1   2
BRANCH   1  30
ATOM     30  C   UNL     1      -0.721   5.942   8.234  1.00  0.00     0.188 C 
BRANCH  30  31
ATOM     31  O   UNL     1       0.263   6.057   7.202  1.00  0.00    -0.376 OA
BRANCH  31  32
ATOM     32  C   UNL     1       1.616   5.837   7.577  1.00  0.00     0.202 C 
BRANCH  32  33
ATOM     33  C   UNL     1       1.994   4.359   7.730  1.00  0.00     0.261 C 
BRANCH  33  34
ATOM     34  O   UNL     1       1.299   3.653   8.770  1.00  0.00    -0.460 OA
BRANCH  34  35
ATOM     35  C   UNL     1       1.404   4.126  10.031  1.00  0.00     0.338 C 
ATOM     36  O   UNL     1       2.084   5.064  10.408  1.00  0.00    -0.246 OA
BRANCH  35  37
ATOM     37  C   UNL     1       0.390   3.427  10.850  1.00  0.00     0.060 A 
ATOM     38  C   UNL     1       0.267   2.037  10.779  1.00  0.00     0.016 A 
ATOM     39  C   UNL     1      -0.463   4.174  11.671  1.00  0.00     0.016 A 
ATOM     40  C   UNL     1      -0.694   1.392  11.556  1.00  0.00     0.010 A 
ATOM     41  C   UNL     1      -1.425   3.525  12.450  1.00  0.00     0.010 A 
ATOM     42  C   UNL     1      -1.531   2.127  12.415  1.00  0.00    -0.014 A 
BRANCH  42  43
ATOM     43  C   UNL     1      -2.366   1.397  13.398  1.00  0.00     0.031 A 
ATOM     44  C   UNL     1      -3.844   1.226  13.227  1.00  0.00     0.074 A 
ATOM     45  C   UNL     1      -1.744   0.866  14.469  1.00  0.00     0.049 A 
ATOM     46  N   UNL     1      -4.659   0.474  13.921  1.00  0.00    -0.248 NA
ATOM     47  C   UNL     1      -4.495   1.992  12.155  1.00  0.00     0.031 C 
ATOM     48  C   UNL     1      -0.321   1.031  14.776  1.00  0.00     0.029 A 
ATOM     49  N   UNL     1      -2.217   0.078  15.486  1.00  0.00    -0.354 N 
ATOM     50  C   UNL     1      -5.920   0.672  13.376  1.00  0.00     0.074 A 
ATOM     51  C   UNL     1      -5.766   1.634  12.305  1.00  0.00     0.031 C 
ATOM     52  C   UNL     1      -0.031   0.343  15.890  1.00  0.00     0.029 A 
ATOM     53  C   UNL     1      -1.245  -0.306  16.378  1.00  0.00     0.049 A 
ATOM     54  H   UNL     1      -3.162  -0.186  15.570  1.00  0.00     0.167 HD
ATOM     55  C   UNL     1      -7.087   0.082  13.725  1.00  0.00     0.034 A 
ATOM     56  C   UNL     1      -1.312  -1.107  17.458  1.00  0.00     0.034 A 
ATOM     57  C   UNL     1      -7.225  -0.889  14.778  1.00  0.00     0.049 A 
ATOM     58  C   UNL     1      -2.613  -1.766  17.808  1.00  0.00     0.074 A 
ATOM     59  C   UNL     1      -8.352  -1.608  15.138  1.00  0.00     0.029 A 
ATOM     60  N   UNL     1      -6.216  -1.265  15.651  1.00  0.00    -0.354 N 
ATOM     61  N   UNL     1      -3.756  -1.707  17.170  1.00  0.00    -0.248 NA
ATOM     62  C   UNL     1      -2.633  -2.619  19.004  1.00  0.00     0.031 C 
ATOM     63  C   UNL     1      -8.030  -2.404  16.240  1.00  0.00     0.029 A 
ATOM     64  C   UNL     1      -6.700  -2.189  16.561  1.00  0.00     0.049 A 
ATOM     65  H   UNL     1      -5.292  -0.926  15.627  1.00  0.00     0.167 HD
ATOM     66  C   UNL     1      -4.629  -2.522  17.879  1.00  0.00     0.074 A 
ATOM     67  C   UNL     1      -3.879  -3.080  18.985  1.00  0.00     0.031 C 
ATOM     68  C   UNL     1      -5.939  -2.768  17.638  1.00  0.00     0.034 A 
BRANCH  55  69
ATOM     69  C   UNL     1      -8.316   0.399  12.917  1.00  0.00     0.023 A 
ATOM     70  C   UNL     1      -8.491  -0.234  11.671  1.00  0.00     0.012 A 
ATOM     71  C   UNL     1      -9.348   1.200  13.442  1.00  0.00     0.148 A 
ATOM     72  C   UNL     1      -9.674  -0.070  10.953  1.00  0.00     0.002 A 
ATOM     73  C   UNL     1     -10.535   1.340  12.731  1.00  0.00     0.091 A 
ATOM     74  F   UNL     1      -9.155   1.795  14.628  1.00  0.00    -0.205 F 
ATOM     75  C   UNL     1     -10.698   0.707  11.486  1.00  0.00     0.022 A 
BRANCH  73  76
ATOM     76  S   UNL     1     -11.939   2.276  13.348  1.00  0.00     0.127 S 
ATOM     77  O   UNL     1     -12.013   3.368  12.377  1.00  0.00    -0.237 OA
ATOM     78  O   UNL     1     -13.024   1.300  13.253  1.00  0.00    -0.237 OA
ATOM     79  O   UNL     1     -11.592   2.678  14.704  1.00  0.00    -0.744 OA
ENDBRANCH  73  76
ENDBRANCH  55  69
BRANCH  56  80
ATOM     80  C   UNL     1      -0.069  -1.386  18.224  1.00  0.00     0.023 A 
ATOM     81  C   UNL     1       0.581  -2.622  18.051  1.00  0.00     0.012 A 
ATOM     82  C   UNL     1       0.516  -0.402  19.043  1.00  0.00     0.148 A 
ATOM     83  C   UNL     1       1.797  -2.876  18.687  1.00  0.00     0.002 A 
ATOM     84  C   UNL     1       1.745  -0.647  19.643  1.00  0.00     0.091 A 
ATOM     85  F   UNL     1      -0.126   0.767  19.183  1.00  0.00    -0.205 F 
ATOM     86  C   UNL     1       2.382  -1.886  19.473  1.00  0.00     0.022 A 
BRANCH  84  87
ATOM     87  S   UNL     1       2.628   0.599  20.588  1.00  0.00     0.127 S 
ATOM     88  O   UNL     1       2.672  -0.011  21.915  1.00  0.00    -0.237 OA
ATOM     89  O   UNL     1       3.912   0.647  19.888  1.00  0.00    -0.237 OA
ATOM     90  O   UNL     1       1.834   1.815  20.485  1.00  0.00    -0.744 OA
ENDBRANCH  84  87
ENDBRANCH  56  80
BRANCH  68  91
ATOM     91  C   UNL     1      -6.682  -3.665  18.588  1.00  0.00     0.023 A 
ATOM     92  C   UNL     1      -7.148  -3.133  19.805  1.00  0.00     0.012 A 
ATOM     93  C   UNL     1      -7.050  -4.972  18.211  1.00  0.00     0.148 A 
ATOM     94  C   UNL     1      -7.976  -3.888  20.635  1.00  0.00     0.002 A 
ATOM     95  C   UNL     1      -7.902  -5.706  19.028  1.00  0.00     0.091 A 
ATOM     96  F   UNL     1      -6.589  -5.452  17.048  1.00  0.00    -0.205 F 
ATOM     97  C   UNL     1      -8.363  -5.167  20.241  1.00  0.00     0.022 A 
BRANCH  95  98
ATOM     98  S   UNL     1      -8.519  -7.332  18.578  1.00  0.00     0.127 S 
ATOM     99  O   UNL     1      -7.987  -8.163  19.658  1.00  0.00    -0.237 OA
ATOM    100  O   UNL     1      -9.967  -7.132  18.617  1.00  0.00    -0.237 OA
ATOM    101  O   UNL     1      -7.975  -7.622  17.258  1.00  0.00    -0.744 OA
ENDBRANCH  95  98
ENDBRANCH  68  91
ENDBRANCH  42  43
ENDBRANCH  35  37
ENDBRANCH  34  35
ENDBRANCH  33  34
ENDBRANCH  32  33
ENDBRANCH  31  32
ENDBRANCH  30  31
ENDBRANCH   1  30
TORSDOF 26
