REMARK SMILES Cc1ccccc1CSCC(=O)Nc1ccc(C)c(C(=O)OCCOCCOCCOCCOC(=O)c2ccc(-c3c4nc(c(-c5cccc(S(=O)(=O)[O-])c5F)c5ccc([nH]5)c(-c5cccc(S(=O)(=O)[O-])c5F)c5nc(c(-c6cccc(S(=O)(=O)[O-])c6F)c6ccc3[nH]6)C=C5)C=C4)cc2)c1
REMARK SMILES IDX 27 1 26 2 25 3 24 4 23 5 22 6 20 7 21 8 19 9 14 10 15 11
REMARK SMILES IDX 100 12 16 13 17 14 18 15 13 16 11 17 12 18 10 20 9 21 8 22
REMARK SMILES IDX 7 23 1 24 2 25 3 26 4 27 6 28 5 29 28 30 29 31 30 32 31 33
REMARK SMILES IDX 32 34 33 35 34 36 35 37 36 38 37 39 38 40 99 41 39 42 98 43
REMARK SMILES IDX 40 44 41 45 42 46 92 47 43 48 97 49 91 50 93 51 44 52 96 53
REMARK SMILES IDX 90 54 89 55 45 57 77 58 57 59 76 60 58 61 61 62 75 63 94 64
REMARK SMILES IDX 59 65 60 66 74 68 95 69 62 70 46 71 47 72 55 73 48 74 50 75
REMARK SMILES IDX 56 76 49 77 51 78 52 79 53 80 54 81 78 82 79 83 87 84 80 85
REMARK SMILES IDX 82 86 88 87 81 88 83 89 84 90 85 91 86 92 63 93 64 94 72 95
REMARK SMILES IDX 65 96 67 97 73 98 66 99 68 100 69 101 70 102 71 103
REMARK H PARENT 13 19 93 56 61 67
REMARK Flexibility Score: inf
ROOT
ATOM      1  C   UNL     1       5.854   7.225  -2.445  1.00  0.00     0.188 C 
ENDROOT
BRANCH   1   2
ATOM      2  C   UNL     1       6.478   6.219  -3.411  1.00  0.00     0.188 C 
BRANCH   2   3
ATOM      3  O   UNL     1       6.955   6.710  -4.659  1.00  0.00    -0.376 OA
BRANCH   3   4
ATOM      4  C   UNL     1       6.020   7.434  -5.462  1.00  0.00     0.202 C 
BRANCH   4   5
ATOM      5  C   UNL     1       4.945   6.566  -6.050  1.00  0.00     0.261 C 
BRANCH   5   6
ATOM      6  O   UNL     1       3.907   6.566  -5.067  1.00  0.00    -0.460 OA
BRANCH   6   7
ATOM      7  C   UNL     1       3.107   5.524  -5.053  1.00  0.00     0.338 C 
ATOM      8  O   UNL     1       2.935   4.672  -5.950  1.00  0.00    -0.246 OA
BRANCH   7   9
ATOM      9  C   UNL     1       2.879   5.245  -3.636  1.00  0.00     0.065 A 
ATOM     10  C   UNL     1       3.161   3.487  -2.038  1.00  0.00     0.042 A 
ATOM     11  C   UNL     1       2.810   4.337  -0.997  1.00  0.00     0.026 A 
ATOM     12  C   UNL     1       3.249   3.943  -3.331  1.00  0.00     0.042 A 
ATOM     13  C   UNL     1       2.434   5.642  -1.288  1.00  0.00     0.006 A 
ATOM     14  C   UNL     1       2.495   6.129  -2.602  1.00  0.00    -0.036 A 
ATOM     15  C   UNL     1       2.188   7.582  -2.778  1.00  0.00     0.045 C 
BRANCH  10  16
ATOM     16  N   UNL     1       3.213   2.107  -1.871  1.00  0.00    -0.325 N 
ATOM     17  C   UNL     1       2.309   1.275  -2.499  1.00  0.00     0.234 C 
ATOM     18  O   UNL     1       2.675   0.129  -2.779  1.00  0.00    -0.274 OA
ATOM     19  H   UNL     1       3.907   1.717  -1.293  1.00  0.00     0.169 HD
BRANCH  17  20
ATOM     20  C   UNL     1       0.923   1.777  -2.911  1.00  0.00     0.170 C 
BRANCH  20  21
ATOM     21  S   UNL     1      -0.025   2.800  -1.730  1.00  0.00    -0.147 SA
BRANCH  21  22
ATOM     22  C   UNL     1       0.480   2.124  -0.107  1.00  0.00     0.105 C 
BRANCH  22  23
ATOM     23  C   UNL     1      -0.052   0.741   0.126  1.00  0.00    -0.035 A 
ATOM     24  C   UNL     1       2.259  -0.422   0.262  1.00  0.00     0.044 C 
ATOM     25  C   UNL     1       0.754  -0.413   0.197  1.00  0.00    -0.047 A 
ATOM     26  C   UNL     1       0.120  -1.665   0.215  1.00  0.00     0.004 A 
ATOM     27  C   UNL     1      -1.270  -1.773   0.237  1.00  0.00     0.000 A 
ATOM     28  C   UNL     1      -1.452   0.616   0.217  1.00  0.00     0.005 A 
ATOM     29  C   UNL     1      -2.058  -0.630   0.270  1.00  0.00     0.000 A 
ENDBRANCH  22  23
ENDBRANCH  21  22
ENDBRANCH  20  21
ENDBRANCH  17  20
ENDBRANCH  10  16
ENDBRANCH   7   9
ENDBRANCH   6   7
ENDBRANCH   5   6
ENDBRANCH   4   5
ENDBRANCH   3   4
ENDBRANCH   2   3
ENDBRANCH   1   2
BRANCH   1  30
ATOM     30  O   UNL     1       6.581   8.367  -2.069  1.00  0.00    -0.377 OA
BRANCH  30  31
ATOM     31  C   UNL     1       7.372   9.035  -3.025  1.00  0.00     0.188 C 
BRANCH  31  32
ATOM     32  C   UNL     1       8.873   8.826  -2.799  1.00  0.00     0.188 C 
BRANCH  32  33
ATOM     33  O   UNL     1       9.240   8.306  -1.540  1.00  0.00    -0.376 OA
BRANCH  33  34
ATOM     34  C   UNL     1       8.602   8.940  -0.432  1.00  0.00     0.202 C 
BRANCH  34  35
ATOM     35  C   UNL     1       8.090  10.440  -0.530  1.00  0.00     0.261 C 
BRANCH  35  36
ATOM     36  O   UNL     1       8.915  11.304  -1.437  1.00  0.00    -0.460 OA
BRANCH  36  37
ATOM     37  C   UNL     1       8.602  12.437  -2.171  1.00  0.00     0.338 C 
ATOM     38  O   UNL     1       8.954  13.551  -1.793  1.00  0.00    -0.246 OA
BRANCH  37  39
ATOM     39  C   UNL     1       8.132  12.311  -3.614  1.00  0.00     0.060 A 
ATOM     40  C   UNL     1       7.197  13.205  -4.142  1.00  0.00     0.016 A 
ATOM     41  C   UNL     1       8.620  11.378  -4.520  1.00  0.00     0.016 A 
ATOM     42  C   UNL     1       6.461  12.890  -5.301  1.00  0.00     0.010 A 
ATOM     43  C   UNL     1       7.825  10.977  -5.599  1.00  0.00     0.010 A 
ATOM     44  C   UNL     1       6.642  11.656  -5.902  1.00  0.00    -0.014 A 
BRANCH  44  45
ATOM     45  C   UNL     1       5.587  10.929  -6.638  1.00  0.00     0.031 A 
ATOM     46  C   UNL     1       5.920  10.172  -7.904  1.00  0.00     0.074 A 
ATOM     47  C   UNL     1       4.463  10.589  -5.943  1.00  0.00     0.049 A 
ATOM     48  N   UNL     1       5.179   9.261  -8.441  1.00  0.00    -0.248 NA
ATOM     49  C   UNL     1       7.162  10.342  -8.649  1.00  0.00     0.031 C 
ATOM     50  C   UNL     1       3.653   9.430  -6.258  1.00  0.00     0.029 A 
ATOM     51  N   UNL     1       3.817  11.062  -4.791  1.00  0.00    -0.354 N 
ATOM     52  C   UNL     1       5.903   8.537  -9.358  1.00  0.00     0.074 A 
ATOM     53  C   UNL     1       7.114   9.309  -9.505  1.00  0.00     0.031 C 
ATOM     54  C   UNL     1       2.675   9.255  -5.376  1.00  0.00     0.029 A 
ATOM     55  C   UNL     1       2.518  10.524  -4.748  1.00  0.00     0.049 A 
ATOM     56  H   UNL     1       4.208  11.670  -4.123  1.00  0.00     0.167 HD
ATOM     57  C   UNL     1       5.412   7.331  -9.790  1.00  0.00     0.034 A 
ATOM     58  C   UNL     1       1.332  11.190  -4.911  1.00  0.00     0.034 A 
ATOM     59  C   UNL     1       3.979   7.118  -9.376  1.00  0.00     0.049 A 
ATOM     60  C   UNL     1       0.596  10.785  -6.215  1.00  0.00     0.074 A 
ATOM     61  C   UNL     1       3.254   6.087  -8.793  1.00  0.00     0.029 A 
ATOM     62  N   UNL     1       3.056   8.178  -9.466  1.00  0.00    -0.354 N 
ATOM     63  N   UNL     1       1.094   9.914  -7.063  1.00  0.00    -0.248 NA
ATOM     64  C   UNL     1      -0.700  11.245  -6.693  1.00  0.00     0.031 C 
ATOM     65  C   UNL     1       1.951   6.571  -8.441  1.00  0.00     0.029 A 
ATOM     66  C   UNL     1       1.823   7.875  -8.893  1.00  0.00     0.049 A 
ATOM     67  H   UNL     1       3.261   9.043  -9.889  1.00  0.00     0.167 HD
ATOM     68  C   UNL     1       0.297   9.666  -8.130  1.00  0.00     0.074 A 
ATOM     69  C   UNL     1      -0.817  10.577  -7.867  1.00  0.00     0.031 C 
ATOM     70  C   UNL     1       0.651   8.750  -9.102  1.00  0.00     0.034 A 
BRANCH  57  71
ATOM     71  C   UNL     1       6.242   6.230 -10.510  1.00  0.00     0.023 A 
ATOM     72  C   UNL     1       5.570   5.043 -10.894  1.00  0.00     0.012 A 
ATOM     73  C   UNL     1       7.639   6.228 -10.787  1.00  0.00     0.148 A 
ATOM     74  C   UNL     1       6.216   3.940 -11.481  1.00  0.00     0.002 A 
ATOM     75  C   UNL     1       8.275   5.156 -11.443  1.00  0.00     0.091 A 
ATOM     76  F   UNL     1       8.406   7.233 -10.366  1.00  0.00    -0.205 F 
ATOM     77  C   UNL     1       7.567   4.001 -11.772  1.00  0.00     0.022 A 
BRANCH  75  78
ATOM     78  S   UNL     1      10.020   5.175 -11.923  1.00  0.00     0.127 S 
ATOM     79  O   UNL     1      10.549   4.003 -11.224  1.00  0.00    -0.237 OA
ATOM     80  O   UNL     1       9.945   5.028 -13.377  1.00  0.00    -0.237 OA
ATOM     81  O   UNL     1      10.559   6.450 -11.467  1.00  0.00    -0.744 OA
ENDBRANCH  75  78
ENDBRANCH  57  71
BRANCH  58  82
ATOM     82  C   UNL     1       1.243  12.369  -4.007  1.00  0.00     0.023 A 
ATOM     83  C   UNL     1       1.266  12.025  -2.626  1.00  0.00     0.012 A 
ATOM     84  C   UNL     1       1.859  13.559  -4.410  1.00  0.00     0.148 A 
ATOM     85  C   UNL     1       2.143  12.669  -1.749  1.00  0.00     0.002 A 
ATOM     86  C   UNL     1       2.733  14.197  -3.530  1.00  0.00     0.091 A 
ATOM     87  F   UNL     1       1.697  13.963  -5.676  1.00  0.00    -0.205 F 
ATOM     88  C   UNL     1       2.928  13.713  -2.224  1.00  0.00     0.022 A 
BRANCH  86  89
ATOM     89  S   UNL     1       3.830  15.493  -4.118  1.00  0.00     0.127 S 
ATOM     90  O   UNL     1       3.075  16.699  -3.805  1.00  0.00    -0.237 OA
ATOM     91  O   UNL     1       5.020  15.284  -3.297  1.00  0.00    -0.237 OA
ATOM     92  O   UNL     1       4.019  15.194  -5.530  1.00  0.00    -0.744 OA
ENDBRANCH  86  89
ENDBRANCH  58  82
BRANCH  70  93
ATOM     93  C   UNL     1      -0.068   8.570 -10.430  1.00  0.00     0.023 A 
ATOM     94  C   UNL     1      -1.392   8.976 -10.629  1.00  0.00     0.012 A 
ATOM     95  C   UNL     1       0.594   8.002 -11.558  1.00  0.00     0.148 A 
ATOM     96  C   UNL     1      -1.949   9.041 -11.909  1.00  0.00     0.002 A 
ATOM     97  C   UNL     1       0.035   8.043 -12.825  1.00  0.00     0.091 A 
ATOM     98  F   UNL     1       1.771   7.389 -11.421  1.00  0.00    -0.205 F 
ATOM     99  C   UNL     1      -1.220   8.616 -13.012  1.00  0.00     0.022 A 
BRANCH  97 100
ATOM    100  S   UNL     1       0.875   7.382 -14.270  1.00  0.00     0.127 S 
ATOM    101  O   UNL     1      -0.092   6.389 -14.738  1.00  0.00    -0.237 OA
ATOM    102  O   UNL     1       0.989   8.572 -15.112  1.00  0.00    -0.237 OA
ATOM    103  O   UNL     1       2.140   6.831 -13.806  1.00  0.00    -0.744 OA
ENDBRANCH  97 100
ENDBRANCH  70  93
ENDBRANCH  44  45
ENDBRANCH  37  39
ENDBRANCH  36  37
ENDBRANCH  35  36
ENDBRANCH  34  35
ENDBRANCH  33  34
ENDBRANCH  32  33
ENDBRANCH  31  32
ENDBRANCH  30  31
ENDBRANCH   1  30
TORSDOF 28
