REMARK SMILES Cc1cc2cc(-c3ccc([C@@H](C)C(=O)OCCOCCOCCOCCOC(=O)c4ccc(-c5c6nc(c(-c7cccc(S(=O)(=O)[O-])c7F)c7ccc([nH]7)c(-c7cccc(S(=O)(=O)[O-])c7F)c7nc(c(-c8cccc(S(=O)(=O)[O-])c8F)c8ccc5[nH]8)C=C7)C=C6)cc4)cc3)ccc2[nH]1
REMARK SMILES IDX 22 1 21 2 20 3 19 4 18 5 17 6 16 7 15 8 13 9 14 10 11 11
REMARK SMILES IDX 12 12 10 13 7 14 8 15 94 16 9 17 93 18 6 19 1 20 2 21 3 22
REMARK SMILES IDX 98 23 4 24 97 25 5 27 96 28 95 29 23 30 24 31 25 32 26 33
REMARK SMILES IDX 27 34 28 35 29 36 30 37 31 38 92 39 32 40 91 41 33 42 34 43
REMARK SMILES IDX 35 44 85 45 36 46 90 47 84 48 86 49 37 50 89 51 83 52 82 53
REMARK SMILES IDX 38 55 70 56 50 57 69 58 51 59 54 60 68 61 87 62 52 63 53 64
REMARK SMILES IDX 67 66 88 67 55 68 39 69 40 70 48 71 41 72 43 73 49 74 42 75
REMARK SMILES IDX 44 76 45 77 46 78 47 79 71 80 72 81 80 82 73 83 75 84 81 85
REMARK SMILES IDX 74 86 76 87 77 88 78 89 79 90 56 91 57 92 65 93 58 94 60 95
REMARK SMILES IDX 66 96 59 97 61 98 62 99 63 100 64 101
REMARK H PARENT 98 26 86 54 54 65
REMARK Flexibility Score: inf
ROOT
ATOM      1  C   UNL     1       6.887  -0.611  -3.870  1.00  0.00     0.188 C 
ENDROOT
BRANCH   1   2
ATOM      2  O   UNL     1       7.212  -1.643  -2.956  1.00  0.00    -0.377 OA
BRANCH   2   3
ATOM      3  C   UNL     1       7.791  -1.251  -1.732  1.00  0.00     0.188 C 
BRANCH   3   4
ATOM      4  C   UNL     1       9.304  -1.484  -1.626  1.00  0.00     0.188 C 
BRANCH   4   5
ATOM      5  O   UNL     1      10.070  -1.882  -2.756  1.00  0.00    -0.376 OA
BRANCH   5   6
ATOM      6  C   UNL     1       9.530  -2.780  -3.716  1.00  0.00     0.202 C 
BRANCH   6   7
ATOM      7  C   UNL     1       8.916  -4.129  -3.294  1.00  0.00     0.261 C 
BRANCH   7   8
ATOM      8  O   UNL     1       7.930  -4.101  -2.242  1.00  0.00    -0.463 OA
BRANCH   8   9
ATOM      9  C   UNL     1       8.328  -4.539  -1.027  1.00  0.00     0.313 C 
ATOM     10  O   UNL     1       9.465  -4.953  -0.796  1.00  0.00    -0.252 OA
BRANCH   9  11
ATOM     11  C   UNL     1       7.271  -4.516   0.077  1.00  0.00     0.126 C 
ATOM     12  C   UNL     1       6.851  -5.951   0.372  1.00  0.00     0.025 C 
BRANCH  11  13
ATOM     13  C   UNL     1       6.057  -3.590  -0.003  1.00  0.00    -0.034 A 
ATOM     14  C   UNL     1       3.803  -1.819  -0.039  1.00  0.00    -0.018 A 
ATOM     15  C   UNL     1       4.020  -2.763  -1.059  1.00  0.00     0.009 A 
ATOM     16  C   UNL     1       4.745  -1.762   0.994  1.00  0.00     0.009 A 
ATOM     17  C   UNL     1       5.122  -3.637  -1.042  1.00  0.00     0.005 A 
ATOM     18  C   UNL     1       5.842  -2.639   1.019  1.00  0.00     0.005 A 
BRANCH  14  19
ATOM     19  C   UNL     1       2.580  -0.992  -0.019  1.00  0.00    -0.018 A 
ATOM     20  C   UNL     1      -3.448   0.149  -0.012  1.00  0.00     0.064 C 
ATOM     21  C   UNL     1      -1.980  -0.060   0.009  1.00  0.00     0.013 A 
ATOM     22  C   UNL     1      -1.244  -1.226   0.022  1.00  0.00     0.031 A 
ATOM     23  N   UNL     1      -1.085   0.985  -0.007  1.00  0.00    -0.359 N 
ATOM     24  C   UNL     1       0.132  -0.879   0.012  1.00  0.00     0.000 A 
ATOM     25  C   UNL     1       0.211   0.511   0.006  1.00  0.00     0.046 A 
ATOM     26  H   UNL     1      -1.334   1.937  -0.026  1.00  0.00     0.166 HD
ATOM     27  C   UNL     1       1.324  -1.628  -0.002  1.00  0.00     0.019 A 
ATOM     28  C   UNL     1       1.437   1.188  -0.001  1.00  0.00     0.027 A 
ATOM     29  C   UNL     1       2.613   0.412  -0.009  1.00  0.00     0.011 A 
ENDBRANCH  14  19
ENDBRANCH  11  13
ENDBRANCH   9  11
ENDBRANCH   8   9
ENDBRANCH   7   8
ENDBRANCH   6   7
ENDBRANCH   5   6
ENDBRANCH   4   5
ENDBRANCH   3   4
ENDBRANCH   2   3
ENDBRANCH   1   2
BRANCH   1  30
ATOM     30  C   UNL     1       7.904   0.537  -4.009  1.00  0.00     0.188 C 
BRANCH  30  31
ATOM     31  O   UNL     1       8.250   1.157  -2.775  1.00  0.00    -0.376 OA
BRANCH  31  32
ATOM     32  C   UNL     1       7.541   2.320  -2.372  1.00  0.00     0.202 C 
BRANCH  32  33
ATOM     33  C   UNL     1       6.034   2.211  -2.076  1.00  0.00     0.261 C 
BRANCH  33  34
ATOM     34  O   UNL     1       5.184   1.738  -3.131  1.00  0.00    -0.460 OA
BRANCH  34  35
ATOM     35  C   UNL     1       5.207   2.373  -4.319  1.00  0.00     0.338 C 
ATOM     36  O   UNL     1       5.834   3.384  -4.596  1.00  0.00    -0.246 OA
BRANCH  35  37
ATOM     37  C   UNL     1       4.506   1.517  -5.302  1.00  0.00     0.060 A 
ATOM     38  C   UNL     1       5.203   1.067  -6.433  1.00  0.00     0.016 A 
ATOM     39  C   UNL     1       3.174   1.147  -5.103  1.00  0.00     0.016 A 
ATOM     40  C   UNL     1       4.558   0.279  -7.388  1.00  0.00     0.010 A 
ATOM     41  C   UNL     1       2.522   0.383  -6.074  1.00  0.00     0.010 A 
ATOM     42  C   UNL     1       3.200  -0.024  -7.238  1.00  0.00    -0.014 A 
BRANCH  42  43
ATOM     43  C   UNL     1       2.430  -0.572  -8.381  1.00  0.00     0.031 A 
ATOM     44  C   UNL     1       1.630   0.390  -9.219  1.00  0.00     0.074 A 
ATOM     45  C   UNL     1       2.421  -1.887  -8.666  1.00  0.00     0.049 A 
ATOM     46  N   UNL     1       0.802   0.149 -10.200  1.00  0.00    -0.248 NA
ATOM     47  C   UNL     1       1.784   1.820  -8.898  1.00  0.00     0.031 C 
ATOM     48  C   UNL     1       3.175  -2.914  -7.951  1.00  0.00     0.029 A 
ATOM     49  N   UNL     1       1.720  -2.584  -9.619  1.00  0.00    -0.354 N 
ATOM     50  C   UNL     1       0.312   1.389 -10.592  1.00  0.00     0.074 A 
ATOM     51  C   UNL     1       0.926   2.380  -9.737  1.00  0.00     0.031 C 
ATOM     52  C   UNL     1       2.866  -4.117  -8.466  1.00  0.00     0.029 A 
ATOM     53  C   UNL     1       1.867  -3.948  -9.521  1.00  0.00     0.049 A 
ATOM     54  H   UNL     1       1.165  -2.149 -10.307  1.00  0.00     0.167 HD
ATOM     55  C   UNL     1      -0.565   1.680 -11.582  1.00  0.00     0.034 A 
ATOM     56  C   UNL     1       1.239  -4.942 -10.181  1.00  0.00     0.034 A 
ATOM     57  C   UNL     1      -1.172   0.694 -12.432  1.00  0.00     0.049 A 
ATOM     58  C   UNL     1       0.219  -4.595 -11.239  1.00  0.00     0.074 A 
ATOM     59  C   UNL     1      -2.053   0.888 -13.480  1.00  0.00     0.029 A 
ATOM     60  N   UNL     1      -0.974  -0.674 -12.322  1.00  0.00    -0.354 N 
ATOM     61  N   UNL     1      -0.168  -3.416 -11.662  1.00  0.00    -0.248 NA
ATOM     62  C   UNL     1      -0.431  -5.719 -11.932  1.00  0.00     0.031 C 
ATOM     63  C   UNL     1      -2.418  -0.366 -13.980  1.00  0.00     0.029 A 
ATOM     64  C   UNL     1      -1.726  -1.337 -13.275  1.00  0.00     0.049 A 
ATOM     65  H   UNL     1      -0.386  -1.108 -11.663  1.00  0.00     0.167 HD
ATOM     66  C   UNL     1      -1.067  -3.655 -12.698  1.00  0.00     0.074 A 
ATOM     67  C   UNL     1      -1.158  -5.092 -12.847  1.00  0.00     0.031 C 
ATOM     68  C   UNL     1      -1.760  -2.766 -13.452  1.00  0.00     0.034 A 
BRANCH  55  69
ATOM     69  C   UNL     1      -0.913   3.128 -11.802  1.00  0.00     0.023 A 
ATOM     70  C   UNL     1       0.045   4.005 -12.352  1.00  0.00     0.012 A 
ATOM     71  C   UNL     1      -2.204   3.611 -11.510  1.00  0.00     0.148 A 
ATOM     72  C   UNL     1      -0.264   5.346 -12.573  1.00  0.00     0.002 A 
ATOM     73  C   UNL     1      -2.519   4.937 -11.779  1.00  0.00     0.091 A 
ATOM     74  F   UNL     1      -3.094   2.768 -10.969  1.00  0.00    -0.205 F 
ATOM     75  C   UNL     1      -1.547   5.809 -12.297  1.00  0.00     0.022 A 
BRANCH  73  76
ATOM     76  S   UNL     1      -4.165   5.612 -11.533  1.00  0.00     0.127 S 
ATOM     77  O   UNL     1      -3.941   6.541 -10.426  1.00  0.00    -0.237 OA
ATOM     78  O   UNL     1      -4.429   6.252 -12.822  1.00  0.00    -0.237 OA
ATOM     79  O   UNL     1      -5.026   4.477 -11.228  1.00  0.00    -0.744 OA
ENDBRANCH  73  76
ENDBRANCH  55  69
BRANCH  56  80
ATOM     80  C   UNL     1       1.553  -6.368  -9.876  1.00  0.00     0.023 A 
ATOM     81  C   UNL     1       2.183  -7.167 -10.851  1.00  0.00     0.012 A 
ATOM     82  C   UNL     1       1.216  -6.941  -8.634  1.00  0.00     0.148 A 
ATOM     83  C   UNL     1       2.434  -8.519 -10.610  1.00  0.00     0.002 A 
ATOM     84  C   UNL     1       1.521  -8.274  -8.380  1.00  0.00     0.091 A 
ATOM     85  F   UNL     1       0.602  -6.171  -7.725  1.00  0.00    -0.205 F 
ATOM     86  C   UNL     1       2.111  -9.069  -9.373  1.00  0.00     0.022 A 
BRANCH  84  87
ATOM     87  S   UNL     1       1.252  -9.037  -6.777  1.00  0.00     0.127 S 
ATOM     88  O   UNL     1       0.190  -9.994  -7.076  1.00  0.00    -0.237 OA
ATOM     89  O   UNL     1       2.561  -9.633  -6.506  1.00  0.00    -0.237 OA
ATOM     90  O   UNL     1       0.888  -7.951  -5.878  1.00  0.00    -0.744 OA
ENDBRANCH  84  87
ENDBRANCH  56  80
BRANCH  68  91
ATOM     91  C   UNL     1      -2.631  -3.304 -14.560  1.00  0.00     0.023 A 
ATOM     92  C   UNL     1      -3.835  -3.969 -14.258  1.00  0.00     0.012 A 
ATOM     93  C   UNL     1      -2.293  -3.061 -15.907  1.00  0.00     0.148 A 
ATOM     94  C   UNL     1      -4.675  -4.411 -15.280  1.00  0.00     0.002 A 
ATOM     95  C   UNL     1      -3.161  -3.456 -16.918  1.00  0.00     0.091 A 
ATOM     96  F   UNL     1      -1.136  -2.439 -16.173  1.00  0.00    -0.205 F 
ATOM     97  C   UNL     1      -4.345  -4.143 -16.607  1.00  0.00     0.022 A 
BRANCH  95  98
ATOM     98  S   UNL     1      -2.871  -3.065 -18.647  1.00  0.00     0.127 S 
ATOM     99  O   UNL     1      -2.613  -4.389 -19.212  1.00  0.00    -0.237 OA
ATOM    100  O   UNL     1      -4.147  -2.470 -19.046  1.00  0.00    -0.237 OA
ATOM    101  O   UNL     1      -1.740  -2.148 -18.671  1.00  0.00    -0.744 OA
ENDBRANCH  95  98
ENDBRANCH  68  91
ENDBRANCH  42  43
ENDBRANCH  35  37
ENDBRANCH  34  35
ENDBRANCH  33  34
ENDBRANCH  32  33
ENDBRANCH  31  32
ENDBRANCH  30  31
ENDBRANCH   1  30
TORSDOF 25
