REMARK SMILES O=C(C[C@@H]([NH2+]Cc1ccccc1)C(=O)/N=c1/[nH]c(-c2ccccc2)cs1)OCCOCCOCCOCCOC(=O)c1ccc(-c2c3nc(c(-c4cccc(S(=O)(=O)[O-])c4F)c4ccc([nH]4)c(-c4cccc(S(=O)(=O)[O-])c4F)c4nc(c(-c5cccc(S(=O)(=O)[O-])c5F)c5ccc2[nH]5)C=C4)C=C3)cc1
REMARK SMILES IDX 32 1 31 2 30 3 29 4 28 5 27 6 2 7 1 8 3 9 4 10 5 11 6 14
REMARK SMILES IDX 7 15 8 16 12 17 9 18 11 19 10 20 13 21 14 22 15 23 16 24
REMARK SMILES IDX 17 25 26 26 18 27 25 29 19 30 20 31 24 32 21 33 23 34 22 35
REMARK SMILES IDX 33 36 34 37 35 38 36 39 37 40 38 41 39 42 40 43 41 44 42 45
REMARK SMILES IDX 43 46 104 47 44 48 103 49 45 50 46 51 47 52 97 53 48 54
REMARK SMILES IDX 102 55 96 56 98 57 49 58 101 59 95 60 94 61 50 63 82 64
REMARK SMILES IDX 62 65 81 66 63 67 66 68 80 69 99 70 64 71 65 72 79 74 100 75
REMARK SMILES IDX 67 76 51 77 52 78 60 79 53 80 55 81 61 82 54 83 56 84 57 85
REMARK SMILES IDX 58 86 59 87 83 88 84 89 92 90 85 91 87 92 93 93 86 94 88 95
REMARK SMILES IDX 89 96 90 97 91 98 68 99 69 100 77 101 70 102 72 103 78 104
REMARK SMILES IDX 71 105 73 106 74 107 75 108 76 109
REMARK H PARENT 5 12 5 13 17 28 98 62 66 73
REMARK Flexibility Score: inf
ROOT
ATOM      1  C   UNL     1       1.747  -0.892  -2.293  1.00  0.00     0.188 C 
ENDROOT
BRANCH   1   2
ATOM      2  C   UNL     1       2.406   0.354  -1.707  1.00  0.00     0.188 C 
BRANCH   2   3
ATOM      3  O   UNL     1       3.801   0.392  -1.466  1.00  0.00    -0.376 OA
BRANCH   3   4
ATOM      4  C   UNL     1       4.505  -0.444  -0.565  1.00  0.00     0.202 C 
BRANCH   4   5
ATOM      5  C   UNL     1       3.759  -1.320   0.438  1.00  0.00     0.261 C 
BRANCH   5   6
ATOM      6  O   UNL     1       3.409  -0.650   1.666  1.00  0.00    -0.463 OA
BRANCH   6   7
ATOM      7  C   UNL     1       2.453   0.304   1.627  1.00  0.00     0.312 C 
ATOM      8  O   UNL     1       1.257   0.043   1.683  1.00  0.00    -0.252 OA
BRANCH   7   9
ATOM      9  C   UNL     1       2.984   1.705   1.433  1.00  0.00     0.198 C 
BRANCH   9  10
ATOM     10  C   UNL     1       4.308   2.105   2.099  1.00  0.00     0.286 C 
BRANCH  10  11
ATOM     11  N   UNL     1       5.345   1.045   2.185  1.00  0.00    -0.332 N 
ATOM     12  H   UNL     1       5.990   1.167   1.404  1.00  0.00     0.347 HD
ATOM     13  H   UNL     1       4.849   0.154   2.161  1.00  0.00     0.347 HD
BRANCH  11  14
ATOM     14  C   UNL     1       6.123   1.049   3.422  1.00  0.00     0.297 C 
BRANCH  14  15
ATOM     15  C   UNL     1       5.260   0.654   4.598  1.00  0.00     0.006 A 
ATOM     16  C   UNL     1       4.755   1.644   5.450  1.00  0.00     0.009 A 
ATOM     17  C   UNL     1       4.823  -0.672   4.756  1.00  0.00     0.009 A 
ATOM     18  C   UNL     1       3.790   1.329   6.404  1.00  0.00     0.001 A 
ATOM     19  C   UNL     1       3.865  -0.986   5.720  1.00  0.00     0.001 A 
ATOM     20  C   UNL     1       3.340   0.017   6.533  1.00  0.00     0.000 A 
ENDBRANCH  14  15
ENDBRANCH  11  14
ENDBRANCH  10  11
BRANCH  10  21
ATOM     21  C   UNL     1       4.846   3.340   1.320  1.00  0.00     0.307 C 
ATOM     22  O   UNL     1       4.486   4.473   1.638  1.00  0.00    -0.265 OA
BRANCH  21  23
ATOM     23  N   UNL     1       5.725   3.089   0.289  1.00  0.00    -0.180 NA
ATOM     24  C   UNL     1       5.359   3.347  -0.923  1.00  0.00     0.190 A 
ATOM     25  N   UNL     1       6.142   3.170  -2.038  1.00  0.00    -0.330 N 
ATOM     26  S   UNL     1       3.779   3.962  -1.482  1.00  0.00    -0.105 S 
ATOM     27  C   UNL     1       5.558   3.414  -3.269  1.00  0.00     0.058 A 
ATOM     28  H   UNL     1       7.080   2.881  -1.964  1.00  0.00     0.169 HD
ATOM     29  C   UNL     1       4.275   3.811  -3.156  1.00  0.00     0.095 A 
BRANCH  27  30
ATOM     30  C   UNL     1       6.296   3.254  -4.542  1.00  0.00    -0.001 A 
ATOM     31  C   UNL     1       7.461   2.475  -4.630  1.00  0.00     0.010 A 
ATOM     32  C   UNL     1       5.869   3.914  -5.711  1.00  0.00     0.010 A 
ATOM     33  C   UNL     1       8.174   2.371  -5.832  1.00  0.00     0.001 A 
ATOM     34  C   UNL     1       6.575   3.803  -6.913  1.00  0.00     0.001 A 
ATOM     35  C   UNL     1       7.732   3.035  -6.972  1.00  0.00     0.000 A 
ENDBRANCH  27  30
ENDBRANCH  21  23
ENDBRANCH  10  21
ENDBRANCH   9  10
ENDBRANCH   7   9
ENDBRANCH   6   7
ENDBRANCH   5   6
ENDBRANCH   4   5
ENDBRANCH   3   4
ENDBRANCH   2   3
ENDBRANCH   1   2
BRANCH   1  36
ATOM     36  O   UNL     1       2.265  -1.446  -3.486  1.00  0.00    -0.377 OA
BRANCH  36  37
ATOM     37  C   UNL     1       3.663  -1.626  -3.562  1.00  0.00     0.188 C 
BRANCH  37  38
ATOM     38  C   UNL     1       4.440  -0.425  -4.147  1.00  0.00     0.188 C 
BRANCH  38  39
ATOM     39  O   UNL     1       3.705   0.704  -4.615  1.00  0.00    -0.376 OA
BRANCH  39  40
ATOM     40  C   UNL     1       2.646   0.499  -5.546  1.00  0.00     0.202 C 
BRANCH  40  41
ATOM     41  C   UNL     1       3.019  -0.135  -6.885  1.00  0.00     0.261 C 
BRANCH  41  42
ATOM     42  O   UNL     1       3.362  -1.521  -6.729  1.00  0.00    -0.460 OA
BRANCH  42  43
ATOM     43  C   UNL     1       4.631  -1.855  -7.062  1.00  0.00     0.338 C 
ATOM     44  O   UNL     1       5.471  -1.140  -7.587  1.00  0.00    -0.246 OA
BRANCH  43  45
ATOM     45  C   UNL     1       4.948  -3.170  -6.471  1.00  0.00     0.060 A 
ATOM     46  C   UNL     1       6.160  -3.302  -5.775  1.00  0.00     0.016 A 
ATOM     47  C   UNL     1       4.063  -4.247  -6.567  1.00  0.00     0.016 A 
ATOM     48  C   UNL     1       6.526  -4.532  -5.237  1.00  0.00     0.010 A 
ATOM     49  C   UNL     1       4.436  -5.484  -6.042  1.00  0.00     0.010 A 
ATOM     50  C   UNL     1       5.692  -5.640  -5.428  1.00  0.00    -0.014 A 
BRANCH  50  51
ATOM     51  C   UNL     1       6.249  -7.002  -5.270  1.00  0.00     0.031 A 
ATOM     52  C   UNL     1       6.783  -7.672  -6.507  1.00  0.00     0.074 A 
ATOM     53  C   UNL     1       6.265  -7.628  -4.082  1.00  0.00     0.049 A 
ATOM     54  N   UNL     1       7.247  -8.882  -6.662  1.00  0.00    -0.248 NA
ATOM     55  C   UNL     1       6.780  -6.866  -7.743  1.00  0.00     0.031 C 
ATOM     56  C   UNL     1       5.787  -7.068  -2.820  1.00  0.00     0.029 A 
ATOM     57  N   UNL     1       6.675  -8.896  -3.757  1.00  0.00    -0.354 N 
ATOM     58  C   UNL     1       7.555  -8.994  -8.013  1.00  0.00     0.074 A 
ATOM     59  C   UNL     1       7.217  -7.737  -8.638  1.00  0.00     0.031 C 
ATOM     60  C   UNL     1       5.895  -8.005  -1.861  1.00  0.00     0.029 A 
ATOM     61  C   UNL     1       6.424  -9.235  -2.449  1.00  0.00     0.049 A 
ATOM     62  H   UNL     1       7.107  -9.505  -4.399  1.00  0.00     0.167 HD
ATOM     63  C   UNL     1       8.083 -10.049  -8.674  1.00  0.00     0.034 A 
ATOM     64  C   UNL     1       6.578 -10.415  -1.816  1.00  0.00     0.034 A 
ATOM     65  C   UNL     1       8.427 -11.291  -8.043  1.00  0.00     0.049 A 
ATOM     66  C   UNL     1       7.145 -11.586  -2.580  1.00  0.00     0.074 A 
ATOM     67  C   UNL     1       9.006 -12.411  -8.608  1.00  0.00     0.029 A 
ATOM     68  N   UNL     1       8.207 -11.580  -6.705  1.00  0.00    -0.354 N 
ATOM     69  N   UNL     1       7.535 -11.646  -3.832  1.00  0.00    -0.248 NA
ATOM     70  C   UNL     1       7.324 -12.842  -1.838  1.00  0.00     0.031 C 
ATOM     71  C   UNL     1       9.108 -13.391  -7.616  1.00  0.00     0.029 A 
ATOM     72  C   UNL     1       8.630 -12.866  -6.426  1.00  0.00     0.049 A 
ATOM     73  H   UNL     1       7.809 -10.961  -6.051  1.00  0.00     0.167 HD
ATOM     74  C   UNL     1       8.044 -12.928  -4.014  1.00  0.00     0.074 A 
ATOM     75  C   UNL     1       7.925 -13.606  -2.740  1.00  0.00     0.031 C 
ATOM     76  C   UNL     1       8.555 -13.498  -5.134  1.00  0.00     0.034 A 
BRANCH  63  77
ATOM     77  C   UNL     1       8.328  -9.894 -10.151  1.00  0.00     0.023 A 
ATOM     78  C   UNL     1       9.368  -9.059 -10.607  1.00  0.00     0.012 A 
ATOM     79  C   UNL     1       7.551 -10.604 -11.086  1.00  0.00     0.148 A 
ATOM     80  C   UNL     1       9.610  -8.907 -11.971  1.00  0.00     0.002 A 
ATOM     81  C   UNL     1       7.830 -10.486 -12.442  1.00  0.00     0.091 A 
ATOM     82  F   UNL     1       6.548 -11.370 -10.634  1.00  0.00    -0.205 F 
ATOM     83  C   UNL     1       8.850  -9.628 -12.887  1.00  0.00     0.022 A 
BRANCH  81  84
ATOM     84  S   UNL     1       6.959 -11.432 -13.696  1.00  0.00     0.127 S 
ATOM     85  O   UNL     1       6.199 -10.386 -14.380  1.00  0.00    -0.237 OA
ATOM     86  O   UNL     1       8.062 -11.993 -14.476  1.00  0.00    -0.237 OA
ATOM     87  O   UNL     1       6.160 -12.414 -12.977  1.00  0.00    -0.744 OA
ENDBRANCH  81  84
ENDBRANCH  63  77
BRANCH  64  88
ATOM     88  C   UNL     1       6.216 -10.546  -0.376  1.00  0.00     0.023 A 
ATOM     89  C   UNL     1       7.230 -10.744   0.582  1.00  0.00     0.012 A 
ATOM     90  C   UNL     1       4.876 -10.467   0.051  1.00  0.00     0.148 A 
ATOM     91  C   UNL     1       6.914 -10.893   1.933  1.00  0.00     0.002 A 
ATOM     92  C   UNL     1       4.573 -10.561   1.405  1.00  0.00     0.091 A 
ATOM     93  F   UNL     1       3.924 -10.295  -0.876  1.00  0.00    -0.205 F 
ATOM     94  C   UNL     1       5.588 -10.792   2.345  1.00  0.00     0.022 A 
BRANCH  92  95
ATOM     95  S   UNL     1       2.912 -10.313   2.041  1.00  0.00     0.127 S 
ATOM     96  O   UNL     1       2.566 -11.655   2.503  1.00  0.00    -0.237 OA
ATOM     97  O   UNL     1       3.142  -9.334   3.104  1.00  0.00    -0.237 OA
ATOM     98  O   UNL     1       2.132  -9.809   0.919  1.00  0.00    -0.744 OA
ENDBRANCH  92  95
ENDBRANCH  64  88
BRANCH  76  99
ATOM     99  C   UNL     1       9.080 -14.906  -5.029  1.00  0.00     0.023 A 
ATOM    100  C   UNL     1       8.186 -15.987  -4.907  1.00  0.00     0.012 A 
ATOM    101  C   UNL     1      10.462 -15.158  -5.146  1.00  0.00     0.148 A 
ATOM    102  C   UNL     1       8.663 -17.297  -4.870  1.00  0.00     0.002 A 
ATOM    103  C   UNL     1      10.924 -16.468  -5.162  1.00  0.00     0.091 A 
ATOM    104  F   UNL     1      11.297 -14.113  -5.246  1.00  0.00    -0.205 F 
ATOM    105  C   UNL     1      10.028 -17.538  -5.011  1.00  0.00     0.022 A 
BRANCH 103 106
ATOM    106  S   UNL     1      12.651 -16.875  -5.442  1.00  0.00     0.127 S 
ATOM    107  O   UNL     1      13.066 -17.338  -4.119  1.00  0.00    -0.237 OA
ATOM    108  O   UNL     1      12.561 -17.925  -6.457  1.00  0.00    -0.237 OA
ATOM    109  O   UNL     1      13.285 -15.646  -5.901  1.00  0.00    -0.744 OA
ENDBRANCH 103 106
ENDBRANCH  76  99
ENDBRANCH  50  51
ENDBRANCH  43  45
ENDBRANCH  42  43
ENDBRANCH  41  42
ENDBRANCH  40  41
ENDBRANCH  39  40
ENDBRANCH  38  39
ENDBRANCH  37  38
ENDBRANCH  36  37
ENDBRANCH   1  36
TORSDOF 30
