REMARK SMILES CC1(C)[C@H](C#N)C(SCC(=O)OCCOCCOCCOCCOC(=O)c2ccc(-c3c4nc(c(-c5cccc(S(=O)(=O)[O-])c5F)c5ccc([nH]5)c(-c5cccc(S(=O)(=O)[O-])c5F)c5nc(c(-c6cccc(S(=O)(=O)[O-])c6F)c6ccc3[nH]6)C=C5)C=C4)cc2)=NC(=O)[C@@H]1C#N
REMARK SMILES IDX 18 1 17 2 16 3 15 4 14 5 13 6 12 7 10 8 11 9 9 10 8 11 7 12
REMARK SMILES IDX 1 13 2 14 3 15 4 16 93 17 91 18 90 19 92 20 5 21 6 22 94 23
REMARK SMILES IDX 95 24 19 25 20 26 21 27 22 28 23 29 24 30 25 31 26 32 27 33
REMARK SMILES IDX 28 34 89 35 29 36 88 37 30 38 31 39 32 40 82 41 33 42 87 43
REMARK SMILES IDX 81 44 83 45 34 46 86 47 80 48 79 49 35 51 67 52 47 53 66 54
REMARK SMILES IDX 48 55 51 56 65 57 84 58 49 59 50 60 64 62 85 63 52 64 36 65
REMARK SMILES IDX 37 66 45 67 38 68 40 69 46 70 39 71 41 72 42 73 43 74 44 75
REMARK SMILES IDX 68 76 69 77 77 78 70 79 72 80 78 81 71 82 73 83 74 84 75 85
REMARK SMILES IDX 76 86 53 87 54 88 62 89 55 90 57 91 63 92 56 93 58 94 59 95
REMARK SMILES IDX 60 96 61 97
REMARK H PARENT 83 50 51 61
REMARK Flexibility Score: inf
ROOT
ATOM      1  O   UNL     1       0.402   2.717  -2.806  1.00  0.00    -0.377 OA
ENDROOT
BRANCH   1   2
ATOM      2  C   UNL     1      -0.258   3.789  -2.199  1.00  0.00     0.188 C 
BRANCH   2   3
ATOM      3  C   UNL     1      -1.520   4.620  -2.465  1.00  0.00     0.188 C 
BRANCH   3   4
ATOM      4  O   UNL     1      -1.705   5.481  -3.566  1.00  0.00    -0.376 OA
BRANCH   4   5
ATOM      5  C   UNL     1      -0.621   5.917  -4.349  1.00  0.00     0.202 C 
BRANCH   5   6
ATOM      6  C   UNL     1       0.501   6.767  -3.725  1.00  0.00     0.261 C 
BRANCH   6   7
ATOM      7  O   UNL     1       0.973   6.354  -2.425  1.00  0.00    -0.463 OA
BRANCH   7   8
ATOM      8  C   UNL     1       0.511   7.033  -1.344  1.00  0.00     0.316 C 
ATOM      9  O   UNL     1      -0.164   8.056  -1.439  1.00  0.00    -0.251 OA
BRANCH   8  10
ATOM     10  C   UNL     1       0.842   6.443   0.032  1.00  0.00     0.198 C 
BRANCH  10  11
ATOM     11  S   UNL     1       1.824   4.915   0.161  1.00  0.00    -0.097 SA
BRANCH  11  12
ATOM     12  C   UNL     1       0.684   3.603   0.618  1.00  0.00     0.095 C 
ATOM     13  C   UNL     1       0.899  -0.230   0.415  1.00  0.00     0.015 C 
ATOM     14  C   UNL     1       0.411   0.965   1.266  1.00  0.00     0.012 C 
ATOM     15  C   UNL     1       0.673   0.305   2.726  1.00  0.00     0.015 C 
ATOM     16  C   UNL     1       1.329   2.249   0.852  1.00  0.00     0.156 C 
ATOM     17  C   UNL     1      -1.104   1.355   1.185  1.00  0.00     0.191 C 
ATOM     18  C   UNL     1      -1.467   2.860   1.176  1.00  0.00     0.264 C 
ATOM     19  N   UNL     1      -0.560   3.849   0.844  1.00  0.00    -0.209 NA
ATOM     20  O   UNL     1      -2.645   3.181   1.326  1.00  0.00    -0.271 OA
BRANCH  16  21
ATOM     21  C   UNL     1       1.707   2.539   2.296  1.00  0.00     0.073 C 
ATOM     22  N   UNL     1       2.021   2.779   3.493  1.00  0.00    -0.198 NA
ENDBRANCH  16  21
BRANCH  17  23
ATOM     23  C   UNL     1      -1.947   0.725   2.225  1.00  0.00     0.076 C 
ATOM     24  N   UNL     1      -2.585   0.199   3.059  1.00  0.00    -0.197 NA
ENDBRANCH  17  23
ENDBRANCH  11  12
ENDBRANCH  10  11
ENDBRANCH   8  10
ENDBRANCH   7   8
ENDBRANCH   6   7
ENDBRANCH   5   6
ENDBRANCH   4   5
ENDBRANCH   3   4
ENDBRANCH   2   3
ENDBRANCH   1   2
BRANCH   1  25
ATOM     25  C   UNL     1       0.429   2.628  -4.200  1.00  0.00     0.188 C 
BRANCH  25  26
ATOM     26  C   UNL     1      -0.879   2.033  -4.723  1.00  0.00     0.188 C 
BRANCH  26  27
ATOM     27  O   UNL     1      -1.946   2.130  -3.784  1.00  0.00    -0.376 OA
BRANCH  27  28
ATOM     28  C   UNL     1      -2.145   1.055  -2.865  1.00  0.00     0.202 C 
BRANCH  28  29
ATOM     29  C   UNL     1      -0.966   0.356  -2.189  1.00  0.00     0.261 C 
BRANCH  29  30
ATOM     30  O   UNL     1       0.184   0.112  -2.986  1.00  0.00    -0.460 OA
BRANCH  30  31
ATOM     31  C   UNL     1       0.441  -1.116  -3.449  1.00  0.00     0.338 C 
ATOM     32  O   UNL     1      -0.224  -2.120  -3.320  1.00  0.00    -0.246 OA
BRANCH  31  33
ATOM     33  C   UNL     1       1.677  -0.937  -4.225  1.00  0.00     0.060 A 
ATOM     34  C   UNL     1       1.551  -0.533  -5.558  1.00  0.00     0.016 A 
ATOM     35  C   UNL     1       2.931  -1.061  -3.619  1.00  0.00     0.016 A 
ATOM     36  C   UNL     1       2.688  -0.294  -6.312  1.00  0.00     0.010 A 
ATOM     37  C   UNL     1       4.077  -0.851  -4.389  1.00  0.00     0.010 A 
ATOM     38  C   UNL     1       3.949  -0.513  -5.747  1.00  0.00    -0.014 A 
BRANCH  38  39
ATOM     39  C   UNL     1       5.089  -0.646  -6.674  1.00  0.00     0.031 A 
ATOM     40  C   UNL     1       5.451  -2.032  -7.127  1.00  0.00     0.074 A 
ATOM     41  C   UNL     1       5.698   0.440  -7.178  1.00  0.00     0.049 A 
ATOM     42  N   UNL     1       6.363  -2.413  -7.977  1.00  0.00    -0.248 NA
ATOM     43  C   UNL     1       4.667  -3.140  -6.549  1.00  0.00     0.031 C 
ATOM     44  C   UNL     1       5.373   1.824  -6.837  1.00  0.00     0.029 A 
ATOM     45  N   UNL     1       6.716   0.543  -8.086  1.00  0.00    -0.354 N 
ATOM     46  C   UNL     1       6.281  -3.799  -8.018  1.00  0.00     0.074 A 
ATOM     47  C   UNL     1       5.240  -4.197  -7.100  1.00  0.00     0.031 C 
ATOM     48  C   UNL     1       6.194   2.643  -7.517  1.00  0.00     0.029 A 
ATOM     49  C   UNL     1       7.117   1.838  -8.313  1.00  0.00     0.049 A 
ATOM     50  H   UNL     1       7.123  -0.234  -8.533  1.00  0.00     0.167 HD
ATOM     51  C   UNL     1       7.006  -4.662  -8.764  1.00  0.00     0.034 A 
ATOM     52  C   UNL     1       8.135   2.305  -9.061  1.00  0.00     0.034 A 
ATOM     53  C   UNL     1       8.038  -4.244  -9.670  1.00  0.00     0.049 A 
ATOM     54  C   UNL     1       8.971   1.318  -9.832  1.00  0.00     0.074 A 
ATOM     55  C   UNL     1       8.834  -5.025 -10.486  1.00  0.00     0.029 A 
ATOM     56  N   UNL     1       8.430  -2.928  -9.863  1.00  0.00    -0.354 N 
ATOM     57  N   UNL     1       8.842   0.015  -9.915  1.00  0.00    -0.248 NA
ATOM     58  C   UNL     1      10.074   1.865 -10.634  1.00  0.00     0.031 C 
ATOM     59  C   UNL     1       9.741  -4.183 -11.137  1.00  0.00     0.029 A 
ATOM     60  C   UNL     1       9.470  -2.873 -10.771  1.00  0.00     0.049 A 
ATOM     61  H   UNL     1       8.027  -2.147  -9.418  1.00  0.00     0.167 HD
ATOM     62  C   UNL     1       9.820  -0.411 -10.806  1.00  0.00     0.074 A 
ATOM     63  C   UNL     1      10.521   0.779 -11.249  1.00  0.00     0.031 C 
ATOM     64  C   UNL     1      10.119  -1.667 -11.220  1.00  0.00     0.034 A 
BRANCH  51  65
ATOM     65  C   UNL     1       6.718  -6.131  -8.613  1.00  0.00     0.023 A 
ATOM     66  C   UNL     1       5.514  -6.674  -9.107  1.00  0.00     0.012 A 
ATOM     67  C   UNL     1       7.661  -6.982  -8.006  1.00  0.00     0.148 A 
ATOM     68  C   UNL     1       5.239  -8.035  -8.970  1.00  0.00     0.002 A 
ATOM     69  C   UNL     1       7.403  -8.344  -7.918  1.00  0.00     0.091 A 
ATOM     70  F   UNL     1       8.786  -6.442  -7.517  1.00  0.00    -0.205 F 
ATOM     71  C   UNL     1       6.188  -8.870  -8.386  1.00  0.00     0.022 A 
BRANCH  69  72
ATOM     72  S   UNL     1       8.592  -9.513  -7.252  1.00  0.00     0.127 S 
ATOM     73  O   UNL     1       7.904  -9.979  -6.048  1.00  0.00    -0.237 OA
ATOM     74  O   UNL     1       8.680 -10.502  -8.326  1.00  0.00    -0.237 OA
ATOM     75  O   UNL     1       9.813  -8.757  -7.014  1.00  0.00    -0.744 OA
ENDBRANCH  69  72
ENDBRANCH  51  65
BRANCH  52  76
ATOM     76  C   UNL     1       8.412   3.768  -9.121  1.00  0.00     0.023 A 
ATOM     77  C   UNL     1       8.232   4.471 -10.327  1.00  0.00     0.012 A 
ATOM     78  C   UNL     1       8.846   4.467  -7.977  1.00  0.00     0.148 A 
ATOM     79  C   UNL     1       8.509   5.838 -10.401  1.00  0.00     0.002 A 
ATOM     80  C   UNL     1       9.064   5.837  -8.042  1.00  0.00     0.091 A 
ATOM     81  F   UNL     1       9.024   3.777  -6.842  1.00  0.00    -0.205 F 
ATOM     82  C   UNL     1       8.915   6.522  -9.258  1.00  0.00     0.022 A 
BRANCH  80  83
ATOM     83  S   UNL     1       9.462   6.819  -6.593  1.00  0.00     0.127 S 
ATOM     84  O   UNL     1      10.826   7.251  -6.889  1.00  0.00    -0.237 OA
ATOM     85  O   UNL     1       8.450   7.874  -6.661  1.00  0.00    -0.237 OA
ATOM     86  O   UNL     1       9.319   5.921  -5.455  1.00  0.00    -0.744 OA
ENDBRANCH  80  83
ENDBRANCH  52  76
BRANCH  64  87
ATOM     87  C   UNL     1      11.216  -1.819 -12.240  1.00  0.00     0.023 A 
ATOM     88  C   UNL     1      12.559  -1.605 -11.877  1.00  0.00     0.012 A 
ATOM     89  C   UNL     1      10.910  -2.254 -13.546  1.00  0.00     0.148 A 
ATOM     90  C   UNL     1      13.579  -1.783 -12.809  1.00  0.00     0.002 A 
ATOM     91  C   UNL     1      11.935  -2.486 -14.451  1.00  0.00     0.091 A 
ATOM     92  F   UNL     1       9.623  -2.438 -13.872  1.00  0.00    -0.205 F 
ATOM     93  C   UNL     1      13.269  -2.236 -14.090  1.00  0.00     0.022 A 
BRANCH  91  94
ATOM     94  S   UNL     1      11.640  -3.168 -16.085  1.00  0.00     0.127 S 
ATOM     95  O   UNL     1      11.973  -2.033 -16.945  1.00  0.00    -0.237 OA
ATOM     96  O   UNL     1      12.598  -4.273 -16.134  1.00  0.00    -0.237 OA
ATOM     97  O   UNL     1      10.242  -3.576 -16.107  1.00  0.00    -0.744 OA
ENDBRANCH  91  94
ENDBRANCH  64  87
ENDBRANCH  38  39
ENDBRANCH  31  33
ENDBRANCH  30  31
ENDBRANCH  29  30
ENDBRANCH  28  29
ENDBRANCH  27  28
ENDBRANCH  26  27
ENDBRANCH  25  26
ENDBRANCH   1  25
TORSDOF 27
