REMARK SMILES O=C(OCCOCCOCCOCCOC(=O)c1cn(-c2cc(Cl)ncn2)cn1)c1ccc(-c2c3nc(c(-c4cccc(S(=O)(=O)[O-])c4F)c4ccc([nH]4)c(-c4cccc(S(=O)(=O)[O-])c4F)c4nc(c(-c5cccc(S(=O)(=O)[O-])c5F)c5ccc2[nH]5)C=C4)C=C3)cc1
REMARK SMILES IDX 8 1 7 2 6 3 5 4 4 5 3 6 2 7 1 8 30 9 31 10 92 11 32 12 91 13
REMARK SMILES IDX 33 14 34 15 35 16 85 17 36 18 90 19 84 20 86 21 37 22 89 23
REMARK SMILES IDX 83 24 82 25 38 27 70 28 50 29 69 30 51 31 54 32 68 33 87 34
REMARK SMILES IDX 52 35 53 36 67 38 88 39 55 40 39 41 40 42 48 43 41 44 43 45
REMARK SMILES IDX 49 46 42 47 44 48 45 49 46 50 47 51 71 52 72 53 80 54 73 55
REMARK SMILES IDX 75 56 81 57 74 58 76 59 77 60 78 61 79 62 56 63 57 64 65 65
REMARK SMILES IDX 58 66 60 67 66 68 59 69 61 70 62 71 63 72 64 73 9 74 10 75
REMARK SMILES IDX 11 76 12 77 13 78 14 79 15 80 16 81 17 82 18 83 19 84 29 85
REMARK SMILES IDX 20 86 28 87 21 88 22 89 27 90 23 91 26 92 24 93 25 94
REMARK H PARENT 86 26 54 37
REMARK Flexibility Score: inf
ROOT
ATOM      1  C   UNL     1       2.305  -0.494  -1.997  1.00  0.00     0.188 C 
ENDROOT
BRANCH   1   2
ATOM      2  C   UNL     1       3.023   0.728  -1.406  1.00  0.00     0.188 C 
BRANCH   2   3
ATOM      3  O   UNL     1       4.349   0.715  -0.897  1.00  0.00    -0.376 OA
BRANCH   3   4
ATOM      4  C   UNL     1       5.056  -0.355  -0.308  1.00  0.00     0.202 C 
BRANCH   4   5
ATOM      5  C   UNL     1       4.493  -1.296   0.764  1.00  0.00     0.261 C 
BRANCH   5   6
ATOM      6  O   UNL     1       3.112  -1.619   0.662  1.00  0.00    -0.460 OA
BRANCH   6   7
ATOM      7  C   UNL     1       2.031  -0.946   1.109  1.00  0.00     0.338 C 
ATOM      8  O   UNL     1       0.922  -1.412   0.847  1.00  0.00    -0.246 OA
BRANCH   7   9
ATOM      9  C   UNL     1       2.097   0.343   1.850  1.00  0.00     0.060 A 
ATOM     10  C   UNL     1       3.261   1.005   2.245  1.00  0.00     0.016 A 
ATOM     11  C   UNL     1       0.853   0.920   2.167  1.00  0.00     0.016 A 
ATOM     12  C   UNL     1       3.200   2.085   3.098  1.00  0.00     0.010 A 
ATOM     13  C   UNL     1       0.781   2.037   2.980  1.00  0.00     0.010 A 
ATOM     14  C   UNL     1       1.960   2.552   3.507  1.00  0.00    -0.014 A 
BRANCH  14  15
ATOM     15  C   UNL     1       1.967   3.602   4.504  1.00  0.00     0.031 A 
ATOM     16  C   UNL     1       2.534   4.897   4.058  1.00  0.00     0.074 A 
ATOM     17  C   UNL     1       1.447   3.379   5.724  1.00  0.00     0.049 A 
ATOM     18  N   UNL     1       3.527   5.551   4.568  1.00  0.00    -0.248 NA
ATOM     19  C   UNL     1       2.013   5.470   2.808  1.00  0.00     0.031 C 
ATOM     20  C   UNL     1       0.669   2.208   6.144  1.00  0.00     0.029 A 
ATOM     21  N   UNL     1       1.353   4.221   6.790  1.00  0.00    -0.354 N 
ATOM     22  C   UNL     1       3.584   6.745   3.850  1.00  0.00     0.074 A 
ATOM     23  C   UNL     1       2.775   6.555   2.677  1.00  0.00     0.031 C 
ATOM     24  C   UNL     1      -0.049   2.534   7.237  1.00  0.00     0.029 A 
ATOM     25  C   UNL     1       0.314   3.878   7.647  1.00  0.00     0.049 A 
ATOM     26  H   UNL     1       1.953   4.988   6.936  1.00  0.00     0.167 HD
ATOM     27  C   UNL     1       4.044   7.888   4.429  1.00  0.00     0.034 A 
ATOM     28  C   UNL     1      -0.288   4.686   8.549  1.00  0.00     0.034 A 
ATOM     29  C   UNL     1       4.902   7.606   5.553  1.00  0.00     0.049 A 
ATOM     30  C   UNL     1       0.624   5.820   8.820  1.00  0.00     0.074 A 
ATOM     31  C   UNL     1       6.057   6.875   5.749  1.00  0.00     0.029 A 
ATOM     32  N   UNL     1       4.408   7.870   6.806  1.00  0.00    -0.354 N 
ATOM     33  N   UNL     1       1.756   5.708   9.457  1.00  0.00    -0.248 NA
ATOM     34  C   UNL     1       0.457   7.044   8.053  1.00  0.00     0.031 C 
ATOM     35  C   UNL     1       5.960   6.366   7.077  1.00  0.00     0.029 A 
ATOM     36  C   UNL     1       4.769   6.841   7.629  1.00  0.00     0.049 A 
ATOM     37  H   UNL     1       3.885   8.662   7.066  1.00  0.00     0.167 HD
ATOM     38  C   UNL     1       2.601   6.608   8.821  1.00  0.00     0.074 A 
ATOM     39  C   UNL     1       1.713   7.496   8.077  1.00  0.00     0.031 C 
ATOM     40  C   UNL     1       3.942   6.362   8.717  1.00  0.00     0.034 A 
BRANCH  27  41
ATOM     41  C   UNL     1       3.368   9.242   4.269  1.00  0.00     0.023 A 
ATOM     42  C   UNL     1       3.970  10.339   4.928  1.00  0.00     0.012 A 
ATOM     43  C   UNL     1       2.044   9.432   3.804  1.00  0.00     0.148 A 
ATOM     44  C   UNL     1       3.256  11.507   5.216  1.00  0.00     0.002 A 
ATOM     45  C   UNL     1       1.363  10.622   4.030  1.00  0.00     0.091 A 
ATOM     46  F   UNL     1       1.369   8.428   3.243  1.00  0.00    -0.205 F 
ATOM     47  C   UNL     1       1.948  11.647   4.773  1.00  0.00     0.022 A 
BRANCH  45  48
ATOM     48  S   UNL     1      -0.318  10.864   3.438  1.00  0.00     0.127 S 
ATOM     49  O   UNL     1      -1.083  10.715   4.672  1.00  0.00    -0.237 OA
ATOM     50  O   UNL     1      -0.253  12.226   2.906  1.00  0.00    -0.237 OA
ATOM     51  O   UNL     1      -0.528   9.839   2.423  1.00  0.00    -0.744 OA
ENDBRANCH  45  48
ENDBRANCH  27  41
BRANCH  28  52
ATOM     52  C   UNL     1      -1.692   4.662   9.016  1.00  0.00     0.023 A 
ATOM     53  C   UNL     1      -2.025   5.292  10.229  1.00  0.00     0.012 A 
ATOM     54  C   UNL     1      -2.746   4.228   8.179  1.00  0.00     0.148 A 
ATOM     55  C   UNL     1      -3.361   5.501  10.588  1.00  0.00     0.002 A 
ATOM     56  C   UNL     1      -4.073   4.412   8.554  1.00  0.00     0.091 A 
ATOM     57  F   UNL     1      -2.457   3.720   6.973  1.00  0.00    -0.205 F 
ATOM     58  C   UNL     1      -4.384   5.061   9.753  1.00  0.00     0.022 A 
BRANCH  56  59
ATOM     59  S   UNL     1      -5.436   3.844   7.527  1.00  0.00     0.127 S 
ATOM     60  O   UNL     1      -6.349   3.271   8.518  1.00  0.00    -0.237 OA
ATOM     61  O   UNL     1      -5.898   5.087   6.918  1.00  0.00    -0.237 OA
ATOM     62  O   UNL     1      -4.859   2.862   6.617  1.00  0.00    -0.744 OA
ENDBRANCH  56  59
ENDBRANCH  28  52
BRANCH  40  63
ATOM     63  C   UNL     1       4.546   5.292   9.591  1.00  0.00     0.023 A 
ATOM     64  C   UNL     1       4.133   3.946   9.520  1.00  0.00     0.012 A 
ATOM     65  C   UNL     1       5.663   5.617  10.381  1.00  0.00     0.148 A 
ATOM     66  C   UNL     1       4.793   2.954  10.250  1.00  0.00     0.002 A 
ATOM     67  C   UNL     1       6.348   4.620  11.066  1.00  0.00     0.091 A 
ATOM     68  F   UNL     1       6.054   6.900  10.436  1.00  0.00    -0.205 F 
ATOM     69  C   UNL     1       5.908   3.289  11.014  1.00  0.00     0.022 A 
BRANCH  67  70
ATOM     70  S   UNL     1       7.869   4.978  11.949  1.00  0.00     0.127 S 
ATOM     71  O   UNL     1       7.398   5.139  13.323  1.00  0.00    -0.237 OA
ATOM     72  O   UNL     1       8.668   3.773  11.715  1.00  0.00    -0.237 OA
ATOM     73  O   UNL     1       8.413   6.176  11.320  1.00  0.00    -0.744 OA
ENDBRANCH  67  70
ENDBRANCH  40  63
ENDBRANCH  14  15
ENDBRANCH   7   9
ENDBRANCH   6   7
ENDBRANCH   5   6
ENDBRANCH   4   5
ENDBRANCH   3   4
ENDBRANCH   2   3
ENDBRANCH   1   2
BRANCH   1  74
ATOM     74  O   UNL     1       2.734  -0.891  -3.285  1.00  0.00    -0.377 OA
BRANCH  74  75
ATOM     75  C   UNL     1       4.026  -1.456  -3.318  1.00  0.00     0.188 C 
BRANCH  75  76
ATOM     76  C   UNL     1       5.122  -0.518  -3.866  1.00  0.00     0.188 C 
BRANCH  76  77
ATOM     77  O   UNL     1       4.855   0.584  -4.734  1.00  0.00    -0.376 OA
BRANCH  77  78
ATOM     78  C   UNL     1       3.556   0.823  -5.242  1.00  0.00     0.202 C 
BRANCH  78  79
ATOM     79  C   UNL     1       3.119  -0.096  -6.388  1.00  0.00     0.261 C 
BRANCH  79  80
ATOM     80  O   UNL     1       3.418  -1.480  -6.173  1.00  0.00    -0.458 OA
BRANCH  80  81
ATOM     81  C   UNL     1       4.596  -1.931  -6.686  1.00  0.00     0.358 C 
ATOM     82  O   UNL     1       5.318  -1.317  -7.467  1.00  0.00    -0.244 OA
BRANCH  81  83
ATOM     83  C   UNL     1       4.909  -3.273  -6.203  1.00  0.00     0.166 A 
ATOM     84  C   UNL     1       4.367  -4.449  -6.673  1.00  0.00     0.130 A 
ATOM     85  N   UNL     1       5.751  -3.544  -5.133  1.00  0.00    -0.229 NA
ATOM     86  N   UNL     1       4.941  -5.451  -5.927  1.00  0.00    -0.289 N 
ATOM     87  C   UNL     1       5.686  -4.846  -4.949  1.00  0.00     0.206 A 
BRANCH  86  88
ATOM     88  C   UNL     1       4.858  -6.840  -6.167  1.00  0.00     0.142 A 
ATOM     89  C   UNL     1       4.749  -7.259  -7.474  1.00  0.00     0.088 A 
ATOM     90  N   UNL     1       4.968  -7.687  -5.122  1.00  0.00    -0.219 NA
ATOM     91  C   UNL     1       4.767  -8.617  -7.643  1.00  0.00     0.134 A 
ATOM     92  C   UNL     1       4.893  -8.993  -5.418  1.00  0.00     0.226 A 
ATOM     93  Cl  UNL     1       4.791  -9.290  -9.221  1.00  0.00    -0.062 Cl
ATOM     94  N   UNL     1       4.812  -9.514  -6.647  1.00  0.00    -0.224 NA
ENDBRANCH  86  88
ENDBRANCH  81  83
ENDBRANCH  80  81
ENDBRANCH  79  80
ENDBRANCH  78  79
ENDBRANCH  77  78
ENDBRANCH  76  77
ENDBRANCH  75  76
ENDBRANCH  74  75
ENDBRANCH   1  74
TORSDOF 24
