REMARK SMILES Cn1cc(S(=O)(=O)NC[C@H]2CC[C@@H](C(=O)OCCOCCOCCOCCOC(=O)c3ccc(-c4c5nc(c(-c6cccc(S(=O)(=O)[O-])c6F)c6ccc([nH]6)c(-c6cccc(S(=O)(=O)[O-])c6F)c6nc(c(-c7cccc(S(=O)(=O)[O-])c7F)c7ccc4[nH]7)C=C6)C=C5)cc3)CC2)cn1
REMARK SMILES IDX 21 1 20 2 19 3 18 4 17 5 16 6 14 7 15 8 13 9 10 10 11 11
REMARK SMILES IDX 95 12 12 13 94 14 9 15 8 16 5 18 6 19 7 20 4 21 1 22 2 23
REMARK SMILES IDX 3 24 97 25 96 26 22 27 23 28 24 29 25 30 26 31 27 32 28 33
REMARK SMILES IDX 29 34 30 35 31 36 32 37 93 38 33 39 92 40 34 41 35 42 36 43
REMARK SMILES IDX 86 44 37 45 91 46 85 47 87 48 38 49 90 50 84 51 83 52 39 54
REMARK SMILES IDX 71 55 51 56 70 57 52 58 55 59 69 60 88 61 53 62 54 63 68 65
REMARK SMILES IDX 89 66 56 67 40 68 41 69 49 70 42 71 44 72 50 73 43 74 45 75
REMARK SMILES IDX 46 76 47 77 48 78 72 79 73 80 81 81 74 82 76 83 82 84 75 85
REMARK SMILES IDX 77 86 78 87 79 88 80 89 57 90 58 91 66 92 59 93 61 94 67 95
REMARK SMILES IDX 60 96 62 97 63 98 64 99 65 100
REMARK H PARENT 8 17 87 53 55 64
REMARK Flexibility Score: inf
ROOT
ATOM      1  C   UNL     1       7.634  -3.988  -3.111  1.00  0.00     0.188 C 
ENDROOT
BRANCH   1   2
ATOM      2  C   UNL     1       8.370  -2.704  -2.713  1.00  0.00     0.188 C 
BRANCH   2   3
ATOM      3  O   UNL     1       8.348  -2.407  -1.323  1.00  0.00    -0.376 OA
BRANCH   3   4
ATOM      4  C   UNL     1       7.629  -1.224  -0.999  1.00  0.00     0.202 C 
BRANCH   4   5
ATOM      5  C   UNL     1       6.111  -1.385  -0.989  1.00  0.00     0.261 C 
BRANCH   5   6
ATOM      6  O   UNL     1       5.538  -2.012  -2.150  1.00  0.00    -0.463 OA
BRANCH   6   7
ATOM      7  C   UNL     1       5.222  -1.236  -3.206  1.00  0.00     0.309 C 
ATOM      8  O   UNL     1       5.628  -0.090  -3.364  1.00  0.00    -0.252 OA
BRANCH   7   9
ATOM      9  C   UNL     1       4.249  -1.918  -4.177  1.00  0.00     0.099 C 
ATOM     10  C   UNL     1       2.028  -3.022  -2.499  1.00  0.00     0.004 C 
ATOM     11  C   UNL     1       2.163  -1.522  -2.806  1.00  0.00     0.006 C 
ATOM     12  C   UNL     1       3.300  -3.837  -2.756  1.00  0.00     0.006 C 
ATOM     13  C   UNL     1       2.889  -1.220  -4.115  1.00  0.00     0.015 C 
ATOM     14  C   UNL     1       4.021  -3.429  -4.037  1.00  0.00     0.015 C 
BRANCH  10  15
ATOM     15  C   UNL     1       1.448  -3.289  -1.100  1.00  0.00     0.102 C 
BRANCH  15  16
ATOM     16  N   UNL     1       2.355  -3.018   0.018  1.00  0.00    -0.211 NA
ATOM     17  H   UNL     1       2.127  -3.713   0.729  1.00  0.00     0.141 HD
BRANCH  16  18
ATOM     18  S   UNL     1       2.460  -1.562   0.835  1.00  0.00     0.243 S 
ATOM     19  O   UNL     1       3.474  -0.770   0.176  1.00  0.00    -0.207 OA
ATOM     20  O   UNL     1       2.579  -1.853   2.244  1.00  0.00    -0.207 OA
BRANCH  18  21
ATOM     21  C   UNL     1       1.038  -0.644   0.646  1.00  0.00     0.120 A 
ATOM     22  C   UNL     1      -2.464   0.045   0.348  1.00  0.00     0.173 C 
ATOM     23  N   UNL     1      -1.025   0.015   0.437  1.00  0.00    -0.274 N 
ATOM     24  C   UNL     1      -0.262  -1.019   0.889  1.00  0.00     0.130 A 
ATOM     25  N   UNL     1      -0.305   1.049  -0.058  1.00  0.00    -0.180 NA
ATOM     26  C   UNL     1       0.961   0.649   0.108  1.00  0.00     0.156 A 
ENDBRANCH  18  21
ENDBRANCH  16  18
ENDBRANCH  15  16
ENDBRANCH  10  15
ENDBRANCH   7   9
ENDBRANCH   6   7
ENDBRANCH   5   6
ENDBRANCH   4   5
ENDBRANCH   3   4
ENDBRANCH   2   3
ENDBRANCH   1   2
BRANCH   1  27
ATOM     27  O   UNL     1       6.823  -4.657  -2.157  1.00  0.00    -0.377 OA
BRANCH  27  28
ATOM     28  C   UNL     1       7.376  -4.983  -0.883  1.00  0.00     0.188 C 
BRANCH  28  29
ATOM     29  C   UNL     1       8.877  -5.314  -0.768  1.00  0.00     0.188 C 
BRANCH  29  30
ATOM     30  O   UNL     1       9.506  -5.690  -1.988  1.00  0.00    -0.376 OA
BRANCH  30  31
ATOM     31  C   UNL     1       9.633  -7.084  -2.238  1.00  0.00     0.202 C 
BRANCH  31  32
ATOM     32  C   UNL     1       8.311  -7.833  -2.457  1.00  0.00     0.261 C 
BRANCH  32  33
ATOM     33  O   UNL     1       7.507  -7.986  -1.277  1.00  0.00    -0.460 OA
BRANCH  33  34
ATOM     34  C   UNL     1       8.069  -8.638  -0.237  1.00  0.00     0.338 C 
ATOM     35  O   UNL     1       9.163  -9.171  -0.199  1.00  0.00    -0.246 OA
BRANCH  34  36
ATOM     36  C   UNL     1       7.190  -8.470   0.930  1.00  0.00     0.060 A 
ATOM     37  C   UNL     1       7.695  -7.828   2.067  1.00  0.00     0.016 A 
ATOM     38  C   UNL     1       5.897  -8.998   0.915  1.00  0.00     0.016 A 
ATOM     39  C   UNL     1       6.919  -7.766   3.223  1.00  0.00     0.010 A 
ATOM     40  C   UNL     1       5.129  -8.947   2.077  1.00  0.00     0.010 A 
ATOM     41  C   UNL     1       5.656  -8.373   3.246  1.00  0.00    -0.014 A 
BRANCH  41  42
ATOM     42  C   UNL     1       4.981  -8.601   4.543  1.00  0.00     0.031 A 
ATOM     43  C   UNL     1       5.209  -9.915   5.239  1.00  0.00     0.074 A 
ATOM     44  C   UNL     1       4.173  -7.672   5.080  1.00  0.00     0.049 A 
ATOM     45  N   UNL     1       4.742 -10.338   6.383  1.00  0.00    -0.248 NA
ATOM     46  C   UNL     1       6.079 -10.884   4.549  1.00  0.00     0.031 C 
ATOM     47  C   UNL     1       3.862  -6.374   4.485  1.00  0.00     0.029 A 
ATOM     48  N   UNL     1       3.445  -7.696   6.242  1.00  0.00    -0.354 N 
ATOM     49  C   UNL     1       5.246 -11.623   6.544  1.00  0.00     0.074 A 
ATOM     50  C   UNL     1       6.040 -11.920   5.373  1.00  0.00     0.031 C 
ATOM     51  C   UNL     1       2.977  -5.737   5.271  1.00  0.00     0.029 A 
ATOM     52  C   UNL     1       2.658  -6.583   6.421  1.00  0.00     0.049 A 
ATOM     53  H   UNL     1       3.482  -8.439   6.887  1.00  0.00     0.167 HD
ATOM     54  C   UNL     1       5.081 -12.473   7.583  1.00  0.00     0.034 A 
ATOM     55  C   UNL     1       1.780  -6.289   7.400  1.00  0.00     0.034 A 
ATOM     56  C   UNL     1       4.303 -12.170   8.752  1.00  0.00     0.049 A 
ATOM     57  C   UNL     1       1.623  -7.248   8.555  1.00  0.00     0.074 A 
ATOM     58  C   UNL     1       4.108 -12.944   9.881  1.00  0.00     0.029 A 
ATOM     59  N   UNL     1       3.581 -11.001   8.935  1.00  0.00    -0.354 N 
ATOM     60  N   UNL     1       2.225  -8.394   8.767  1.00  0.00    -0.248 NA
ATOM     61  C   UNL     1       0.698  -6.853   9.628  1.00  0.00     0.031 C 
ATOM     62  C   UNL     1       3.256 -12.246  10.744  1.00  0.00     0.029 A 
ATOM     63  C   UNL     1       2.932 -11.033  10.156  1.00  0.00     0.049 A 
ATOM     64  H   UNL     1       3.536 -10.258   8.291  1.00  0.00     0.167 HD
ATOM     65  C   UNL     1       1.780  -8.841  10.007  1.00  0.00     0.074 A 
ATOM     66  C   UNL     1       0.871  -7.830  10.510  1.00  0.00     0.031 C 
ATOM     67  C   UNL     1       2.079  -9.989  10.665  1.00  0.00     0.034 A 
BRANCH  54  68
ATOM     68  C   UNL     1       5.795 -13.794   7.516  1.00  0.00     0.023 A 
ATOM     69  C   UNL     1       7.187 -13.838   7.737  1.00  0.00     0.012 A 
ATOM     70  C   UNL     1       5.094 -14.990   7.272  1.00  0.00     0.148 A 
ATOM     71  C   UNL     1       7.875 -15.050   7.689  1.00  0.00     0.002 A 
ATOM     72  C   UNL     1       5.781 -16.198   7.261  1.00  0.00     0.091 A 
ATOM     73  F   UNL     1       3.777 -14.922   7.032  1.00  0.00    -0.205 F 
ATOM     74  C   UNL     1       7.171 -16.230   7.462  1.00  0.00     0.022 A 
BRANCH  72  75
ATOM     75  S   UNL     1       4.951 -17.776   7.038  1.00  0.00     0.127 S 
ATOM     76  O   UNL     1       5.323 -18.113   5.665  1.00  0.00    -0.237 OA
ATOM     77  O   UNL     1       5.583 -18.608   8.062  1.00  0.00    -0.237 OA
ATOM     78  O   UNL     1       3.536 -17.516   7.260  1.00  0.00    -0.744 OA
ENDBRANCH  72  75
ENDBRANCH  54  68
BRANCH  55  79
ATOM     79  C   UNL     1       1.033  -4.999   7.361  1.00  0.00     0.023 A 
ATOM     80  C   UNL     1       1.354  -3.987   8.285  1.00  0.00     0.012 A 
ATOM     81  C   UNL     1       0.030  -4.757   6.399  1.00  0.00     0.148 A 
ATOM     82  C   UNL     1       0.672  -2.768   8.270  1.00  0.00     0.002 A 
ATOM     83  C   UNL     1      -0.613  -3.523   6.359  1.00  0.00     0.091 A 
ATOM     84  F   UNL     1      -0.282  -5.740   5.543  1.00  0.00    -0.205 F 
ATOM     85  C   UNL     1      -0.302  -2.532   7.302  1.00  0.00     0.022 A 
BRANCH  83  86
ATOM     86  S   UNL     1      -1.811  -3.116   5.080  1.00  0.00     0.127 S 
ATOM     87  O   UNL     1      -3.078  -3.329   5.774  1.00  0.00    -0.237 OA
ATOM     88  O   UNL     1      -1.507  -1.715   4.783  1.00  0.00    -0.237 OA
ATOM     89  O   UNL     1      -1.531  -4.024   3.974  1.00  0.00    -0.744 OA
ENDBRANCH  83  86
ENDBRANCH  55  79
BRANCH  67  90
ATOM     90  C   UNL     1       1.440 -10.217  12.010  1.00  0.00     0.023 A 
ATOM     91  C   UNL     1       0.079 -10.571  12.081  1.00  0.00     0.012 A 
ATOM     92  C   UNL     1       2.206 -10.177  13.192  1.00  0.00     0.148 A 
ATOM     93  C   UNL     1      -0.517 -10.854  13.310  1.00  0.00     0.002 A 
ATOM     94  C   UNL     1       1.616 -10.502  14.408  1.00  0.00     0.091 A 
ATOM     95  F   UNL     1       3.497  -9.820  13.109  1.00  0.00    -0.205 F 
ATOM     96  C   UNL     1       0.253 -10.832  14.470  1.00  0.00     0.022 A 
BRANCH  94  97
ATOM     97  S   UNL     1       2.563 -10.591  15.933  1.00  0.00     0.127 S 
ATOM     98  O   UNL     1       2.239  -9.312  16.562  1.00  0.00    -0.237 OA
ATOM     99  O   UNL     1       1.985 -11.760  16.598  1.00  0.00    -0.237 OA
ATOM    100  O   UNL     1       3.951 -10.761  15.525  1.00  0.00    -0.744 OA
ENDBRANCH  94  97
ENDBRANCH  67  90
ENDBRANCH  41  42
ENDBRANCH  34  36
ENDBRANCH  33  34
ENDBRANCH  32  33
ENDBRANCH  31  32
ENDBRANCH  30  31
ENDBRANCH  29  30
ENDBRANCH  28  29
ENDBRANCH  27  28
ENDBRANCH   1  27
TORSDOF 27
