REMARK SMILES Cc1cc(/C=C2/C(=O)NC(=S)N=C2OCCOCCOCCOCCOC(=O)c2ccc(-c3c4nc(c(-c5cccc(S(=O)(=O)[O-])c5F)c5ccc([nH]5)c(-c5cccc(S(=O)(=O)[O-])c5F)c5nc(c(-c6cccc(S(=O)(=O)[O-])c6F)c6ccc3[nH]6)C=C5)C=C4)cc2)c(C)n1-c1cccc(C(=O)[O-])c1
REMARK SMILES IDX 21 1 20 2 19 3 18 4 17 5 16 6 15 7 14 8 13 9 5 10 6 11 7 12
REMARK SMILES IDX 8 13 9 14 12 15 10 16 11 18 4 19 1 20 2 21 3 22 94 23 92 24
REMARK SMILES IDX 93 25 95 26 96 27 103 28 97 29 99 30 98 31 100 32 101 33
REMARK SMILES IDX 102 34 22 35 23 36 24 37 25 38 26 39 27 40 28 41 29 42 30 43
REMARK SMILES IDX 91 44 31 45 90 46 32 47 33 48 34 49 84 50 35 51 89 52 83 53
REMARK SMILES IDX 85 54 36 55 88 56 82 57 81 58 37 60 69 61 49 62 68 63 50 64
REMARK SMILES IDX 53 65 67 66 86 67 51 68 52 69 66 71 87 72 54 73 38 74 39 75
REMARK SMILES IDX 47 76 40 77 42 78 48 79 41 80 43 81 44 82 45 83 46 84 70 85
REMARK SMILES IDX 71 86 79 87 72 88 74 89 80 90 73 91 75 92 76 93 77 94 78 95
REMARK SMILES IDX 55 96 56 97 64 98 57 99 59 100 65 101 58 102 60 103 61 104
REMARK SMILES IDX 62 105 63 106
REMARK H PARENT 9 17 85 59 53 70
REMARK Flexibility Score: inf
ROOT
ATOM      1  C   UNL     1      -3.982   1.389   3.832  1.00  0.00     0.188 C 
ENDROOT
BRANCH   1   2
ATOM      2  O   UNL     1      -4.247   0.053   4.207  1.00  0.00    -0.377 OA
BRANCH   2   3
ATOM      3  C   UNL     1      -3.270  -0.666   4.920  1.00  0.00     0.188 C 
BRANCH   3   4
ATOM      4  C   UNL     1      -3.107  -0.301   6.409  1.00  0.00     0.188 C 
BRANCH   4   5
ATOM      5  O   UNL     1      -2.925   1.022   6.888  1.00  0.00    -0.376 OA
BRANCH   5   6
ATOM      6  C   UNL     1      -1.776   1.841   6.737  1.00  0.00     0.201 C 
BRANCH   6   7
ATOM      7  C   UNL     1      -0.343   1.398   7.117  1.00  0.00     0.260 C 
BRANCH   7   8
ATOM      8  O   UNL     1       0.223   0.351   6.284  1.00  0.00    -0.475 OA
BRANCH   8   9
ATOM      9  C   UNL     1       0.084  -0.908   6.720  1.00  0.00     0.229 C 
ATOM     10  C   UNL     1       0.255  -1.996   4.322  1.00  0.00     0.029 C 
ATOM     11  C   UNL     1       0.083  -1.963   5.670  1.00  0.00     0.103 C 
ATOM     12  C   UNL     1      -0.256  -3.316   6.253  1.00  0.00     0.262 C 
ATOM     13  O   UNL     1      -0.283  -4.363   5.614  1.00  0.00    -0.269 OA
ATOM     14  N   UNL     1      -0.572  -3.335   7.584  1.00  0.00    -0.297 N 
ATOM     15  N   UNL     1      -0.122  -1.083   7.979  1.00  0.00    -0.184 NA
ATOM     16  C   UNL     1      -0.505  -2.291   8.455  1.00  0.00     0.203 C 
ATOM     17  H   UNL     1      -0.882  -4.194   7.950  1.00  0.00     0.172 HD
ATOM     18  S   UNL     1      -0.965  -2.540  10.046  1.00  0.00    -0.038 S 
BRANCH  10  19
ATOM     19  C   UNL     1       0.494  -1.075   3.231  1.00  0.00    -0.003 A 
ATOM     20  C   UNL     1       1.160  -0.389  -0.412  1.00  0.00     0.065 C 
ATOM     21  C   UNL     1       0.871  -0.424   1.046  1.00  0.00     0.020 A 
ATOM     22  C   UNL     1       0.898  -1.503   1.922  1.00  0.00     0.031 A 
ATOM     23  N   UNL     1       0.574   0.688   1.798  1.00  0.00    -0.318 N 
ATOM     24  C   UNL     1       0.199   0.263   3.069  1.00  0.00     0.027 A 
ATOM     25  C   UNL     1      -0.547   1.216   3.898  1.00  0.00     0.065 C 
BRANCH  23  26
ATOM     26  C   UNL     1       0.446   2.054   1.402  1.00  0.00     0.046 A 
ATOM     27  C   UNL     1       1.102   3.009   2.201  1.00  0.00     0.026 A 
ATOM     28  C   UNL     1      -0.615   2.435   0.569  1.00  0.00     0.036 A 
ATOM     29  C   UNL     1       0.662   4.329   2.223  1.00  0.00     0.003 A 
ATOM     30  C   UNL     1      -1.046   3.774   0.583  1.00  0.00    -0.001 A 
ATOM     31  C   UNL     1      -0.416   4.707   1.425  1.00  0.00     0.010 A 
BRANCH  30  32
ATOM     32  C   UNL     1      -2.214   4.242  -0.203  1.00  0.00     0.072 C 
ATOM     33  O   UNL     1      -2.656   5.387  -0.190  1.00  0.00    -0.545 OA
ATOM     34  O   UNL     1      -2.753   3.275  -0.953  1.00  0.00    -0.545 OA
ENDBRANCH  30  32
ENDBRANCH  23  26
ENDBRANCH  10  19
ENDBRANCH   8   9
ENDBRANCH   7   8
ENDBRANCH   6   7
ENDBRANCH   5   6
ENDBRANCH   4   5
ENDBRANCH   3   4
ENDBRANCH   2   3
ENDBRANCH   1   2
BRANCH   1  35
ATOM     35  C   UNL     1      -5.192   2.312   4.036  1.00  0.00     0.188 C 
BRANCH  35  36
ATOM     36  O   UNL     1      -6.441   1.728   4.360  1.00  0.00    -0.376 OA
BRANCH  36  37
ATOM     37  C   UNL     1      -6.883   0.663   3.541  1.00  0.00     0.202 C 
BRANCH  37  38
ATOM     38  C   UNL     1      -7.300   0.858   2.039  1.00  0.00     0.261 C 
BRANCH  38  39
ATOM     39  O   UNL     1      -6.665   1.704   0.986  1.00  0.00    -0.460 OA
BRANCH  39  40
ATOM     40  C   UNL     1      -7.106   2.996   0.694  1.00  0.00     0.338 C 
ATOM     41  O   UNL     1      -7.429   3.772   1.585  1.00  0.00    -0.246 OA
BRANCH  40  42
ATOM     42  C   UNL     1      -7.166   3.431  -0.837  1.00  0.00     0.060 A 
ATOM     43  C   UNL     1      -6.901   4.683  -1.488  1.00  0.00     0.016 A 
ATOM     44  C   UNL     1      -7.593   2.547  -1.765  1.00  0.00     0.016 A 
ATOM     45  C   UNL     1      -7.006   5.013  -3.056  1.00  0.00     0.010 A 
ATOM     46  C   UNL     1      -7.638   2.925  -3.202  1.00  0.00     0.010 A 
ATOM     47  C   UNL     1      -7.433   4.119  -4.075  1.00  0.00    -0.014 A 
BRANCH  47  48
ATOM     48  C   UNL     1      -6.893   4.026  -5.868  1.00  0.00     0.031 A 
ATOM     49  C   UNL     1      -5.519   3.466  -5.600  1.00  0.00     0.074 A 
ATOM     50  C   UNL     1      -7.278   3.812  -7.360  1.00  0.00     0.049 A 
ATOM     51  N   UNL     1      -5.501   2.651  -4.564  1.00  0.00    -0.248 NA
ATOM     52  C   UNL     1      -4.604   2.975  -6.612  1.00  0.00     0.031 C 
ATOM     53  C   UNL     1      -8.615   3.860  -8.015  1.00  0.00     0.029 A 
ATOM     54  N   UNL     1      -6.533   3.333  -8.716  1.00  0.00    -0.354 N 
ATOM     55  C   UNL     1      -5.802   1.518  -5.274  1.00  0.00     0.074 A 
ATOM     56  C   UNL     1      -4.727   1.673  -6.296  1.00  0.00     0.031 C 
ATOM     57  C   UNL     1      -8.687   3.334  -9.283  1.00  0.00     0.029 A 
ATOM     58  C   UNL     1      -7.396   2.859  -9.883  1.00  0.00     0.049 A 
ATOM     59  H   UNL     1      -5.551   3.348  -8.785  1.00  0.00     0.167 HD
ATOM     60  C   UNL     1      -7.075   0.964  -5.507  1.00  0.00     0.034 A 
ATOM     61  C   UNL     1      -7.435   2.325 -11.276  1.00  0.00     0.034 A 
ATOM     62  C   UNL     1      -7.000   0.005  -6.506  1.00  0.00     0.049 A 
ATOM     63  C   UNL     1      -7.856   0.955 -10.819  1.00  0.00     0.074 A 
ATOM     64  C   UNL     1      -6.120  -0.938  -6.941  1.00  0.00     0.029 A 
ATOM     65  N   UNL     1      -8.041   0.078  -7.351  1.00  0.00    -0.354 N 
ATOM     66  N   UNL     1      -9.041   0.419 -10.856  1.00  0.00    -0.248 NA
ATOM     67  C   UNL     1      -6.725   0.030 -10.547  1.00  0.00     0.031 C 
ATOM     68  C   UNL     1      -6.812  -1.600  -7.967  1.00  0.00     0.029 A 
ATOM     69  C   UNL     1      -8.100  -1.044  -8.090  1.00  0.00     0.049 A 
ATOM     70  H   UNL     1      -8.665   0.837  -7.420  1.00  0.00     0.167 HD
ATOM     71  C   UNL     1      -8.789  -0.827 -10.299  1.00  0.00     0.074 A 
ATOM     72  C   UNL     1      -7.413  -1.115 -10.607  1.00  0.00     0.031 C 
ATOM     73  C   UNL     1      -9.207  -1.012  -9.016  1.00  0.00     0.034 A 
BRANCH  60  74
ATOM     74  C   UNL     1      -8.702   1.191  -5.036  1.00  0.00     0.023 A 
ATOM     75  C   UNL     1      -9.460   2.385  -5.235  1.00  0.00     0.012 A 
ATOM     76  C   UNL     1      -9.434   0.185  -4.372  1.00  0.00     0.148 A 
ATOM     77  C   UNL     1     -10.707   2.677  -4.653  1.00  0.00     0.002 A 
ATOM     78  C   UNL     1     -10.725   0.445  -3.839  1.00  0.00     0.091 A 
ATOM     79  F   UNL     1      -8.851  -1.009  -4.205  1.00  0.00    -0.205 F 
ATOM     80  C   UNL     1     -11.333   1.704  -3.922  1.00  0.00     0.022 A 
BRANCH  78  81
ATOM     81  S   UNL     1     -11.694  -0.826  -3.022  1.00  0.00     0.127 S 
ATOM     82  O   UNL     1     -11.301  -0.647  -1.624  1.00  0.00    -0.237 OA
ATOM     83  O   UNL     1     -13.079  -0.452  -3.309  1.00  0.00    -0.237 OA
ATOM     84  O   UNL     1     -11.272  -2.075  -3.644  1.00  0.00    -0.744 OA
ENDBRANCH  78  81
ENDBRANCH  60  74
BRANCH  61  85
ATOM     85  C   UNL     1      -7.005   1.771 -12.921  1.00  0.00     0.023 A 
ATOM     86  C   UNL     1      -7.490   2.495 -14.044  1.00  0.00     0.012 A 
ATOM     87  C   UNL     1      -6.569   0.435 -13.435  1.00  0.00     0.148 A 
ATOM     88  C   UNL     1      -7.419   2.014 -15.429  1.00  0.00     0.002 A 
ATOM     89  C   UNL     1      -6.380   0.007 -14.782  1.00  0.00     0.091 A 
ATOM     90  F   UNL     1      -6.557  -0.636 -12.668  1.00  0.00    -0.205 F 
ATOM     91  C   UNL     1      -6.827   0.803 -15.805  1.00  0.00     0.022 A 
BRANCH  89  92
ATOM     92  S   UNL     1      -5.704  -1.668 -15.202  1.00  0.00     0.127 S 
ATOM     93  O   UNL     1      -6.585  -2.128 -16.277  1.00  0.00    -0.237 OA
ATOM     94  O   UNL     1      -4.347  -1.335 -15.637  1.00  0.00    -0.237 OA
ATOM     95  O   UNL     1      -5.766  -2.477 -13.990  1.00  0.00    -0.744 OA
ENDBRANCH  89  92
ENDBRANCH  61  85
BRANCH  73  96
ATOM     96  C   UNL     1     -10.614  -0.492  -8.789  1.00  0.00     0.023 A 
ATOM     97  C   UNL     1     -11.600  -1.325  -9.329  1.00  0.00     0.012 A 
ATOM     98  C   UNL     1     -11.019   0.784  -8.311  1.00  0.00     0.148 A 
ATOM     99  C   UNL     1     -12.924  -0.907  -9.421  1.00  0.00     0.002 A 
ATOM    100  C   UNL     1     -12.342   1.218  -8.429  1.00  0.00     0.091 A 
ATOM    101  F   UNL     1     -10.105   1.588  -7.770  1.00  0.00    -0.205 F 
ATOM    102  C   UNL     1     -13.293   0.361  -8.984  1.00  0.00     0.022 A 
BRANCH 100 103
ATOM    103  S   UNL     1     -12.909   2.900  -8.066  1.00  0.00     0.127 S 
ATOM    104  O   UNL     1     -13.608   3.268  -9.300  1.00  0.00    -0.237 OA
ATOM    105  O   UNL     1     -13.783   2.718  -6.912  1.00  0.00    -0.237 OA
ATOM    106  O   UNL     1     -11.720   3.703  -7.813  1.00  0.00    -0.744 OA
ENDBRANCH 100 103
ENDBRANCH  73  96
ENDBRANCH  47  48
ENDBRANCH  40  42
ENDBRANCH  39  40
ENDBRANCH  38  39
ENDBRANCH  37  38
ENDBRANCH  36  37
ENDBRANCH  35  36
ENDBRANCH   1  35
TORSDOF 25
