REMARK SMILES CCC(=O)N1CCC[C@](C[C@H]2CC(c3ccc(C)cc3)=NO2)(C(=O)OCCOCCOCCOCCOC(=O)c2ccc(-c3c4nc(c(-c5cccc(S(=O)(=O)[O-])c5F)c5ccc([nH]5)c(-c5cccc(S(=O)(=O)[O-])c5F)c5nc(c(-c6cccc(S(=O)(=O)[O-])c6F)c6ccc3[nH]6)C=C5)C=C4)cc2)C1
REMARK SMILES IDX 31 1 30 2 29 3 28 4 27 5 26 6 25 7 23 8 24 9 9 10 5 11 6 12
REMARK SMILES IDX 103 13 7 14 8 15 3 16 4 17 2 18 1 19 10 20 11 21 12 22 22 23
REMARK SMILES IDX 13 24 21 25 14 26 15 27 20 28 16 29 19 30 17 31 18 32 32 33
REMARK SMILES IDX 33 34 34 35 35 36 36 37 37 38 38 39 39 40 40 41 41 42 102 43
REMARK SMILES IDX 42 44 101 45 43 46 44 47 45 48 95 49 46 50 100 51 94 52
REMARK SMILES IDX 96 53 47 54 99 55 93 56 92 57 48 59 80 60 60 61 79 62 61 63
REMARK SMILES IDX 64 64 78 65 97 66 62 67 63 68 77 70 98 71 65 72 49 73 50 74
REMARK SMILES IDX 58 75 51 76 53 77 59 78 52 79 54 80 55 81 56 82 57 83 81 84
REMARK SMILES IDX 82 85 90 86 83 87 85 88 91 89 84 90 86 91 87 92 88 93 89 94
REMARK SMILES IDX 66 95 67 96 75 97 68 98 70 99 76 100 69 101 71 102 72 103
REMARK SMILES IDX 73 104 74 105
REMARK H PARENT 96 58 64 69
REMARK Flexibility Score: inf
ROOT
ATOM      1  O   UNL     1       5.005  -5.035  -2.208  1.00  0.00    -0.377 OA
ENDROOT
BRANCH   1   2
ATOM      2  C   UNL     1       4.290  -5.387  -0.994  1.00  0.00     0.188 C 
BRANCH   2   3
ATOM      3  C   UNL     1       2.778  -6.171  -0.704  1.00  0.00     0.188 C 
BRANCH   3   4
ATOM      4  O   UNL     1       1.119  -5.735  -0.903  1.00  0.00    -0.376 OA
BRANCH   4   5
ATOM      5  C   UNL     1       0.141  -4.930  -2.134  1.00  0.00     0.202 C 
BRANCH   5   6
ATOM      6  C   UNL     1       0.356  -3.249  -3.043  1.00  0.00     0.261 C 
BRANCH   6   7
ATOM      7  O   UNL     1       1.586  -1.937  -2.828  1.00  0.00    -0.463 OA
BRANCH   7   8
ATOM      8  C   UNL     1       2.269  -1.169  -1.833  1.00  0.00     0.314 C 
ATOM      9  O   UNL     1       2.093  -1.245  -0.604  1.00  0.00    -0.252 OA
BRANCH   8  10
ATOM     10  C   UNL     1       3.538  -0.199  -2.003  1.00  0.00     0.089 C 
ATOM     11  N   UNL     1       2.538   2.224  -1.994  1.00  0.00    -0.342 N 
ATOM     12  C   UNL     1       3.057   2.443  -3.342  1.00  0.00     0.119 C 
ATOM     13  C   UNL     1       3.178   1.143  -1.220  1.00  0.00     0.138 C 
ATOM     14  C   UNL     1       3.226   1.144  -4.115  1.00  0.00     0.023 C 
ATOM     15  C   UNL     1       4.138   0.257  -3.309  1.00  0.00     0.022 C 
BRANCH  11  16
ATOM     16  C   UNL     1       1.746   3.250  -1.481  1.00  0.00     0.222 C 
ATOM     17  O   UNL     1       1.575   4.282  -2.151  1.00  0.00    -0.275 OA
BRANCH  16  18
ATOM     18  C   UNL     1       0.957   3.149  -0.173  1.00  0.00     0.097 C 
ATOM     19  C   UNL     1       1.603   2.640   1.099  1.00  0.00     0.014 C 
ENDBRANCH  16  18
ENDBRANCH  11  16
BRANCH  10  20
ATOM     20  C   UNL     1       4.681  -0.935  -1.101  1.00  0.00     0.069 C 
BRANCH  20  21
ATOM     21  C   UNL     1       6.194  -0.599  -1.060  1.00  0.00     0.212 C 
ATOM     22  C   UNL     1       7.023  -0.759  -2.316  1.00  0.00     0.108 C 
ATOM     23  O   UNL     1       6.472   0.715  -0.562  1.00  0.00    -0.392 OA
ATOM     24  C   UNL     1       7.325   0.675  -2.574  1.00  0.00     0.091 C 
ATOM     25  N   UNL     1       7.106   1.469  -1.576  1.00  0.00    -0.090 NA
BRANCH  24  26
ATOM     26  C   UNL     1       7.791   1.174  -3.885  1.00  0.00    -0.001 A 
ATOM     27  C   UNL     1       7.290   0.627  -5.069  1.00  0.00     0.010 A 
ATOM     28  C   UNL     1       8.598   2.314  -3.933  1.00  0.00     0.010 A 
ATOM     29  C   UNL     1       7.552   1.250  -6.291  1.00  0.00     0.004 A 
ATOM     30  C   UNL     1       8.881   2.919  -5.160  1.00  0.00     0.004 A 
ATOM     31  C   UNL     1       8.329   2.412  -6.344  1.00  0.00    -0.051 A 
ATOM     32  C   UNL     1       8.575   3.106  -7.650  1.00  0.00     0.044 C 
ENDBRANCH  24  26
ENDBRANCH  20  21
ENDBRANCH  10  20
ENDBRANCH   8  10
ENDBRANCH   7   8
ENDBRANCH   6   7
ENDBRANCH   5   6
ENDBRANCH   4   5
ENDBRANCH   3   4
ENDBRANCH   2   3
ENDBRANCH   1   2
BRANCH   1  33
ATOM     33  C   UNL     1       5.323  -5.887  -3.309  1.00  0.00     0.188 C 
BRANCH  33  34
ATOM     34  C   UNL     1       5.942  -7.232  -3.011  1.00  0.00     0.188 C 
BRANCH  34  35
ATOM     35  O   UNL     1       5.187  -7.808  -1.966  1.00  0.00    -0.376 OA
BRANCH  35  36
ATOM     36  C   UNL     1       5.840  -8.833  -1.247  1.00  0.00     0.202 C 
BRANCH  36  37
ATOM     37  C   UNL     1       5.726 -10.169  -1.975  1.00  0.00     0.261 C 
BRANCH  37  38
ATOM     38  O   UNL     1       4.328 -10.422  -2.246  1.00  0.00    -0.460 OA
BRANCH  38  39
ATOM     39  C   UNL     1       3.964 -10.240  -3.554  1.00  0.00     0.338 C 
ATOM     40  O   UNL     1       4.611 -10.638  -4.507  1.00  0.00    -0.246 OA
BRANCH  39  41
ATOM     41  C   UNL     1       2.893  -9.201  -3.627  1.00  0.00     0.060 A 
ATOM     42  C   UNL     1       2.878  -8.307  -4.681  1.00  0.00     0.016 A 
ATOM     43  C   UNL     1       2.067  -8.898  -2.577  1.00  0.00     0.016 A 
ATOM     44  C   UNL     1       2.470  -6.960  -4.466  1.00  0.00     0.010 A 
ATOM     45  C   UNL     1       1.524  -7.588  -2.486  1.00  0.00     0.010 A 
ATOM     46  C   UNL     1       2.037  -6.450  -3.216  1.00  0.00    -0.014 A 
BRANCH  46  47
ATOM     47  C   UNL     1       2.403  -4.731  -2.665  1.00  0.00     0.031 A 
ATOM     48  C   UNL     1       1.876  -3.775  -1.046  1.00  0.00     0.074 A 
ATOM     49  C   UNL     1       2.850  -4.068  -3.781  1.00  0.00     0.049 A 
ATOM     50  N   UNL     1       0.717  -3.072  -1.003  1.00  0.00    -0.248 NA
ATOM     51  C   UNL     1       2.060  -3.913   0.503  1.00  0.00     0.031 C 
ATOM     52  C   UNL     1       3.695  -2.899  -3.899  1.00  0.00     0.029 A 
ATOM     53  N   UNL     1       2.349  -4.188  -5.089  1.00  0.00    -0.354 N 
ATOM     54  C   UNL     1       0.114  -2.731   0.169  1.00  0.00     0.074 A 
ATOM     55  C   UNL     1       0.943  -3.420   1.108  1.00  0.00     0.031 C 
ATOM     56  C   UNL     1       3.397  -2.234  -5.032  1.00  0.00     0.029 A 
ATOM     57  C   UNL     1       2.401  -2.969  -5.738  1.00  0.00     0.049 A 
ATOM     58  H   UNL     1       2.010  -5.023  -5.487  1.00  0.00     0.167 HD
ATOM     59  C   UNL     1      -0.945  -1.840   0.215  1.00  0.00     0.034 A 
ATOM     60  C   UNL     1       1.731  -2.512  -6.812  1.00  0.00     0.034 A 
ATOM     61  C   UNL     1      -1.014  -0.936  -0.959  1.00  0.00     0.049 A 
ATOM     62  C   UNL     1       0.672  -1.488  -6.481  1.00  0.00     0.074 A 
ATOM     63  C   UNL     1      -0.208   0.169  -1.137  1.00  0.00     0.029 A 
ATOM     64  N   UNL     1      -1.792  -0.995  -2.120  1.00  0.00    -0.354 N 
ATOM     65  N   UNL     1       0.104  -1.290  -5.320  1.00  0.00    -0.248 NA
ATOM     66  C   UNL     1       0.209  -0.549  -7.501  1.00  0.00     0.031 C 
ATOM     67  C   UNL     1      -0.256   0.590  -2.461  1.00  0.00     0.029 A 
ATOM     68  C   UNL     1      -1.226  -0.149  -3.095  1.00  0.00     0.049 A 
ATOM     69  H   UNL     1      -2.604  -1.540  -2.238  1.00  0.00     0.167 HD
ATOM     70  C   UNL     1      -0.858  -0.292  -5.448  1.00  0.00     0.074 A 
ATOM     71  C   UNL     1      -0.697   0.170  -6.819  1.00  0.00     0.031 C 
ATOM     72  C   UNL     1      -1.701   0.128  -4.440  1.00  0.00     0.034 A 
BRANCH  59  73
ATOM     73  C   UNL     1      -1.477  -1.367   1.561  1.00  0.00     0.023 A 
ATOM     74  C   UNL     1      -1.575   0.025   1.812  1.00  0.00     0.012 A 
ATOM     75  C   UNL     1      -1.809  -2.231   2.622  1.00  0.00     0.148 A 
ATOM     76  C   UNL     1      -1.816   0.541   3.086  1.00  0.00     0.002 A 
ATOM     77  C   UNL     1      -2.033  -1.715   3.904  1.00  0.00     0.091 A 
ATOM     78  F   UNL     1      -1.885  -3.546   2.375  1.00  0.00    -0.205 F 
ATOM     79  C   UNL     1      -2.010  -0.332   4.142  1.00  0.00     0.022 A 
BRANCH  77  80
ATOM     80  S   UNL     1      -2.245  -2.756   5.355  1.00  0.00     0.127 S 
ATOM     81  O   UNL     1      -1.085  -2.381   6.166  1.00  0.00    -0.237 OA
ATOM     82  O   UNL     1      -3.529  -2.304   5.890  1.00  0.00    -0.237 OA
ATOM     83  O   UNL     1      -2.228  -4.131   4.876  1.00  0.00    -0.744 OA
ENDBRANCH  77  80
ENDBRANCH  59  73
BRANCH  60  84
ATOM     84  C   UNL     1       1.740  -3.533  -7.884  1.00  0.00     0.023 A 
ATOM     85  C   UNL     1       3.020  -3.737  -8.466  1.00  0.00     0.012 A 
ATOM     86  C   UNL     1       0.806  -4.571  -7.906  1.00  0.00     0.148 A 
ATOM     87  C   UNL     1       3.421  -5.002  -8.887  1.00  0.00     0.002 A 
ATOM     88  C   UNL     1       1.224  -5.838  -8.305  1.00  0.00     0.091 A 
ATOM     89  F   UNL     1      -0.413  -4.345  -7.400  1.00  0.00    -0.205 F 
ATOM     90  C   UNL     1       2.534  -6.063  -8.766  1.00  0.00     0.022 A 
BRANCH  88  91
ATOM     91  S   UNL     1       0.185  -7.265  -7.976  1.00  0.00     0.127 S 
ATOM     92  O   UNL     1      -0.617  -7.330  -9.197  1.00  0.00    -0.237 OA
ATOM     93  O   UNL     1       1.162  -8.343  -7.822  1.00  0.00    -0.237 OA
ATOM     94  O   UNL     1      -0.510  -6.909  -6.750  1.00  0.00    -0.744 OA
ENDBRANCH  88  91
ENDBRANCH  60  84
BRANCH  72  95
ATOM     95  C   UNL     1      -2.847   1.142  -4.573  1.00  0.00     0.023 A 
ATOM     96  C   UNL     1      -3.479   1.424  -5.798  1.00  0.00     0.012 A 
ATOM     97  C   UNL     1      -3.406   1.776  -3.422  1.00  0.00     0.148 A 
ATOM     98  C   UNL     1      -4.564   2.310  -5.889  1.00  0.00     0.002 A 
ATOM     99  C   UNL     1      -4.548   2.567  -3.503  1.00  0.00     0.091 A 
ATOM    100  F   UNL     1      -2.822   1.647  -2.225  1.00  0.00    -0.205 F 
ATOM    101  C   UNL     1      -5.116   2.860  -4.740  1.00  0.00     0.022 A 
BRANCH  99 102
ATOM    102  S   UNL     1      -5.431   3.102  -2.025  1.00  0.00     0.127 S 
ATOM    103  O   UNL     1      -5.078   4.518  -1.953  1.00  0.00    -0.237 OA
ATOM    104  O   UNL     1      -6.823   2.839  -2.395  1.00  0.00    -0.237 OA
ATOM    105  O   UNL     1      -4.936   2.265  -0.941  1.00  0.00    -0.744 OA
ENDBRANCH  99 102
ENDBRANCH  72  95
ENDBRANCH  46  47
ENDBRANCH  39  41
ENDBRANCH  38  39
ENDBRANCH  37  38
ENDBRANCH  36  37
ENDBRANCH  35  36
ENDBRANCH  34  35
ENDBRANCH  33  34
ENDBRANCH   1  33
TORSDOF 28
