REMARK SMILES Cc1oc(-c2ccc(Cl)cc2[N+](=O)[O-])cc1C(=O)Nc1ccc(C(=O)OCCOCCOCCOCCOC(=O)c2ccc(-c3c4nc(c(-c5cccc(S(=O)(=O)[O-])c5F)c5ccc([nH]5)c(-c5cccc(S(=O)(=O)[O-])c5F)c5nc(c(-c6cccc(S(=O)(=O)[O-])c6F)c6ccc3[nH]6)C=C5)C=C4)cc2)cc1
REMARK SMILES IDX 31 1 30 2 29 3 28 4 27 5 26 6 24 7 25 8 23 9 20 10 21 11
REMARK SMILES IDX 105 12 22 13 104 14 19 15 17 16 18 17 16 19 1 20 2 21 3 22
REMARK SMILES IDX 4 23 15 24 5 25 6 26 11 27 7 28 10 29 8 30 9 31 12 32 13 33
REMARK SMILES IDX 14 34 32 35 33 36 34 37 35 38 36 39 37 40 38 41 39 42 40 43
REMARK SMILES IDX 41 44 42 45 103 46 43 47 102 48 44 49 45 50 46 51 96 52
REMARK SMILES IDX 47 53 101 54 95 55 97 56 48 57 100 58 94 59 93 60 49 62
REMARK SMILES IDX 81 63 61 64 80 65 62 66 65 67 79 68 98 69 63 70 64 71 78 73
REMARK SMILES IDX 99 74 66 75 50 76 51 77 59 78 52 79 54 80 60 81 53 82 55 83
REMARK SMILES IDX 56 84 57 85 58 86 82 87 83 88 91 89 84 90 86 91 92 92 85 93
REMARK SMILES IDX 87 94 88 95 89 96 90 97 67 98 68 99 76 100 69 101 71 102
REMARK SMILES IDX 77 103 70 104 72 105 73 106 74 107 75 108
REMARK H PARENT 19 18 97 61 65 72
REMARK Flexibility Score: inf
ROOT
ATOM      1  C   UNL     1       7.150  -0.277   1.696  1.00  0.00     0.188 C 
ENDROOT
BRANCH   1   2
ATOM      2  C   UNL     1       7.814  -0.015   0.330  1.00  0.00     0.188 C 
BRANCH   2   3
ATOM      3  O   UNL     1       8.509   1.192   0.073  1.00  0.00    -0.376 OA
BRANCH   3   4
ATOM      4  C   UNL     1       7.939   2.489   0.186  1.00  0.00     0.202 C 
BRANCH   4   5
ATOM      5  C   UNL     1       6.446   2.851   0.094  1.00  0.00     0.261 C 
BRANCH   5   6
ATOM      6  O   UNL     1       5.526   1.825   0.431  1.00  0.00    -0.460 OA
BRANCH   6   7
ATOM      7  C   UNL     1       5.100   1.094  -0.612  1.00  0.00     0.338 C 
ATOM      8  O   UNL     1       5.326   1.288  -1.796  1.00  0.00    -0.246 OA
BRANCH   7   9
ATOM      9  C   UNL     1       4.420  -0.121  -0.117  1.00  0.00     0.060 A 
ATOM     10  C   UNL     1       2.639  -2.161   0.261  1.00  0.00     0.041 A 
ATOM     11  C   UNL     1       3.644  -2.328  -0.691  1.00  0.00     0.027 A 
ATOM     12  C   UNL     1       2.703  -1.140   1.211  1.00  0.00     0.027 A 
ATOM     13  C   UNL     1       4.512  -1.270  -0.915  1.00  0.00     0.018 A 
ATOM     14  C   UNL     1       3.622  -0.111   1.034  1.00  0.00     0.018 A 
BRANCH  10  15
ATOM     15  N   UNL     1       1.495  -2.931   0.088  1.00  0.00    -0.322 N 
ATOM     16  C   UNL     1       0.177  -2.525   0.034  1.00  0.00     0.259 C 
ATOM     17  O   UNL     1      -0.665  -3.427  -0.025  1.00  0.00    -0.269 OA
ATOM     18  H   UNL     1       1.646  -3.899  -0.009  1.00  0.00     0.170 HD
BRANCH  16  19
ATOM     19  C   UNL     1      -0.256  -1.121  -0.022  1.00  0.00     0.081 A 
ATOM     20  C   UNL     1       1.494   0.476  -1.310  1.00  0.00     0.088 C 
ATOM     21  C   UNL     1       0.316   0.041  -0.539  1.00  0.00     0.114 A 
ATOM     22  O   UNL     1      -0.512   1.097  -0.351  1.00  0.00    -0.460 OA
ATOM     23  C   UNL     1      -1.710   0.627   0.039  1.00  0.00     0.142 A 
ATOM     24  C   UNL     1      -1.599  -0.712   0.326  1.00  0.00     0.065 A 
BRANCH  23  25
ATOM     25  C   UNL     1      -2.756   1.627   0.014  1.00  0.00     0.095 A 
ATOM     26  C   UNL     1      -3.663   1.689   1.080  1.00  0.00     0.021 A 
ATOM     27  C   UNL     1      -2.873   2.588  -1.015  1.00  0.00     0.281 A 
ATOM     28  C   UNL     1      -4.643   2.687   1.121  1.00  0.00     0.022 A 
ATOM     29  C   UNL     1      -3.848   3.594  -0.975  1.00  0.00     0.107 A 
ATOM     30  C   UNL     1      -4.728   3.632   0.099  1.00  0.00     0.047 A 
ATOM     31  Cl  UNL     1      -5.947   4.843   0.153  1.00  0.00    -0.084 Cl
BRANCH  27  32
ATOM     32  N   UNL     1      -2.027   2.548  -2.208  1.00  0.00     0.063 N 
ATOM     33  O   UNL     1      -1.556   3.625  -2.602  1.00  0.00    -0.258 OA
ATOM     34  O   UNL     1      -1.922   1.468  -2.808  1.00  0.00    -0.258 OA
ENDBRANCH  27  32
ENDBRANCH  23  25
ENDBRANCH  16  19
ENDBRANCH  10  15
ENDBRANCH   7   9
ENDBRANCH   6   7
ENDBRANCH   5   6
ENDBRANCH   4   5
ENDBRANCH   3   4
ENDBRANCH   2   3
ENDBRANCH   1   2
BRANCH   1  35
ATOM     35  O   UNL     1       6.925   0.878   2.471  1.00  0.00    -0.377 OA
BRANCH  35  36
ATOM     36  C   UNL     1       7.980   1.323   3.314  1.00  0.00     0.188 C 
BRANCH  36  37
ATOM     37  C   UNL     1       9.444   0.933   3.006  1.00  0.00     0.188 C 
BRANCH  37  38
ATOM     38  O   UNL     1       9.642  -0.395   2.539  1.00  0.00    -0.376 OA
BRANCH  38  39
ATOM     39  C   UNL     1      10.050  -1.400   3.453  1.00  0.00     0.202 C 
BRANCH  39  40
ATOM     40  C   UNL     1       9.081  -1.774   4.588  1.00  0.00     0.261 C 
BRANCH  40  41
ATOM     41  O   UNL     1       8.691  -0.700   5.452  1.00  0.00    -0.460 OA
BRANCH  41  42
ATOM     42  C   UNL     1       9.678  -0.079   6.129  1.00  0.00     0.338 C 
ATOM     43  O   UNL     1      10.865  -0.376   6.129  1.00  0.00    -0.246 OA
BRANCH  42  44
ATOM     44  C   UNL     1       9.132   1.156   6.719  1.00  0.00     0.060 A 
ATOM     45  C   UNL     1       9.735   2.376   6.387  1.00  0.00     0.016 A 
ATOM     46  C   UNL     1       8.050   1.115   7.602  1.00  0.00     0.016 A 
ATOM     47  C   UNL     1       9.305   3.551   6.994  1.00  0.00     0.010 A 
ATOM     48  C   UNL     1       7.630   2.293   8.224  1.00  0.00     0.010 A 
ATOM     49  C   UNL     1       8.294   3.505   7.962  1.00  0.00    -0.014 A 
BRANCH  49  50
ATOM     50  C   UNL     1       8.107   4.678   8.847  1.00  0.00     0.031 A 
ATOM     51  C   UNL     1       8.750   4.657  10.207  1.00  0.00     0.074 A 
ATOM     52  C   UNL     1       7.438   5.766   8.430  1.00  0.00     0.049 A 
ATOM     53  N   UNL     1       8.783   5.587  11.125  1.00  0.00    -0.248 NA
ATOM     54  C   UNL     1       9.455   3.419  10.582  1.00  0.00     0.031 C 
ATOM     55  C   UNL     1       6.790   5.913   7.128  1.00  0.00     0.029 A 
ATOM     56  N   UNL     1       7.192   6.956   9.067  1.00  0.00    -0.354 N 
ATOM     57  C   UNL     1       9.489   5.042  12.191  1.00  0.00     0.074 A 
ATOM     58  C   UNL     1       9.842   3.690  11.818  1.00  0.00     0.031 C 
ATOM     59  C   UNL     1       6.213   7.125   7.065  1.00  0.00     0.029 A 
ATOM     60  C   UNL     1       6.433   7.829   8.327  1.00  0.00     0.049 A 
ATOM     61  H   UNL     1       7.529   7.164   9.969  1.00  0.00     0.167 HD
ATOM     62  C   UNL     1       9.831   5.617  13.368  1.00  0.00     0.034 A 
ATOM     63  C   UNL     1       5.964   9.054   8.640  1.00  0.00     0.034 A 
ATOM     64  C   UNL     1       9.479   6.962  13.734  1.00  0.00     0.049 A 
ATOM     65  C   UNL     1       6.316   9.658   9.974  1.00  0.00     0.074 A 
ATOM     66  C   UNL     1       9.801   7.652  14.888  1.00  0.00     0.029 A 
ATOM     67  N   UNL     1       8.708   7.815  12.959  1.00  0.00    -0.354 N 
ATOM     68  N   UNL     1       7.067   9.169  10.932  1.00  0.00    -0.248 NA
ATOM     69  C   UNL     1       5.785  11.000  10.256  1.00  0.00     0.031 C 
ATOM     70  C   UNL     1       9.187   8.908  14.830  1.00  0.00     0.029 A 
ATOM     71  C   UNL     1       8.528   9.020  13.616  1.00  0.00     0.049 A 
ATOM     72  H   UNL     1       8.342   7.596  12.072  1.00  0.00     0.167 HD
ATOM     73  C   UNL     1       7.139  10.160  11.907  1.00  0.00     0.074 A 
ATOM     74  C   UNL     1       6.360  11.280  11.418  1.00  0.00     0.031 C 
ATOM     75  C   UNL     1       7.788  10.143  13.098  1.00  0.00     0.034 A 
BRANCH  62  76
ATOM     76  C   UNL     1      10.628   4.784  14.339  1.00  0.00     0.023 A 
ATOM     77  C   UNL     1      11.964   4.440  14.043  1.00  0.00     0.012 A 
ATOM     78  C   UNL     1      10.060   4.353  15.553  1.00  0.00     0.148 A 
ATOM     79  C   UNL     1      12.702   3.638  14.913  1.00  0.00     0.002 A 
ATOM     80  C   UNL     1      10.819   3.598  16.440  1.00  0.00     0.091 A 
ATOM     81  F   UNL     1       8.783   4.669  15.810  1.00  0.00    -0.205 F 
ATOM     82  C   UNL     1      12.133   3.225  16.114  1.00  0.00     0.022 A 
BRANCH  80  83
ATOM     83  S   UNL     1      10.203   3.088  18.047  1.00  0.00     0.127 S 
ATOM     84  O   UNL     1      10.014   1.652  17.849  1.00  0.00    -0.237 OA
ATOM     85  O   UNL     1      11.316   3.441  18.929  1.00  0.00    -0.237 OA
ATOM     86  O   UNL     1       8.985   3.855  18.272  1.00  0.00    -0.744 OA
ENDBRANCH  80  83
ENDBRANCH  62  76
BRANCH  63  87
ATOM     87  C   UNL     1       5.150   9.811   7.648  1.00  0.00     0.023 A 
ATOM     88  C   UNL     1       5.686  10.963   7.041  1.00  0.00     0.012 A 
ATOM     89  C   UNL     1       3.859   9.380   7.286  1.00  0.00     0.148 A 
ATOM     90  C   UNL     1       4.941  11.688   6.110  1.00  0.00     0.002 A 
ATOM     91  C   UNL     1       3.144  10.075   6.318  1.00  0.00     0.091 A 
ATOM     92  F   UNL     1       3.365   8.288   7.884  1.00  0.00    -0.205 F 
ATOM     93  C   UNL     1       3.676  11.239   5.741  1.00  0.00     0.022 A 
BRANCH  91  94
ATOM     94  S   UNL     1       1.561   9.505   5.691  1.00  0.00     0.127 S 
ATOM     95  O   UNL     1       0.665  10.576   6.122  1.00  0.00    -0.237 OA
ATOM     96  O   UNL     1       1.813   9.454   4.250  1.00  0.00    -0.237 OA
ATOM     97  O   UNL     1       1.331   8.208   6.311  1.00  0.00    -0.744 OA
ENDBRANCH  91  94
ENDBRANCH  63  87
BRANCH  75  98
ATOM     98  C   UNL     1       7.740  11.393  13.942  1.00  0.00     0.023 A 
ATOM     99  C   UNL     1       6.545  11.775  14.582  1.00  0.00     0.012 A 
ATOM    100  C   UNL     1       8.910  12.149  14.157  1.00  0.00     0.148 A 
ATOM    101  C   UNL     1       6.506  12.912  15.390  1.00  0.00     0.002 A 
ATOM    102  C   UNL     1       8.877  13.247  15.007  1.00  0.00     0.091 A 
ATOM    103  F   UNL     1      10.035  11.779  13.527  1.00  0.00    -0.205 F 
ATOM    104  C   UNL     1       7.673  13.639  15.612  1.00  0.00     0.022 A 
BRANCH 102 105
ATOM    105  S   UNL     1      10.352  14.181  15.433  1.00  0.00     0.127 S 
ATOM    106  O   UNL     1      10.115  15.444  14.736  1.00  0.00    -0.237 OA
ATOM    107  O   UNL     1      10.256  14.261  16.891  1.00  0.00    -0.237 OA
ATOM    108  O   UNL     1      11.479  13.400  14.942  1.00  0.00    -0.744 OA
ENDBRANCH 102 105
ENDBRANCH  75  98
ENDBRANCH  49  50
ENDBRANCH  42  44
ENDBRANCH  41  42
ENDBRANCH  40  41
ENDBRANCH  39  40
ENDBRANCH  38  39
ENDBRANCH  37  38
ENDBRANCH  36  37
ENDBRANCH  35  36
ENDBRANCH   1  35
TORSDOF 27
