REMARK SMILES CS(=O)(=O)c1ccc(/C=C(/C(=O)OCCOCCOCCOCCOC(=O)c2ccc(-c3c4nc(c(-c5cccc(S(=O)(=O)[O-])c5F)c5ccc([nH]5)c(-c5cccc(S(=O)(=O)[O-])c5F)c5nc(c(-c6cccc(S(=O)(=O)[O-])c6F)c6ccc3[nH]6)C=C5)C=C4)cc2)c2cccc(Br)c2)cc1
REMARK SMILES IDX 20 1 19 2 18 3 17 4 16 5 15 6 14 7 13 8 11 9 12 10 10 11
REMARK SMILES IDX 9 12 8 13 5 14 6 15 99 16 7 17 98 18 2 19 1 20 3 21 4 22
REMARK SMILES IDX 91 23 92 24 97 25 93 26 95 27 94 28 96 29 21 30 22 31 23 32
REMARK SMILES IDX 24 33 25 34 26 35 27 36 28 37 29 38 90 39 30 40 89 41 31 42
REMARK SMILES IDX 32 43 33 44 83 45 34 46 88 47 82 48 84 49 35 50 87 51 81 52
REMARK SMILES IDX 80 53 36 55 68 56 48 57 67 58 49 59 52 60 66 61 85 62 50 63
REMARK SMILES IDX 51 64 65 66 86 67 53 68 37 69 38 70 46 71 39 72 41 73 47 74
REMARK SMILES IDX 40 75 42 76 43 77 44 78 45 79 69 80 70 81 78 82 71 83 73 84
REMARK SMILES IDX 79 85 72 86 74 87 75 88 76 89 77 90 54 91 55 92 63 93 56 94
REMARK SMILES IDX 58 95 64 96 57 97 59 98 60 99 61 100 62 101
REMARK H PARENT 84 54 52 65
REMARK Flexibility Score: inf
ROOT
ATOM      1  C   UNL     1       4.402 -10.923   3.191  1.00  0.00     0.188 C 
ENDROOT
BRANCH   1   2
ATOM      2  O   UNL     1       3.748  -9.691   2.910  1.00  0.00    -0.377 OA
BRANCH   2   3
ATOM      3  C   UNL     1       2.345  -9.671   2.723  1.00  0.00     0.188 C 
BRANCH   3   4
ATOM      4  C   UNL     1       1.683 -10.755   1.841  1.00  0.00     0.188 C 
BRANCH   4   5
ATOM      5  O   UNL     1       2.581 -11.736   1.356  1.00  0.00    -0.376 OA
BRANCH   5   6
ATOM      6  C   UNL     1       2.958 -11.669  -0.007  1.00  0.00     0.202 C 
BRANCH   6   7
ATOM      7  C   UNL     1       3.621 -10.384  -0.533  1.00  0.00     0.261 C 
BRANCH   7   8
ATOM      8  O   UNL     1       3.046  -9.143  -0.092  1.00  0.00    -0.460 OA
BRANCH   8   9
ATOM      9  C   UNL     1       1.886  -8.746  -0.663  1.00  0.00     0.338 C 
ATOM     10  O   UNL     1       1.289  -9.348  -1.544  1.00  0.00    -0.246 OA
BRANCH   9  11
ATOM     11  C   UNL     1       1.329  -7.543   0.052  1.00  0.00     0.067 C 
ATOM     12  C   UNL     1       2.178  -6.570   0.471  1.00  0.00     0.024 C 
BRANCH  12  13
ATOM     13  C   UNL     1       1.864  -5.225   1.019  1.00  0.00    -0.025 A 
ATOM     14  C   UNL     1       1.173  -2.549   1.531  1.00  0.00     0.067 A 
ATOM     15  C   UNL     1       0.306  -3.571   1.902  1.00  0.00     0.021 A 
ATOM     16  C   UNL     1       2.441  -2.851   1.036  1.00  0.00     0.021 A 
ATOM     17  C   UNL     1       0.679  -4.900   1.691  1.00  0.00     0.009 A 
ATOM     18  C   UNL     1       2.778  -4.187   0.778  1.00  0.00     0.009 A 
BRANCH  14  19
ATOM     19  S   UNL     1       0.597  -0.872   1.609  1.00  0.00     0.175 S 
ATOM     20  C   UNL     1       1.145  -0.117   0.100  1.00  0.00     0.163 C 
ATOM     21  O   UNL     1       1.275  -0.236   2.719  1.00  0.00    -0.224 OA
ATOM     22  O   UNL     1      -0.854  -0.912   1.546  1.00  0.00    -0.224 OA
ENDBRANCH  14  19
ENDBRANCH  12  13
BRANCH  11  23
ATOM     23  C   UNL     1      -0.137  -7.479   0.241  1.00  0.00    -0.010 A 
ATOM     24  C   UNL     1      -0.736  -8.131   1.336  1.00  0.00     0.009 A 
ATOM     25  C   UNL     1      -0.929  -6.674  -0.580  1.00  0.00     0.024 A 
ATOM     26  C   UNL     1      -2.094  -7.979   1.613  1.00  0.00     0.002 A 
ATOM     27  C   UNL     1      -2.283  -6.504  -0.282  1.00  0.00     0.018 A 
ATOM     28  C   UNL     1      -2.869  -7.154   0.806  1.00  0.00     0.016 A 
ATOM     29  Br  UNL     1      -3.324  -5.323  -1.327  1.00  0.00    -0.051 Br
ENDBRANCH  11  23
ENDBRANCH   9  11
ENDBRANCH   8   9
ENDBRANCH   7   8
ENDBRANCH   6   7
ENDBRANCH   5   6
ENDBRANCH   4   5
ENDBRANCH   3   4
ENDBRANCH   2   3
ENDBRANCH   1   2
BRANCH   1  30
ATOM     30  C   UNL     1       3.652 -12.066   3.916  1.00  0.00     0.188 C 
BRANCH  30  31
ATOM     31  O   UNL     1       2.370 -11.721   4.418  1.00  0.00    -0.376 OA
BRANCH  31  32
ATOM     32  C   UNL     1       2.241 -11.519   5.814  1.00  0.00     0.202 C 
BRANCH  32  33
ATOM     33  C   UNL     1       3.033 -10.359   6.434  1.00  0.00     0.261 C 
BRANCH  33  34
ATOM     34  O   UNL     1       4.446 -10.354   6.189  1.00  0.00    -0.460 OA
BRANCH  34  35
ATOM     35  C   UNL     1       5.170 -11.383   6.678  1.00  0.00     0.338 C 
ATOM     36  O   UNL     1       4.755 -12.332   7.328  1.00  0.00    -0.246 OA
BRANCH  35  37
ATOM     37  C   UNL     1       6.529 -11.271   6.115  1.00  0.00     0.060 A 
ATOM     38  C   UNL     1       7.022 -12.301   5.303  1.00  0.00     0.016 A 
ATOM     39  C   UNL     1       7.296 -10.129   6.358  1.00  0.00     0.016 A 
ATOM     40  C   UNL     1       8.300 -12.204   4.754  1.00  0.00     0.010 A 
ATOM     41  C   UNL     1       8.584 -10.045   5.829  1.00  0.00     0.010 A 
ATOM     42  C   UNL     1       9.104 -11.097   5.055  1.00  0.00    -0.014 A 
BRANCH  42  43
ATOM     43  C   UNL     1      10.551 -11.133   4.742  1.00  0.00     0.031 A 
ATOM     44  C   UNL     1      11.501 -11.520   5.841  1.00  0.00     0.074 A 
ATOM     45  C   UNL     1      11.015 -10.819   3.521  1.00  0.00     0.049 A 
ATOM     46  N   UNL     1      12.806 -11.584   5.826  1.00  0.00    -0.248 NA
ATOM     47  C   UNL     1      10.894 -11.877   7.134  1.00  0.00     0.031 C 
ATOM     48  C   UNL     1      10.193 -10.443   2.373  1.00  0.00     0.029 A 
ATOM     49  N   UNL     1      12.304 -10.745   3.054  1.00  0.00    -0.354 N 
ATOM     50  C   UNL     1      13.178 -11.951   7.114  1.00  0.00     0.074 A 
ATOM     51  C   UNL     1      11.963 -12.085   7.886  1.00  0.00     0.031 C 
ATOM     52  C   UNL     1      11.001 -10.153   1.338  1.00  0.00     0.029 A 
ATOM     53  C   UNL     1      12.394 -10.294   1.760  1.00  0.00     0.049 A 
ATOM     54  H   UNL     1      13.089 -10.992   3.596  1.00  0.00     0.167 HD
ATOM     55  C   UNL     1      14.419 -12.165   7.609  1.00  0.00     0.034 A 
ATOM     56  C   UNL     1      13.479 -10.004   1.013  1.00  0.00     0.034 A 
ATOM     57  C   UNL     1      15.624 -12.035   6.836  1.00  0.00     0.049 A 
ATOM     58  C   UNL     1      14.853 -10.212   1.597  1.00  0.00     0.074 A 
ATOM     59  C   UNL     1      16.927 -12.280   7.228  1.00  0.00     0.029 A 
ATOM     60  N   UNL     1      15.676 -11.597   5.522  1.00  0.00    -0.354 N 
ATOM     61  N   UNL     1      15.190 -10.670   2.778  1.00  0.00    -0.248 NA
ATOM     62  C   UNL     1      15.998  -9.891   0.732  1.00  0.00     0.031 C 
ATOM     63  C   UNL     1      17.772 -11.944   6.165  1.00  0.00     0.029 A 
ATOM     64  C   UNL     1      16.991 -11.541   5.093  1.00  0.00     0.049 A 
ATOM     65  H   UNL     1      14.893 -11.361   4.974  1.00  0.00     0.167 HD
ATOM     66  C   UNL     1      16.580 -10.731   2.785  1.00  0.00     0.074 A 
ATOM     67  C   UNL     1      17.022 -10.275   1.483  1.00  0.00     0.031 C 
ATOM     68  C   UNL     1      17.416 -11.124   3.780  1.00  0.00     0.034 A 
BRANCH  55  69
ATOM     69  C   UNL     1      14.529 -12.554   9.060  1.00  0.00     0.023 A 
ATOM     70  C   UNL     1      14.081 -13.820   9.490  1.00  0.00     0.012 A 
ATOM     71  C   UNL     1      15.094 -11.667   9.997  1.00  0.00     0.148 A 
ATOM     72  C   UNL     1      14.150 -14.179  10.836  1.00  0.00     0.002 A 
ATOM     73  C   UNL     1      15.208 -12.052  11.327  1.00  0.00     0.091 A 
ATOM     74  F   UNL     1      15.490 -10.458   9.576  1.00  0.00    -0.205 F 
ATOM     75  C   UNL     1      14.722 -13.300  11.751  1.00  0.00     0.022 A 
BRANCH  73  76
ATOM     76  S   UNL     1      16.004 -11.024  12.565  1.00  0.00     0.127 S 
ATOM     77  O   UNL     1      14.862 -10.594  13.370  1.00  0.00    -0.237 OA
ATOM     78  O   UNL     1      16.894 -11.977  13.229  1.00  0.00    -0.237 OA
ATOM     79  O   UNL     1      16.686  -9.967  11.831  1.00  0.00    -0.744 OA
ENDBRANCH  73  76
ENDBRANCH  55  69
BRANCH  56  80
ATOM     80  C   UNL     1      13.309  -9.520  -0.387  1.00  0.00     0.023 A 
ATOM     81  C   UNL     1      13.687 -10.351  -1.459  1.00  0.00     0.012 A 
ATOM     82  C   UNL     1      12.755  -8.254  -0.660  1.00  0.00     0.148 A 
ATOM     83  C   UNL     1      13.540  -9.920  -2.778  1.00  0.00     0.002 A 
ATOM     84  C   UNL     1      12.559  -7.854  -1.976  1.00  0.00     0.091 A 
ATOM     85  F   UNL     1      12.413  -7.475   0.375  1.00  0.00    -0.205 F 
ATOM     86  C   UNL     1      12.967  -8.677  -3.037  1.00  0.00     0.022 A 
BRANCH  84  87
ATOM     87  S   UNL     1      11.717  -6.328  -2.410  1.00  0.00     0.127 S 
ATOM     88  O   UNL     1      12.776  -5.582  -3.086  1.00  0.00    -0.237 OA
ATOM     89  O   UNL     1      10.651  -6.815  -3.286  1.00  0.00    -0.237 OA
ATOM     90  O   UNL     1      11.252  -5.757  -1.154  1.00  0.00    -0.744 OA
ENDBRANCH  84  87
ENDBRANCH  56  80
BRANCH  68  91
ATOM     91  C   UNL     1      18.897 -11.129   3.495  1.00  0.00     0.023 A 
ATOM     92  C   UNL     1      19.600  -9.914   3.369  1.00  0.00     0.012 A 
ATOM     93  C   UNL     1      19.607 -12.346   3.430  1.00  0.00     0.148 A 
ATOM     94  C   UNL     1      20.977  -9.912   3.147  1.00  0.00     0.002 A 
ATOM     95  C   UNL     1      20.986 -12.334   3.264  1.00  0.00     0.091 A 
ATOM     96  F   UNL     1      18.919 -13.492   3.538  1.00  0.00    -0.205 F 
ATOM     97  C   UNL     1      21.671 -11.119   3.107  1.00  0.00     0.022 A 
BRANCH  95  98
ATOM     98  S   UNL     1      21.976 -13.833   3.303  1.00  0.00     0.127 S 
ATOM     99  O   UNL     1      22.402 -13.944   1.909  1.00  0.00    -0.237 OA
ATOM    100  O   UNL     1      23.041 -13.476   4.240  1.00  0.00    -0.237 OA
ATOM    101  O   UNL     1      21.089 -14.891   3.768  1.00  0.00    -0.744 OA
ENDBRANCH  95  98
ENDBRANCH  68  91
ENDBRANCH  42  43
ENDBRANCH  35  37
ENDBRANCH  34  35
ENDBRANCH  33  34
ENDBRANCH  32  33
ENDBRANCH  31  32
ENDBRANCH  30  31
ENDBRANCH   1  30
TORSDOF 26
