REMARK SMILES C[C@@H]1C[C@@H]1C(=O)NCCC(=O)N[C@@](C)(C(=O)OCCOCCOCCOCCOC(=O)c1ccc(-c2c3nc(c(-c4cccc(S(=O)(=O)[O-])c4F)c4ccc([nH]4)c(-c4cccc(S(=O)(=O)[O-])c4F)c4nc(c(-c5cccc(S(=O)(=O)[O-])c5F)c5ccc2[nH]5)C=C4)C=C3)cc1)C(F)(F)F
REMARK SMILES IDX 22 1 21 2 20 3 19 4 18 5 17 6 15 7 16 8 13 9 14 10 12 11
REMARK SMILES IDX 10 12 11 13 9 15 8 16 7 17 5 18 6 19 4 21 1 22 2 23 3 24
REMARK SMILES IDX 95 25 96 26 97 27 98 28 23 29 24 30 25 31 26 32 27 33 28 34
REMARK SMILES IDX 29 35 30 36 31 37 32 38 33 39 94 40 34 41 93 42 35 43 36 44
REMARK SMILES IDX 37 45 87 46 38 47 92 48 86 49 88 50 39 51 91 52 85 53 84 54
REMARK SMILES IDX 40 56 72 57 52 58 71 59 53 60 56 61 70 62 89 63 54 64 55 65
REMARK SMILES IDX 69 67 90 68 57 69 41 70 42 71 50 72 43 73 45 74 51 75 44 76
REMARK SMILES IDX 46 77 47 78 48 79 49 80 73 81 74 82 82 83 75 84 77 85 83 86
REMARK SMILES IDX 76 87 78 88 79 89 80 90 81 91 58 92 59 93 67 94 60 95 62 96
REMARK SMILES IDX 68 97 61 98 63 99 64 100 65 101 66 102
REMARK H PARENT 12 14 7 20 88 55 56 66
REMARK Flexibility Score: inf
ROOT
ATOM      1  C   UNL     1       6.927   2.752   1.417  1.00  0.00     0.188 C 
ENDROOT
BRANCH   1   2
ATOM      2  C   UNL     1       6.701   1.252   1.147  1.00  0.00     0.188 C 
BRANCH   2   3
ATOM      3  O   UNL     1       7.864   0.594   0.668  1.00  0.00    -0.376 OA
BRANCH   3   4
ATOM      4  C   UNL     1       7.963   0.403  -0.735  1.00  0.00     0.202 C 
BRANCH   4   5
ATOM      5  C   UNL     1       7.812   1.597  -1.704  1.00  0.00     0.261 C 
BRANCH   5   6
ATOM      6  O   UNL     1       6.817   2.582  -1.355  1.00  0.00    -0.461 OA
BRANCH   6   7
ATOM      7  C   UNL     1       5.583   2.411  -1.863  1.00  0.00     0.341 C 
ATOM      8  O   UNL     1       5.308   1.506  -2.647  1.00  0.00    -0.249 OA
BRANCH   7   9
ATOM      9  C   UNL     1       4.527   3.398  -1.306  1.00  0.00     0.231 C 
ATOM     10  C   UNL     1       3.865   3.898  -2.594  1.00  0.00     0.058 C 
BRANCH   9  11
ATOM     11  N   UNL     1       4.989   4.644  -0.582  1.00  0.00    -0.333 N 
ATOM     12  C   UNL     1       4.322   5.556   0.194  1.00  0.00     0.222 C 
ATOM     13  O   UNL     1       4.859   6.654   0.369  1.00  0.00    -0.275 OA
ATOM     14  H   UNL     1       5.949   4.835  -0.688  1.00  0.00     0.164 HD
BRANCH  12  15
ATOM     15  C   UNL     1       3.024   5.249   0.941  1.00  0.00     0.121 C 
BRANCH  15  16
ATOM     16  C   UNL     1       1.677   5.628   0.307  1.00  0.00     0.125 C 
BRANCH  16  17
ATOM     17  N   UNL     1       1.322   4.991  -0.953  1.00  0.00    -0.355 N 
ATOM     18  C   UNL     1       0.612   3.849  -1.259  1.00  0.00     0.223 C 
ATOM     19  O   UNL     1       0.621   3.448  -2.420  1.00  0.00    -0.275 OA
ATOM     20  H   UNL     1       1.655   5.471  -1.745  1.00  0.00     0.163 HD
BRANCH  18  21
ATOM     21  C   UNL     1      -0.168   3.131  -0.205  1.00  0.00     0.081 C 
ATOM     22  C   UNL     1       0.830   0.592  -0.299  1.00  0.00     0.008 C 
ATOM     23  C   UNL     1      -0.076   1.660   0.214  1.00  0.00    -0.001 C 
ATOM     24  C   UNL     1      -1.192   2.108  -0.675  1.00  0.00     0.018 C 
ENDBRANCH  18  21
ENDBRANCH  16  17
ENDBRANCH  15  16
ENDBRANCH  12  15
ENDBRANCH   9  11
BRANCH   9  25
ATOM     25  C   UNL     1       3.723   2.431  -0.417  1.00  0.00     0.422 C 
ATOM     26  F   UNL     1       4.250   2.329   0.830  1.00  0.00    -0.168 F 
ATOM     27  F   UNL     1       2.478   2.855  -0.190  1.00  0.00    -0.168 F 
ATOM     28  F   UNL     1       3.612   1.173  -0.882  1.00  0.00    -0.168 F 
ENDBRANCH   9  25
ENDBRANCH   7   9
ENDBRANCH   6   7
ENDBRANCH   5   6
ENDBRANCH   4   5
ENDBRANCH   3   4
ENDBRANCH   2   3
ENDBRANCH   1   2
BRANCH   1  29
ATOM     29  O   UNL     1       8.125   3.287   0.895  1.00  0.00    -0.377 OA
BRANCH  29  30
ATOM     30  C   UNL     1       9.352   2.861   1.472  1.00  0.00     0.188 C 
BRANCH  30  31
ATOM     31  C   UNL     1       9.380   1.894   2.683  1.00  0.00     0.188 C 
BRANCH  31  32
ATOM     32  O   UNL     1       8.252   1.951   3.544  1.00  0.00    -0.376 OA
BRANCH  32  33
ATOM     33  C   UNL     1       8.326   2.744   4.718  1.00  0.00     0.202 C 
BRANCH  33  34
ATOM     34  C   UNL     1       8.552   4.256   4.566  1.00  0.00     0.261 C 
BRANCH  34  35
ATOM     35  O   UNL     1       9.723   4.666   3.847  1.00  0.00    -0.460 OA
BRANCH  35  36
ATOM     36  C   UNL     1      10.925   4.220   4.269  1.00  0.00     0.338 C 
ATOM     37  O   UNL     1      11.152   3.545   5.260  1.00  0.00    -0.246 OA
BRANCH  36  38
ATOM     38  C   UNL     1      11.898   4.489   3.187  1.00  0.00     0.060 A 
ATOM     39  C   UNL     1      12.586   3.411   2.611  1.00  0.00     0.016 A 
ATOM     40  C   UNL     1      12.079   5.786   2.701  1.00  0.00     0.016 A 
ATOM     41  C   UNL     1      13.485   3.632   1.570  1.00  0.00     0.010 A 
ATOM     42  C   UNL     1      13.007   6.012   1.682  1.00  0.00     0.010 A 
ATOM     43  C   UNL     1      13.742   4.940   1.145  1.00  0.00    -0.014 A 
BRANCH  43  44
ATOM     44  C   UNL     1      14.956   5.200   0.340  1.00  0.00     0.031 A 
ATOM     45  C   UNL     1      16.202   5.615   1.070  1.00  0.00     0.074 A 
ATOM     46  C   UNL     1      14.964   5.055  -0.996  1.00  0.00     0.049 A 
ATOM     47  N   UNL     1      17.387   5.894   0.598  1.00  0.00    -0.248 NA
ATOM     48  C   UNL     1      16.092   5.733   2.534  1.00  0.00     0.031 C 
ATOM     49  C   UNL     1      13.822   4.653  -1.811  1.00  0.00     0.029 A 
ATOM     50  N   UNL     1      15.976   5.258  -1.900  1.00  0.00    -0.354 N 
ATOM     51  C   UNL     1      18.154   6.253   1.700  1.00  0.00     0.074 A 
ATOM     52  C   UNL     1      17.297   6.171   2.861  1.00  0.00     0.031 C 
ATOM     53  C   UNL     1      14.187   4.671  -3.105  1.00  0.00     0.029 A 
ATOM     54  C   UNL     1      15.580   5.107  -3.207  1.00  0.00     0.049 A 
ATOM     55  H   UNL     1      16.896   5.489  -1.638  1.00  0.00     0.167 HD
ATOM     56  C   UNL     1      19.459   6.608   1.746  1.00  0.00     0.034 A 
ATOM     57  C   UNL     1      16.259   5.322  -4.351  1.00  0.00     0.034 A 
ATOM     58  C   UNL     1      20.307   6.686   0.589  1.00  0.00     0.049 A 
ATOM     59  C   UNL     1      17.704   5.743  -4.284  1.00  0.00     0.074 A 
ATOM     60  C   UNL     1      21.656   6.983   0.531  1.00  0.00     0.029 A 
ATOM     61  N   UNL     1      19.881   6.495  -0.717  1.00  0.00    -0.354 N 
ATOM     62  N   UNL     1      18.454   5.957  -3.229  1.00  0.00    -0.248 NA
ATOM     63  C   UNL     1      18.407   5.918  -5.563  1.00  0.00     0.031 C 
ATOM     64  C   UNL     1      22.036   7.014  -0.815  1.00  0.00     0.029 A 
ATOM     65  C   UNL     1      20.934   6.689  -1.592  1.00  0.00     0.049 A 
ATOM     66  H   UNL     1      18.963   6.255  -0.982  1.00  0.00     0.167 HD
ATOM     67  C   UNL     1      19.723   6.259  -3.714  1.00  0.00     0.074 A 
ATOM     68  C   UNL     1      19.642   6.184  -5.159  1.00  0.00     0.031 C 
ATOM     69  C   UNL     1      20.849   6.577  -3.027  1.00  0.00     0.034 A 
BRANCH  56  70
ATOM     70  C   UNL     1      20.033   6.945   3.096  1.00  0.00     0.023 A 
ATOM     71  C   UNL     1      20.213   5.932   4.061  1.00  0.00     0.012 A 
ATOM     72  C   UNL     1      20.399   8.268   3.408  1.00  0.00     0.148 A 
ATOM     73  C   UNL     1      20.699   6.239   5.331  1.00  0.00     0.002 A 
ATOM     74  C   UNL     1      20.933   8.558   4.658  1.00  0.00     0.091 A 
ATOM     75  F   UNL     1      20.195   9.223   2.490  1.00  0.00    -0.205 F 
ATOM     76  C   UNL     1      21.068   7.549   5.626  1.00  0.00     0.022 A 
BRANCH  74  77
ATOM     77  S   UNL     1      21.512  10.198   5.101  1.00  0.00     0.127 S 
ATOM     78  O   UNL     1      20.472  10.638   6.029  1.00  0.00    -0.237 OA
ATOM     79  O   UNL     1      22.804   9.910   5.724  1.00  0.00    -0.237 OA
ATOM     80  O   UNL     1      21.596  10.944   3.852  1.00  0.00    -0.744 OA
ENDBRANCH  74  77
ENDBRANCH  56  70
BRANCH  57  81
ATOM     81  C   UNL     1      15.574   5.118  -5.658  1.00  0.00     0.023 A 
ATOM     82  C   UNL     1      15.930   4.028  -6.474  1.00  0.00     0.012 A 
ATOM     83  C   UNL     1      14.536   5.978  -6.070  1.00  0.00     0.148 A 
ATOM     84  C   UNL     1      15.276   3.807  -7.687  1.00  0.00     0.002 A 
ATOM     85  C   UNL     1      13.851   5.719  -7.250  1.00  0.00     0.091 A 
ATOM     86  F   UNL     1      14.224   7.016  -5.282  1.00  0.00    -0.205 F 
ATOM     87  C   UNL     1      14.230   4.644  -8.069  1.00  0.00     0.022 A 
BRANCH  85  88
ATOM     88  S   UNL     1      12.408   6.660  -7.756  1.00  0.00     0.127 S 
ATOM     89  O   UNL     1      12.869   7.270  -9.001  1.00  0.00    -0.237 OA
ATOM     90  O   UNL     1      11.409   5.603  -7.919  1.00  0.00    -0.237 OA
ATOM     91  O   UNL     1      12.135   7.587  -6.667  1.00  0.00    -0.744 OA
ENDBRANCH  85  88
ENDBRANCH  57  81
BRANCH  69  92
ATOM     92  C   UNL     1      22.107   6.834  -3.818  1.00  0.00     0.023 A 
ATOM     93  C   UNL     1      22.234   8.011  -4.583  1.00  0.00     0.012 A 
ATOM     94  C   UNL     1      23.198   5.945  -3.735  1.00  0.00     0.148 A 
ATOM     95  C   UNL     1      23.412   8.281  -5.279  1.00  0.00     0.002 A 
ATOM     96  C   UNL     1      24.387   6.247  -4.387  1.00  0.00     0.091 A 
ATOM     97  F   UNL     1      23.055   4.823  -3.014  1.00  0.00    -0.205 F 
ATOM     98  C   UNL     1      24.492   7.407  -5.171  1.00  0.00     0.022 A 
BRANCH  96  99
ATOM     99  S   UNL     1      25.861   5.233  -4.224  1.00  0.00     0.127 S 
ATOM    100  O   UNL     1      25.959   4.634  -5.554  1.00  0.00    -0.237 OA
ATOM    101  O   UNL     1      26.891   6.230  -3.927  1.00  0.00    -0.237 OA
ATOM    102  O   UNL     1      25.591   4.301  -3.138  1.00  0.00    -0.744 OA
ENDBRANCH  96  99
ENDBRANCH  69  92
ENDBRANCH  43  44
ENDBRANCH  36  38
ENDBRANCH  35  36
ENDBRANCH  34  35
ENDBRANCH  33  34
ENDBRANCH  32  33
ENDBRANCH  31  32
ENDBRANCH  30  31
ENDBRANCH  29  30
ENDBRANCH   1  29
TORSDOF 29
