REMARK SMILES C/C(=C(\C#N)C(=O)OCCOCCOCCOCCOC(=O)c1ccc(-c2c3nc(c(-c4cccc(S(=O)(=O)[O-])c4F)c4ccc([nH]4)c(-c4cccc(S(=O)(=O)[O-])c4F)c4nc(c(-c5cccc(S(=O)(=O)[O-])c5F)c5ccc2[nH]5)C=C4)C=C3)cc1)c1cccc2ccccc12
REMARK SMILES IDX 15 1 14 2 13 3 12 4 11 5 10 6 9 7 8 8 6 9 7 10 3 11 1 12
REMARK SMILES IDX 2 13 86 14 87 15 95 16 88 17 90 18 94 19 89 20 91 21 93 22
REMARK SMILES IDX 92 23 4 24 5 25 16 26 17 27 18 28 19 29 20 30 21 31 22 32
REMARK SMILES IDX 23 33 24 34 85 35 25 36 84 37 26 38 27 39 28 40 78 41 29 42
REMARK SMILES IDX 83 43 77 44 79 45 30 46 82 47 76 48 75 49 31 51 63 52 43 53
REMARK SMILES IDX 62 54 44 55 47 56 61 57 80 58 45 59 46 60 60 62 81 63 48 64
REMARK SMILES IDX 32 65 33 66 41 67 34 68 36 69 42 70 35 71 37 72 38 73 39 74
REMARK SMILES IDX 40 75 64 76 65 77 73 78 66 79 68 80 74 81 67 82 69 83 70 84
REMARK SMILES IDX 71 85 72 86 49 87 50 88 58 89 51 90 53 91 59 92 52 93 54 94
REMARK SMILES IDX 55 95 56 96 57 97
REMARK H PARENT 79 50 47 61
REMARK Flexibility Score: inf
ROOT
ATOM      1  C   UNL     1      -4.915   0.593   4.253  1.00  0.00     0.188 C 
ENDROOT
BRANCH   1   2
ATOM      2  O   UNL     1      -4.010   0.673   3.164  1.00  0.00    -0.377 OA
BRANCH   2   3
ATOM      3  C   UNL     1      -2.925  -0.227   3.172  1.00  0.00     0.188 C 
BRANCH   3   4
ATOM      4  C   UNL     1      -2.177  -0.479   4.505  1.00  0.00     0.188 C 
BRANCH   4   5
ATOM      5  O   UNL     1      -2.625   0.317   5.584  1.00  0.00    -0.376 OA
BRANCH   5   6
ATOM      6  C   UNL     1      -1.722   1.285   6.082  1.00  0.00     0.202 C 
BRANCH   6   7
ATOM      7  C   UNL     1      -1.242   2.391   5.128  1.00  0.00     0.261 C 
BRANCH   7   8
ATOM      8  O   UNL     1      -1.201   2.035   3.738  1.00  0.00    -0.459 OA
BRANCH   8   9
ATOM      9  C   UNL     1      -0.082   1.422   3.288  1.00  0.00     0.349 C 
ATOM     10  O   UNL     1       0.919   1.201   3.950  1.00  0.00    -0.245 OA
BRANCH   9  11
ATOM     11  C   UNL     1      -0.280   1.027   1.855  1.00  0.00     0.140 C 
ATOM     12  C   UNL     1       0.801  -0.157  -0.112  1.00  0.00     0.047 C 
ATOM     13  C   UNL     1       0.428  -0.051   1.347  1.00  0.00    -0.018 C 
BRANCH  13  14
ATOM     14  C   UNL     1       0.911  -1.218   2.193  1.00  0.00    -0.013 A 
ATOM     15  C   UNL     1      -0.093  -1.995   2.773  1.00  0.00     0.009 A 
ATOM     16  C   UNL     1       2.247  -1.620   2.509  1.00  0.00    -0.011 A 
ATOM     17  C   UNL     1       0.140  -2.734   3.932  1.00  0.00     0.001 A 
ATOM     18  C   UNL     1       2.470  -2.266   3.759  1.00  0.00    -0.018 A 
ATOM     19  C   UNL     1       3.367  -1.583   1.643  1.00  0.00     0.009 A 
ATOM     20  C   UNL     1       1.395  -2.722   4.511  1.00  0.00     0.009 A 
ATOM     21  C   UNL     1       3.756  -2.592   4.205  1.00  0.00     0.009 A 
ATOM     22  C   UNL     1       4.606  -2.132   2.016  1.00  0.00     0.001 A 
ATOM     23  C   UNL     1       4.819  -2.574   3.316  1.00  0.00     0.001 A 
ENDBRANCH  13  14
BRANCH  11  24
ATOM     24  C   UNL     1      -0.648   2.201   0.963  1.00  0.00     0.107 C 
ATOM     25  N   UNL     1      -0.952   3.176   0.223  1.00  0.00    -0.192 NA
ENDBRANCH  11  24
ENDBRANCH   9  11
ENDBRANCH   8   9
ENDBRANCH   7   8
ENDBRANCH   6   7
ENDBRANCH   5   6
ENDBRANCH   4   5
ENDBRANCH   3   4
ENDBRANCH   2   3
ENDBRANCH   1   2
BRANCH   1  26
ATOM     26  C   UNL     1      -5.190  -0.798   4.881  1.00  0.00     0.188 C 
BRANCH  26  27
ATOM     27  O   UNL     1      -4.613  -1.916   4.215  1.00  0.00    -0.376 OA
BRANCH  27  28
ATOM     28  C   UNL     1      -5.412  -2.652   3.302  1.00  0.00     0.202 C 
BRANCH  28  29
ATOM     29  C   UNL     1      -5.992  -1.919   2.081  1.00  0.00     0.261 C 
BRANCH  29  30
ATOM     30  O   UNL     1      -6.780  -0.755   2.359  1.00  0.00    -0.460 OA
BRANCH  30  31
ATOM     31  C   UNL     1      -7.872  -0.911   3.137  1.00  0.00     0.338 C 
ATOM     32  O   UNL     1      -8.306  -1.960   3.588  1.00  0.00    -0.246 OA
BRANCH  31  33
ATOM     33  C   UNL     1      -8.315   0.434   3.557  1.00  0.00     0.060 A 
ATOM     34  C   UNL     1      -8.338   0.737   4.927  1.00  0.00     0.016 A 
ATOM     35  C   UNL     1      -8.621   1.414   2.610  1.00  0.00     0.016 A 
ATOM     36  C   UNL     1      -8.684   2.014   5.353  1.00  0.00     0.010 A 
ATOM     37  C   UNL     1      -9.013   2.683   3.041  1.00  0.00     0.010 A 
ATOM     38  C   UNL     1      -9.076   2.975   4.414  1.00  0.00    -0.014 A 
BRANCH  38  39
ATOM     39  C   UNL     1      -9.764   4.191   4.900  1.00  0.00     0.031 A 
ATOM     40  C   UNL     1     -11.266   4.179   4.940  1.00  0.00     0.074 A 
ATOM     41  C   UNL     1      -9.076   5.256   5.344  1.00  0.00     0.049 A 
ATOM     42  N   UNL     1     -12.091   5.096   5.371  1.00  0.00    -0.248 NA
ATOM     43  C   UNL     1     -11.928   2.965   4.430  1.00  0.00     0.031 C 
ATOM     44  C   UNL     1      -7.620   5.376   5.363  1.00  0.00     0.029 A 
ATOM     45  N   UNL     1      -9.522   6.449   5.854  1.00  0.00    -0.354 N 
ATOM     46  C   UNL     1     -13.365   4.584   5.162  1.00  0.00     0.074 A 
ATOM     47  C   UNL     1     -13.207   3.280   4.556  1.00  0.00     0.031 C 
ATOM     48  C   UNL     1      -7.291   6.591   5.838  1.00  0.00     0.029 A 
ATOM     49  C   UNL     1      -8.513   7.337   6.136  1.00  0.00     0.049 A 
ATOM     50  H   UNL     1     -10.475   6.649   6.003  1.00  0.00     0.167 HD
ATOM     51  C   UNL     1     -14.560   5.142   5.461  1.00  0.00     0.034 A 
ATOM     52  C   UNL     1      -8.575   8.613   6.567  1.00  0.00     0.034 A 
ATOM     53  C   UNL     1     -14.712   6.436   6.067  1.00  0.00     0.049 A 
ATOM     54  C   UNL     1      -9.921   9.224   6.861  1.00  0.00     0.074 A 
ATOM     55  C   UNL     1     -15.878   7.072   6.451  1.00  0.00     0.029 A 
ATOM     56  N   UNL     1     -13.669   7.302   6.356  1.00  0.00    -0.354 N 
ATOM     57  N   UNL     1     -11.113   8.683   6.777  1.00  0.00    -0.248 NA
ATOM     58  C   UNL     1      -9.928  10.613   7.345  1.00  0.00     0.031 C 
ATOM     59  C   UNL     1     -15.543   8.342   6.933  1.00  0.00     0.029 A 
ATOM     60  C   UNL     1     -14.164   8.477   6.893  1.00  0.00     0.049 A 
ATOM     61  H   UNL     1     -12.716   7.109   6.201  1.00  0.00     0.167 HD
ATOM     62  C   UNL     1     -12.006   9.651   7.225  1.00  0.00     0.074 A 
ATOM     63  C   UNL     1     -11.213  10.802   7.607  1.00  0.00     0.031 C 
ATOM     64  C   UNL     1     -13.360   9.601   7.302  1.00  0.00     0.034 A 
BRANCH  51  65
ATOM     65  C   UNL     1     -15.799   4.351   5.135  1.00  0.00     0.023 A 
ATOM     66  C   UNL     1     -16.120   3.203   5.888  1.00  0.00     0.012 A 
ATOM     67  C   UNL     1     -16.666   4.770   4.108  1.00  0.00     0.148 A 
ATOM     68  C   UNL     1     -17.270   2.468   5.604  1.00  0.00     0.002 A 
ATOM     69  C   UNL     1     -17.835   4.060   3.863  1.00  0.00     0.091 A 
ATOM     70  F   UNL     1     -16.328   5.847   3.385  1.00  0.00    -0.205 F 
ATOM     71  C   UNL     1     -18.132   2.903   4.601  1.00  0.00     0.022 A 
BRANCH  69  72
ATOM     72  S   UNL     1     -19.048   4.584   2.648  1.00  0.00     0.127 S 
ATOM     73  O   UNL     1     -18.925   3.535   1.637  1.00  0.00    -0.237 OA
ATOM     74  O   UNL     1     -20.290   4.544   3.420  1.00  0.00    -0.237 OA
ATOM     75  O   UNL     1     -18.641   5.914   2.218  1.00  0.00    -0.744 OA
ENDBRANCH  69  72
ENDBRANCH  51  65
BRANCH  52  76
ATOM     76  C   UNL     1      -7.322   9.395   6.765  1.00  0.00     0.023 A 
ATOM     77  C   UNL     1      -6.928   9.773   8.063  1.00  0.00     0.012 A 
ATOM     78  C   UNL     1      -6.519   9.764   5.669  1.00  0.00     0.148 A 
ATOM     79  C   UNL     1      -5.774  10.532   8.263  1.00  0.00     0.002 A 
ATOM     80  C   UNL     1      -5.341  10.469   5.880  1.00  0.00     0.091 A 
ATOM     81  F   UNL     1      -6.922   9.410   4.440  1.00  0.00    -0.205 F 
ATOM     82  C   UNL     1      -4.976  10.871   7.173  1.00  0.00     0.022 A 
BRANCH  80  83
ATOM     83  S   UNL     1      -4.188  10.840   4.554  1.00  0.00     0.127 S 
ATOM     84  O   UNL     1      -4.284  12.296   4.473  1.00  0.00    -0.237 OA
ATOM     85  O   UNL     1      -2.929  10.335   5.105  1.00  0.00    -0.237 OA
ATOM     86  O   UNL     1      -4.674  10.111   3.392  1.00  0.00    -0.744 OA
ENDBRANCH  80  83
ENDBRANCH  52  76
BRANCH  64  87
ATOM     87  C   UNL     1     -14.074  10.812   7.849  1.00  0.00     0.023 A 
ATOM     88  C   UNL     1     -14.121  12.003   7.097  1.00  0.00     0.012 A 
ATOM     89  C   UNL     1     -14.746  10.752   9.087  1.00  0.00     0.148 A 
ATOM     90  C   UNL     1     -14.784  13.127   7.588  1.00  0.00     0.002 A 
ATOM     91  C   UNL     1     -15.450  11.859   9.545  1.00  0.00     0.091 A 
ATOM     92  F   UNL     1     -14.680   9.616   9.796  1.00  0.00    -0.205 F 
ATOM     93  C   UNL     1     -15.456  13.052   8.805  1.00  0.00     0.022 A 
BRANCH  91  94
ATOM     94  S   UNL     1     -16.427  11.823  11.052  1.00  0.00     0.127 S 
ATOM     95  O   UNL     1     -15.624  12.654  11.947  1.00  0.00    -0.237 OA
ATOM     96  O   UNL     1     -17.686  12.433  10.620  1.00  0.00    -0.237 OA
ATOM     97  O   UNL     1     -16.535  10.421  11.429  1.00  0.00    -0.744 OA
ENDBRANCH  91  94
ENDBRANCH  64  87
ENDBRANCH  38  39
ENDBRANCH  31  33
ENDBRANCH  30  31
ENDBRANCH  29  30
ENDBRANCH  28  29
ENDBRANCH  27  28
ENDBRANCH  26  27
ENDBRANCH   1  26
TORSDOF 25
