REMARK SMILES O=C(Nc1cccc(C(=O)OCCOCCOCCOCCOC(=O)c2ccc(-c3c4nc(c(-c5cccc(S(=O)(=O)[O-])c5F)c5ccc([nH]5)c(-c5cccc(S(=O)(=O)[O-])c5F)c5nc(c(-c6cccc(S(=O)(=O)[O-])c6F)c6ccc3[nH]6)C=C5)C=C4)cc2)c1)Nc1cc(Cl)c(Cl)cc1Cl
REMARK SMILES IDX 18 1 17 2 16 3 15 4 14 5 13 6 12 7 11 8 9 9 10 10 8 11 4 12
REMARK SMILES IDX 5 13 89 14 6 15 7 16 3 17 1 18 2 19 90 20 91 23 92 24 98 25
REMARK SMILES IDX 93 26 97 27 99 28 94 29 95 30 96 31 19 32 20 33 21 34 22 35
REMARK SMILES IDX 23 36 24 37 25 38 26 39 27 40 88 41 28 42 87 43 29 44 30 45
REMARK SMILES IDX 31 46 81 47 32 48 86 49 80 50 82 51 33 52 85 53 79 54 78 55
REMARK SMILES IDX 34 57 66 58 46 59 65 60 47 61 50 62 64 63 83 64 48 65 49 66
REMARK SMILES IDX 63 68 84 69 51 70 35 71 36 72 44 73 37 74 39 75 45 76 38 77
REMARK SMILES IDX 40 78 41 79 42 80 43 81 67 82 68 83 76 84 69 85 71 86 77 87
REMARK SMILES IDX 70 88 72 89 73 90 74 91 75 92 52 93 53 94 61 95 54 96 56 97
REMARK SMILES IDX 62 98 55 99 57 100 58 101 59 102 60 103
REMARK H PARENT 3 21 90 22 82 56 50 67
REMARK Flexibility Score: inf
ROOT
ATOM      1  C   UNL     1       6.499   3.756  -4.205  1.00  0.00     0.188 C 
ENDROOT
BRANCH   1   2
ATOM      2  O   UNL     1       6.228   2.939  -3.065  1.00  0.00    -0.377 OA
BRANCH   2   3
ATOM      3  C   UNL     1       7.035   3.089  -1.911  1.00  0.00     0.188 C 
BRANCH   3   4
ATOM      4  C   UNL     1       8.437   2.467  -2.045  1.00  0.00     0.188 C 
BRANCH   4   5
ATOM      5  O   UNL     1       8.805   2.200  -3.389  1.00  0.00    -0.376 OA
BRANCH   5   6
ATOM      6  C   UNL     1       8.672   0.890  -3.914  1.00  0.00     0.202 C 
BRANCH   6   7
ATOM      7  C   UNL     1       7.377   0.075  -3.764  1.00  0.00     0.261 C 
BRANCH   7   8
ATOM      8  O   UNL     1       6.706   0.158  -2.506  1.00  0.00    -0.460 OA
BRANCH   8   9
ATOM      9  C   UNL     1       7.240  -0.454  -1.433  1.00  0.00     0.338 C 
ATOM     10  O   UNL     1       8.257  -1.125  -1.391  1.00  0.00    -0.246 OA
BRANCH   9  11
ATOM     11  C   UNL     1       6.476   0.017  -0.251  1.00  0.00     0.062 A 
ATOM     12  C   UNL     1       4.372   0.658   0.775  1.00  0.00     0.043 A 
ATOM     13  C   UNL     1       5.075   1.115   1.895  1.00  0.00     0.026 A 
ATOM     14  C   UNL     1       5.088   0.178  -0.322  1.00  0.00     0.041 A 
ATOM     15  C   UNL     1       6.466   0.986   1.960  1.00  0.00     0.003 A 
ATOM     16  C   UNL     1       7.166   0.405   0.901  1.00  0.00     0.016 A 
BRANCH  12  17
ATOM     17  N   UNL     1       2.968   0.704   0.816  1.00  0.00    -0.308 N 
ATOM     18  O   UNL     1       0.841   0.279   0.275  1.00  0.00    -0.248 OA
ATOM     19  C   UNL     1       2.024   0.006   0.097  1.00  0.00     0.323 C 
ATOM     20  N   UNL     1       2.496  -1.059  -0.621  1.00  0.00    -0.306 N 
ATOM     21  H   UNL     1       2.597   1.343   1.467  1.00  0.00     0.171 HD
ATOM     22  H   UNL     1       3.428  -1.318  -0.437  1.00  0.00     0.171 HD
BRANCH  20  23
ATOM     23  C   UNL     1       1.825  -1.836  -1.588  1.00  0.00     0.063 A 
ATOM     24  C   UNL     1       2.288  -3.157  -1.697  1.00  0.00     0.049 A 
ATOM     25  C   UNL     1       0.785  -1.414  -2.433  1.00  0.00     0.066 A 
ATOM     26  C   UNL     1       1.632  -4.083  -2.509  1.00  0.00     0.061 A 
ATOM     27  C   UNL     1       0.123  -2.349  -3.242  1.00  0.00     0.044 A 
ATOM     28  Cl  UNL     1       0.360   0.247  -2.645  1.00  0.00    -0.082 Cl
ATOM     29  Cl  UNL     1       2.244  -5.702  -2.514  1.00  0.00    -0.083 Cl
ATOM     30  C   UNL     1       0.512  -3.692  -3.243  1.00  0.00     0.061 A 
ATOM     31  Cl  UNL     1      -0.447  -4.844  -4.098  1.00  0.00    -0.083 Cl
ENDBRANCH  20  23
ENDBRANCH  12  17
ENDBRANCH   9  11
ENDBRANCH   8   9
ENDBRANCH   7   8
ENDBRANCH   6   7
ENDBRANCH   5   6
ENDBRANCH   4   5
ENDBRANCH   3   4
ENDBRANCH   2   3
ENDBRANCH   1   2
BRANCH   1  32
ATOM     32  C   UNL     1       7.785   4.610  -4.338  1.00  0.00     0.188 C 
BRANCH  32  33
ATOM     33  O   UNL     1       8.288   5.141  -3.118  1.00  0.00    -0.376 OA
BRANCH  33  34
ATOM     34  C   UNL     1       8.130   6.532  -2.891  1.00  0.00     0.202 C 
BRANCH  34  35
ATOM     35  C   UNL     1       6.694   6.989  -2.609  1.00  0.00     0.261 C 
BRANCH  35  36
ATOM     36  O   UNL     1       5.749   6.727  -3.655  1.00  0.00    -0.460 OA
BRANCH  36  37
ATOM     37  C   UNL     1       5.974   7.315  -4.851  1.00  0.00     0.338 C 
ATOM     38  O   UNL     1       6.881   8.074  -5.139  1.00  0.00    -0.246 OA
BRANCH  37  39
ATOM     39  C   UNL     1       5.028   6.727  -5.819  1.00  0.00     0.060 A 
ATOM     40  C   UNL     1       5.530   6.073  -6.952  1.00  0.00     0.016 A 
ATOM     41  C   UNL     1       3.652   6.812  -5.596  1.00  0.00     0.016 A 
ATOM     42  C   UNL     1       4.649   5.535  -7.889  1.00  0.00     0.010 A 
ATOM     43  C   UNL     1       2.773   6.287  -6.544  1.00  0.00     0.010 A 
ATOM     44  C   UNL     1       3.267   5.679  -7.711  1.00  0.00    -0.014 A 
BRANCH  44  45
ATOM     45  C   UNL     1       2.340   5.375  -8.826  1.00  0.00     0.031 A 
ATOM     46  C   UNL     1       1.855   6.514  -9.680  1.00  0.00     0.074 A 
ATOM     47  C   UNL     1       1.921   4.121  -9.070  1.00  0.00     0.049 A 
ATOM     48  N   UNL     1       1.005   6.504 -10.672  1.00  0.00    -0.248 NA
ATOM     49  C   UNL     1       2.400   7.847  -9.367  1.00  0.00     0.031 C 
ATOM     50  C   UNL     1       2.322   2.932  -8.321  1.00  0.00     0.029 A 
ATOM     51  N   UNL     1       1.036   3.650 -10.008  1.00  0.00    -0.354 N 
ATOM     52  C   UNL     1       0.885   7.827 -11.080  1.00  0.00     0.074 A 
ATOM     53  C   UNL     1       1.745   8.615 -10.225  1.00  0.00     0.031 C 
ATOM     54  C   UNL     1       1.663   1.868  -8.813  1.00  0.00     0.029 A 
ATOM     55  C   UNL     1       0.773   2.306  -9.887  1.00  0.00     0.049 A 
ATOM     56  H   UNL     1       0.629   4.220 -10.700  1.00  0.00     0.167 HD
ATOM     57  C   UNL     1       0.135   8.340 -12.082  1.00  0.00     0.034 A 
ATOM     58  C   UNL     1      -0.107   1.530 -10.551  1.00  0.00     0.034 A 
ATOM     59  C   UNL     1      -0.708   7.556 -12.942  1.00  0.00     0.049 A 
ATOM     60  C   UNL     1      -0.963   2.135 -11.634  1.00  0.00     0.074 A 
ATOM     61  C   UNL     1      -1.463   7.979 -14.022  1.00  0.00     0.029 A 
ATOM     62  N   UNL     1      -0.927   6.195 -12.808  1.00  0.00    -0.354 N 
ATOM     63  N   UNL     1      -0.975   3.363 -12.091  1.00  0.00    -0.248 NA
ATOM     64  C   UNL     1      -1.909   1.236 -12.313  1.00  0.00     0.031 C 
ATOM     65  C   UNL     1      -2.169   6.879 -14.518  1.00  0.00     0.029 A 
ATOM     66  C   UNL     1      -1.820   5.763 -13.773  1.00  0.00     0.049 A 
ATOM     67  H   UNL     1      -0.509   5.620 -12.127  1.00  0.00     0.167 HD
ATOM     68  C   UNL     1      -1.892   3.373 -13.137  1.00  0.00     0.074 A 
ATOM     69  C   UNL     1      -2.404   2.025 -13.257  1.00  0.00     0.031 C 
ATOM     70  C   UNL     1      -2.281   4.408 -13.921  1.00  0.00     0.034 A 
BRANCH  57  71
ATOM     71  C   UNL     1       0.198   9.826 -12.310  1.00  0.00     0.023 A 
ATOM     72  C   UNL     1       1.356  10.402 -12.871  1.00  0.00     0.012 A 
ATOM     73  C   UNL     1      -0.912  10.643 -12.021  1.00  0.00     0.148 A 
ATOM     74  C   UNL     1       1.420  11.774 -13.111  1.00  0.00     0.002 A 
ATOM     75  C   UNL     1      -0.858  12.001 -12.306  1.00  0.00     0.091 A 
ATOM     76  F   UNL     1      -1.993  10.078 -11.465  1.00  0.00    -0.205 F 
ATOM     77  C   UNL     1       0.310  12.570 -12.840  1.00  0.00     0.022 A 
BRANCH  75  78
ATOM     78  S   UNL     1      -2.262  13.095 -12.070  1.00  0.00     0.127 S 
ATOM     79  O   UNL     1      -1.805  13.924 -10.956  1.00  0.00    -0.237 OA
ATOM     80  O   UNL     1      -2.331  13.788 -13.357  1.00  0.00    -0.237 OA
ATOM     81  O   UNL     1      -3.400  12.234 -11.781  1.00  0.00    -0.744 OA
ENDBRANCH  75  78
ENDBRANCH  57  71
BRANCH  58  82
ATOM     82  C   UNL     1      -0.224   0.082 -10.227  1.00  0.00     0.023 A 
ATOM     83  C   UNL     1       0.175  -0.879 -11.177  1.00  0.00     0.012 A 
ATOM     84  C   UNL     1      -0.734  -0.345  -8.988  1.00  0.00     0.148 A 
ATOM     85  C   UNL     1       0.030  -2.241 -10.915  1.00  0.00     0.002 A 
ATOM     86  C   UNL     1      -0.813  -1.701  -8.709  1.00  0.00     0.091 A 
ATOM     87  F   UNL     1      -1.115   0.585  -8.101  1.00  0.00    -0.205 F 
ATOM     88  C   UNL     1      -0.456  -2.652  -9.678  1.00  0.00     0.022 A 
BRANCH  86  89
ATOM     89  S   UNL     1      -1.247  -2.328  -7.090  1.00  0.00     0.127 S 
ATOM     90  O   UNL     1      -2.424  -3.140  -7.381  1.00  0.00    -0.237 OA
ATOM     91  O   UNL     1      -0.037  -3.075  -6.750  1.00  0.00    -0.237 OA
ATOM     92  O   UNL     1      -1.488  -1.162  -6.251  1.00  0.00    -0.744 OA
ENDBRANCH  86  89
ENDBRANCH  58  82
BRANCH  70  93
ATOM     93  C   UNL     1      -3.268   4.123 -15.024  1.00  0.00     0.023 A 
ATOM     94  C   UNL     1      -4.616   3.852 -14.716  1.00  0.00     0.012 A 
ATOM     95  C   UNL     1      -2.870   4.201 -16.373  1.00  0.00     0.148 A 
ATOM     96  C   UNL     1      -5.544   3.629 -15.733  1.00  0.00     0.002 A 
ATOM     97  C   UNL     1      -3.810   4.032 -17.382  1.00  0.00     0.091 A 
ATOM     98  F   UNL     1      -1.579   4.444 -16.646  1.00  0.00    -0.205 F 
ATOM     99  C   UNL     1      -5.145   3.732 -17.064  1.00  0.00     0.022 A 
BRANCH  97 100
ATOM    100  S   UNL     1      -3.409   4.245 -19.120  1.00  0.00     0.127 S 
ATOM    101  O   UNL     1      -3.484   2.871 -19.613  1.00  0.00    -0.237 OA
ATOM    102  O   UNL     1      -4.489   5.119 -19.581  1.00  0.00    -0.237 OA
ATOM    103  O   UNL     1      -2.085   4.850 -19.157  1.00  0.00    -0.744 OA
ENDBRANCH  97 100
ENDBRANCH  70  93
ENDBRANCH  44  45
ENDBRANCH  37  39
ENDBRANCH  36  37
ENDBRANCH  35  36
ENDBRANCH  34  35
ENDBRANCH  33  34
ENDBRANCH  32  33
ENDBRANCH   1  32
TORSDOF 25
