REMARK SMILES [NH3+][C@@H](Cc1c[nH]c2ccccc12)C(=O)N[C@@H](CS)C(=O)N[C@@H](CO)C(=O)OCCOCCOCCOCCOC(=O)c1ccc(-c2c3nc(c(-c4cccc(S(=O)(=O)[O-])c4F)c4ccc([nH]4)c(-c4cccc(S(=O)(=O)[O-])c4F)c4nc(c(-c5cccc(S(=O)(=O)[O-])c5F)c5ccc2[nH]5)C=C4)C=C3)cc1
REMARK SMILES IDX 31 1 30 2 29 3 28 4 27 5 25 6 26 7 22 8 21 9 19 10 20 11
REMARK SMILES IDX 16 13 15 14 13 15 14 16 2 18 1 19 3 23 4 24 5 25 12 26 6 27
REMARK SMILES IDX 7 28 11 29 8 31 10 32 9 33 17 34 18 35 23 37 24 38 32 40
REMARK SMILES IDX 33 41 34 42 35 43 36 44 37 45 38 46 39 47 40 48 41 49 42 50
REMARK SMILES IDX 43 51 104 52 44 53 103 54 45 55 46 56 47 57 97 58 48 59
REMARK SMILES IDX 102 60 96 61 98 62 49 63 101 64 95 65 94 66 50 68 82 69
REMARK SMILES IDX 62 70 81 71 63 72 66 73 80 74 99 75 64 76 65 77 79 79 100 80
REMARK SMILES IDX 67 81 51 82 52 83 60 84 53 85 55 86 61 87 54 88 56 89 57 90
REMARK SMILES IDX 58 91 59 92 83 93 84 94 92 95 85 96 87 97 93 98 86 99 88 100
REMARK SMILES IDX 89 101 90 102 91 103 68 104 69 105 77 106 70 107 72 108
REMARK SMILES IDX 78 109 71 110 73 111 74 112 75 113 76 114
REMARK H PARENT 21 12 15 17 1 20 1 21 1 22 6 30 18 36 24 39 98 67 66 78
REMARK Flexibility Score: inf
ROOT
ATOM      1  C   UNL     1      -3.595  -1.847  -4.908  1.00  0.00     0.188 C 
ENDROOT
BRANCH   1   2
ATOM      2  O   UNL     1      -4.582  -2.627  -5.565  1.00  0.00    -0.376 OA
BRANCH   2   3
ATOM      3  C   UNL     1      -5.719  -2.010  -6.157  1.00  0.00     0.202 C 
BRANCH   3   4
ATOM      4  C   UNL     1      -6.420  -0.773  -5.564  1.00  0.00     0.261 C 
BRANCH   4   5
ATOM      5  O   UNL     1      -5.633   0.025  -4.678  1.00  0.00    -0.462 OA
BRANCH   5   6
ATOM      6  C   UNL     1      -5.997   0.044  -3.369  1.00  0.00     0.331 C 
ATOM      7  O   UNL     1      -6.964  -0.542  -2.895  1.00  0.00    -0.250 OA
BRANCH   6   8
ATOM      8  C   UNL     1      -5.057   0.919  -2.530  1.00  0.00     0.218 C 
BRANCH   8   9
ATOM      9  N   UNL     1      -3.782   1.247  -3.176  1.00  0.00    -0.339 N 
ATOM     10  C   UNL     1      -2.692   1.648  -2.472  1.00  0.00     0.244 C 
ATOM     11  O   UNL     1      -2.458   2.856  -2.418  1.00  0.00    -0.273 OA
ATOM     12  H   UNL     1      -3.714   1.174  -4.155  1.00  0.00     0.164 HD
BRANCH  10  13
ATOM     13  C   UNL     1      -1.839   0.630  -1.676  1.00  0.00     0.181 C 
BRANCH  13  14
ATOM     14  N   UNL     1      -1.866   0.981  -0.269  1.00  0.00    -0.338 N 
ATOM     15  C   UNL     1      -0.886   1.583   0.465  1.00  0.00     0.279 C 
ATOM     16  O   UNL     1      -1.259   2.167   1.491  1.00  0.00    -0.268 OA
ATOM     17  H   UNL     1      -2.693   0.757   0.216  1.00  0.00     0.164 HD
BRANCH  15  18
ATOM     18  C   UNL     1       0.633   1.484   0.131  1.00  0.00     0.275 C 
BRANCH  18  19
ATOM     19  N   UNL     1       1.068   0.068   0.084  1.00  0.00    -0.347 N 
ATOM     20  H   UNL     1       2.063   0.025  -0.136  1.00  0.00     0.345 HD
ATOM     21  H   UNL     1       0.539  -0.426  -0.635  1.00  0.00     0.345 HD
ATOM     22  H   UNL     1       0.900  -0.369   0.990  1.00  0.00     0.345 HD
ENDBRANCH  18  19
BRANCH  18  23
ATOM     23  C   UNL     1       1.220   2.425  -0.953  1.00  0.00     0.113 C 
BRANCH  23  24
ATOM     24  C   UNL     1       1.150   2.018  -2.405  1.00  0.00    -0.016 A 
ATOM     25  C   UNL     1       1.554   0.830  -2.992  1.00  0.00     0.087 A 
ATOM     26  C   UNL     1       0.626   2.828  -3.475  1.00  0.00     0.003 A 
ATOM     27  N   UNL     1       1.136   0.828  -4.299  1.00  0.00    -0.361 N 
ATOM     28  C   UNL     1       0.533   2.021  -4.609  1.00  0.00     0.046 A 
ATOM     29  C   UNL     1       0.156   4.155  -3.562  1.00  0.00     0.010 A 
ATOM     30  H   UNL     1       1.251   0.076  -4.925  1.00  0.00     0.166 HD
ATOM     31  C   UNL     1      -0.083   2.445  -5.794  1.00  0.00     0.026 A 
ATOM     32  C   UNL     1      -0.432   4.606  -4.749  1.00  0.00     0.001 A 
ATOM     33  C   UNL     1      -0.571   3.753  -5.840  1.00  0.00     0.002 A 
ENDBRANCH  23  24
ENDBRANCH  18  23
ENDBRANCH  15  18
ENDBRANCH  13  14
BRANCH  13  34
ATOM     34  C   UNL     1      -1.864  -0.868  -1.982  1.00  0.00     0.101 C 
BRANCH  34  35
ATOM     35  S   UNL     1      -3.172  -1.887  -1.237  1.00  0.00    -0.177 SA
ATOM     36  H   UNL     1      -3.021  -1.901   0.114  1.00  0.00     0.102 HD
ENDBRANCH  34  35
ENDBRANCH  13  34
ENDBRANCH  10  13
ENDBRANCH   8   9
BRANCH   8  37
ATOM     37  C   UNL     1      -5.799   2.217  -2.191  1.00  0.00     0.193 C 
BRANCH  37  38
ATOM     38  O   UNL     1      -6.014   2.987  -3.370  1.00  0.00    -0.394 OA
ATOM     39  H   UNL     1      -5.159   3.213  -3.769  1.00  0.00     0.210 HD
ENDBRANCH  37  38
ENDBRANCH   8  37
ENDBRANCH   6   8
ENDBRANCH   5   6
ENDBRANCH   4   5
ENDBRANCH   3   4
ENDBRANCH   2   3
ENDBRANCH   1   2
BRANCH   1  40
ATOM     40  C   UNL     1      -2.938  -0.648  -5.615  1.00  0.00     0.188 C 
BRANCH  40  41
ATOM     41  O   UNL     1      -3.686  -0.172  -6.709  1.00  0.00    -0.377 OA
BRANCH  41  42
ATOM     42  C   UNL     1      -3.208  -0.578  -7.984  1.00  0.00     0.188 C 
BRANCH  42  43
ATOM     43  C   UNL     1      -2.719  -2.039  -8.132  1.00  0.00     0.188 C 
BRANCH  43  44
ATOM     44  O   UNL     1      -1.732  -2.420  -7.176  1.00  0.00    -0.376 OA
BRANCH  44  45
ATOM     45  C   UNL     1      -0.372  -2.465  -7.575  1.00  0.00     0.202 C 
BRANCH  45  46
ATOM     46  C   UNL     1       0.321  -1.142  -7.933  1.00  0.00     0.261 C 
BRANCH  46  47
ATOM     47  O   UNL     1      -0.332  -0.307  -8.895  1.00  0.00    -0.460 OA
BRANCH  47  48
ATOM     48  C   UNL     1      -0.468  -0.794 -10.153  1.00  0.00     0.338 C 
ATOM     49  O   UNL     1      -0.053  -1.851 -10.568  1.00  0.00    -0.246 OA
BRANCH  48  50
ATOM     50  C   UNL     1      -1.416   0.100 -10.864  1.00  0.00     0.060 A 
ATOM     51  C   UNL     1      -2.618  -0.439 -11.342  1.00  0.00     0.016 A 
ATOM     52  C   UNL     1      -1.149   1.464 -11.002  1.00  0.00     0.016 A 
ATOM     53  C   UNL     1      -3.558   0.386 -11.962  1.00  0.00     0.010 A 
ATOM     54  C   UNL     1      -2.076   2.281 -11.655  1.00  0.00     0.010 A 
ATOM     55  C   UNL     1      -3.276   1.744 -12.153  1.00  0.00    -0.014 A 
BRANCH  55  56
ATOM     56  C   UNL     1      -4.154   2.573 -13.012  1.00  0.00     0.031 A 
ATOM     57  C   UNL     1      -3.759   2.779 -14.448  1.00  0.00     0.074 A 
ATOM     58  C   UNL     1      -5.263   3.154 -12.522  1.00  0.00     0.049 A 
ATOM     59  N   UNL     1      -4.310   3.535 -15.358  1.00  0.00    -0.248 NA
ATOM     60  C   UNL     1      -2.579   2.031 -14.917  1.00  0.00     0.031 C 
ATOM     61  C   UNL     1      -5.761   3.011 -11.156  1.00  0.00     0.029 A 
ATOM     62  N   UNL     1      -6.152   4.016 -13.118  1.00  0.00    -0.354 N 
ATOM     63  C   UNL     1      -3.530   3.382 -16.498  1.00  0.00     0.074 A 
ATOM     64  C   UNL     1      -2.465   2.462 -16.164  1.00  0.00     0.031 C 
ATOM     65  C   UNL     1      -6.844   3.794 -11.004  1.00  0.00     0.029 A 
ATOM     66  C   UNL     1      -7.092   4.518 -12.249  1.00  0.00     0.049 A 
ATOM     67  H   UNL     1      -6.119   4.250 -14.073  1.00  0.00     0.167 HD
ATOM     68  C   UNL     1      -3.690   3.953 -17.714  1.00  0.00     0.034 A 
ATOM     69  C   UNL     1      -8.017   5.483 -12.430  1.00  0.00     0.034 A 
ATOM     70  C   UNL     1      -4.751   4.864 -18.043  1.00  0.00     0.049 A 
ATOM     71  C   UNL     1      -8.133   6.152 -13.777  1.00  0.00     0.074 A 
ATOM     72  C   UNL     1      -5.025   5.460 -19.261  1.00  0.00     0.029 A 
ATOM     73  N   UNL     1      -5.697   5.333 -17.146  1.00  0.00    -0.354 N 
ATOM     74  N   UNL     1      -7.465   5.912 -14.880  1.00  0.00    -0.248 NA
ATOM     75  C   UNL     1      -9.145   7.211 -13.910  1.00  0.00     0.031 C 
ATOM     76  C   UNL     1      -6.111   6.323 -19.090  1.00  0.00     0.029 A 
ATOM     77  C   UNL     1      -6.540   6.233 -17.775  1.00  0.00     0.049 A 
ATOM     78  H   UNL     1      -5.761   5.065 -16.201  1.00  0.00     0.167 HD
ATOM     79  C   UNL     1      -7.992   6.768 -15.841  1.00  0.00     0.074 A 
ATOM     80  C   UNL     1      -9.055   7.513 -15.198  1.00  0.00     0.031 C 
ATOM     81  C   UNL     1      -7.622   6.936 -17.135  1.00  0.00     0.034 A 
BRANCH  68  82
ATOM     82  C   UNL     1      -2.693   3.604 -18.787  1.00  0.00     0.023 A 
ATOM     83  C   UNL     1      -2.717   2.325 -19.379  1.00  0.00     0.012 A 
ATOM     84  C   UNL     1      -1.774   4.565 -19.252  1.00  0.00     0.148 A 
ATOM     85  C   UNL     1      -1.823   1.998 -20.397  1.00  0.00     0.002 A 
ATOM     86  C   UNL     1      -0.917   4.247 -20.298  1.00  0.00     0.091 A 
ATOM     87  F   UNL     1      -1.753   5.767 -18.660  1.00  0.00    -0.205 F 
ATOM     88  C   UNL     1      -0.932   2.961 -20.864  1.00  0.00     0.022 A 
BRANCH  86  89
ATOM     89  S   UNL     1       0.214   5.439 -21.022  1.00  0.00     0.127 S 
ATOM     90  O   UNL     1       1.511   4.887 -20.633  1.00  0.00    -0.237 OA
ATOM     91  O   UNL     1      -0.095   5.325 -22.448  1.00  0.00    -0.237 OA
ATOM     92  O   UNL     1      -0.118   6.725 -20.426  1.00  0.00    -0.744 OA
ENDBRANCH  86  89
ENDBRANCH  68  82
BRANCH  69  93
ATOM     93  C   UNL     1      -8.907   5.890 -11.305  1.00  0.00     0.023 A 
ATOM     94  C   UNL     1     -10.290   5.632 -11.380  1.00  0.00     0.012 A 
ATOM     95  C   UNL     1      -8.392   6.541 -10.166  1.00  0.00     0.148 A 
ATOM     96  C   UNL     1     -11.146   6.044 -10.357  1.00  0.00     0.002 A 
ATOM     97  C   UNL     1      -9.242   6.898  -9.127  1.00  0.00     0.091 A 
ATOM     98  F   UNL     1      -7.076   6.797 -10.123  1.00  0.00    -0.205 F 
ATOM     99  C   UNL     1     -10.622   6.667  -9.228  1.00  0.00     0.022 A 
BRANCH  97 100
ATOM    100  S   UNL     1      -8.639   7.596  -7.586  1.00  0.00     0.127 S 
ATOM    101  O   UNL     1      -9.147   8.963  -7.658  1.00  0.00    -0.237 OA
ATOM    102  O   UNL     1      -9.297   6.745  -6.594  1.00  0.00    -0.237 OA
ATOM    103  O   UNL     1      -7.189   7.458  -7.631  1.00  0.00    -0.744 OA
ENDBRANCH  97 100
ENDBRANCH  69  93
BRANCH  81 104
ATOM    104  C   UNL     1      -8.379   7.946 -17.960  1.00  0.00     0.023 A 
ATOM    105  C   UNL     1      -8.193   9.323 -17.727  1.00  0.00     0.012 A 
ATOM    106  C   UNL     1      -9.204   7.530 -19.025  1.00  0.00     0.148 A 
ATOM    107  C   UNL     1      -8.840  10.270 -18.521  1.00  0.00     0.002 A 
ATOM    108  C   UNL     1      -9.804   8.479 -19.844  1.00  0.00     0.091 A 
ATOM    109  F   UNL     1      -9.376   6.215 -19.224  1.00  0.00    -0.205 F 
ATOM    110  C   UNL     1      -9.634   9.849 -19.585  1.00  0.00     0.022 A 
BRANCH 108 111
ATOM    111  S   UNL     1     -10.766   8.038 -21.296  1.00  0.00     0.127 S 
ATOM    112  O   UNL     1     -12.106   8.480 -20.910  1.00  0.00    -0.237 OA
ATOM    113  O   UNL     1     -10.134   8.844 -22.340  1.00  0.00    -0.237 OA
ATOM    114  O   UNL     1     -10.614   6.599 -21.461  1.00  0.00    -0.744 OA
ENDBRANCH 108 111
ENDBRANCH  81 104
ENDBRANCH  55  56
ENDBRANCH  48  50
ENDBRANCH  47  48
ENDBRANCH  46  47
ENDBRANCH  45  46
ENDBRANCH  44  45
ENDBRANCH  43  44
ENDBRANCH  42  43
ENDBRANCH  41  42
ENDBRANCH  40  41
ENDBRANCH   1  40
TORSDOF 34
