REMARK SMILES O=C(COc1cccc(C(=O)OCCOCCOCCOCCOC(=O)c2ccc(-c3c4nc(c(-c5cccc(S(=O)(=O)[O-])c5F)c5ccc([nH]5)c(-c5cccc(S(=O)(=O)[O-])c5F)c5nc(c(-c6cccc(S(=O)(=O)[O-])c6F)c6ccc3[nH]6)C=C5)C=C4)cc2)c1)NCCc1cccs1
REMARK SMILES IDX 16 1 15 2 14 3 13 4 12 5 10 6 11 7 9 8 5 9 6 10 90 11 7 12
REMARK SMILES IDX 8 13 4 14 3 15 2 16 1 17 91 18 92 20 93 21 94 22 95 23 98 24
REMARK SMILES IDX 96 25 97 26 17 27 18 28 19 29 20 30 21 31 22 32 23 33 24 34
REMARK SMILES IDX 25 35 26 36 27 37 28 38 89 39 29 40 88 41 30 42 31 43 32 44
REMARK SMILES IDX 82 45 33 46 87 47 81 48 83 49 34 50 86 51 80 52 79 53 35 55
REMARK SMILES IDX 67 56 47 57 66 58 48 59 51 60 65 61 84 62 49 63 50 64 64 66
REMARK SMILES IDX 85 67 52 68 36 69 37 70 45 71 38 72 40 73 46 74 39 75 41 76
REMARK SMILES IDX 42 77 43 78 44 79 68 80 69 81 77 82 70 83 72 84 78 85 71 86
REMARK SMILES IDX 73 87 74 88 75 89 76 90 53 91 54 92 62 93 55 94 57 95 63 96
REMARK SMILES IDX 56 97 58 98 59 99 60 100 61 101
REMARK H PARENT 91 19 83 54 51 65
REMARK Flexibility Score: inf
ROOT
ATOM      1  C   UNL     1       1.250   5.624   2.258  1.00  0.00     0.188 C 
ENDROOT
BRANCH   1   2
ATOM      2  O   UNL     1       0.215   5.373   3.188  1.00  0.00    -0.376 OA
BRANCH   2   3
ATOM      3  C   UNL     1      -1.027   4.867   2.741  1.00  0.00     0.202 C 
BRANCH   3   4
ATOM      4  C   UNL     1      -1.046   3.520   2.012  1.00  0.00     0.261 C 
BRANCH   4   5
ATOM      5  O   UNL     1      -0.027   3.337   1.026  1.00  0.00    -0.460 OA
BRANCH   5   6
ATOM      6  C   UNL     1      -0.144   3.979  -0.158  1.00  0.00     0.338 C 
ATOM      7  O   UNL     1      -1.029   4.750  -0.492  1.00  0.00    -0.246 OA
BRANCH   6   8
ATOM      8  C   UNL     1       1.131   3.763  -0.889  1.00  0.00     0.063 A 
ATOM      9  C   UNL     1       3.070   2.365  -1.315  1.00  0.00     0.120 A 
ATOM     10  C   UNL     1       3.700   3.457  -1.917  1.00  0.00     0.046 A 
ATOM     11  C   UNL     1       1.783   2.525  -0.804  1.00  0.00     0.062 A 
ATOM     12  C   UNL     1       3.042   4.686  -2.034  1.00  0.00     0.005 A 
ATOM     13  C   UNL     1       1.753   4.842  -1.523  1.00  0.00     0.016 A 
BRANCH   9  14
ATOM     14  O   UNL     1       3.828   1.231  -1.188  1.00  0.00    -0.484 OA
BRANCH  14  15
ATOM     15  C   UNL     1       3.127  -0.012  -1.235  1.00  0.00     0.329 C 
BRANCH  15  16
ATOM     16  C   UNL     1       2.330  -0.400   0.014  1.00  0.00     0.257 C 
ATOM     17  O   UNL     1       1.204  -0.883  -0.069  1.00  0.00    -0.271 OA
ATOM     18  N   UNL     1       2.951  -0.092   1.200  1.00  0.00    -0.353 N 
ATOM     19  H   UNL     1       3.896   0.184   1.178  1.00  0.00     0.163 HD
BRANCH  18  20
ATOM     20  C   UNL     1       2.275  -0.156   2.485  1.00  0.00     0.121 C 
BRANCH  20  21
ATOM     21  C   UNL     1       2.720  -1.332   3.354  1.00  0.00     0.068 C 
BRANCH  21  22
ATOM     22  C   UNL     1       4.197  -1.327   3.661  1.00  0.00     0.006 A 
ATOM     23  C   UNL     1       5.041  -0.262   3.920  1.00  0.00     0.015 A 
ATOM     24  S   UNL     1       5.034  -2.821   3.753  1.00  0.00    -0.149 S 
ATOM     25  C   UNL     1       6.383  -0.679   4.160  1.00  0.00     0.012 A 
ATOM     26  C   UNL     1       6.514  -2.047   4.109  1.00  0.00     0.065 A 
ENDBRANCH  21  22
ENDBRANCH  20  21
ENDBRANCH  18  20
ENDBRANCH  15  16
ENDBRANCH  14  15
ENDBRANCH   9  14
ENDBRANCH   6   8
ENDBRANCH   5   6
ENDBRANCH   4   5
ENDBRANCH   3   4
ENDBRANCH   2   3
ENDBRANCH   1   2
BRANCH   1  27
ATOM     27  C   UNL     1       2.462   4.666   2.360  1.00  0.00     0.188 C 
BRANCH  27  28
ATOM     28  O   UNL     1       2.534   3.633   3.337  1.00  0.00    -0.377 OA
BRANCH  28  29
ATOM     29  C   UNL     1       1.839   3.765   4.571  1.00  0.00     0.188 C 
BRANCH  29  30
ATOM     30  C   UNL     1       1.904   5.109   5.329  1.00  0.00     0.188 C 
BRANCH  30  31
ATOM     31  O   UNL     1       2.621   6.125   4.645  1.00  0.00    -0.376 OA
BRANCH  31  32
ATOM     32  C   UNL     1       3.910   6.456   5.126  1.00  0.00     0.202 C 
BRANCH  32  33
ATOM     33  C   UNL     1       4.980   5.353   5.125  1.00  0.00     0.261 C 
BRANCH  33  34
ATOM     34  O   UNL     1       4.626   4.119   5.767  1.00  0.00    -0.460 OA
BRANCH  34  35
ATOM     35  C   UNL     1       4.431   4.161   7.102  1.00  0.00     0.338 C 
ATOM     36  O   UNL     1       4.537   5.136   7.827  1.00  0.00    -0.246 OA
BRANCH  35  37
ATOM     37  C   UNL     1       3.864   2.863   7.518  1.00  0.00     0.060 A 
ATOM     38  C   UNL     1       2.608   2.846   8.140  1.00  0.00     0.016 A 
ATOM     39  C   UNL     1       4.567   1.675   7.305  1.00  0.00     0.016 A 
ATOM     40  C   UNL     1       2.082   1.645   8.608  1.00  0.00     0.010 A 
ATOM     41  C   UNL     1       4.046   0.473   7.791  1.00  0.00     0.010 A 
ATOM     42  C   UNL     1       2.828   0.465   8.493  1.00  0.00    -0.014 A 
BRANCH  42  43
ATOM     43  C   UNL     1       2.433  -0.703   9.315  1.00  0.00     0.031 A 
ATOM     44  C   UNL     1       3.144  -0.927  10.623  1.00  0.00     0.074 A 
ATOM     45  C   UNL     1       1.428  -1.514   8.943  1.00  0.00     0.049 A 
ATOM     46  N   UNL     1       2.939  -1.841  11.534  1.00  0.00    -0.248 NA
ATOM     47  C   UNL     1       4.232   0.011  10.948  1.00  0.00     0.031 C 
ATOM     48  C   UNL     1       0.657  -1.396   7.708  1.00  0.00     0.029 A 
ATOM     49  N   UNL     1       0.893  -2.608   9.575  1.00  0.00    -0.354 N 
ATOM     50  C   UNL     1       3.888  -1.608  12.523  1.00  0.00     0.074 A 
ATOM     51  C   UNL     1       4.680  -0.477  12.094  1.00  0.00     0.031 C 
ATOM     52  C   UNL     1      -0.243  -2.394   7.662  1.00  0.00     0.029 A 
ATOM     53  C   UNL     1      -0.097  -3.230   8.853  1.00  0.00     0.049 A 
ATOM     54  H   UNL     1       1.189  -2.918  10.461  1.00  0.00     0.167 HD
ATOM     55  C   UNL     1       4.077  -2.265  13.691  1.00  0.00     0.034 A 
ATOM     56  C   UNL     1      -0.791  -4.354   9.118  1.00  0.00     0.034 A 
ATOM     57  C   UNL     1       3.284  -3.385  14.121  1.00  0.00     0.049 A 
ATOM     58  C   UNL     1      -0.551  -5.080  10.416  1.00  0.00     0.074 A 
ATOM     59  C   UNL     1       3.369  -4.095  15.306  1.00  0.00     0.029 A 
ATOM     60  N   UNL     1       2.275  -3.972  13.374  1.00  0.00    -0.354 N 
ATOM     61  N   UNL     1       0.274  -4.784  11.392  1.00  0.00    -0.248 NA
ATOM     62  C   UNL     1      -1.370  -6.275  10.668  1.00  0.00     0.031 C 
ATOM     63  C   UNL     1       2.438  -5.139  15.256  1.00  0.00     0.029 A 
ATOM     64  C   UNL     1       1.736  -5.045  14.065  1.00  0.00     0.049 A 
ATOM     65  H   UNL     1       1.983  -3.671  12.484  1.00  0.00     0.167 HD
ATOM     66  C   UNL     1       0.045  -5.728  12.388  1.00  0.00     0.074 A 
ATOM     67  C   UNL     1      -1.013  -6.592  11.904  1.00  0.00     0.031 C 
ATOM     68  C   UNL     1       0.657  -5.873  13.591  1.00  0.00     0.034 A 
BRANCH  55  69
ATOM     69  C   UNL     1       5.192  -1.787  14.585  1.00  0.00     0.023 A 
ATOM     70  C   UNL     1       5.085  -0.548  15.249  1.00  0.00     0.012 A 
ATOM     71  C   UNL     1       6.337  -2.582  14.789  1.00  0.00     0.148 A 
ATOM     72  C   UNL     1       6.117  -0.089  16.069  1.00  0.00     0.002 A 
ATOM     73  C   UNL     1       7.337  -2.143  15.648  1.00  0.00     0.091 A 
ATOM     74  F   UNL     1       6.433  -3.745  14.130  1.00  0.00    -0.205 F 
ATOM     75  C   UNL     1       7.236  -0.890  16.276  1.00  0.00     0.022 A 
BRANCH  73  76
ATOM     76  S   UNL     1       8.778  -3.138  16.044  1.00  0.00     0.127 S 
ATOM     77  O   UNL     1       9.844  -2.392  15.377  1.00  0.00    -0.237 OA
ATOM     78  O   UNL     1       8.806  -3.067  17.505  1.00  0.00    -0.237 OA
ATOM     79  O   UNL     1       8.512  -4.464  15.504  1.00  0.00    -0.744 OA
ENDBRANCH  73  76
ENDBRANCH  55  69
BRANCH  56  80
ATOM     80  C   UNL     1      -1.805  -4.849   8.145  1.00  0.00     0.023 A 
ATOM     81  C   UNL     1      -3.174  -4.814   8.475  1.00  0.00     0.012 A 
ATOM     82  C   UNL     1      -1.413  -5.348   6.888  1.00  0.00     0.148 A 
ATOM     83  C   UNL     1      -4.132  -5.299   7.584  1.00  0.00     0.002 A 
ATOM     84  C   UNL     1      -2.376  -5.775   5.983  1.00  0.00     0.091 A 
ATOM     85  F   UNL     1      -0.104  -5.385   6.601  1.00  0.00    -0.205 F 
ATOM     86  C   UNL     1      -3.734  -5.769   6.335  1.00  0.00     0.022 A 
BRANCH  84  87
ATOM     87  S   UNL     1      -1.969  -6.277   4.308  1.00  0.00     0.127 S 
ATOM     88  O   UNL     1      -2.306  -7.698   4.331  1.00  0.00    -0.237 OA
ATOM     89  O   UNL     1      -2.874  -5.440   3.520  1.00  0.00    -0.237 OA
ATOM     90  O   UNL     1      -0.556  -5.967   4.136  1.00  0.00    -0.744 OA
ENDBRANCH  84  87
ENDBRANCH  56  80
BRANCH  68  91
ATOM     91  C   UNL     1       0.162  -6.974  14.497  1.00  0.00     0.023 A 
ATOM     92  C   UNL     1       0.380  -8.326  14.162  1.00  0.00     0.012 A 
ATOM     93  C   UNL     1      -0.490  -6.662  15.707  1.00  0.00     0.148 A 
ATOM     94  C   UNL     1      -0.093  -9.347  14.986  1.00  0.00     0.002 A 
ATOM     95  C   UNL     1      -0.907  -7.684  16.552  1.00  0.00     0.091 A 
ATOM     96  F   UNL     1      -0.704  -5.372  16.006  1.00  0.00    -0.205 F 
ATOM     97  C   UNL     1      -0.727  -9.027  16.184  1.00  0.00     0.022 A 
BRANCH  95  98
ATOM     98  S   UNL     1      -1.637  -7.360  18.160  1.00  0.00     0.127 S 
ATOM     99  O   UNL     1      -3.046  -7.665  17.915  1.00  0.00    -0.237 OA
ATOM    100  O   UNL     1      -0.946  -8.325  19.016  1.00  0.00    -0.237 OA
ATOM    101  O   UNL     1      -1.340  -5.967  18.462  1.00  0.00    -0.744 OA
ENDBRANCH  95  98
ENDBRANCH  68  91
ENDBRANCH  42  43
ENDBRANCH  35  37
ENDBRANCH  34  35
ENDBRANCH  33  34
ENDBRANCH  32  33
ENDBRANCH  31  32
ENDBRANCH  30  31
ENDBRANCH  29  30
ENDBRANCH  28  29
ENDBRANCH  27  28
ENDBRANCH   1  27
TORSDOF 29
