REMARK SMILES COc1ccc([C@@H]2C(C#N)=C(N)N3C(=O)[C@H](CC(=O)OCCOCCOCCOCCOC(=O)c4ccc(-c5c6nc(c(-c7cccc(S(=O)(=O)[O-])c7F)c7ccc([nH]7)c(-c7cccc(S(=O)(=O)[O-])c7F)c7nc(c(-c8cccc(S(=O)(=O)[O-])c8F)c8ccc5[nH]8)C=C7)C=C6)cc4)SC3=C2C#N)cc1
REMARK SMILES IDX 26 1 25 2 24 3 23 4 22 5 21 6 20 7 18 8 19 9 17 10 16 11
REMARK SMILES IDX 7 12 8 13 100 14 11 15 99 16 13 17 98 18 14 19 15 20 6 21
REMARK SMILES IDX 3 22 4 23 104 24 5 25 103 26 2 27 1 28 9 29 10 30 101 31
REMARK SMILES IDX 102 32 12 33 27 36 28 37 29 38 30 39 31 40 32 41 33 42 34 43
REMARK SMILES IDX 35 44 36 45 97 46 37 47 96 48 38 49 39 50 40 51 90 52 41 53
REMARK SMILES IDX 95 54 89 55 91 56 42 57 94 58 88 59 87 60 43 62 75 63 55 64
REMARK SMILES IDX 74 65 56 66 59 67 73 68 92 69 57 70 58 71 72 73 93 74 60 75
REMARK SMILES IDX 44 76 45 77 53 78 46 79 48 80 54 81 47 82 49 83 50 84 51 85
REMARK SMILES IDX 52 86 76 87 77 88 85 89 78 90 80 91 86 92 79 93 81 94 82 95
REMARK SMILES IDX 83 96 84 97 61 98 62 99 70 100 63 101 65 102 71 103 64 104
REMARK SMILES IDX 66 105 67 106 68 107 69 108
REMARK H PARENT 12 34 12 35 91 61 59 72
REMARK Flexibility Score: inf
ROOT
ATOM      1  O   UNL     1       3.152 -12.198  -1.018  1.00  0.00    -0.377 OA
ENDROOT
BRANCH   1   2
ATOM      2  C   UNL     1       2.688 -12.320  -2.347  1.00  0.00     0.188 C 
BRANCH   2   3
ATOM      3  C   UNL     1       3.507 -13.177  -3.318  1.00  0.00     0.188 C 
BRANCH   3   4
ATOM      4  O   UNL     1       4.100 -14.369  -2.857  1.00  0.00    -0.376 OA
BRANCH   4   5
ATOM      5  C   UNL     1       5.291 -14.375  -2.085  1.00  0.00     0.202 C 
BRANCH   5   6
ATOM      6  C   UNL     1       6.226 -13.174  -1.856  1.00  0.00     0.261 C 
BRANCH   6   7
ATOM      7  O   UNL     1       5.651 -11.864  -1.932  1.00  0.00    -0.463 OA
BRANCH   7   8
ATOM      8  C   UNL     1       6.091 -11.091  -2.948  1.00  0.00     0.307 C 
ATOM      9  O   UNL     1       6.851 -11.477  -3.833  1.00  0.00    -0.252 OA
BRANCH   8  10
ATOM     10  C   UNL     1       5.497  -9.704  -3.001  1.00  0.00     0.147 C 
BRANCH  10  11
ATOM     11  C   UNL     1       4.460  -9.304  -1.977  1.00  0.00     0.154 C 
ATOM     12  C   UNL     1       1.990  -6.236   0.953  1.00  0.00     0.107 C 
ATOM     13  C   UNL     1       3.079  -6.817   1.839  1.00  0.00     0.083 C 
ATOM     14  C   UNL     1       2.239  -6.523  -0.510  1.00  0.00     0.073 C 
ATOM     15  C   UNL     1       3.970  -7.742   1.386  1.00  0.00     0.126 C 
ATOM     16  C   UNL     1       3.184  -7.404  -0.864  1.00  0.00     0.099 C 
ATOM     17  N   UNL     1       3.989  -8.091   0.028  1.00  0.00    -0.258 N 
ATOM     18  S   UNL     1       3.606  -7.773  -2.501  1.00  0.00    -0.093 SA
ATOM     19  C   UNL     1       4.880  -9.034  -0.545  1.00  0.00     0.247 C 
ATOM     20  O   UNL     1       5.781  -9.640   0.022  1.00  0.00    -0.273 OA
BRANCH  12  21
ATOM     21  C   UNL     1       1.680  -4.751   1.163  1.00  0.00    -0.034 A 
ATOM     22  C   UNL     1       0.930  -2.039   1.079  1.00  0.00     0.118 A 
ATOM     23  C   UNL     1      -0.007  -3.015   1.412  1.00  0.00     0.047 A 
ATOM     24  C   UNL     1       2.257  -2.406   0.859  1.00  0.00     0.047 A 
ATOM     25  C   UNL     1       0.359  -4.361   1.448  1.00  0.00     0.008 A 
ATOM     26  C   UNL     1       2.635  -3.753   0.908  1.00  0.00     0.008 A 
BRANCH  22  27
ATOM     27  O   UNL     1       0.462  -0.754   1.043  1.00  0.00    -0.497 OA
ATOM     28  C   UNL     1       1.005   0.048  -0.002  1.00  0.00     0.278 C 
ENDBRANCH  22  27
ENDBRANCH  12  21
BRANCH  13  29
ATOM     29  C   UNL     1       3.089  -6.401   3.204  1.00  0.00     0.100 C 
ATOM     30  N   UNL     1       3.079  -6.027   4.306  1.00  0.00    -0.193 NA
ENDBRANCH  13  29
BRANCH  14  31
ATOM     31  C   UNL     1       1.623  -5.599  -1.548  1.00  0.00     0.098 C 
ATOM     32  N   UNL     1       1.112  -4.832  -2.409  1.00  0.00    -0.193 NA
ENDBRANCH  14  31
BRANCH  15  33
ATOM     33  N   UNL     1       4.852  -8.359   2.231  1.00  0.00    -0.384 N 
ATOM     34  H   UNL     1       4.857  -8.131   3.189  1.00  0.00     0.158 HD
ATOM     35  H   UNL     1       5.481  -9.031   1.882  1.00  0.00     0.158 HD
ENDBRANCH  15  33
ENDBRANCH  10  11
ENDBRANCH   8  10
ENDBRANCH   7   8
ENDBRANCH   6   7
ENDBRANCH   5   6
ENDBRANCH   4   5
ENDBRANCH   3   4
ENDBRANCH   2   3
ENDBRANCH   1   2
BRANCH   1  36
ATOM     36  C   UNL     1       2.968 -13.280  -0.105  1.00  0.00     0.188 C 
BRANCH  36  37
ATOM     37  C   UNL     1       2.208 -14.562  -0.519  1.00  0.00     0.188 C 
BRANCH  37  38
ATOM     38  O   UNL     1       1.284 -14.418  -1.579  1.00  0.00    -0.376 OA
BRANCH  38  39
ATOM     39  C   UNL     1      -0.076 -14.134  -1.291  1.00  0.00     0.202 C 
BRANCH  39  40
ATOM     40  C   UNL     1      -0.442 -12.986  -0.333  1.00  0.00     0.261 C 
BRANCH  40  41
ATOM     41  O   UNL     1       0.200 -12.979   0.950  1.00  0.00    -0.460 OA
BRANCH  41  42
ATOM     42  C   UNL     1      -0.034 -14.030   1.766  1.00  0.00     0.338 C 
ATOM     43  O   UNL     1      -0.768 -14.975   1.543  1.00  0.00    -0.246 OA
BRANCH  42  44
ATOM     44  C   UNL     1       0.913 -13.947   2.899  1.00  0.00     0.060 A 
ATOM     45  C   UNL     1       1.873 -14.956   3.058  1.00  0.00     0.016 A 
ATOM     46  C   UNL     1       0.842 -12.891   3.809  1.00  0.00     0.016 A 
ATOM     47  C   UNL     1       2.734 -14.938   4.153  1.00  0.00     0.010 A 
ATOM     48  C   UNL     1       1.690 -12.887   4.921  1.00  0.00     0.010 A 
ATOM     49  C   UNL     1       2.610 -13.933   5.119  1.00  0.00    -0.014 A 
BRANCH  49  50
ATOM     50  C   UNL     1       3.305 -14.082   6.420  1.00  0.00     0.031 A 
ATOM     51  C   UNL     1       2.510 -14.543   7.612  1.00  0.00     0.074 A 
ATOM     52  C   UNL     1       4.620 -13.831   6.543  1.00  0.00     0.049 A 
ATOM     53  N   UNL     1       2.888 -14.696   8.853  1.00  0.00    -0.248 NA
ATOM     54  C   UNL     1       1.095 -14.871   7.370  1.00  0.00     0.031 C 
ATOM     55  C   UNL     1       5.504 -13.407   5.459  1.00  0.00     0.029 A 
ATOM     56  N   UNL     1       5.434 -13.871   7.648  1.00  0.00    -0.354 N 
ATOM     57  C   UNL     1       1.753 -15.095   9.548  1.00  0.00     0.074 A 
ATOM     58  C   UNL     1       0.670 -15.155   8.591  1.00  0.00     0.031 C 
ATOM     59  C   UNL     1       6.734 -13.195   5.960  1.00  0.00     0.029 A 
ATOM     60  C   UNL     1       6.713 -13.430   7.403  1.00  0.00     0.049 A 
ATOM     61  H   UNL     1       5.131 -14.185   8.531  1.00  0.00     0.167 HD
ATOM     62  C   UNL     1       1.624 -15.389  10.863  1.00  0.00     0.034 A 
ATOM     63  C   UNL     1       7.736 -13.205   8.251  1.00  0.00     0.034 A 
ATOM     64  C   UNL     1       2.704 -15.332  11.810  1.00  0.00     0.049 A 
ATOM     65  C   UNL     1       7.555 -13.493   9.719  1.00  0.00     0.074 A 
ATOM     66  C   UNL     1       2.686 -15.655  13.155  1.00  0.00     0.029 A 
ATOM     67  N   UNL     1       3.988 -14.897  11.521  1.00  0.00    -0.354 N 
ATOM     68  N   UNL     1       6.503 -13.961  10.347  1.00  0.00    -0.248 NA
ATOM     69  C   UNL     1       8.713 -13.251  10.592  1.00  0.00     0.031 C 
ATOM     70  C   UNL     1       3.941 -15.358  13.692  1.00  0.00     0.029 A 
ATOM     71  C   UNL     1       4.764 -14.918  12.668  1.00  0.00     0.049 A 
ATOM     72  H   UNL     1       4.303 -14.615  10.632  1.00  0.00     0.167 HD
ATOM     73  C   UNL     1       6.884 -14.108  11.677  1.00  0.00     0.074 A 
ATOM     74  C   UNL     1       8.270 -13.696  11.760  1.00  0.00     0.031 C 
ATOM     75  C   UNL     1       6.153 -14.543  12.733  1.00  0.00     0.034 A 
BRANCH  62  76
ATOM     76  C   UNL     1       0.258 -15.784  11.362  1.00  0.00     0.023 A 
ATOM     77  C   UNL     1      -0.310 -17.018  10.984  1.00  0.00     0.012 A 
ATOM     78  C   UNL     1      -0.445 -14.944  12.250  1.00  0.00     0.148 A 
ATOM     79  C   UNL     1      -1.572 -17.390  11.447  1.00  0.00     0.002 A 
ATOM     80  C   UNL     1      -1.677 -15.346  12.749  1.00  0.00     0.091 A 
ATOM     81  F   UNL     1       0.102 -13.767  12.583  1.00  0.00    -0.205 F 
ATOM     82  C   UNL     1      -2.249 -16.561  12.337  1.00  0.00     0.022 A 
BRANCH  80  83
ATOM     83  S   UNL     1      -2.589 -14.388  13.963  1.00  0.00     0.127 S 
ATOM     84  O   UNL     1      -3.759 -13.973  13.191  1.00  0.00    -0.237 OA
ATOM     85  O   UNL     1      -2.864 -15.388  14.996  1.00  0.00    -0.237 OA
ATOM     86  O   UNL     1      -1.703 -13.310  14.377  1.00  0.00    -0.744 OA
ENDBRANCH  80  83
ENDBRANCH  62  76
BRANCH  63  87
ATOM     87  C   UNL     1       9.030 -12.675   7.735  1.00  0.00     0.023 A 
ATOM     88  C   UNL     1      10.185 -13.479   7.774  1.00  0.00     0.012 A 
ATOM     89  C   UNL     1       9.116 -11.373   7.205  1.00  0.00     0.148 A 
ATOM     90  C   UNL     1      11.410 -12.984   7.327  1.00  0.00     0.002 A 
ATOM     91  C   UNL     1      10.325 -10.908   6.705  1.00  0.00     0.091 A 
ATOM     92  F   UNL     1       8.007 -10.620   7.188  1.00  0.00    -0.205 F 
ATOM     93  C   UNL     1      11.479 -11.703   6.784  1.00  0.00     0.022 A 
BRANCH  91  94
ATOM     94  S   UNL     1      10.479  -9.324   5.873  1.00  0.00     0.127 S 
ATOM     95  O   UNL     1      11.346  -8.588   6.790  1.00  0.00    -0.237 OA
ATOM     96  O   UNL     1      11.104  -9.712   4.609  1.00  0.00    -0.237 OA
ATOM     97  O   UNL     1       9.122  -8.812   5.742  1.00  0.00    -0.744 OA
ENDBRANCH  91  94
ENDBRANCH  63  87
BRANCH  75  98
ATOM     98  C   UNL     1       6.846 -14.660  14.069  1.00  0.00     0.023 A 
ATOM     99  C   UNL     1       7.238 -13.507  14.777  1.00  0.00     0.012 A 
ATOM    100  C   UNL     1       7.046 -15.929  14.652  1.00  0.00     0.148 A 
ATOM    101  C   UNL     1       7.856 -13.617  16.023  1.00  0.00     0.002 A 
ATOM    102  C   UNL     1       7.608 -16.027  15.917  1.00  0.00     0.091 A 
ATOM    103  F   UNL     1       6.678 -17.015  13.958  1.00  0.00    -0.205 F 
ATOM    104  C   UNL     1       8.030 -14.874  16.597  1.00  0.00     0.022 A 
BRANCH 102 105
ATOM    105  S   UNL     1       7.780 -17.594  16.778  1.00  0.00     0.127 S 
ATOM    106  O   UNL     1       9.233 -17.758  16.809  1.00  0.00    -0.237 OA
ATOM    107  O   UNL     1       7.171 -17.301  18.075  1.00  0.00    -0.237 OA
ATOM    108  O   UNL     1       7.062 -18.577  15.978  1.00  0.00    -0.744 OA
ENDBRANCH 102 105
ENDBRANCH  75  98
ENDBRANCH  49  50
ENDBRANCH  42  44
ENDBRANCH  41  42
ENDBRANCH  40  41
ENDBRANCH  39  40
ENDBRANCH  38  39
ENDBRANCH  37  38
ENDBRANCH  36  37
ENDBRANCH   1  36
TORSDOF 29
