REMARK SMILES Cc1cc(C)c2c(c1)C=C(C(=O)OCCOCCOCCOCCOC(=O)c1ccc(-c3c4nc(c(-c5cccc(S(=O)(=O)[O-])c5F)c5ccc([nH]5)c(-c5cccc(S(=O)(=O)[O-])c5F)c5nc(c(-c6cccc(S(=O)(=O)[O-])c6F)c6ccc3[nH]6)C=C5)C=C4)cc1)[C@@H](C(F)(F)F)O2
REMARK SMILES IDX 20 1 19 2 18 3 17 4 16 5 15 6 14 7 13 8 11 9 12 10 10 11
REMARK SMILES IDX 1 12 2 13 3 14 8 15 4 16 7 17 5 18 6 19 9 20 96 21 91 22
REMARK SMILES IDX 92 23 93 24 94 25 95 26 21 27 22 28 23 29 24 30 25 31 26 32
REMARK SMILES IDX 27 33 28 34 29 35 90 36 30 37 89 38 31 39 32 40 33 41 83 42
REMARK SMILES IDX 34 43 88 44 82 45 84 46 35 47 87 48 81 49 80 50 36 52 68 53
REMARK SMILES IDX 48 54 67 55 49 56 52 57 66 58 85 59 50 60 51 61 65 63 86 64
REMARK SMILES IDX 53 65 37 66 38 67 46 68 39 69 41 70 47 71 40 72 42 73 43 74
REMARK SMILES IDX 44 75 45 76 69 77 70 78 78 79 71 80 73 81 79 82 72 83 74 84
REMARK SMILES IDX 75 85 76 86 77 87 54 88 55 89 63 90 56 91 58 92 64 93 57 94
REMARK SMILES IDX 59 95 60 96 61 97 62 98
REMARK H PARENT 84 51 52 62
REMARK Flexibility Score: inf
ROOT
ATOM      1  C   UNL     1       0.364   1.454   9.959  1.00  0.00     0.188 C 
ENDROOT
BRANCH   1   2
ATOM      2  O   UNL     1       0.114   0.806   8.710  1.00  0.00    -0.377 OA
BRANCH   2   3
ATOM      3  C   UNL     1       0.347   1.511   7.504  1.00  0.00     0.188 C 
BRANCH   3   4
ATOM      4  C   UNL     1      -0.603   2.695   7.236  1.00  0.00     0.188 C 
BRANCH   4   5
ATOM      5  O   UNL     1      -1.284   3.146   8.395  1.00  0.00    -0.376 OA
BRANCH   5   6
ATOM      6  C   UNL     1      -2.628   2.760   8.626  1.00  0.00     0.202 C 
BRANCH   6   7
ATOM      7  C   UNL     1      -3.068   1.287   8.571  1.00  0.00     0.261 C 
BRANCH   7   8
ATOM      8  O   UNL     1      -2.453   0.475   7.569  1.00  0.00    -0.460 OA
BRANCH   8   9
ATOM      9  C   UNL     1      -2.873   0.624   6.300  1.00  0.00     0.338 C 
ATOM     10  O   UNL     1      -3.732   1.388   5.898  1.00  0.00    -0.246 OA
BRANCH   9  11
ATOM     11  C   UNL     1      -1.971  -0.167   5.434  1.00  0.00     0.087 C 
ATOM     12  C   UNL     1       1.073   0.096   0.081  1.00  0.00     0.044 C 
ATOM     13  C   UNL     1       0.590  -0.505   1.367  1.00  0.00    -0.050 A 
ATOM     14  C   UNL     1       0.839  -1.854   1.649  1.00  0.00     0.010 A 
ATOM     15  C   UNL     1      -0.135   0.259   2.288  1.00  0.00     0.015 A 
ATOM     16  C   UNL     1       0.381  -2.439   2.839  1.00  0.00    -0.008 A 
ATOM     17  C   UNL     1      -0.624  -0.320   3.464  1.00  0.00     0.018 A 
ATOM     18  C   UNL     1       0.628  -3.897   3.108  1.00  0.00     0.048 C 
ATOM     19  C   UNL     1      -0.333  -1.654   3.758  1.00  0.00     0.130 A 
ATOM     20  C   UNL     1      -1.498   0.441   4.339  1.00  0.00     0.027 C 
ATOM     21  O   UNL     1      -0.725  -2.266   4.914  1.00  0.00    -0.475 OA
ATOM     22  C   UNL     1      -1.581  -1.562   5.853  1.00  0.00     0.316 C 
BRANCH  22  23
ATOM     23  C   UNL     1      -2.808  -2.443   6.121  1.00  0.00     0.430 C 
ATOM     24  F   UNL     1      -2.450  -3.715   6.408  1.00  0.00    -0.167 F 
ATOM     25  F   UNL     1      -3.541  -1.988   7.162  1.00  0.00    -0.167 F 
ATOM     26  F   UNL     1      -3.627  -2.486   5.042  1.00  0.00    -0.167 F 
ENDBRANCH  22  23
ENDBRANCH   9  11
ENDBRANCH   8   9
ENDBRANCH   7   8
ENDBRANCH   6   7
ENDBRANCH   5   6
ENDBRANCH   4   5
ENDBRANCH   3   4
ENDBRANCH   2   3
ENDBRANCH   1   2
BRANCH   1  27
ATOM     27  C   UNL     1       0.890   2.909  10.064  1.00  0.00     0.188 C 
BRANCH  27  28
ATOM     28  O   UNL     1       1.633   3.361   8.941  1.00  0.00    -0.376 OA
BRANCH  28  29
ATOM     29  C   UNL     1       3.034   3.499   9.088  1.00  0.00     0.202 C 
BRANCH  29  30
ATOM     30  C   UNL     1       3.832   2.206   9.299  1.00  0.00     0.261 C 
BRANCH  30  31
ATOM     31  O   UNL     1       3.414   1.380  10.394  1.00  0.00    -0.460 OA
BRANCH  31  32
ATOM     32  C   UNL     1       3.555   1.882  11.646  1.00  0.00     0.338 C 
ATOM     33  O   UNL     1       4.013   2.956  11.956  1.00  0.00    -0.246 OA
BRANCH  32  34
ATOM     34  C   UNL     1       2.848   0.950  12.556  1.00  0.00     0.060 A 
ATOM     35  C   UNL     1       1.744   1.415  13.283  1.00  0.00     0.016 A 
ATOM     36  C   UNL     1       3.244  -0.387  12.647  1.00  0.00     0.016 A 
ATOM     37  C   UNL     1       1.044   0.544  14.118  1.00  0.00     0.010 A 
ATOM     38  C   UNL     1       2.557  -1.252  13.503  1.00  0.00     0.010 A 
ATOM     39  C   UNL     1       1.474  -0.782  14.265  1.00  0.00    -0.014 A 
BRANCH  39  40
ATOM     40  C   UNL     1       0.931  -1.594  15.380  1.00  0.00     0.031 A 
ATOM     41  C   UNL     1       1.701  -1.615  16.673  1.00  0.00     0.074 A 
ATOM     42  C   UNL     1      -0.234  -2.260  15.274  1.00  0.00     0.049 A 
ATOM     43  N   UNL     1       1.401  -2.191  17.806  1.00  0.00    -0.248 NA
ATOM     44  C   UNL     1       2.979  -0.881  16.691  1.00  0.00     0.031 C 
ATOM     45  C   UNL     1      -1.074  -2.311  14.080  1.00  0.00     0.029 A 
ATOM     46  N   UNL     1      -0.908  -3.027  16.193  1.00  0.00    -0.354 N 
ATOM     47  C   UNL     1       2.449  -1.893  18.668  1.00  0.00     0.074 A 
ATOM     48  C   UNL     1       3.411  -1.116  17.921  1.00  0.00     0.031 C 
ATOM     49  C   UNL     1      -2.151  -3.074  14.338  1.00  0.00     0.029 A 
ATOM     50  C   UNL     1      -2.071  -3.579  15.709  1.00  0.00     0.049 A 
ATOM     51  H   UNL     1      -0.588  -3.168  17.113  1.00  0.00     0.167 HD
ATOM     52  C   UNL     1       2.584  -2.208  19.976  1.00  0.00     0.034 A 
ATOM     53  C   UNL     1      -2.964  -4.397  16.306  1.00  0.00     0.034 A 
ATOM     54  C   UNL     1       1.622  -2.967  20.722  1.00  0.00     0.049 A 
ATOM     55  C   UNL     1      -2.756  -4.789  17.750  1.00  0.00     0.074 A 
ATOM     56  C   UNL     1       1.655  -3.308  22.061  1.00  0.00     0.029 A 
ATOM     57  N   UNL     1       0.463  -3.515  20.194  1.00  0.00    -0.354 N 
ATOM     58  N   UNL     1      -1.829  -4.391  18.589  1.00  0.00    -0.248 NA
ATOM     59  C   UNL     1      -3.728  -5.724  18.339  1.00  0.00     0.031 C 
ATOM     60  C   UNL     1       0.534  -4.093  22.337  1.00  0.00     0.029 A 
ATOM     61  C   UNL     1      -0.215  -4.212  21.176  1.00  0.00     0.049 A 
ATOM     62  H   UNL     1       0.168  -3.421  19.260  1.00  0.00     0.167 HD
ATOM     63  C   UNL     1      -2.122  -5.001  19.805  1.00  0.00     0.074 A 
ATOM     64  C   UNL     1      -3.326  -5.779  19.603  1.00  0.00     0.031 C 
ATOM     65  C   UNL     1      -1.444  -4.939  20.978  1.00  0.00     0.034 A 
BRANCH  52  66
ATOM     66  C   UNL     1       3.795  -1.690  20.702  1.00  0.00     0.023 A 
ATOM     67  C   UNL     1       3.879  -0.318  21.014  1.00  0.00     0.012 A 
ATOM     68  C   UNL     1       4.801  -2.567  21.152  1.00  0.00     0.148 A 
ATOM     69  C   UNL     1       4.957   0.179  21.744  1.00  0.00     0.002 A 
ATOM     70  C   UNL     1       5.847  -2.072  21.920  1.00  0.00     0.091 A 
ATOM     71  F   UNL     1       4.711  -3.864  20.826  1.00  0.00    -0.205 F 
ATOM     72  C   UNL     1       5.932  -0.699  22.208  1.00  0.00     0.022 A 
BRANCH  70  73
ATOM     73  S   UNL     1       7.110  -3.128  22.638  1.00  0.00     0.127 S 
ATOM     74  O   UNL     1       8.308  -2.676  21.931  1.00  0.00    -0.237 OA
ATOM     75  O   UNL     1       7.056  -2.749  24.050  1.00  0.00    -0.237 OA
ATOM     76  O   UNL     1       6.703  -4.496  22.354  1.00  0.00    -0.744 OA
ENDBRANCH  70  73
ENDBRANCH  52  66
BRANCH  53  77
ATOM     77  C   UNL     1      -4.170  -4.862  15.559  1.00  0.00     0.023 A 
ATOM     78  C   UNL     1      -5.447  -4.419  15.960  1.00  0.00     0.012 A 
ATOM     79  C   UNL     1      -4.063  -5.725  14.451  1.00  0.00     0.148 A 
ATOM     80  C   UNL     1      -6.593  -4.844  15.287  1.00  0.00     0.002 A 
ATOM     81  C   UNL     1      -5.205  -6.101  13.751  1.00  0.00     0.091 A 
ATOM     82  F   UNL     1      -2.844  -6.153  14.096  1.00  0.00    -0.205 F 
ATOM     83  C   UNL     1      -6.472  -5.675  14.177  1.00  0.00     0.022 A 
BRANCH  81  84
ATOM     84  S   UNL     1      -5.141  -7.068  12.238  1.00  0.00     0.127 S 
ATOM     85  O   UNL     1      -5.803  -8.305  12.646  1.00  0.00    -0.237 OA
ATOM     86  O   UNL     1      -5.910  -6.231  11.317  1.00  0.00    -0.237 OA
ATOM     87  O   UNL     1      -3.728  -7.191  11.907  1.00  0.00    -0.744 OA
ENDBRANCH  81  84
ENDBRANCH  53  77
BRANCH  65  88
ATOM     88  C   UNL     1      -1.963  -5.721  22.158  1.00  0.00     0.023 A 
ATOM     89  C   UNL     1      -1.802  -7.120  22.183  1.00  0.00     0.012 A 
ATOM     90  C   UNL     1      -2.445  -5.058  23.306  1.00  0.00     0.148 A 
ATOM     91  C   UNL     1      -2.118  -7.849  23.329  1.00  0.00     0.002 A 
ATOM     92  C   UNL     1      -2.707  -5.785  24.462  1.00  0.00     0.091 A 
ATOM     93  F   UNL     1      -2.595  -3.727  23.259  1.00  0.00    -0.205 F 
ATOM     94  C   UNL     1      -2.552  -7.181  24.472  1.00  0.00     0.022 A 
BRANCH  92  95
ATOM     95  S   UNL     1      -3.161  -5.008  26.018  1.00  0.00     0.127 S 
ATOM     96  O   UNL     1      -4.506  -5.539  26.234  1.00  0.00    -0.237 OA
ATOM     97  O   UNL     1      -2.144  -5.532  26.930  1.00  0.00    -0.237 OA
ATOM     98  O   UNL     1      -3.095  -3.571  25.789  1.00  0.00    -0.744 OA
ENDBRANCH  92  95
ENDBRANCH  65  88
ENDBRANCH  39  40
ENDBRANCH  32  34
ENDBRANCH  31  32
ENDBRANCH  30  31
ENDBRANCH  29  30
ENDBRANCH  28  29
ENDBRANCH  27  28
ENDBRANCH   1  27
TORSDOF 24
