REMARK SMILES O=C(OCCOCCOCCOCCOC(=O)[C@H]1CCCCN1C(=O)c1cn2ccccc2n1)c1ccc(-c2c3nc(c(-c4cccc(S(=O)(=O)[O-])c4F)c4ccc([nH]4)c(-c4cccc(S(=O)(=O)[O-])c4F)c4nc(c(-c5cccc(S(=O)(=O)[O-])c5F)c5ccc2[nH]5)C=C4)C=C3)cc1
REMARK SMILES IDX 8 1 7 2 6 3 5 4 4 5 3 6 2 7 1 8 35 9 36 10 97 11 37 12 96 13
REMARK SMILES IDX 38 14 39 15 40 16 90 17 41 18 95 19 89 20 91 21 42 22 94 23
REMARK SMILES IDX 88 24 87 25 43 27 75 28 55 29 74 30 56 31 59 32 73 33 92 34
REMARK SMILES IDX 57 35 58 36 72 38 93 39 60 40 44 41 45 42 53 43 46 44 48 45
REMARK SMILES IDX 54 46 47 47 49 48 50 49 51 50 52 51 76 52 77 53 85 54 78 55
REMARK SMILES IDX 80 56 86 57 79 58 81 59 82 60 83 61 84 62 61 63 62 64 70 65
REMARK SMILES IDX 63 66 65 67 71 68 64 69 66 70 67 71 68 72 69 73 9 74 10 75
REMARK SMILES IDX 11 76 12 77 13 78 14 79 15 80 16 81 17 82 18 83 19 84 23 85
REMARK SMILES IDX 20 86 22 87 21 88 24 89 25 90 26 91 27 92 34 93 28 94 33 95
REMARK SMILES IDX 29 96 32 97 30 98 31 99
REMARK H PARENT 91 26 59 37
REMARK Flexibility Score: inf
ROOT
ATOM      1  C   UNL     1       6.899  -4.591   2.046  1.00  0.00     0.188 C 
ENDROOT
BRANCH   1   2
ATOM      2  C   UNL     1       6.822  -4.964   3.520  1.00  0.00     0.188 C 
BRANCH   2   3
ATOM      3  O   UNL     1       6.374  -6.309   3.653  1.00  0.00    -0.376 OA
BRANCH   3   4
ATOM      4  C   UNL     1       5.256  -6.534   4.490  1.00  0.00     0.202 C 
BRANCH   4   5
ATOM      5  C   UNL     1       5.679  -7.154   5.821  1.00  0.00     0.261 C 
BRANCH   5   6
ATOM      6  O   UNL     1       6.409  -6.213   6.626  1.00  0.00    -0.460 OA
BRANCH   6   7
ATOM      7  C   UNL     1       7.676  -5.770   6.452  1.00  0.00     0.338 C 
ATOM      8  O   UNL     1       7.946  -4.632   6.834  1.00  0.00    -0.246 OA
BRANCH   7   9
ATOM      9  C   UNL     1       8.796  -6.618   5.925  1.00  0.00     0.060 A 
ATOM     10  C   UNL     1       8.697  -7.622   4.953  1.00  0.00     0.016 A 
ATOM     11  C   UNL     1      10.078  -6.305   6.413  1.00  0.00     0.016 A 
ATOM     12  C   UNL     1       9.819  -8.328   4.516  1.00  0.00     0.010 A 
ATOM     13  C   UNL     1      11.206  -7.011   5.989  1.00  0.00     0.010 A 
ATOM     14  C   UNL     1      11.069  -8.052   5.065  1.00  0.00    -0.014 A 
BRANCH  14  15
ATOM     15  C   UNL     1      12.178  -9.004   4.867  1.00  0.00     0.031 A 
ATOM     16  C   UNL     1      12.360 -10.066   5.910  1.00  0.00     0.074 A 
ATOM     17  C   UNL     1      12.999  -8.910   3.809  1.00  0.00     0.049 A 
ATOM     18  N   UNL     1      13.319 -10.937   6.050  1.00  0.00    -0.248 NA
ATOM     19  C   UNL     1      11.309 -10.152   6.940  1.00  0.00     0.031 C 
ATOM     20  C   UNL     1      12.867  -7.944   2.721  1.00  0.00     0.029 A 
ATOM     21  N   UNL     1      14.129  -9.622   3.498  1.00  0.00    -0.354 N 
ATOM     22  C   UNL     1      13.017 -11.638   7.210  1.00  0.00     0.074 A 
ATOM     23  C   UNL     1      11.775 -11.108   7.725  1.00  0.00     0.031 C 
ATOM     24  C   UNL     1      13.907  -8.091   1.883  1.00  0.00     0.029 A 
ATOM     25  C   UNL     1      14.794  -9.132   2.400  1.00  0.00     0.049 A 
ATOM     26  H   UNL     1      14.433 -10.405   4.011  1.00  0.00     0.167 HD
ATOM     27  C   UNL     1      13.720 -12.630   7.799  1.00  0.00     0.034 A 
ATOM     28  C   UNL     1      16.003  -9.462   1.903  1.00  0.00     0.034 A 
ATOM     29  C   UNL     1      14.956 -13.134   7.278  1.00  0.00     0.049 A 
ATOM     30  C   UNL     1      16.785 -10.558   2.584  1.00  0.00     0.074 A 
ATOM     31  C   UNL     1      15.767 -14.129   7.787  1.00  0.00     0.029 A 
ATOM     32  N   UNL     1      15.567 -12.660   6.125  1.00  0.00    -0.354 N 
ATOM     33  N   UNL     1      16.460 -11.265   3.642  1.00  0.00    -0.248 NA
ATOM     34  C   UNL     1      18.083 -10.919   1.998  1.00  0.00     0.031 C 
ATOM     35  C   UNL     1      16.881 -14.244   6.949  1.00  0.00     0.029 A 
ATOM     36  C   UNL     1      16.750 -13.338   5.905  1.00  0.00     0.049 A 
ATOM     37  H   UNL     1      15.210 -11.946   5.549  1.00  0.00     0.167 HD
ATOM     38  C   UNL     1      17.496 -12.172   3.833  1.00  0.00     0.074 A 
ATOM     39  C   UNL     1      18.456 -11.931   2.773  1.00  0.00     0.031 C 
ATOM     40  C   UNL     1      17.649 -13.109   4.801  1.00  0.00     0.034 A 
BRANCH  27  41
ATOM     41  C   UNL     1      13.162 -13.190   9.078  1.00  0.00     0.023 A 
ATOM     42  C   UNL     1      12.023 -14.020   9.042  1.00  0.00     0.012 A 
ATOM     43  C   UNL     1      13.735 -12.855  10.319  1.00  0.00     0.148 A 
ATOM     44  C   UNL     1      11.434 -14.468  10.224  1.00  0.00     0.002 A 
ATOM     45  C   UNL     1      13.165 -13.337  11.491  1.00  0.00     0.091 A 
ATOM     46  F   UNL     1      14.794 -12.034  10.336  1.00  0.00    -0.205 F 
ATOM     47  C   UNL     1      12.009 -14.132  11.447  1.00  0.00     0.022 A 
BRANCH  45  48
ATOM     48  S   UNL     1      13.871 -12.993  13.106  1.00  0.00     0.127 S 
ATOM     49  O   UNL     1      12.992 -11.931  13.592  1.00  0.00    -0.237 OA
ATOM     50  O   UNL     1      13.714 -14.276  13.795  1.00  0.00    -0.237 OA
ATOM     51  O   UNL     1      15.253 -12.610  12.859  1.00  0.00    -0.744 OA
ENDBRANCH  45  48
ENDBRANCH  27  41
BRANCH  28  52
ATOM     52  C   UNL     1      16.526  -8.748   0.703  1.00  0.00     0.023 A 
ATOM     53  C   UNL     1      16.612  -9.422  -0.529  1.00  0.00     0.012 A 
ATOM     54  C   UNL     1      16.869  -7.381   0.762  1.00  0.00     0.148 A 
ATOM     55  C   UNL     1      17.037  -8.752  -1.679  1.00  0.00     0.002 A 
ATOM     56  C   UNL     1      17.240  -6.707  -0.396  1.00  0.00     0.091 A 
ATOM     57  F   UNL     1      16.800  -6.762   1.949  1.00  0.00    -0.205 F 
ATOM     58  C   UNL     1      17.336  -7.393  -1.615  1.00  0.00     0.022 A 
BRANCH  56  59
ATOM     59  S   UNL     1      17.513  -4.931  -0.434  1.00  0.00     0.127 S 
ATOM     60  O   UNL     1      18.951  -4.854  -0.676  1.00  0.00    -0.237 OA
ATOM     61  O   UNL     1      16.675  -4.520  -1.561  1.00  0.00    -0.237 OA
ATOM     62  O   UNL     1      17.064  -4.434   0.860  1.00  0.00    -0.744 OA
ENDBRANCH  56  59
ENDBRANCH  28  52
BRANCH  40  63
ATOM     63  C   UNL     1      18.873 -13.982   4.752  1.00  0.00     0.023 A 
ATOM     64  C   UNL     1      20.107 -13.478   5.205  1.00  0.00     0.012 A 
ATOM     65  C   UNL     1      18.757 -15.343   4.408  1.00  0.00     0.148 A 
ATOM     66  C   UNL     1      21.213 -14.320   5.312  1.00  0.00     0.002 A 
ATOM     67  C   UNL     1      19.851 -16.184   4.560  1.00  0.00     0.091 A 
ATOM     68  F   UNL     1      17.573 -15.790   3.964  1.00  0.00    -0.205 F 
ATOM     69  C   UNL     1      21.081 -15.674   5.006  1.00  0.00     0.022 A 
BRANCH  67  70
ATOM     70  S   UNL     1      19.742 -17.957   4.296  1.00  0.00     0.127 S 
ATOM     71  O   UNL     1      20.517 -18.123   3.067  1.00  0.00    -0.237 OA
ATOM     72  O   UNL     1      20.383 -18.490   5.499  1.00  0.00    -0.237 OA
ATOM     73  O   UNL     1      18.322 -18.262   4.183  1.00  0.00    -0.744 OA
ENDBRANCH  67  70
ENDBRANCH  40  63
ENDBRANCH  14  15
ENDBRANCH   7   9
ENDBRANCH   6   7
ENDBRANCH   5   6
ENDBRANCH   4   5
ENDBRANCH   3   4
ENDBRANCH   2   3
ENDBRANCH   1   2
BRANCH   1  74
ATOM     74  O   UNL     1       6.799  -5.691   1.151  1.00  0.00    -0.377 OA
BRANCH  74  75
ATOM     75  C   UNL     1       7.824  -6.680   1.198  1.00  0.00     0.188 C 
BRANCH  75  76
ATOM     76  C   UNL     1       8.143  -7.088  -0.244  1.00  0.00     0.188 C 
BRANCH  76  77
ATOM     77  O   UNL     1       9.114  -6.285  -0.911  1.00  0.00    -0.376 OA
BRANCH  77  78
ATOM     78  C   UNL     1       8.995  -4.872  -0.783  1.00  0.00     0.202 C 
BRANCH  78  79
ATOM     79  C   UNL     1       7.849  -4.201  -1.562  1.00  0.00     0.261 C 
BRANCH  79  80
ATOM     80  O   UNL     1       6.513  -4.509  -1.089  1.00  0.00    -0.462 OA
BRANCH  80  81
ATOM     81  C   UNL     1       5.709  -5.161  -1.964  1.00  0.00     0.328 C 
ATOM     82  O   UNL     1       6.064  -5.465  -3.105  1.00  0.00    -0.250 OA
BRANCH  81  83
ATOM     83  C   UNL     1       4.268  -5.496  -1.471  1.00  0.00     0.195 C 
ATOM     84  C   UNL     1       3.949  -6.954  -1.874  1.00  0.00     0.037 C 
ATOM     85  N   UNL     1       3.717  -5.164  -0.127  1.00  0.00    -0.323 N 
ATOM     86  C   UNL     1       4.225  -7.954  -0.762  1.00  0.00     0.005 C 
ATOM     87  C   UNL     1       3.654  -6.195   0.920  1.00  0.00     0.121 C 
ATOM     88  C   UNL     1       3.370  -7.604   0.436  1.00  0.00     0.022 C 
BRANCH  85  89
ATOM     89  C   UNL     1       3.282  -3.847   0.095  1.00  0.00     0.274 C 
ATOM     90  O   UNL     1       3.441  -2.954  -0.728  1.00  0.00    -0.267 OA
BRANCH  89  91
ATOM     91  C   UNL     1       2.577  -3.586   1.361  1.00  0.00     0.147 A 
ATOM     92  C   UNL     1       3.145  -3.239   2.574  1.00  0.00     0.127 A 
ATOM     93  N   UNL     1       1.201  -3.719   1.502  1.00  0.00    -0.223 NA
ATOM     94  N   UNL     1       2.111  -3.180   3.472  1.00  0.00    -0.306 N 
ATOM     95  C   UNL     1       0.944  -3.450   2.765  1.00  0.00     0.137 A 
ATOM     96  C   UNL     1       2.139  -2.926   4.842  1.00  0.00     0.093 A 
ATOM     97  C   UNL     1      -0.279  -3.416   3.496  1.00  0.00     0.048 A 
ATOM     98  C   UNL     1       0.984  -2.917   5.532  1.00  0.00     0.018 A 
ATOM     99  C   UNL     1      -0.262  -3.161   4.820  1.00  0.00     0.005 A 
ENDBRANCH  89  91
ENDBRANCH  85  89
ENDBRANCH  81  83
ENDBRANCH  80  81
ENDBRANCH  79  80
ENDBRANCH  78  79
ENDBRANCH  77  78
ENDBRANCH  76  77
ENDBRANCH  75  76
ENDBRANCH  74  75
ENDBRANCH   1  74
TORSDOF 25
