REMARK SMILES CC(C)CSc1cc2c(cc1Cl)C=C(C(=O)OCCOCCOCCOCCOC(=O)c1ccc(-c3c4nc(c(-c5cccc(S(=O)(=O)[O-])c5F)c5ccc([nH]5)c(-c5cccc(S(=O)(=O)[O-])c5F)c5nc(c(-c6cccc(S(=O)(=O)[O-])c6F)c6ccc3[nH]6)C=C5)C=C4)cc1)[C@@H](C(F)(F)F)O2
REMARK SMILES IDX 23 1 22 2 21 3 20 4 19 5 18 6 17 7 15 8 16 9 14 10 6 11 7 12
REMARK SMILES IDX 11 13 8 14 10 15 12 16 9 17 100 18 13 19 95 20 5 21 4 22
REMARK SMILES IDX 2 23 1 24 3 25 96 26 97 27 98 28 99 29 24 30 25 31 26 32
REMARK SMILES IDX 27 33 28 34 29 35 30 36 31 37 32 38 33 39 94 40 34 41 93 42
REMARK SMILES IDX 35 43 36 44 37 45 87 46 38 47 92 48 86 49 88 50 39 51 91 52
REMARK SMILES IDX 85 53 84 54 40 56 72 57 52 58 71 59 53 60 56 61 70 62 89 63
REMARK SMILES IDX 54 64 55 65 69 67 90 68 57 69 41 70 42 71 50 72 43 73 45 74
REMARK SMILES IDX 51 75 44 76 46 77 47 78 48 79 49 80 73 81 74 82 82 83 75 84
REMARK SMILES IDX 77 85 83 86 76 87 78 88 79 89 80 90 81 91 58 92 59 93 67 94
REMARK SMILES IDX 60 95 62 96 68 97 61 98 63 99 64 100 65 101 66 102
REMARK H PARENT 88 55 56 66
REMARK Flexibility Score: inf
ROOT
ATOM      1  O   UNL     1       1.489   5.878  -5.578  1.00  0.00    -0.377 OA
ENDROOT
BRANCH   1   2
ATOM      2  C   UNL     1       1.818   4.502  -5.672  1.00  0.00     0.188 C 
BRANCH   2   3
ATOM      3  C   UNL     1       1.690   3.964  -7.108  1.00  0.00     0.188 C 
BRANCH   3   4
ATOM      4  O   UNL     1       1.561   4.995  -8.080  1.00  0.00    -0.376 OA
BRANCH   4   5
ATOM      5  C   UNL     1       0.257   5.317  -8.549  1.00  0.00     0.202 C 
BRANCH   5   6
ATOM      6  C   UNL     1      -0.795   5.820  -7.545  1.00  0.00     0.261 C 
BRANCH   6   7
ATOM      7  O   UNL     1      -1.019   4.979  -6.401  1.00  0.00    -0.460 OA
BRANCH   7   8
ATOM      8  C   UNL     1      -1.556   3.764  -6.606  1.00  0.00     0.338 C 
ATOM      9  O   UNL     1      -1.922   3.292  -7.668  1.00  0.00    -0.246 OA
BRANCH   8  10
ATOM     10  C   UNL     1      -1.468   3.009  -5.336  1.00  0.00     0.087 C 
ATOM     11  C   UNL     1      -1.166  -0.626  -1.877  1.00  0.00     0.030 A 
ATOM     12  C   UNL     1      -1.516   0.733  -1.850  1.00  0.00     0.063 A 
ATOM     13  C   UNL     1      -0.650  -1.156  -3.075  1.00  0.00     0.055 A 
ATOM     14  C   UNL     1      -1.399   1.528  -2.995  1.00  0.00     0.129 A 
ATOM     15  C   UNL     1      -0.544  -0.360  -4.221  1.00  0.00     0.033 A 
ATOM     16  Cl  UNL     1      -0.137  -2.805  -3.223  1.00  0.00    -0.083 Cl
ATOM     17  C   UNL     1      -0.959   0.972  -4.193  1.00  0.00     0.019 A 
ATOM     18  O   UNL     1      -1.767   2.835  -2.858  1.00  0.00    -0.475 OA
ATOM     19  C   UNL     1      -1.020   1.750  -5.417  1.00  0.00     0.027 C 
ATOM     20  C   UNL     1      -1.818   3.693  -4.037  1.00  0.00     0.316 C 
BRANCH  11  21
ATOM     21  S   UNL     1      -1.500  -1.679  -0.462  1.00  0.00    -0.124 SA
BRANCH  21  22
ATOM     22  C   UNL     1      -0.830  -0.736   0.951  1.00  0.00     0.078 C 
BRANCH  22  23
ATOM     23  C   UNL     1       0.693  -0.862   1.122  1.00  0.00    -0.007 C 
ATOM     24  C   UNL     1       1.478  -0.025   0.110  1.00  0.00     0.008 C 
ATOM     25  C   UNL     1       1.076  -0.428   2.541  1.00  0.00     0.008 C 
ENDBRANCH  22  23
ENDBRANCH  21  22
ENDBRANCH  11  21
BRANCH  20  26
ATOM     26  C   UNL     1      -3.205   4.351  -4.068  1.00  0.00     0.430 C 
ATOM     27  F   UNL     1      -3.500   4.923  -2.876  1.00  0.00    -0.167 F 
ATOM     28  F   UNL     1      -3.295   5.322  -5.003  1.00  0.00    -0.167 F 
ATOM     29  F   UNL     1      -4.175   3.443  -4.331  1.00  0.00    -0.167 F 
ENDBRANCH  20  26
ENDBRANCH   8  10
ENDBRANCH   7   8
ENDBRANCH   6   7
ENDBRANCH   5   6
ENDBRANCH   4   5
ENDBRANCH   3   4
ENDBRANCH   2   3
ENDBRANCH   1   2
BRANCH   1  30
ATOM     30  C   UNL     1       2.528   6.819  -5.848  1.00  0.00     0.188 C 
BRANCH  30  31
ATOM     31  C   UNL     1       3.688   6.477  -6.811  1.00  0.00     0.188 C 
BRANCH  31  32
ATOM     32  O   UNL     1       4.333   5.237  -6.512  1.00  0.00    -0.376 OA
BRANCH  32  33
ATOM     33  C   UNL     1       5.639   5.323  -5.954  1.00  0.00     0.202 C 
BRANCH  33  34
ATOM     34  C   UNL     1       5.649   5.648  -4.455  1.00  0.00     0.261 C 
BRANCH  34  35
ATOM     35  O   UNL     1       5.115   6.933  -4.106  1.00  0.00    -0.460 OA
BRANCH  35  36
ATOM     36  C   UNL     1       5.695   8.025  -4.657  1.00  0.00     0.338 C 
ATOM     37  O   UNL     1       6.685   8.046  -5.365  1.00  0.00    -0.246 OA
BRANCH  36  38
ATOM     38  C   UNL     1       4.790   9.171  -4.421  1.00  0.00     0.060 A 
ATOM     39  C   UNL     1       4.282   9.419  -3.143  1.00  0.00     0.016 A 
ATOM     40  C   UNL     1       4.419   9.980  -5.503  1.00  0.00     0.016 A 
ATOM     41  C   UNL     1       3.432  10.507  -2.940  1.00  0.00     0.010 A 
ATOM     42  C   UNL     1       3.561  11.064  -5.298  1.00  0.00     0.010 A 
ATOM     43  C   UNL     1       3.087  11.351  -4.010  1.00  0.00    -0.014 A 
BRANCH  43  44
ATOM     44  C   UNL     1       2.436  12.651  -3.723  1.00  0.00     0.031 A 
ATOM     45  C   UNL     1       0.972  12.886  -3.927  1.00  0.00     0.074 A 
ATOM     46  C   UNL     1       3.226  13.645  -3.271  1.00  0.00     0.049 A 
ATOM     47  N   UNL     1       0.268  13.940  -3.603  1.00  0.00    -0.248 NA
ATOM     48  C   UNL     1       0.198  11.819  -4.577  1.00  0.00     0.031 C 
ATOM     49  C   UNL     1       4.677  13.544  -3.096  1.00  0.00     0.029 A 
ATOM     50  N   UNL     1       2.929  14.923  -2.878  1.00  0.00    -0.354 N 
ATOM     51  C   UNL     1      -1.033  13.671  -4.006  1.00  0.00     0.074 A 
ATOM     52  C   UNL     1      -1.018  12.357  -4.617  1.00  0.00     0.031 C 
ATOM     53  C   UNL     1       5.142  14.706  -2.617  1.00  0.00     0.029 A 
ATOM     54  C   UNL     1       4.027  15.633  -2.456  1.00  0.00     0.049 A 
ATOM     55  H   UNL     1       2.019  15.297  -2.896  1.00  0.00     0.167 HD
ATOM     56  C   UNL     1      -2.135  14.444  -3.856  1.00  0.00     0.034 A 
ATOM     57  C   UNL     1       4.130  16.886  -1.974  1.00  0.00     0.034 A 
ATOM     58  C   UNL     1      -2.139  15.744  -3.235  1.00  0.00     0.049 A 
ATOM     59  C   UNL     1       2.890  17.709  -1.796  1.00  0.00     0.074 A 
ATOM     60  C   UNL     1      -3.225  16.564  -2.975  1.00  0.00     0.029 A 
ATOM     61  N   UNL     1      -1.014  16.418  -2.789  1.00  0.00    -0.354 N 
ATOM     62  N   UNL     1       1.647  17.376  -2.040  1.00  0.00    -0.248 NA
ATOM     63  C   UNL     1       3.057  19.061  -1.246  1.00  0.00     0.031 C 
ATOM     64  C   UNL     1      -2.754  17.740  -2.384  1.00  0.00     0.029 A 
ATOM     65  C   UNL     1      -1.377  17.647  -2.264  1.00  0.00     0.049 A 
ATOM     66  H   UNL     1      -0.093  16.075  -2.838  1.00  0.00     0.167 HD
ATOM     67  C   UNL     1       0.879  18.467  -1.654  1.00  0.00     0.074 A 
ATOM     68  C   UNL     1       1.796  19.468  -1.149  1.00  0.00     0.031 C 
ATOM     69  C   UNL     1      -0.464  18.621  -1.724  1.00  0.00     0.034 A 
BRANCH  56  70
ATOM     70  C   UNL     1      -3.462  13.892  -4.299  1.00  0.00     0.023 A 
ATOM     71  C   UNL     1      -4.130  12.978  -3.460  1.00  0.00     0.012 A 
ATOM     72  C   UNL     1      -4.111  14.381  -5.449  1.00  0.00     0.148 A 
ATOM     73  C   UNL     1      -5.423  12.555  -3.760  1.00  0.00     0.002 A 
ATOM     74  C   UNL     1      -5.411  13.975  -5.728  1.00  0.00     0.091 A 
ATOM     75  F   UNL     1      -3.453  15.246  -6.234  1.00  0.00    -0.205 F 
ATOM     76  C   UNL     1      -6.067  13.061  -4.886  1.00  0.00     0.022 A 
BRANCH  74  77
ATOM     77  S   UNL     1      -6.355  14.608  -7.120  1.00  0.00     0.127 S 
ATOM     78  O   UNL     1      -6.503  13.408  -7.944  1.00  0.00    -0.237 OA
ATOM     79  O   UNL     1      -7.587  15.062  -6.476  1.00  0.00    -0.237 OA
ATOM     80  O   UNL     1      -5.546  15.666  -7.709  1.00  0.00    -0.744 OA
ENDBRANCH  74  77
ENDBRANCH  56  70
BRANCH  57  81
ATOM     81  C   UNL     1       5.463  17.379  -1.541  1.00  0.00     0.023 A 
ATOM     82  C   UNL     1       5.767  17.410  -0.167  1.00  0.00     0.012 A 
ATOM     83  C   UNL     1       6.457  17.709  -2.481  1.00  0.00     0.148 A 
ATOM     84  C   UNL     1       7.044  17.767   0.265  1.00  0.00     0.002 A 
ATOM     85  C   UNL     1       7.737  18.026  -2.045  1.00  0.00     0.091 A 
ATOM     86  F   UNL     1       6.137  17.664  -3.782  1.00  0.00    -0.205 F 
ATOM     87  C   UNL     1       8.030  18.064  -0.672  1.00  0.00     0.022 A 
BRANCH  85  88
ATOM     88  S   UNL     1       9.102  18.314  -3.176  1.00  0.00     0.127 S 
ATOM     89  O   UNL     1       9.425  19.713  -2.903  1.00  0.00    -0.237 OA
ATOM     90  O   UNL     1      10.093  17.349  -2.699  1.00  0.00    -0.237 OA
ATOM     91  O   UNL     1       8.581  18.041  -4.507  1.00  0.00    -0.744 OA
ENDBRANCH  85  88
ENDBRANCH  57  81
BRANCH  69  92
ATOM     92  C   UNL     1      -1.055  19.916  -1.239  1.00  0.00     0.023 A 
ATOM     93  C   UNL     1      -1.015  21.047  -2.076  1.00  0.00     0.012 A 
ATOM     94  C   UNL     1      -1.765  19.972  -0.024  1.00  0.00     0.148 A 
ATOM     95  C   UNL     1      -1.673  22.220  -1.709  1.00  0.00     0.002 A 
ATOM     96  C   UNL     1      -2.446  21.133   0.320  1.00  0.00     0.091 A 
ATOM     97  F   UNL     1      -1.780  18.881   0.756  1.00  0.00    -0.205 F 
ATOM     98  C   UNL     1      -2.398  22.259  -0.520  1.00  0.00     0.022 A 
BRANCH  96  99
ATOM     99  S   UNL     1      -3.466  21.261   1.793  1.00  0.00     0.127 S 
ATOM    100  O   UNL     1      -2.762  22.292   2.554  1.00  0.00    -0.237 OA
ATOM    101  O   UNL     1      -4.753  21.682   1.239  1.00  0.00    -0.237 OA
ATOM    102  O   UNL     1      -3.467  19.938   2.402  1.00  0.00    -0.744 OA
ENDBRANCH  96  99
ENDBRANCH  69  92
ENDBRANCH  43  44
ENDBRANCH  36  38
ENDBRANCH  35  36
ENDBRANCH  34  35
ENDBRANCH  33  34
ENDBRANCH  32  33
ENDBRANCH  31  32
ENDBRANCH  30  31
ENDBRANCH   1  30
TORSDOF 27
