REMARK SMILES CCCC(=O)N(c1cc2sc(=O)oc2c2ccccc12)S(=O)(=O)c1ccc(C(=O)OCCOCCOCCOCCOC(=O)c2ccc(-c3c4nc(c(-c5cccc(S(=O)(=O)[O-])c5F)c5ccc([nH]5)c(-c5cccc(S(=O)(=O)[O-])c5F)c5nc(c(-c6cccc(S(=O)(=O)[O-])c6F)c6ccc3[nH]6)C=C5)C=C4)cc2)cc1
REMARK SMILES IDX 35 1 34 2 33 3 32 4 31 5 30 6 28 7 29 8 27 9 24 10 25 11
REMARK SMILES IDX 109 12 26 13 108 14 21 15 22 16 23 17 6 18 4 19 5 20 3 21
REMARK SMILES IDX 2 22 1 23 7 24 8 25 20 26 9 27 15 28 19 29 10 30 14 31 16 32
REMARK SMILES IDX 18 33 11 34 13 35 17 36 12 37 36 38 37 39 38 40 39 41 40 42
REMARK SMILES IDX 41 43 42 44 43 45 44 46 45 47 46 48 107 49 47 50 106 51
REMARK SMILES IDX 48 52 49 53 50 54 100 55 51 56 105 57 99 58 101 59 52 60
REMARK SMILES IDX 104 61 98 62 97 63 53 65 85 66 65 67 84 68 66 69 69 70 83 71
REMARK SMILES IDX 102 72 67 73 68 74 82 76 103 77 70 78 54 79 55 80 63 81
REMARK SMILES IDX 56 82 58 83 64 84 57 85 59 86 60 87 61 88 62 89 86 90 87 91
REMARK SMILES IDX 95 92 88 93 90 94 96 95 89 96 91 97 92 98 93 99 94 100
REMARK SMILES IDX 71 101 72 102 80 103 73 104 75 105 81 106 74 107 76 108
REMARK SMILES IDX 77 109 78 110 79 111
REMARK H PARENT 101 64 69 75
REMARK Flexibility Score: inf
ROOT
ATOM      1  C   UNL     1       2.593   5.139   3.269  1.00  0.00     0.188 C 
ENDROOT
BRANCH   1   2
ATOM      2  C   UNL     1       1.817   6.454   3.486  1.00  0.00     0.188 C 
BRANCH   2   3
ATOM      3  O   UNL     1       2.589   7.515   4.040  1.00  0.00    -0.376 OA
BRANCH   3   4
ATOM      4  C   UNL     1       2.458   7.796   5.433  1.00  0.00     0.202 C 
BRANCH   4   5
ATOM      5  C   UNL     1       3.015   6.771   6.434  1.00  0.00     0.261 C 
BRANCH   5   6
ATOM      6  O   UNL     1       2.595   5.423   6.203  1.00  0.00    -0.460 OA
BRANCH   6   7
ATOM      7  C   UNL     1       1.312   5.105   6.457  1.00  0.00     0.338 C 
ATOM      8  O   UNL     1       0.404   5.881   6.741  1.00  0.00    -0.246 OA
BRANCH   7   9
ATOM      9  C   UNL     1       1.073   3.722   5.962  1.00  0.00     0.060 A 
ATOM     10  C   UNL     1       0.574   1.201   4.833  1.00  0.00     0.088 A 
ATOM     11  C   UNL     1      -0.340   2.241   4.639  1.00  0.00     0.023 A 
ATOM     12  C   UNL     1       1.736   1.417   5.592  1.00  0.00     0.023 A 
ATOM     13  C   UNL     1      -0.088   3.495   5.206  1.00  0.00     0.017 A 
ATOM     14  C   UNL     1       1.995   2.682   6.139  1.00  0.00     0.017 A 
BRANCH  10  15
ATOM     15  S   UNL     1       0.127  -0.459   4.332  1.00  0.00     0.270 S 
ATOM     16  O   UNL     1      -1.306  -0.559   4.532  1.00  0.00    -0.201 OA
ATOM     17  O   UNL     1       1.035  -1.365   5.010  1.00  0.00    -0.201 OA
BRANCH  15  18
ATOM     18  N   UNL     1       0.438  -0.621   2.667  1.00  0.00    -0.202 N 
BRANCH  18  19
ATOM     19  C   UNL     1       0.217  -1.930   2.107  1.00  0.00     0.241 C 
ATOM     20  O   UNL     1      -0.790  -2.578   2.386  1.00  0.00    -0.273 OA
BRANCH  19  21
ATOM     21  C   UNL     1       1.249  -2.566   1.177  1.00  0.00     0.101 C 
BRANCH  21  22
ATOM     22  C   UNL     1       0.941  -2.396  -0.311  1.00  0.00     0.006 C 
ATOM     23  C   UNL     1       2.124  -1.829  -1.085  1.00  0.00     0.004 C 
ENDBRANCH  21  22
ENDBRANCH  19  21
ENDBRANCH  18  19
BRANCH  18  24
ATOM     24  C   UNL     1       1.359   0.262   2.005  1.00  0.00     0.070 A 
ATOM     25  C   UNL     1       2.679   0.384   2.455  1.00  0.00     0.051 A 
ATOM     26  C   UNL     1       0.942   0.872   0.775  1.00  0.00     0.010 A 
ATOM     27  C   UNL     1       3.568   1.140   1.712  1.00  0.00     0.080 A 
ATOM     28  C   UNL     1       1.890   1.581  -0.005  1.00  0.00     0.028 A 
ATOM     29  C   UNL     1      -0.369   0.748   0.253  1.00  0.00     0.011 A 
ATOM     30  S   UNL     1       5.276   1.382   2.016  1.00  0.00    -0.052 S 
ATOM     31  C   UNL     1       3.188   1.717   0.505  1.00  0.00     0.157 A 
ATOM     32  C   UNL     1       1.533   2.053  -1.286  1.00  0.00     0.013 A 
ATOM     33  C   UNL     1      -0.698   1.194  -1.029  1.00  0.00     0.001 A 
ATOM     34  C   UNL     1       5.398   2.159   0.436  1.00  0.00     0.396 A 
ATOM     35  O   UNL     1       4.193   2.350  -0.235  1.00  0.00    -0.413 OA
ATOM     36  C   UNL     1       0.258   1.832  -1.805  1.00  0.00     0.001 A 
ATOM     37  O   UNL     1       6.478   2.423  -0.077  1.00  0.00    -0.233 OA
ENDBRANCH  18  24
ENDBRANCH  15  18
ENDBRANCH  10  15
ENDBRANCH   7   9
ENDBRANCH   6   7
ENDBRANCH   5   6
ENDBRANCH   4   5
ENDBRANCH   3   4
ENDBRANCH   2   3
ENDBRANCH   1   2
BRANCH   1  38
ATOM     38  O   UNL     1       3.820   5.238   2.568  1.00  0.00    -0.377 OA
BRANCH  38  39
ATOM     39  C   UNL     1       4.729   6.175   3.128  1.00  0.00     0.188 C 
BRANCH  39  40
ATOM     40  C   UNL     1       4.911   7.448   2.273  1.00  0.00     0.188 C 
BRANCH  40  41
ATOM     41  O   UNL     1       4.149   7.593   1.073  1.00  0.00    -0.376 OA
BRANCH  41  42
ATOM     42  C   UNL     1       4.080   6.488   0.180  1.00  0.00     0.202 C 
BRANCH  42  43
ATOM     43  C   UNL     1       5.395   5.817  -0.252  1.00  0.00     0.261 C 
BRANCH  43  44
ATOM     44  O   UNL     1       6.159   5.240   0.827  1.00  0.00    -0.460 OA
BRANCH  44  45
ATOM     45  C   UNL     1       7.444   5.662   0.965  1.00  0.00     0.338 C 
ATOM     46  O   UNL     1       8.047   6.422   0.225  1.00  0.00    -0.246 OA
BRANCH  45  47
ATOM     47  C   UNL     1       7.977   5.215   2.276  1.00  0.00     0.060 A 
ATOM     48  C   UNL     1       8.283   3.879   2.537  1.00  0.00     0.016 A 
ATOM     49  C   UNL     1       8.142   6.170   3.284  1.00  0.00     0.016 A 
ATOM     50  C   UNL     1       8.774   3.506   3.802  1.00  0.00     0.010 A 
ATOM     51  C   UNL     1       8.565   5.784   4.557  1.00  0.00     0.010 A 
ATOM     52  C   UNL     1       8.937   4.457   4.826  1.00  0.00    -0.014 A 
BRANCH  52  53
ATOM     53  C   UNL     1       9.734   4.125   6.044  1.00  0.00     0.031 A 
ATOM     54  C   UNL     1      10.579   5.258   6.560  1.00  0.00     0.074 A 
ATOM     55  C   UNL     1       9.453   3.135   6.923  1.00  0.00     0.049 A 
ATOM     56  N   UNL     1      10.131   6.163   7.383  1.00  0.00    -0.248 NA
ATOM     57  C   UNL     1      11.859   5.605   5.943  1.00  0.00     0.031 C 
ATOM     58  C   UNL     1       8.092   2.795   7.350  1.00  0.00     0.029 A 
ATOM     59  N   UNL     1      10.268   2.463   7.818  1.00  0.00    -0.354 N 
ATOM     60  C   UNL     1      11.022   7.224   7.356  1.00  0.00     0.074 A 
ATOM     61  C   UNL     1      12.087   6.823   6.461  1.00  0.00     0.031 C 
ATOM     62  C   UNL     1       8.163   2.120   8.519  1.00  0.00     0.029 A 
ATOM     63  C   UNL     1       9.561   1.839   8.849  1.00  0.00     0.049 A 
ATOM     64  H   UNL     1      11.248   2.429   7.737  1.00  0.00     0.167 HD
ATOM     65  C   UNL     1      10.839   8.381   8.051  1.00  0.00     0.034 A 
ATOM     66  C   UNL     1      10.039   1.597  10.106  1.00  0.00     0.034 A 
ATOM     67  C   UNL     1       9.656   8.440   8.861  1.00  0.00     0.049 A 
ATOM     68  C   UNL     1       9.991   2.983  10.699  1.00  0.00     0.074 A 
ATOM     69  C   UNL     1       8.384   8.964   8.775  1.00  0.00     0.029 A 
ATOM     70  N   UNL     1       9.668   7.777  10.064  1.00  0.00    -0.354 N 
ATOM     71  N   UNL     1       8.929   3.613  11.125  1.00  0.00    -0.248 NA
ATOM     72  C   UNL     1      11.150   3.836  10.433  1.00  0.00     0.031 C 
ATOM     73  C   UNL     1       7.585   8.185   9.675  1.00  0.00     0.029 A 
ATOM     74  C   UNL     1       8.423   7.228  10.242  1.00  0.00     0.049 A 
ATOM     75  H   UNL     1      10.429   7.708  10.684  1.00  0.00     0.167 HD
ATOM     76  C   UNL     1       9.184   4.962  10.868  1.00  0.00     0.074 A 
ATOM     77  C   UNL     1      10.569   5.026  10.443  1.00  0.00     0.031 C 
ATOM     78  C   UNL     1       8.224   5.932  10.847  1.00  0.00     0.034 A 
BRANCH  65  79
ATOM     79  C   UNL     1      11.875   9.434   8.188  1.00  0.00     0.023 A 
ATOM     80  C   UNL     1      12.788   9.275   9.250  1.00  0.00     0.012 A 
ATOM     81  C   UNL     1      11.864  10.636   7.459  1.00  0.00     0.148 A 
ATOM     82  C   UNL     1      13.650  10.305   9.613  1.00  0.00     0.002 A 
ATOM     83  C   UNL     1      12.736  11.662   7.823  1.00  0.00     0.091 A 
ATOM     84  F   UNL     1      10.985  10.770   6.455  1.00  0.00    -0.205 F 
ATOM     85  C   UNL     1      13.619  11.500   8.905  1.00  0.00     0.022 A 
BRANCH  83  86
ATOM     86  S   UNL     1      12.787  13.260   7.000  1.00  0.00     0.127 S 
ATOM     87  O   UNL     1      12.386  14.168   8.074  1.00  0.00    -0.237 OA
ATOM     88  O   UNL     1      14.196  13.355   6.616  1.00  0.00    -0.237 OA
ATOM     89  O   UNL     1      11.856  13.168   5.884  1.00  0.00    -0.744 OA
ENDBRANCH  83  86
ENDBRANCH  65  79
BRANCH  66  90
ATOM     90  C   UNL     1      11.257   0.717  10.240  1.00  0.00     0.023 A 
ATOM     91  C   UNL     1      11.286  -0.469   9.470  1.00  0.00     0.012 A 
ATOM     92  C   UNL     1      12.357   0.957  11.093  1.00  0.00     0.148 A 
ATOM     93  C   UNL     1      12.400  -1.315   9.456  1.00  0.00     0.002 A 
ATOM     94  C   UNL     1      13.491   0.145  11.033  1.00  0.00     0.091 A 
ATOM     95  F   UNL     1      12.301   1.981  11.953  1.00  0.00    -0.205 F 
ATOM     96  C   UNL     1      13.516  -0.990  10.212  1.00  0.00     0.022 A 
BRANCH  94  97
ATOM     97  S   UNL     1      15.008   0.524  11.926  1.00  0.00     0.127 S 
ATOM     98  O   UNL     1      15.353  -0.769  12.515  1.00  0.00    -0.237 OA
ATOM     99  O   UNL     1      15.882   0.956  10.836  1.00  0.00    -0.237 OA
ATOM    100  O   UNL     1      14.654   1.558  12.887  1.00  0.00    -0.744 OA
ENDBRANCH  94  97
ENDBRANCH  66  90
BRANCH  78 101
ATOM    101  C   UNL     1       6.866   5.536  11.330  1.00  0.00     0.023 A 
ATOM    102  C   UNL     1       6.677   5.380  12.716  1.00  0.00     0.012 A 
ATOM    103  C   UNL     1       5.767   5.379  10.466  1.00  0.00     0.148 A 
ATOM    104  C   UNL     1       5.415   5.104  13.240  1.00  0.00     0.002 A 
ATOM    105  C   UNL     1       4.508   5.106  10.998  1.00  0.00     0.091 A 
ATOM    106  F   UNL     1       5.943   5.541   9.146  1.00  0.00    -0.205 F 
ATOM    107  C   UNL     1       4.328   4.975  12.382  1.00  0.00     0.022 A 
BRANCH 105 108
ATOM    108  S   UNL     1       3.072   4.906   9.947  1.00  0.00     0.127 S 
ATOM    109  O   UNL     1       2.251   3.942  10.681  1.00  0.00    -0.237 OA
ATOM    110  O   UNL     1       2.533   6.262   9.909  1.00  0.00    -0.237 OA
ATOM    111  O   UNL     1       3.592   4.386   8.688  1.00  0.00    -0.744 OA
ENDBRANCH 105 108
ENDBRANCH  78 101
ENDBRANCH  52  53
ENDBRANCH  45  47
ENDBRANCH  44  45
ENDBRANCH  43  44
ENDBRANCH  42  43
ENDBRANCH  41  42
ENDBRANCH  40  41
ENDBRANCH  39  40
ENDBRANCH  38  39
ENDBRANCH   1  38
TORSDOF 29
