REMARK SMILES C[C@@]([NH2+]CC(=O)Nc1cccc(F)c1)(C(=O)OCCOCCOCCOCCOC(=O)c1ccc(-c2c3nc(c(-c4cccc(S(=O)(=O)[O-])c4F)c4ccc([nH]4)c(-c4cccc(S(=O)(=O)[O-])c4F)c4nc(c(-c5cccc(S(=O)(=O)[O-])c5F)c5ccc2[nH]5)C=C4)C=C3)cc1)C(F)(F)F
REMARK SMILES IDX 22 1 21 2 20 3 19 4 18 5 17 6 15 7 16 8 2 9 1 10 3 11 4 14
REMARK SMILES IDX 5 15 6 16 7 17 8 19 9 20 14 21 10 22 12 23 11 24 13 25 95 26
REMARK SMILES IDX 96 27 97 28 98 29 23 30 24 31 25 32 26 33 27 34 28 35 29 36
REMARK SMILES IDX 30 37 31 38 32 39 33 40 94 41 34 42 93 43 35 44 36 45 37 46
REMARK SMILES IDX 87 47 38 48 92 49 86 50 88 51 39 52 91 53 85 54 84 55 40 57
REMARK SMILES IDX 72 58 52 59 71 60 53 61 56 62 70 63 89 64 54 65 55 66 69 68
REMARK SMILES IDX 90 69 57 70 41 71 42 72 50 73 43 74 45 75 51 76 44 77 46 78
REMARK SMILES IDX 47 79 48 80 49 81 73 82 74 83 82 84 75 85 77 86 83 87 76 88
REMARK SMILES IDX 78 89 79 90 80 91 81 92 58 93 59 94 67 95 60 96 62 97 68 98
REMARK SMILES IDX 61 99 63 100 64 101 65 102 66 103
REMARK H PARENT 3 12 3 13 7 18 88 56 56 67
REMARK Flexibility Score: inf
ROOT
ATOM      1  C   UNL     1      -1.401   1.268   1.059  1.00  0.00     0.188 C 
ENDROOT
BRANCH   1   2
ATOM      2  C   UNL     1      -1.880   0.386  -0.069  1.00  0.00     0.188 C 
BRANCH   2   3
ATOM      3  O   UNL     1      -3.239   0.013  -0.185  1.00  0.00    -0.376 OA
BRANCH   3   4
ATOM      4  C   UNL     1      -3.477  -1.127  -1.015  1.00  0.00     0.202 C 
BRANCH   4   5
ATOM      5  C   UNL     1      -2.668  -2.421  -0.736  1.00  0.00     0.261 C 
BRANCH   5   6
ATOM      6  O   UNL     1      -1.214  -2.409  -0.685  1.00  0.00    -0.458 OA
BRANCH   6   7
ATOM      7  C   UNL     1      -0.459  -1.594  -1.480  1.00  0.00     0.377 C 
ATOM      8  O   UNL     1      -0.980  -0.900  -2.336  1.00  0.00    -0.244 OA
BRANCH   7   9
ATOM      9  C   UNL     1       1.067  -1.838  -1.320  1.00  0.00     0.287 C 
ATOM     10  C   UNL     1       1.278  -2.205   0.183  1.00  0.00     0.103 C 
BRANCH   9  11
ATOM     11  N   UNL     1       1.369  -2.877  -2.371  1.00  0.00    -0.317 N 
ATOM     12  H   UNL     1       1.047  -3.784  -2.032  1.00  0.00     0.347 HD
ATOM     13  H   UNL     1       2.376  -2.865  -2.531  1.00  0.00     0.347 HD
BRANCH  11  14
ATOM     14  C   UNL     1       0.694  -2.590  -3.704  1.00  0.00     0.363 C 
BRANCH  14  15
ATOM     15  C   UNL     1       1.108  -1.309  -4.534  1.00  0.00     0.279 C 
ATOM     16  O   UNL     1       2.149  -1.365  -5.202  1.00  0.00    -0.268 OA
ATOM     17  N   UNL     1       0.160  -0.345  -4.861  1.00  0.00    -0.321 N 
ATOM     18  H   UNL     1      -0.310  -0.536  -5.704  1.00  0.00     0.170 HD
BRANCH  17  19
ATOM     19  C   UNL     1      -0.281   0.871  -4.233  1.00  0.00     0.044 A 
ATOM     20  C   UNL     1       0.326   1.536  -3.162  1.00  0.00     0.026 A 
ATOM     21  C   UNL     1      -1.441   1.469  -4.742  1.00  0.00     0.065 A 
ATOM     22  C   UNL     1      -0.252   2.654  -2.528  1.00  0.00     0.005 A 
ATOM     23  C   UNL     1      -2.002   2.603  -4.134  1.00  0.00     0.125 A 
ATOM     24  C   UNL     1      -1.437   3.183  -3.009  1.00  0.00     0.039 A 
ATOM     25  F   UNL     1      -3.114   3.142  -4.653  1.00  0.00    -0.207 F 
ENDBRANCH  17  19
ENDBRANCH  14  15
ENDBRANCH  11  14
ENDBRANCH   9  11
BRANCH   9  26
ATOM     26  C   UNL     1       2.100  -0.681  -1.447  1.00  0.00     0.455 C 
ATOM     27  F   UNL     1       1.777   0.428  -0.754  1.00  0.00    -0.164 F 
ATOM     28  F   UNL     1       3.316  -1.093  -0.974  1.00  0.00    -0.164 F 
ATOM     29  F   UNL     1       2.378  -0.333  -2.715  1.00  0.00    -0.164 F 
ENDBRANCH   9  26
ENDBRANCH   7   9
ENDBRANCH   6   7
ENDBRANCH   5   6
ENDBRANCH   4   5
ENDBRANCH   3   4
ENDBRANCH   2   3
ENDBRANCH   1   2
BRANCH   1  30
ATOM     30  O   UNL     1      -2.075   1.088   2.286  1.00  0.00    -0.377 OA
BRANCH  30  31
ATOM     31  C   UNL     1      -3.494   1.130   2.204  1.00  0.00     0.188 C 
BRANCH  31  32
ATOM     32  C   UNL     1      -4.137   2.363   1.526  1.00  0.00     0.188 C 
BRANCH  32  33
ATOM     33  O   UNL     1      -3.260   3.183   0.756  1.00  0.00    -0.376 OA
BRANCH  33  34
ATOM     34  C   UNL     1      -2.808   4.391   1.374  1.00  0.00     0.202 C 
BRANCH  34  35
ATOM     35  C   UNL     1      -1.818   4.290   2.556  1.00  0.00     0.261 C 
BRANCH  35  36
ATOM     36  O   UNL     1      -2.222   3.470   3.659  1.00  0.00    -0.460 OA
BRANCH  36  37
ATOM     37  C   UNL     1      -3.345   3.824   4.313  1.00  0.00     0.338 C 
ATOM     38  O   UNL     1      -4.011   4.832   4.121  1.00  0.00    -0.246 OA
BRANCH  37  39
ATOM     39  C   UNL     1      -3.786   2.674   5.131  1.00  0.00     0.060 A 
ATOM     40  C   UNL     1      -5.113   2.240   4.981  1.00  0.00     0.016 A 
ATOM     41  C   UNL     1      -2.902   1.974   5.960  1.00  0.00     0.016 A 
ATOM     42  C   UNL     1      -5.568   1.129   5.682  1.00  0.00     0.010 A 
ATOM     43  C   UNL     1      -3.374   0.893   6.710  1.00  0.00     0.010 A 
ATOM     44  C   UNL     1      -4.722   0.505   6.607  1.00  0.00    -0.014 A 
BRANCH  44  45
ATOM     45  C   UNL     1      -5.365  -0.272   7.688  1.00  0.00     0.031 A 
ATOM     46  C   UNL     1      -5.784   0.500   8.911  1.00  0.00     0.074 A 
ATOM     47  C   UNL     1      -5.652  -1.579   7.563  1.00  0.00     0.049 A 
ATOM     48  N   UNL     1      -6.441   0.095   9.962  1.00  0.00    -0.248 NA
ATOM     49  C   UNL     1      -5.425   1.932   8.944  1.00  0.00     0.031 C 
ATOM     50  C   UNL     1      -5.317  -2.414   6.412  1.00  0.00     0.029 A 
ATOM     51  N   UNL     1      -6.295  -2.431   8.426  1.00  0.00    -0.354 N 
ATOM     52  C   UNL     1      -6.558   1.211  10.781  1.00  0.00     0.074 A 
ATOM     53  C   UNL     1      -5.894   2.308  10.121  1.00  0.00     0.031 C 
ATOM     54  C   UNL     1      -5.742  -3.669   6.650  1.00  0.00     0.029 A 
ATOM     55  C   UNL     1      -6.364  -3.727   7.973  1.00  0.00     0.049 A 
ATOM     56  H   UNL     1      -6.672  -2.141   9.288  1.00  0.00     0.167 HD
ATOM     57  C   UNL     1      -7.186   1.319  11.970  1.00  0.00     0.034 A 
ATOM     58  C   UNL     1      -6.862  -4.829   8.570  1.00  0.00     0.034 A 
ATOM     59  C   UNL     1      -7.860   0.229  12.612  1.00  0.00     0.049 A 
ATOM     60  C   UNL     1      -7.516  -4.694   9.924  1.00  0.00     0.074 A 
ATOM     61  C   UNL     1      -8.558   0.240  13.804  1.00  0.00     0.029 A 
ATOM     62  N   UNL     1      -7.904  -1.067  12.124  1.00  0.00    -0.354 N 
ATOM     63  N   UNL     1      -7.719  -3.611  10.636  1.00  0.00    -0.248 NA
ATOM     64  C   UNL     1      -8.037  -5.922  10.545  1.00  0.00     0.031 C 
ATOM     65  C   UNL     1      -8.991  -1.062  14.058  1.00  0.00     0.029 A 
ATOM     66  C   UNL     1      -8.600  -1.873  13.003  1.00  0.00     0.049 A 
ATOM     67  H   UNL     1      -7.500  -1.367  11.278  1.00  0.00     0.167 HD
ATOM     68  C   UNL     1      -8.411  -4.020  11.772  1.00  0.00     0.074 A 
ATOM     69  C   UNL     1      -8.611  -5.448  11.645  1.00  0.00     0.031 C 
ATOM     70  C   UNL     1      -8.831  -3.284  12.830  1.00  0.00     0.034 A 
BRANCH  57  71
ATOM     71  C   UNL     1      -7.195   2.660  12.648  1.00  0.00     0.023 A 
ATOM     72  C   UNL     1      -8.014   3.691  12.148  1.00  0.00     0.012 A 
ATOM     73  C   UNL     1      -6.462   2.865  13.832  1.00  0.00     0.148 A 
ATOM     74  C   UNL     1      -8.095   4.914  12.812  1.00  0.00     0.002 A 
ATOM     75  C   UNL     1      -6.585   4.068  14.514  1.00  0.00     0.091 A 
ATOM     76  F   UNL     1      -5.667   1.878  14.270  1.00  0.00    -0.205 F 
ATOM     77  C   UNL     1      -7.394   5.096  14.002  1.00  0.00     0.022 A 
BRANCH  75  78
ATOM     78  S   UNL     1      -5.794   4.370  16.096  1.00  0.00     0.127 S 
ATOM     79  O   UNL     1      -4.879   5.463  15.765  1.00  0.00    -0.237 OA
ATOM     80  O   UNL     1      -6.928   4.758  16.934  1.00  0.00    -0.237 OA
ATOM     81  O   UNL     1      -5.150   3.120  16.474  1.00  0.00    -0.744 OA
ENDBRANCH  75  78
ENDBRANCH  57  71
BRANCH  58  82
ATOM     82  C   UNL     1      -6.782  -6.149   7.879  1.00  0.00     0.023 A 
ATOM     83  C   UNL     1      -7.958  -6.778   7.428  1.00  0.00     0.012 A 
ATOM     84  C   UNL     1      -5.539  -6.766   7.635  1.00  0.00     0.148 A 
ATOM     85  C   UNL     1      -7.899  -8.005   6.763  1.00  0.00     0.002 A 
ATOM     86  C   UNL     1      -5.482  -7.957   6.922  1.00  0.00     0.091 A 
ATOM     87  F   UNL     1      -4.432  -6.163   8.092  1.00  0.00    -0.205 F 
ATOM     88  C   UNL     1      -6.662  -8.588   6.500  1.00  0.00     0.022 A 
BRANCH  86  89
ATOM     89  S   UNL     1      -3.930  -8.709   6.419  1.00  0.00     0.127 S 
ATOM     90  O   UNL     1      -3.931  -9.947   7.194  1.00  0.00    -0.237 OA
ATOM     91  O   UNL     1      -4.135  -8.882   4.980  1.00  0.00    -0.237 OA
ATOM     92  O   UNL     1      -2.893  -7.748   6.768  1.00  0.00    -0.744 OA
ENDBRANCH  86  89
ENDBRANCH  58  82
BRANCH  70  93
ATOM     93  C   UNL     1      -9.567  -3.980  13.944  1.00  0.00     0.023 A 
ATOM     94  C   UNL     1      -8.852  -4.781  14.854  1.00  0.00     0.012 A 
ATOM     95  C   UNL     1     -10.927  -3.696  14.185  1.00  0.00     0.148 A 
ATOM     96  C   UNL     1      -9.482  -5.298  15.985  1.00  0.00     0.002 A 
ATOM     97  C   UNL     1     -11.533  -4.170  15.341  1.00  0.00     0.091 A 
ATOM     98  F   UNL     1     -11.586  -2.934  13.300  1.00  0.00    -0.205 F 
ATOM     99  C   UNL     1     -10.815  -4.979  16.237  1.00  0.00     0.022 A 
BRANCH  97 100
ATOM    100  S   UNL     1     -13.207  -3.719  15.812  1.00  0.00     0.127 S 
ATOM    101  O   UNL     1     -13.892  -5.009  15.746  1.00  0.00    -0.237 OA
ATOM    102  O   UNL     1     -13.016  -3.197  17.165  1.00  0.00    -0.237 OA
ATOM    103  O   UNL     1     -13.652  -2.734  14.835  1.00  0.00    -0.744 OA
ENDBRANCH  97 100
ENDBRANCH  70  93
ENDBRANCH  44  45
ENDBRANCH  37  39
ENDBRANCH  36  37
ENDBRANCH  35  36
ENDBRANCH  34  35
ENDBRANCH  33  34
ENDBRANCH  32  33
ENDBRANCH  31  32
ENDBRANCH  30  31
ENDBRANCH   1  30
TORSDOF 28
