REMARK SMILES CC(C)[C@H](NC(=O)[C@H](Cc1ccccc1)n1c(=O)[nH]c2ccccc2c1=O)C(=O)OCCOCCOCCOCCOC(=O)c1ccc(-c2c3nc(c(-c4cccc(S(=O)(=O)[O-])c4F)c4ccc([nH]4)c(-c4cccc(S(=O)(=O)[O-])c4F)c4nc(c(-c5cccc(S(=O)(=O)[O-])c5F)c5ccc2[nH]5)C=C4)C=C3)cc1
REMARK SMILES IDX 35 1 34 2 33 3 32 4 31 5 30 6 28 7 29 8 4 9 2 10 1 11 3 12
REMARK SMILES IDX 5 13 6 14 7 16 8 17 16 18 17 19 26 20 18 21 19 22 25 23
REMARK SMILES IDX 27 24 20 25 24 27 21 28 23 29 22 30 9 31 10 32 11 33 15 34
REMARK SMILES IDX 12 35 14 36 13 37 36 38 37 39 38 40 39 41 40 42 41 43 42 44
REMARK SMILES IDX 43 45 44 46 45 47 46 48 107 49 47 50 106 51 48 52 49 53
REMARK SMILES IDX 50 54 100 55 51 56 105 57 99 58 101 59 52 60 104 61 98 62
REMARK SMILES IDX 97 63 53 65 85 66 65 67 84 68 66 69 69 70 83 71 102 72 67 73
REMARK SMILES IDX 68 74 82 76 103 77 70 78 54 79 55 80 63 81 56 82 58 83 64 84
REMARK SMILES IDX 57 85 59 86 60 87 61 88 62 89 86 90 87 91 95 92 88 93 90 94
REMARK SMILES IDX 96 95 89 96 91 97 92 98 93 99 94 100 71 101 72 102 80 103
REMARK SMILES IDX 73 104 75 105 81 106 74 107 76 108 77 109 78 110 79 111
REMARK H PARENT 5 15 19 26 101 64 69 75
REMARK Flexibility Score: inf
ROOT
ATOM      1  C   UNL     1       0.702  -0.135   7.651  1.00  0.00     0.188 C 
ENDROOT
BRANCH   1   2
ATOM      2  C   UNL     1       1.454  -1.210   8.450  1.00  0.00     0.188 C 
BRANCH   2   3
ATOM      3  O   UNL     1       2.638  -1.658   7.817  1.00  0.00    -0.376 OA
BRANCH   3   4
ATOM      4  C   UNL     1       2.674  -2.975   7.315  1.00  0.00     0.202 C 
BRANCH   4   5
ATOM      5  C   UNL     1       1.770  -3.296   6.130  1.00  0.00     0.261 C 
BRANCH   5   6
ATOM      6  O   UNL     1       0.611  -2.458   5.975  1.00  0.00    -0.462 OA
BRANCH   6   7
ATOM      7  C   UNL     1      -0.598  -3.065   5.860  1.00  0.00     0.328 C 
ATOM      8  O   UNL     1      -0.838  -4.207   6.235  1.00  0.00    -0.250 OA
BRANCH   7   9
ATOM      9  C   UNL     1      -1.630  -2.192   5.060  1.00  0.00     0.194 C 
BRANCH   9  10
ATOM     10  C   UNL     1      -2.363  -2.889   3.590  1.00  0.00     0.017 C 
ATOM     11  C   UNL     1      -3.882  -2.027   3.871  1.00  0.00     0.010 C 
ATOM     12  C   UNL     1      -1.476  -3.377   1.648  1.00  0.00     0.010 C 
ENDBRANCH   9  10
BRANCH   9  13
ATOM     13  N   UNL     1      -1.473  -0.732   5.016  1.00  0.00    -0.341 N 
ATOM     14  C   UNL     1      -0.702   0.001   4.154  1.00  0.00     0.244 C 
ATOM     15  H   UNL     1      -1.984  -0.221   5.684  1.00  0.00     0.164 HD
ATOM     16  O   UNL     1      -0.554   1.196   4.388  1.00  0.00    -0.273 OA
BRANCH  14  17
ATOM     17  C   UNL     1       0.065  -0.801   3.122  1.00  0.00     0.189 C 
BRANCH  17  18
ATOM     18  N   UNL     1      -0.819  -1.906   2.756  1.00  0.00    -0.247 N 
ATOM     19  C   UNL     1      -2.373  -1.502   1.931  1.00  0.00     0.329 A 
ATOM     20  C   UNL     1      -0.230  -3.470   3.289  1.00  0.00     0.264 A 
ATOM     21  O   UNL     1      -2.764  -0.400   1.583  1.00  0.00    -0.248 OA
ATOM     22  N   UNL     1      -3.412  -2.988   1.784  1.00  0.00    -0.307 N 
ATOM     23  C   UNL     1      -1.474  -4.883   3.171  1.00  0.00     0.064 A 
ATOM     24  O   UNL     1       0.949  -3.661   3.546  1.00  0.00    -0.268 OA
ATOM     25  C   UNL     1      -2.988  -4.634   2.408  1.00  0.00     0.055 A 
ATOM     26  H   UNL     1      -4.279  -2.888   1.328  1.00  0.00     0.171 HD
ATOM     27  C   UNL     1      -1.165  -6.094   3.730  1.00  0.00     0.016 A 
ATOM     28  C   UNL     1      -3.855  -5.687   2.304  1.00  0.00     0.027 A 
ATOM     29  C   UNL     1      -2.155  -7.076   3.596  1.00  0.00     0.001 A 
ATOM     30  C   UNL     1      -3.413  -6.888   2.905  1.00  0.00     0.002 A 
ENDBRANCH  17  18
BRANCH  17  31
ATOM     31  C   UNL     1       0.847  -0.056   2.043  1.00  0.00     0.071 C 
BRANCH  31  32
ATOM     32  C   UNL     1       0.088   0.847   1.117  1.00  0.00    -0.045 A 
ATOM     33  C   UNL     1      -0.299   0.393  -0.147  1.00  0.00     0.004 A 
ATOM     34  C   UNL     1      -0.225   2.160   1.495  1.00  0.00     0.004 A 
ATOM     35  C   UNL     1      -1.044   1.216  -0.990  1.00  0.00     0.000 A 
ATOM     36  C   UNL     1      -0.972   2.981   0.653  1.00  0.00     0.000 A 
ATOM     37  C   UNL     1      -1.393   2.503  -0.585  1.00  0.00     0.000 A 
ENDBRANCH  31  32
ENDBRANCH  17  31
ENDBRANCH  14  17
ENDBRANCH   9  13
ENDBRANCH   7   9
ENDBRANCH   6   7
ENDBRANCH   5   6
ENDBRANCH   4   5
ENDBRANCH   3   4
ENDBRANCH   2   3
ENDBRANCH   1   2
BRANCH   1  38
ATOM     38  O   UNL     1       1.421   0.875   6.967  1.00  0.00    -0.377 OA
BRANCH  38  39
ATOM     39  C   UNL     1       2.552   0.510   6.193  1.00  0.00     0.188 C 
BRANCH  39  40
ATOM     40  C   UNL     1       3.898   0.669   6.931  1.00  0.00     0.188 C 
BRANCH  40  41
ATOM     41  O   UNL     1       4.021   1.438   8.125  1.00  0.00    -0.376 OA
BRANCH  41  42
ATOM     42  C   UNL     1       3.024   2.373   8.498  1.00  0.00     0.202 C 
BRANCH  42  43
ATOM     43  C   UNL     1       2.672   3.532   7.549  1.00  0.00     0.261 C 
BRANCH  43  44
ATOM     44  O   UNL     1       3.175   3.435   6.216  1.00  0.00    -0.460 OA
BRANCH  44  45
ATOM     45  C   UNL     1       4.479   3.757   6.080  1.00  0.00     0.338 C 
ATOM     46  O   UNL     1       5.244   4.136   6.950  1.00  0.00    -0.246 OA
BRANCH  45  47
ATOM     47  C   UNL     1       4.888   3.471   4.693  1.00  0.00     0.060 A 
ATOM     48  C   UNL     1       5.970   2.609   4.493  1.00  0.00     0.016 A 
ATOM     49  C   UNL     1       4.266   4.104   3.612  1.00  0.00     0.016 A 
ATOM     50  C   UNL     1       6.475   2.421   3.212  1.00  0.00     0.010 A 
ATOM     51  C   UNL     1       4.791   3.936   2.328  1.00  0.00     0.010 A 
ATOM     52  C   UNL     1       5.929   3.134   2.137  1.00  0.00    -0.014 A 
BRANCH  52  53
ATOM     53  C   UNL     1       6.711   3.192   0.883  1.00  0.00     0.031 A 
ATOM     54  C   UNL     1       7.665   4.339   0.689  1.00  0.00     0.074 A 
ATOM     55  C   UNL     1       6.641   2.197  -0.017  1.00  0.00     0.049 A 
ATOM     56  N   UNL     1       8.550   4.529  -0.253  1.00  0.00    -0.248 NA
ATOM     57  C   UNL     1       7.621   5.411   1.698  1.00  0.00     0.031 C 
ATOM     58  C   UNL     1       5.753   1.040   0.071  1.00  0.00     0.029 A 
ATOM     59  N   UNL     1       7.336   2.006  -1.183  1.00  0.00    -0.354 N 
ATOM     60  C   UNL     1       9.158   5.744   0.040  1.00  0.00     0.074 A 
ATOM     61  C   UNL     1       8.530   6.257   1.237  1.00  0.00     0.031 C 
ATOM     62  C   UNL     1       5.947   0.262  -1.007  1.00  0.00     0.029 A 
ATOM     63  C   UNL     1       6.967   0.870  -1.861  1.00  0.00     0.049 A 
ATOM     64  H   UNL     1       8.032   2.623  -1.504  1.00  0.00     0.167 HD
ATOM     65  C   UNL     1      10.161   6.368  -0.619  1.00  0.00     0.034 A 
ATOM     66  C   UNL     1       7.405   0.381  -3.038  1.00  0.00     0.034 A 
ATOM     67  C   UNL     1      10.788   5.847  -1.803  1.00  0.00     0.049 A 
ATOM     68  C   UNL     1       8.527   1.092  -3.750  1.00  0.00     0.074 A 
ATOM     69  C   UNL     1      11.837   6.380  -2.529  1.00  0.00     0.029 A 
ATOM     70  N   UNL     1      10.411   4.676  -2.445  1.00  0.00    -0.354 N 
ATOM     71  N   UNL     1       9.181   2.172  -3.393  1.00  0.00    -0.248 NA
ATOM     72  C   UNL     1       9.002   0.492  -5.004  1.00  0.00     0.031 C 
ATOM     73  C   UNL     1      12.077   5.545  -3.626  1.00  0.00     0.029 A 
ATOM     74  C   UNL     1      11.199   4.474  -3.565  1.00  0.00     0.049 A 
ATOM     75  H   UNL     1       9.689   4.077  -2.147  1.00  0.00     0.167 HD
ATOM     76  C   UNL     1      10.165   2.362  -4.357  1.00  0.00     0.074 A 
ATOM     77  C   UNL     1      10.037   1.268  -5.300  1.00  0.00     0.031 C 
ATOM     78  C   UNL     1      11.083   3.355  -4.465  1.00  0.00     0.034 A 
BRANCH  65  79
ATOM     79  C   UNL     1      10.651   7.679  -0.062  1.00  0.00     0.023 A 
ATOM     80  C   UNL     1      11.412   7.696   1.125  1.00  0.00     0.012 A 
ATOM     81  C   UNL     1      10.391   8.889  -0.733  1.00  0.00     0.148 A 
ATOM     82  C   UNL     1      11.880   8.899   1.651  1.00  0.00     0.002 A 
ATOM     83  C   UNL     1      10.898  10.080  -0.226  1.00  0.00     0.091 A 
ATOM     84  F   UNL     1       9.641   8.857  -1.844  1.00  0.00    -0.205 F 
ATOM     85  C   UNL     1      11.632  10.089   0.971  1.00  0.00     0.022 A 
BRANCH  83  86
ATOM     86  S   UNL     1      10.697  11.653  -1.070  1.00  0.00     0.127 S 
ATOM     87  O   UNL     1       9.740  12.336  -0.201  1.00  0.00    -0.237 OA
ATOM     88  O   UNL     1      12.054  12.199  -1.030  1.00  0.00    -0.237 OA
ATOM     89  O   UNL     1      10.213  11.332  -2.406  1.00  0.00    -0.744 OA
ENDBRANCH  83  86
ENDBRANCH  65  79
BRANCH  66  90
ATOM     90  C   UNL     1       6.817  -0.875  -3.583  1.00  0.00     0.023 A 
ATOM     91  C   UNL     1       7.594  -2.048  -3.637  1.00  0.00     0.012 A 
ATOM     92  C   UNL     1       5.478  -0.918  -4.019  1.00  0.00     0.148 A 
ATOM     93  C   UNL     1       7.059  -3.233  -4.143  1.00  0.00     0.002 A 
ATOM     94  C   UNL     1       4.933  -2.116  -4.468  1.00  0.00     0.091 A 
ATOM     95  F   UNL     1       4.760   0.213  -3.978  1.00  0.00    -0.205 F 
ATOM     96  C   UNL     1       5.726  -3.270  -4.547  1.00  0.00     0.022 A 
BRANCH  94  97
ATOM     97  S   UNL     1       3.193  -2.288  -4.878  1.00  0.00     0.127 S 
ATOM     98  O   UNL     1       3.242  -2.455  -6.328  1.00  0.00    -0.237 OA
ATOM     99  O   UNL     1       2.824  -3.492  -4.132  1.00  0.00    -0.237 OA
ATOM    100  O   UNL     1       2.551  -1.071  -4.402  1.00  0.00    -0.744 OA
ENDBRANCH  94  97
ENDBRANCH  66  90
BRANCH  78 101
ATOM    101  C   UNL     1      12.043   3.291  -5.626  1.00  0.00     0.023 A 
ATOM    102  C   UNL     1      11.580   3.539  -6.934  1.00  0.00     0.012 A 
ATOM    103  C   UNL     1      13.412   3.035  -5.416  1.00  0.00     0.148 A 
ATOM    104  C   UNL     1      12.456   3.487  -8.018  1.00  0.00     0.002 A 
ATOM    105  C   UNL     1      14.288   3.035  -6.495  1.00  0.00     0.091 A 
ATOM    106  F   UNL     1      13.834   2.783  -4.168  1.00  0.00    -0.205 F 
ATOM    107  C   UNL     1      13.810   3.245  -7.798  1.00  0.00     0.022 A 
BRANCH 105 108
ATOM    108  S   UNL     1      16.060   2.830  -6.285  1.00  0.00     0.127 S 
ATOM    109  O   UNL     1      16.246   1.429  -6.660  1.00  0.00    -0.237 OA
ATOM    110  O   UNL     1      16.605   3.794  -7.242  1.00  0.00    -0.237 OA
ATOM    111  O   UNL     1      16.332   3.152  -4.890  1.00  0.00    -0.744 OA
ENDBRANCH 105 108
ENDBRANCH  78 101
ENDBRANCH  52  53
ENDBRANCH  45  47
ENDBRANCH  44  45
ENDBRANCH  43  44
ENDBRANCH  42  43
ENDBRANCH  41  42
ENDBRANCH  40  41
ENDBRANCH  39  40
ENDBRANCH  38  39
ENDBRANCH   1  38
TORSDOF 29
