REMARK SMILES O=C(OCCOCCOCCOCCOC(=O)[C@@H]1C[N@@H+](CCOc2ccc(F)cc2)C[C@H]1C1CC1)c1ccc(-c2c3nc(c(-c4cccc(S(=O)(=O)[O-])c4F)c4ccc([nH]4)c(-c4cccc(S(=O)(=O)[O-])c4F)c4nc(c(-c5cccc(S(=O)(=O)[O-])c5F)c5ccc2[nH]5)C=C4)C=C3)cc1
REMARK SMILES IDX 10 1 9 2 8 3 7 4 6 5 5 6 4 7 3 8 2 9 1 10 36 11 37 12 98 13
REMARK SMILES IDX 38 14 97 15 39 16 40 17 41 18 91 19 42 20 96 21 90 22 92 23
REMARK SMILES IDX 43 24 95 25 89 26 88 27 44 29 76 30 56 31 75 32 57 33 60 34
REMARK SMILES IDX 74 35 93 36 58 37 59 38 73 40 94 41 61 42 45 43 46 44 54 45
REMARK SMILES IDX 47 46 49 47 55 48 48 49 50 50 51 51 52 52 53 53 77 54 78 55
REMARK SMILES IDX 86 56 79 57 81 58 87 59 80 60 82 61 83 62 84 63 85 64 62 65
REMARK SMILES IDX 63 66 71 67 64 68 66 69 72 70 65 71 67 72 68 73 69 74 70 75
REMARK SMILES IDX 11 76 12 77 13 78 14 79 15 80 16 81 17 82 18 83 19 84 32 85
REMARK SMILES IDX 20 86 31 87 33 89 34 90 35 91 21 92 22 93 23 94 24 95 25 96
REMARK SMILES IDX 30 97 26 98 29 99 27 100 28 101
REMARK H PARENT 92 28 60 39 20 88
REMARK Flexibility Score: inf
ROOT
ATOM      1  C   UNL     1       3.917   2.600  -1.874  1.00  0.00     0.188 C 
ENDROOT
BRANCH   1   2
ATOM      2  O   UNL     1       2.951   2.126  -2.825  1.00  0.00    -0.377 OA
BRANCH   2   3
ATOM      3  C   UNL     1       1.757   1.568  -2.286  1.00  0.00     0.188 C 
BRANCH   3   4
ATOM      4  C   UNL     1       1.918   0.323  -1.413  1.00  0.00     0.188 C 
BRANCH   4   5
ATOM      5  O   UNL     1       3.233   0.240  -0.892  1.00  0.00    -0.376 OA
BRANCH   5   6
ATOM      6  C   UNL     1       3.899  -1.002  -1.062  1.00  0.00     0.202 C 
BRANCH   6   7
ATOM      7  C   UNL     1       3.907  -1.810   0.237  1.00  0.00     0.261 C 
BRANCH   7   8
ATOM      8  O   UNL     1       2.607  -1.813   0.851  1.00  0.00    -0.460 OA
BRANCH   8   9
ATOM      9  C   UNL     1       2.039  -0.829   1.597  1.00  0.00     0.338 C 
ATOM     10  O   UNL     1       0.829  -0.895   1.816  1.00  0.00    -0.246 OA
BRANCH   9  11
ATOM     11  C   UNL     1       2.802   0.299   2.229  1.00  0.00     0.060 A 
ATOM     12  C   UNL     1       4.004   0.840   1.764  1.00  0.00     0.016 A 
ATOM     13  C   UNL     1       2.232   0.875   3.380  1.00  0.00     0.016 A 
ATOM     14  C   UNL     1       4.673   1.835   2.453  1.00  0.00     0.010 A 
ATOM     15  C   UNL     1       2.895   1.884   4.085  1.00  0.00     0.010 A 
ATOM     16  C   UNL     1       4.149   2.317   3.645  1.00  0.00    -0.014 A 
BRANCH  16  17
ATOM     17  C   UNL     1       5.085   3.037   4.521  1.00  0.00     0.031 A 
ATOM     18  C   UNL     1       5.722   2.248   5.627  1.00  0.00     0.074 A 
ATOM     19  C   UNL     1       5.489   4.277   4.200  1.00  0.00     0.049 A 
ATOM     20  N   UNL     1       6.571   2.635   6.535  1.00  0.00    -0.248 NA
ATOM     21  C   UNL     1       5.371   0.815   5.709  1.00  0.00     0.031 C 
ATOM     22  C   UNL     1       5.019   5.041   3.042  1.00  0.00     0.029 A 
ATOM     23  N   UNL     1       6.404   5.100   4.797  1.00  0.00    -0.354 N 
ATOM     24  C   UNL     1       6.804   1.519   7.328  1.00  0.00     0.074 A 
ATOM     25  C   UNL     1       6.031   0.428   6.788  1.00  0.00     0.031 C 
ATOM     26  C   UNL     1       5.652   6.225   3.013  1.00  0.00     0.029 A 
ATOM     27  C   UNL     1       6.515   6.326   4.185  1.00  0.00     0.049 A 
ATOM     28  H   UNL     1       6.931   4.840   5.586  1.00  0.00     0.167 HD
ATOM     29  C   UNL     1       7.598   1.425   8.415  1.00  0.00     0.034 A 
ATOM     30  C   UNL     1       7.208   7.416   4.568  1.00  0.00     0.034 A 
ATOM     31  C   UNL     1       8.380   2.526   8.895  1.00  0.00     0.049 A 
ATOM     32  C   UNL     1       8.030   7.309   5.825  1.00  0.00     0.074 A 
ATOM     33  C   UNL     1       9.197   2.580  10.005  1.00  0.00     0.029 A 
ATOM     34  N   UNL     1       8.435   3.770   8.281  1.00  0.00    -0.354 N 
ATOM     35  N   UNL     1       8.233   6.257   6.586  1.00  0.00    -0.248 NA
ATOM     36  C   UNL     1       8.718   8.522   6.282  1.00  0.00     0.031 C 
ATOM     37  C   UNL     1       9.722   3.873  10.082  1.00  0.00     0.029 A 
ATOM     38  C   UNL     1       9.263   4.609   8.997  1.00  0.00     0.049 A 
ATOM     39  H   UNL     1       7.955   4.016   7.458  1.00  0.00     0.167 HD
ATOM     40  C   UNL     1       9.081   6.675   7.602  1.00  0.00     0.074 A 
ATOM     41  C   UNL     1       9.375   8.072   7.344  1.00  0.00     0.031 C 
ATOM     42  C   UNL     1       9.559   5.981   8.665  1.00  0.00     0.034 A 
BRANCH  29  43
ATOM     43  C   UNL     1       7.623   0.121   9.161  1.00  0.00     0.023 A 
ATOM     44  C   UNL     1       8.303  -0.993   8.630  1.00  0.00     0.012 A 
ATOM     45  C   UNL     1       6.990   0.014  10.415  1.00  0.00     0.148 A 
ATOM     46  C   UNL     1       8.334  -2.201   9.328  1.00  0.00     0.002 A 
ATOM     47  C   UNL     1       7.064  -1.178  11.125  1.00  0.00     0.091 A 
ATOM     48  F   UNL     1       6.324   1.078  10.885  1.00  0.00    -0.205 F 
ATOM     49  C   UNL     1       7.726  -2.289  10.578  1.00  0.00     0.022 A 
BRANCH  47  50
ATOM     50  S   UNL     1       6.371  -1.368  12.770  1.00  0.00     0.127 S 
ATOM     51  O   UNL     1       5.375  -2.422  12.550  1.00  0.00    -0.237 OA
ATOM     52  O   UNL     1       7.543  -1.795  13.541  1.00  0.00    -0.237 OA
ATOM     53  O   UNL     1       5.829  -0.076  13.138  1.00  0.00    -0.744 OA
ENDBRANCH  47  50
ENDBRANCH  29  43
BRANCH  30  54
ATOM     54  C   UNL     1       7.123   8.675   3.773  1.00  0.00     0.023 A 
ATOM     55  C   UNL     1       8.262   9.172   3.113  1.00  0.00     0.012 A 
ATOM     56  C   UNL     1       5.897   9.359   3.625  1.00  0.00     0.148 A 
ATOM     57  C   UNL     1       8.185  10.328   2.331  1.00  0.00     0.002 A 
ATOM     58  C   UNL     1       5.814  10.473   2.798  1.00  0.00     0.091 A 
ATOM     59  F   UNL     1       4.826   8.891   4.282  1.00  0.00    -0.205 F 
ATOM     60  C   UNL     1       6.960  10.969   2.162  1.00  0.00     0.022 A 
BRANCH  58  61
ATOM     61  S   UNL     1       4.251  11.278   2.421  1.00  0.00     0.127 S 
ATOM     62  O   UNL     1       4.390  12.547   3.130  1.00  0.00    -0.237 OA
ATOM     63  O   UNL     1       4.305  11.377   0.963  1.00  0.00    -0.237 OA
ATOM     64  O   UNL     1       3.216  10.383   2.923  1.00  0.00    -0.744 OA
ENDBRANCH  58  61
ENDBRANCH  30  54
BRANCH  42  65
ATOM     65  C   UNL     1      10.462   6.705   9.622  1.00  0.00     0.023 A 
ATOM     66  C   UNL     1       9.906   7.604  10.551  1.00  0.00     0.012 A 
ATOM     67  C   UNL     1      11.823   6.355   9.709  1.00  0.00     0.148 A 
ATOM     68  C   UNL     1      10.700   8.151  11.556  1.00  0.00     0.002 A 
ATOM     69  C   UNL     1      12.591   6.860  10.746  1.00  0.00     0.091 A 
ATOM     70  F   UNL     1      12.322   5.503   8.801  1.00  0.00    -0.205 F 
ATOM     71  C   UNL     1      12.034   7.765  11.665  1.00  0.00     0.022 A 
BRANCH  69  72
ATOM     72  S   UNL     1      14.278   6.321  11.042  1.00  0.00     0.127 S 
ATOM     73  O   UNL     1      15.033   7.541  10.759  1.00  0.00    -0.237 OA
ATOM     74  O   UNL     1      14.236   5.941  12.454  1.00  0.00    -0.237 OA
ATOM     75  O   UNL     1      14.518   5.217  10.122  1.00  0.00    -0.744 OA
ENDBRANCH  69  72
ENDBRANCH  42  65
ENDBRANCH  16  17
ENDBRANCH   9  11
ENDBRANCH   8   9
ENDBRANCH   7   8
ENDBRANCH   6   7
ENDBRANCH   5   6
ENDBRANCH   4   5
ENDBRANCH   3   4
ENDBRANCH   2   3
ENDBRANCH   1   2
BRANCH   1  76
ATOM     76  C   UNL     1       4.693   3.817  -2.399  1.00  0.00     0.188 C 
BRANCH  76  77
ATOM     77  O   UNL     1       4.038   5.074  -2.296  1.00  0.00    -0.376 OA
BRANCH  77  78
ATOM     78  C   UNL     1       2.697   5.116  -2.763  1.00  0.00     0.202 C 
BRANCH  78  79
ATOM     79  C   UNL     1       2.520   5.074  -4.289  1.00  0.00     0.261 C 
BRANCH  79  80
ATOM     80  O   UNL     1       3.160   3.942  -4.918  1.00  0.00    -0.463 OA
BRANCH  80  81
ATOM     81  C   UNL     1       4.105   4.196  -5.859  1.00  0.00     0.315 C 
ATOM     82  O   UNL     1       4.323   5.303  -6.342  1.00  0.00    -0.252 OA
BRANCH  81  83
ATOM     83  C   UNL     1       4.876   2.963  -6.325  1.00  0.00     0.163 C 
ATOM     84  C   UNL     1       4.353   2.562  -7.713  1.00  0.00     0.278 C 
ATOM     85  C   UNL     1       4.770   1.697  -5.465  1.00  0.00     0.067 C 
ATOM     86  N   UNL     1       4.415   1.089  -7.779  1.00  0.00    -0.331 N 
ATOM     87  C   UNL     1       4.056   0.716  -6.417  1.00  0.00     0.267 C 
ATOM     88  H   UNL     1       3.780   0.643  -8.441  1.00  0.00     0.348 HD
BRANCH  85  89
ATOM     89  C   UNL     1       6.044   1.069  -4.934  1.00  0.00    -0.001 C 
ATOM     90  C   UNL     1       7.418   1.703  -4.986  1.00  0.00     0.004 C 
ATOM     91  C   UNL     1       6.786   1.415  -3.664  1.00  0.00     0.004 C 
ENDBRANCH  85  89
BRANCH  86  92
ATOM     92  C   UNL     1       5.673   0.571  -8.365  1.00  0.00     0.304 C 
BRANCH  92  93
ATOM     93  C   UNL     1       6.626  -0.484  -7.725  1.00  0.00     0.290 C 
BRANCH  93  94
ATOM     94  O   UNL     1       6.121  -1.826  -7.718  1.00  0.00    -0.488 OA
BRANCH  94  95
ATOM     95  C   UNL     1       5.790  -2.320  -6.485  1.00  0.00     0.119 A 
ATOM     96  C   UNL     1       4.476  -2.777  -6.360  1.00  0.00     0.049 A 
ATOM     97  C   UNL     1       6.652  -2.360  -5.383  1.00  0.00     0.049 A 
ATOM     98  C   UNL     1       3.979  -3.152  -5.114  1.00  0.00     0.043 A 
ATOM     99  C   UNL     1       6.156  -2.753  -4.133  1.00  0.00     0.043 A 
ATOM    100  C   UNL     1       4.823  -3.134  -4.011  1.00  0.00     0.123 A 
ATOM    101  F   UNL     1       4.343  -3.481  -2.810  1.00  0.00    -0.207 F 
ENDBRANCH  94  95
ENDBRANCH  93  94
ENDBRANCH  92  93
ENDBRANCH  86  92
ENDBRANCH  81  83
ENDBRANCH  80  81
ENDBRANCH  79  80
ENDBRANCH  78  79
ENDBRANCH  77  78
ENDBRANCH  76  77
ENDBRANCH   1  76
TORSDOF 28
