REMARK SMILES Cc1ccc2oc(C(=O)N[C@@H]3C=C[C@H](C(=O)OCCOCCOCCOCCOC(=O)c4ccc(-c5c6nc(c(-c7cccc(S(=O)(=O)[O-])c7F)c7ccc([nH]7)c(-c7cccc(S(=O)(=O)[O-])c7F)c7nc(c(-c8cccc(S(=O)(=O)[O-])c8F)c8ccc5[nH]8)C=C7)C=C6)cc4)C3)cc2c1
REMARK SMILES IDX 24 1 23 2 22 3 21 4 20 5 19 6 18 7 17 8 15 9 16 10 14 11
REMARK SMILES IDX 11 12 12 13 95 14 13 15 10 16 8 17 9 18 7 20 1 21 2 22 3 23
REMARK SMILES IDX 98 24 4 25 97 26 5 27 96 28 6 29 25 30 26 31 27 32 28 33
REMARK SMILES IDX 29 34 30 35 31 36 32 37 33 38 94 39 34 40 93 41 35 42 36 43
REMARK SMILES IDX 37 44 87 45 38 46 92 47 86 48 88 49 39 50 91 51 85 52 84 53
REMARK SMILES IDX 40 55 72 56 52 57 71 58 53 59 56 60 70 61 89 62 54 63 55 64
REMARK SMILES IDX 69 66 90 67 57 68 41 69 42 70 50 71 43 72 45 73 51 74 44 75
REMARK SMILES IDX 46 76 47 77 48 78 49 79 73 80 74 81 82 82 75 83 77 84 83 85
REMARK SMILES IDX 76 86 78 87 79 88 80 89 81 90 58 91 59 92 67 93 60 94 62 95
REMARK SMILES IDX 68 96 61 97 63 98 64 99 65 100 66 101
REMARK H PARENT 10 19 88 54 56 65
REMARK Flexibility Score: inf
ROOT
ATOM      1  C   UNL     1      -0.920  -6.017   4.657  1.00  0.00     0.188 C 
ENDROOT
BRANCH   1   2
ATOM      2  O   UNL     1       0.237  -5.779   3.865  1.00  0.00    -0.377 OA
BRANCH   2   3
ATOM      3  C   UNL     1       0.723  -4.456   3.810  1.00  0.00     0.188 C 
BRANCH   3   4
ATOM      4  C   UNL     1      -0.005  -3.586   2.773  1.00  0.00     0.188 C 
BRANCH   4   5
ATOM      5  O   UNL     1      -1.263  -4.091   2.368  1.00  0.00    -0.376 OA
BRANCH   5   6
ATOM      6  C   UNL     1      -1.399  -5.086   1.361  1.00  0.00     0.202 C 
BRANCH   6   7
ATOM      7  C   UNL     1      -0.360  -6.180   0.999  1.00  0.00     0.261 C 
BRANCH   7   8
ATOM      8  O   UNL     1       1.024  -5.919   1.258  1.00  0.00    -0.463 OA
BRANCH   8   9
ATOM      9  C   UNL     1       1.567  -4.954   0.486  1.00  0.00     0.312 C 
ATOM     10  O   UNL     1       0.958  -4.396  -0.419  1.00  0.00    -0.252 OA
BRANCH   9  11
ATOM     11  C   UNL     1       2.909  -4.466   1.060  1.00  0.00     0.124 C 
ATOM     12  C   UNL     1       3.967  -3.102  -0.624  1.00  0.00     0.106 C 
ATOM     13  C   UNL     1       4.827  -4.253  -0.269  1.00  0.00    -0.006 C 
ATOM     14  C   UNL     1       3.084  -3.007   0.624  1.00  0.00     0.048 C 
ATOM     15  C   UNL     1       4.222  -5.037   0.637  1.00  0.00    -0.014 C 
BRANCH  12  16
ATOM     16  N   UNL     1       3.275  -3.238  -1.912  1.00  0.00    -0.343 N 
ATOM     17  C   UNL     1       2.616  -4.193  -2.680  1.00  0.00     0.287 C 
ATOM     18  O   UNL     1       1.965  -3.710  -3.616  1.00  0.00    -0.266 OA
ATOM     19  H   UNL     1       3.278  -2.375  -2.385  1.00  0.00     0.164 HD
BRANCH  17  20
ATOM     20  C   UNL     1       2.666  -5.629  -2.433  1.00  0.00     0.192 A 
ATOM     21  C   UNL     1       2.498 -10.905   0.412  1.00  0.00     0.044 C 
ATOM     22  C   UNL     1       2.298  -9.813  -0.605  1.00  0.00    -0.050 A 
ATOM     23  C   UNL     1       1.242  -9.863  -1.530  1.00  0.00     0.007 A 
ATOM     24  C   UNL     1       3.151  -8.702  -0.591  1.00  0.00     0.015 A 
ATOM     25  C   UNL     1       0.939  -8.775  -2.372  1.00  0.00     0.048 A 
ATOM     26  C   UNL     1       2.906  -7.646  -1.481  1.00  0.00     0.021 A 
ATOM     27  C   UNL     1       1.765  -7.658  -2.263  1.00  0.00     0.135 A 
ATOM     28  C   UNL     1       3.589  -6.471  -1.852  1.00  0.00     0.065 A 
ATOM     29  O   UNL     1       1.601  -6.426  -2.845  1.00  0.00    -0.451 OA
ENDBRANCH  17  20
ENDBRANCH  12  16
ENDBRANCH   9  11
ENDBRANCH   8   9
ENDBRANCH   7   8
ENDBRANCH   6   7
ENDBRANCH   5   6
ENDBRANCH   4   5
ENDBRANCH   3   4
ENDBRANCH   2   3
ENDBRANCH   1   2
BRANCH   1  30
ATOM     30  C   UNL     1      -1.882  -4.864   5.045  1.00  0.00     0.188 C 
BRANCH  30  31
ATOM     31  O   UNL     1      -1.272  -3.608   5.315  1.00  0.00    -0.376 OA
BRANCH  31  32
ATOM     32  C   UNL     1      -0.991  -3.230   6.652  1.00  0.00     0.202 C 
BRANCH  32  33
ATOM     33  C   UNL     1       0.000  -4.082   7.462  1.00  0.00     0.261 C 
BRANCH  33  34
ATOM     34  O   UNL     1      -0.300  -5.478   7.562  1.00  0.00    -0.460 OA
BRANCH  34  35
ATOM     35  C   UNL     1      -1.479  -5.819   8.122  1.00  0.00     0.338 C 
ATOM     36  O   UNL     1      -2.302  -5.062   8.615  1.00  0.00    -0.246 OA
BRANCH  35  37
ATOM     37  C   UNL     1      -1.712  -7.251   7.847  1.00  0.00     0.060 A 
ATOM     38  C   UNL     1      -2.866  -7.626   7.145  1.00  0.00     0.016 A 
ATOM     39  C   UNL     1      -0.782  -8.213   8.250  1.00  0.00     0.016 A 
ATOM     40  C   UNL     1      -3.119  -8.971   6.886  1.00  0.00     0.010 A 
ATOM     41  C   UNL     1      -1.051  -9.562   8.015  1.00  0.00     0.010 A 
ATOM     42  C   UNL     1      -2.241  -9.946   7.371  1.00  0.00    -0.014 A 
BRANCH  42  43
ATOM     43  C   UNL     1      -2.678 -11.360   7.415  1.00  0.00     0.031 A 
ATOM     44  C   UNL     1      -3.246 -11.882   8.706  1.00  0.00     0.074 A 
ATOM     45  C   UNL     1      -2.580 -12.162   6.341  1.00  0.00     0.049 A 
ATOM     46  N   UNL     1      -3.669 -13.081   9.003  1.00  0.00    -0.248 NA
ATOM     47  C   UNL     1      -3.345 -10.916   9.814  1.00  0.00     0.031 C 
ATOM     48  C   UNL     1      -2.076 -11.762   5.029  1.00  0.00     0.029 A 
ATOM     49  N   UNL     1      -2.888 -13.491   6.197  1.00  0.00    -0.354 N 
ATOM     50  C   UNL     1      -4.042 -13.027  10.341  1.00  0.00     0.074 A 
ATOM     51  C   UNL     1      -3.791 -11.679  10.799  1.00  0.00     0.031 C 
ATOM     52  C   UNL     1      -2.092 -12.833   4.215  1.00  0.00     0.029 A 
ATOM     53  C   UNL     1      -2.575 -13.996   4.958  1.00  0.00     0.049 A 
ATOM     54  H   UNL     1      -3.294 -14.031   6.913  1.00  0.00     0.167 HD
ATOM     55  C   UNL     1      -4.554 -14.010  11.118  1.00  0.00     0.034 A 
ATOM     56  C   UNL     1      -2.654 -15.257   4.490  1.00  0.00     0.034 A 
ATOM     57  C   UNL     1      -4.811 -15.345  10.655  1.00  0.00     0.049 A 
ATOM     58  C   UNL     1      -3.183 -16.346   5.389  1.00  0.00     0.074 A 
ATOM     59  C   UNL     1      -5.381 -16.399  11.345  1.00  0.00     0.029 A 
ATOM     60  N   UNL     1      -4.489 -15.819   9.392  1.00  0.00    -0.354 N 
ATOM     61  N   UNL     1      -3.639 -16.258   6.616  1.00  0.00    -0.248 NA
ATOM     62  C   UNL     1      -3.234 -17.704   4.828  1.00  0.00     0.031 C 
ATOM     63  C   UNL     1      -5.355 -17.526  10.516  1.00  0.00     0.029 A 
ATOM     64  C   UNL     1      -4.820 -17.159   9.291  1.00  0.00     0.049 A 
ATOM     65  H   UNL     1      -4.084 -15.282   8.674  1.00  0.00     0.167 HD
ATOM     66  C   UNL     1      -4.073 -17.536   6.957  1.00  0.00     0.074 A 
ATOM     67  C   UNL     1      -3.834 -18.377   5.801  1.00  0.00     0.031 C 
ATOM     68  C   UNL     1      -4.616 -17.975   8.120  1.00  0.00     0.034 A 
BRANCH  55  69
ATOM     69  C   UNL     1      -4.848 -13.674  12.557  1.00  0.00     0.023 A 
ATOM     70  C   UNL     1      -5.905 -12.798  12.882  1.00  0.00     0.012 A 
ATOM     71  C   UNL     1      -4.080 -14.243  13.592  1.00  0.00     0.148 A 
ATOM     72  C   UNL     1      -6.161 -12.458  14.210  1.00  0.00     0.002 A 
ATOM     73  C   UNL     1      -4.376 -13.940  14.915  1.00  0.00     0.091 A 
ATOM     74  F   UNL     1      -3.063 -15.052  13.264  1.00  0.00    -0.205 F 
ATOM     75  C   UNL     1      -5.404 -13.036  15.225  1.00  0.00     0.022 A 
BRANCH  73  76
ATOM     76  S   UNL     1      -3.511 -14.699  16.293  1.00  0.00     0.127 S 
ATOM     77  O   UNL     1      -2.714 -13.580  16.793  1.00  0.00    -0.237 OA
ATOM     78  O   UNL     1      -4.616 -15.098  17.166  1.00  0.00    -0.237 OA
ATOM     79  O   UNL     1      -2.752 -15.807  15.730  1.00  0.00    -0.744 OA
ENDBRANCH  73  76
ENDBRANCH  55  69
BRANCH  56  80
ATOM     80  C   UNL     1      -2.261 -15.556   3.083  1.00  0.00     0.023 A 
ATOM     81  C   UNL     1      -3.252 -15.932   2.155  1.00  0.00     0.012 A 
ATOM     82  C   UNL     1      -0.923 -15.451   2.655  1.00  0.00     0.148 A 
ATOM     83  C   UNL     1      -2.914 -16.229   0.835  1.00  0.00     0.002 A 
ATOM     84  C   UNL     1      -0.602 -15.691   1.325  1.00  0.00     0.091 A 
ATOM     85  F   UNL     1       0.006 -15.104   3.557  1.00  0.00    -0.205 F 
ATOM     86  C   UNL     1      -1.592 -16.099   0.417  1.00  0.00     0.022 A 
BRANCH  84  87
ATOM     87  S   UNL     1       1.047 -15.424   0.663  1.00  0.00     0.127 S 
ATOM     88  O   UNL     1       1.433 -16.776   0.266  1.00  0.00    -0.237 OA
ATOM     89  O   UNL     1       0.778 -14.506  -0.444  1.00  0.00    -0.237 OA
ATOM     90  O   UNL     1       1.824 -14.844   1.750  1.00  0.00    -0.744 OA
ENDBRANCH  84  87
ENDBRANCH  56  80
BRANCH  68  91
ATOM     91  C   UNL     1      -5.043 -19.420   8.198  1.00  0.00     0.023 A 
ATOM     92  C   UNL     1      -4.076 -20.445   8.244  1.00  0.00     0.012 A 
ATOM     93  C   UNL     1      -6.408 -19.755   8.303  1.00  0.00     0.148 A 
ATOM     94  C   UNL     1      -4.464 -21.780   8.355  1.00  0.00     0.002 A 
ATOM     95  C   UNL     1      -6.784 -21.082   8.471  1.00  0.00     0.091 A 
ATOM     96  F   UNL     1      -7.314 -18.768   8.243  1.00  0.00    -0.205 F 
ATOM     97  C   UNL     1      -5.815 -22.098   8.481  1.00  0.00     0.022 A 
BRANCH  95  98
ATOM     98  S   UNL     1      -8.490 -21.575   8.744  1.00  0.00     0.127 S 
ATOM     99  O   UNL     1      -8.805 -22.264   7.494  1.00  0.00    -0.237 OA
ATOM    100  O   UNL     1      -8.374 -22.451   9.911  1.00  0.00    -0.237 OA
ATOM    101  O   UNL     1      -9.232 -20.345   8.982  1.00  0.00    -0.744 OA
ENDBRANCH  95  98
ENDBRANCH  68  91
ENDBRANCH  42  43
ENDBRANCH  35  37
ENDBRANCH  34  35
ENDBRANCH  33  34
ENDBRANCH  32  33
ENDBRANCH  31  32
ENDBRANCH  30  31
ENDBRANCH   1  30
TORSDOF 25
