REMARK SMILES Cn1ccnc1N[C@H]1CCCCC[C@@H]1C(=O)OCCOCCOCCOCCOC(=O)c1ccc(-c2c3nc(c(-c4cccc(S(=O)(=O)[O-])c4F)c4ccc([nH]4)c(-c4cccc(S(=O)(=O)[O-])c4F)c4nc(c(-c5cccc(S(=O)(=O)[O-])c5F)c5ccc2[nH]5)C=C4)C=C3)cc1
REMARK SMILES IDX 23 1 22 2 21 3 20 4 19 5 18 6 17 7 15 8 16 9 14 10 8 11 7 12
REMARK SMILES IDX 6 14 1 15 2 16 3 17 4 18 5 19 9 20 10 21 13 23 12 24 11 25
REMARK SMILES IDX 24 27 25 28 26 29 27 30 28 31 29 32 30 33 31 34 32 35 33 36
REMARK SMILES IDX 94 37 34 38 93 39 35 40 36 41 37 42 87 43 38 44 92 45 86 46
REMARK SMILES IDX 88 47 39 48 91 49 85 50 84 51 40 53 72 54 52 55 71 56 53 57
REMARK SMILES IDX 56 58 70 59 89 60 54 61 55 62 69 64 90 65 57 66 41 67 42 68
REMARK SMILES IDX 50 69 43 70 45 71 51 72 44 73 46 74 47 75 48 76 49 77 73 78
REMARK SMILES IDX 74 79 82 80 75 81 77 82 83 83 76 84 78 85 79 86 80 87 81 88
REMARK SMILES IDX 58 89 59 90 67 91 60 92 62 93 68 94 61 95 63 96 64 97 65 98
REMARK SMILES IDX 66 99
REMARK H PARENT 7 13 88 52 56 63
REMARK Flexibility Score: 100.00
ROOT
ATOM      1  O   UNL     1       0.622   0.058  -0.402  1.00  0.00    -0.377 OA
ENDROOT
BRANCH   1   2
ATOM      2  C   UNL     1      -0.562   0.388  -1.100  1.00  0.00     0.188 C 
BRANCH   2   3
ATOM      3  C   UNL     1      -0.561   0.453  -2.641  1.00  0.00     0.188 C 
BRANCH   3   4
ATOM      4  O   UNL     1       0.681   0.113  -3.225  1.00  0.00    -0.376 OA
BRANCH   4   5
ATOM      5  C   UNL     1       1.548   1.156  -3.631  1.00  0.00     0.202 C 
BRANCH   5   6
ATOM      6  C   UNL     1       1.790   2.399  -2.756  1.00  0.00     0.261 C 
BRANCH   6   7
ATOM      7  O   UNL     1       0.706   2.822  -1.915  1.00  0.00    -0.463 OA
BRANCH   7   8
ATOM      8  C   UNL     1      -0.183   3.727  -2.378  1.00  0.00     0.311 C 
ATOM      9  O   UNL     1      -0.186   4.165  -3.524  1.00  0.00    -0.252 OA
BRANCH   8  10
ATOM     10  C   UNL     1      -1.281   4.062  -1.359  1.00  0.00     0.121 C 
BRANCH  10  11
ATOM     11  C   UNL     1      -0.781   4.006   0.117  1.00  0.00     0.096 C 
BRANCH  11  12
ATOM     12  N   UNL     1      -0.022   5.232   0.409  1.00  0.00    -0.352 N 
ATOM     13  H   UNL     1      -0.001   5.962  -0.252  1.00  0.00     0.163 HD
BRANCH  12  14
ATOM     14  C   UNL     1       0.648   5.364   1.576  1.00  0.00     0.202 A 
ATOM     15  C   UNL     1       1.568   7.678   1.099  1.00  0.00     0.153 C 
ATOM     16  N   UNL     1       1.353   6.500   1.899  1.00  0.00    -0.321 N 
ATOM     17  C   UNL     1       1.820   6.357   3.179  1.00  0.00     0.109 A 
ATOM     18  C   UNL     1       1.433   5.097   3.559  1.00  0.00     0.133 A 
ATOM     19  N   UNL     1       0.703   4.501   2.566  1.00  0.00    -0.222 NA
ENDBRANCH  12  14
ENDBRANCH  11  12
BRANCH  11  20
ATOM     20  C   UNL     1      -1.933   3.833   1.134  1.00  0.00     0.026 C 
BRANCH  20  21
ATOM     21  C   UNL     1      -3.109   4.783   0.916  1.00  0.00     0.002 CG0
ATOM     22  G   UNL     1      -4.211   4.143   0.082  1.00  0.00     0.000 G0
ENDBRANCH  20  21
ENDBRANCH  11  20
ENDBRANCH  10  11
BRANCH  10  23
ATOM     23  C   UNL     1      -2.546   3.222  -1.664  1.00  0.00     0.017 C 
BRANCH  23  24
ATOM     24  C   UNL     1      -3.865   3.942  -1.389  1.00  0.00     0.001 C 
BRANCH  24  25
ATOM     25  C   UNL     1      -4.211   4.143   0.082  1.00  0.00     0.000 CG0
ATOM     26  G   UNL     1      -3.109   4.783   0.916  1.00  0.00     0.000 G0
ENDBRANCH  24  25
ENDBRANCH  23  24
ENDBRANCH  10  23
ENDBRANCH   8  10
ENDBRANCH   7   8
ENDBRANCH   6   7
ENDBRANCH   5   6
ENDBRANCH   4   5
ENDBRANCH   3   4
ENDBRANCH   2   3
ENDBRANCH   1   2
BRANCH   1  27
ATOM     27  C   UNL     1       1.429  -1.020  -0.845  1.00  0.00     0.188 C 
BRANCH  27  28
ATOM     28  C   UNL     1       0.796  -2.228  -1.570  1.00  0.00     0.188 C 
BRANCH  28  29
ATOM     29  O   UNL     1      -0.618  -2.193  -1.698  1.00  0.00    -0.376 OA
BRANCH  29  30
ATOM     30  C   UNL     1      -1.379  -3.057  -0.871  1.00  0.00     0.202 C 
BRANCH  30  31
ATOM     31  C   UNL     1      -1.360  -2.780   0.639  1.00  0.00     0.261 C 
BRANCH  31  32
ATOM     32  O   UNL     1      -0.064  -2.717   1.246  1.00  0.00    -0.460 OA
BRANCH  32  33
ATOM     33  C   UNL     1       0.659  -3.860   1.256  1.00  0.00     0.338 C 
ATOM     34  O   UNL     1       0.329  -4.939   0.812  1.00  0.00    -0.246 OA
BRANCH  33  35
ATOM     35  C   UNL     1       2.018  -3.518   1.727  1.00  0.00     0.060 A 
ATOM     36  C   UNL     1       3.099  -3.737   0.865  1.00  0.00     0.016 A 
ATOM     37  C   UNL     1       2.216  -2.959   2.991  1.00  0.00     0.016 A 
ATOM     38  C   UNL     1       4.390  -3.415   1.276  1.00  0.00     0.010 A 
ATOM     39  C   UNL     1       3.514  -2.665   3.413  1.00  0.00     0.010 A 
ATOM     40  C   UNL     1       4.608  -2.923   2.569  1.00  0.00    -0.014 A 
BRANCH  40  41
ATOM     41  C   UNL     1       5.993  -2.866   3.088  1.00  0.00     0.031 A 
ATOM     42  C   UNL     1       6.488  -4.012   3.924  1.00  0.00     0.074 A 
ATOM     43  C   UNL     1       6.805  -1.835   2.798  1.00  0.00     0.049 A 
ATOM     44  N   UNL     1       7.668  -4.204   4.452  1.00  0.00    -0.248 NA
ATOM     45  C   UNL     1       5.521  -5.088   4.202  1.00  0.00     0.031 C 
ATOM     46  C   UNL     1       6.436  -0.666   2.001  1.00  0.00     0.029 A 
ATOM     47  N   UNL     1       8.107  -1.600   3.162  1.00  0.00    -0.354 N 
ATOM     48  C   UNL     1       7.579  -5.403   5.147  1.00  0.00     0.074 A 
ATOM     49  C   UNL     1       6.227  -5.891   4.983  1.00  0.00     0.031 C 
ATOM     50  C   UNL     1       7.481   0.178   1.960  1.00  0.00     0.029 A 
ATOM     51  C   UNL     1       8.583  -0.382   2.743  1.00  0.00     0.049 A 
ATOM     52  H   UNL     1       8.648  -2.244   3.675  1.00  0.00     0.167 HD
ATOM     53  C   UNL     1       8.539  -6.047   5.851  1.00  0.00     0.034 A 
ATOM     54  C   UNL     1       9.764   0.221   2.984  1.00  0.00     0.034 A 
ATOM     55  C   UNL     1       9.883  -5.561   6.008  1.00  0.00     0.049 A 
ATOM     56  C   UNL     1      10.813  -0.509   3.784  1.00  0.00     0.074 A 
ATOM     57  C   UNL     1      10.946  -6.168   6.651  1.00  0.00     0.029 A 
ATOM     58  N   UNL     1      10.342  -4.338   5.543  1.00  0.00    -0.354 N 
ATOM     59  N   UNL     1      10.762  -1.706   4.319  1.00  0.00    -0.248 NA
ATOM     60  C   UNL     1      12.097   0.179   3.980  1.00  0.00     0.031 C 
ATOM     61  C   UNL     1      12.035  -5.291   6.615  1.00  0.00     0.029 A 
ATOM     62  C   UNL     1      11.666  -4.159   5.906  1.00  0.00     0.049 A 
ATOM     63  H   UNL     1       9.805  -3.692   5.029  1.00  0.00     0.167 HD
ATOM     64  C   UNL     1      12.012  -1.925   4.891  1.00  0.00     0.074 A 
ATOM     65  C   UNL     1      12.807  -0.747   4.610  1.00  0.00     0.031 C 
ATOM     66  C   UNL     1      12.458  -2.997   5.593  1.00  0.00     0.034 A 
BRANCH  53  67
ATOM     67  C   UNL     1       8.163  -7.348   6.510  1.00  0.00     0.023 A 
ATOM     68  C   UNL     1       7.925  -8.495   5.726  1.00  0.00     0.012 A 
ATOM     69  C   UNL     1       8.084  -7.442   7.913  1.00  0.00     0.148 A 
ATOM     70  C   UNL     1       7.576  -9.705   6.325  1.00  0.00     0.002 A 
ATOM     71  C   UNL     1       7.785  -8.662   8.505  1.00  0.00     0.091 A 
ATOM     72  F   UNL     1       8.288  -6.334   8.640  1.00  0.00    -0.205 F 
ATOM     73  C   UNL     1       7.518  -9.791   7.713  1.00  0.00     0.022 A 
BRANCH  71  74
ATOM     74  S   UNL     1       7.768  -8.894  10.286  1.00  0.00     0.127 S 
ATOM     75  O   UNL     1       6.342  -9.092  10.543  1.00  0.00    -0.237 OA
ATOM     76  O   UNL     1       8.588 -10.095  10.446  1.00  0.00    -0.237 OA
ATOM     77  O   UNL     1       8.343  -7.684  10.856  1.00  0.00    -0.744 OA
ENDBRANCH  71  74
ENDBRANCH  53  67
BRANCH  54  78
ATOM     78  C   UNL     1      10.026   1.585   2.441  1.00  0.00     0.023 A 
ATOM     79  C   UNL     1      10.979   1.763   1.421  1.00  0.00     0.012 A 
ATOM     80  C   UNL     1       9.316   2.703   2.923  1.00  0.00     0.148 A 
ATOM     81  C   UNL     1      11.243   3.035   0.910  1.00  0.00     0.002 A 
ATOM     82  C   UNL     1       9.541   3.957   2.369  1.00  0.00     0.091 A 
ATOM     83  F   UNL     1       8.424   2.513   3.905  1.00  0.00    -0.205 F 
ATOM     84  C   UNL     1      10.517   4.129   1.375  1.00  0.00     0.022 A 
BRANCH  82  85
ATOM     85  S   UNL     1       8.573   5.402   2.817  1.00  0.00     0.127 S 
ATOM     86  O   UNL     1       9.578   6.253   3.450  1.00  0.00    -0.237 OA
ATOM     87  O   UNL     1       8.108   5.868   1.510  1.00  0.00    -0.237 OA
ATOM     88  O   UNL     1       7.518   4.918   3.696  1.00  0.00    -0.744 OA
ENDBRANCH  82  85
ENDBRANCH  54  78
BRANCH  66  89
ATOM     89  C   UNL     1      13.883  -2.965   6.088  1.00  0.00     0.023 A 
ATOM     90  C   UNL     1      14.252  -2.082   7.122  1.00  0.00     0.012 A 
ATOM     91  C   UNL     1      14.845  -3.853   5.564  1.00  0.00     0.148 A 
ATOM     92  C   UNL     1      15.564  -2.051   7.596  1.00  0.00     0.002 A 
ATOM     93  C   UNL     1      16.136  -3.855   6.078  1.00  0.00     0.091 A 
ATOM     94  F   UNL     1      14.482  -4.677   4.571  1.00  0.00    -0.205 F 
ATOM     95  C   UNL     1      16.502  -2.944   7.082  1.00  0.00     0.022 A 
BRANCH  93  96
ATOM     96  S   UNL     1      17.383  -5.035   5.548  1.00  0.00     0.127 S 
ATOM     97  O   UNL     1      18.283  -4.186   4.769  1.00  0.00    -0.237 OA
ATOM     98  O   UNL     1      17.933  -5.498   6.822  1.00  0.00    -0.237 OA
ATOM     99  O   UNL     1      16.674  -6.056   4.789  1.00  0.00    -0.744 OA
ENDBRANCH  93  96
ENDBRANCH  66  89
ENDBRANCH  40  41
ENDBRANCH  33  35
ENDBRANCH  32  33
ENDBRANCH  31  32
ENDBRANCH  30  31
ENDBRANCH  29  30
ENDBRANCH  28  29
ENDBRANCH  27  28
ENDBRANCH   1  27
TORSDOF 25
