REMARK SMILES O=C(OCCOCCOCCOCCOC(=O)c1cc(N2CCN(c3ccc(F)cc3)CC2)ccc1NC(=O)C1CCCC1)c1ccc(-c2c3nc(c(-c4cccc(S(=O)(=O)[O-])c4F)c4ccc([nH]4)c(-c4cccc(S(=O)(=O)[O-])c4F)c4nc(c(-c5cccc(S(=O)(=O)[O-])c5F)c5ccc2[nH]5)C=C4)C=C3)cc1
REMARK SMILES IDX 8 1 7 2 6 3 5 4 4 5 3 6 2 7 1 8 45 9 46 10 107 11 47 12
REMARK SMILES IDX 106 13 48 14 49 15 50 16 100 17 51 18 105 19 99 20 101 21
REMARK SMILES IDX 52 22 104 23 98 24 97 25 53 27 85 28 65 29 84 30 66 31 69 32
REMARK SMILES IDX 83 33 102 34 67 35 68 36 82 38 103 39 70 40 54 41 55 42
REMARK SMILES IDX 63 43 56 44 58 45 64 46 57 47 59 48 60 49 61 50 62 51 86 52
REMARK SMILES IDX 87 53 95 54 88 55 90 56 96 57 89 58 91 59 92 60 93 61 94 62
REMARK SMILES IDX 71 63 72 64 80 65 73 66 75 67 81 68 74 69 76 70 77 71 78 72
REMARK SMILES IDX 79 73 9 74 10 75 11 76 12 77 13 78 14 79 15 80 16 81 17 82
REMARK SMILES IDX 18 83 19 84 36 85 20 86 35 87 34 88 37 89 38 90 39 92 40 93
REMARK SMILES IDX 41 94 44 95 42 96 43 97 21 98 22 99 33 100 23 101 32 102
REMARK SMILES IDX 24 103 25 104 26 105 31 106 27 107 30 108 28 109 29 110
REMARK H PARENT 101 26 69 37 37 91
REMARK Flexibility Score: inf
ROOT
ATOM      1  C   UNL     1       1.879  -2.606  -1.031  1.00  0.00     0.188 C 
ENDROOT
BRANCH   1   2
ATOM      2  C   UNL     1       2.289  -1.594   0.042  1.00  0.00     0.188 C 
BRANCH   2   3
ATOM      3  O   UNL     1       3.590  -1.064  -0.233  1.00  0.00    -0.376 OA
BRANCH   3   4
ATOM      4  C   UNL     1       4.446  -0.896   0.896  1.00  0.00     0.202 C 
BRANCH   4   5
ATOM      5  C   UNL     1       4.250   0.423   1.641  1.00  0.00     0.261 C 
BRANCH   5   6
ATOM      6  O   UNL     1       2.871   0.800   1.696  1.00  0.00    -0.460 OA
BRANCH   6   7
ATOM      7  C   UNL     1       2.197   1.573   0.806  1.00  0.00     0.338 C 
ATOM      8  O   UNL     1       1.009   1.798   1.032  1.00  0.00    -0.246 OA
BRANCH   7   9
ATOM      9  C   UNL     1       2.809   2.188  -0.418  1.00  0.00     0.060 A 
ATOM     10  C   UNL     1       3.921   1.707  -1.121  1.00  0.00     0.016 A 
ATOM     11  C   UNL     1       2.160   3.324  -0.928  1.00  0.00     0.016 A 
ATOM     12  C   UNL     1       4.419   2.354  -2.244  1.00  0.00     0.010 A 
ATOM     13  C   UNL     1       2.647   3.982  -2.058  1.00  0.00     0.010 A 
ATOM     14  C   UNL     1       3.803   3.514  -2.691  1.00  0.00    -0.014 A 
BRANCH  14  15
ATOM     15  C   UNL     1       4.519   4.356  -3.658  1.00  0.00     0.031 A 
ATOM     16  C   UNL     1       5.257   5.536  -3.109  1.00  0.00     0.074 A 
ATOM     17  C   UNL     1       4.545   4.035  -4.960  1.00  0.00     0.049 A 
ATOM     18  N   UNL     1       5.813   6.531  -3.736  1.00  0.00    -0.248 NA
ATOM     19  C   UNL     1       5.380   5.600  -1.640  1.00  0.00     0.031 C 
ATOM     20  C   UNL     1       3.951   2.833  -5.544  1.00  0.00     0.029 A 
ATOM     21  N   UNL     1       5.074   4.708  -6.027  1.00  0.00    -0.354 N 
ATOM     22  C   UNL     1       6.277   7.380  -2.741  1.00  0.00     0.074 A 
ATOM     23  C   UNL     1       5.974   6.769  -1.469  1.00  0.00     0.031 C 
ATOM     24  C   UNL     1       4.111   2.874  -6.877  1.00  0.00     0.029 A 
ATOM     25  C   UNL     1       4.755   4.134  -7.235  1.00  0.00     0.049 A 
ATOM     26  H   UNL     1       5.626   5.518  -5.940  1.00  0.00     0.167 HD
ATOM     27  C   UNL     1       6.883   8.579  -2.888  1.00  0.00     0.034 A 
ATOM     28  C   UNL     1       4.910   4.620  -8.482  1.00  0.00     0.034 A 
ATOM     29  C   UNL     1       7.168   9.144  -4.175  1.00  0.00     0.049 A 
ATOM     30  C   UNL     1       5.555   5.972  -8.631  1.00  0.00     0.074 A 
ATOM     31  C   UNL     1       7.752  10.356  -4.480  1.00  0.00     0.029 A 
ATOM     32  N   UNL     1       6.870   8.519  -5.381  1.00  0.00    -0.354 N 
ATOM     33  N   UNL     1       5.998   6.778  -7.693  1.00  0.00    -0.248 NA
ATOM     34  C   UNL     1       5.737   6.481  -9.995  1.00  0.00     0.031 C 
ATOM     35  C   UNL     1       7.782  10.475  -5.874  1.00  0.00     0.029 A 
ATOM     36  C   UNL     1       7.252   9.320  -6.436  1.00  0.00     0.049 A 
ATOM     37  H   UNL     1       6.447   7.634  -5.468  1.00  0.00     0.167 HD
ATOM     38  C   UNL     1       6.539   7.875  -8.350  1.00  0.00     0.074 A 
ATOM     39  C   UNL     1       6.373   7.625  -9.770  1.00  0.00     0.031 C 
ATOM     40  C   UNL     1       7.113   8.991  -7.835  1.00  0.00     0.034 A 
BRANCH  27  41
ATOM     41  C   UNL     1       7.198   9.344  -1.633  1.00  0.00     0.023 A 
ATOM     42  C   UNL     1       8.219   8.903  -0.765  1.00  0.00     0.012 A 
ATOM     43  C   UNL     1       6.431  10.471  -1.278  1.00  0.00     0.148 A 
ATOM     44  C   UNL     1       8.433   9.537   0.459  1.00  0.00     0.002 A 
ATOM     45  C   UNL     1       6.681  11.125  -0.077  1.00  0.00     0.091 A 
ATOM     46  F   UNL     1       5.441  10.855  -2.096  1.00  0.00    -0.205 F 
ATOM     47  C   UNL     1       7.668  10.650   0.800  1.00  0.00     0.022 A 
BRANCH  45  48
ATOM     48  S   UNL     1       5.785  12.600   0.419  1.00  0.00     0.127 S 
ATOM     49  O   UNL     1       4.902  12.075   1.459  1.00  0.00    -0.237 OA
ATOM     50  O   UNL     1       6.861  13.462   0.911  1.00  0.00    -0.237 OA
ATOM     51  O   UNL     1       5.123  13.088  -0.783  1.00  0.00    -0.744 OA
ENDBRANCH  45  48
ENDBRANCH  27  41
BRANCH  28  52
ATOM     52  C   UNL     1       4.430   3.825  -9.647  1.00  0.00     0.023 A 
ATOM     53  C   UNL     1       5.359   3.243 -10.530  1.00  0.00     0.012 A 
ATOM     54  C   UNL     1       3.055   3.571  -9.835  1.00  0.00     0.148 A 
ATOM     55  C   UNL     1       4.928   2.430 -11.581  1.00  0.00     0.002 A 
ATOM     56  C   UNL     1       2.637   2.715 -10.848  1.00  0.00     0.091 A 
ATOM     57  F   UNL     1       2.184   4.145  -8.994  1.00  0.00    -0.205 F 
ATOM     58  C   UNL     1       3.571   2.155 -11.731  1.00  0.00     0.022 A 
BRANCH  56  59
ATOM     59  S   UNL     1       0.926   2.194 -11.031  1.00  0.00     0.127 S 
ATOM     60  O   UNL     1       0.559   2.813 -12.302  1.00  0.00    -0.237 OA
ATOM     61  O   UNL     1       1.060   0.737 -11.071  1.00  0.00    -0.237 OA
ATOM     62  O   UNL     1       0.229   2.703  -9.858  1.00  0.00    -0.744 OA
ENDBRANCH  56  59
ENDBRANCH  28  52
BRANCH  40  63
ATOM     63  C   UNL     1       7.660  10.002  -8.803  1.00  0.00     0.023 A 
ATOM     64  C   UNL     1       6.787  10.885  -9.464  1.00  0.00     0.012 A 
ATOM     65  C   UNL     1       9.053  10.167  -8.925  1.00  0.00     0.148 A 
ATOM     66  C   UNL     1       7.298  11.921 -10.244  1.00  0.00     0.002 A 
ATOM     67  C   UNL     1       9.553  11.231  -9.660  1.00  0.00     0.091 A 
ATOM     68  F   UNL     1       9.857   9.297  -8.295  1.00  0.00    -0.205 F 
ATOM     69  C   UNL     1       8.678  12.104 -10.327  1.00  0.00     0.022 A 
BRANCH  67  70
ATOM     70  S   UNL     1      11.306  11.612  -9.722  1.00  0.00     0.127 S 
ATOM     71  O   UNL     1      11.632  11.286 -11.110  1.00  0.00    -0.237 OA
ATOM     72  O   UNL     1      11.323  13.041  -9.410  1.00  0.00    -0.237 OA
ATOM     73  O   UNL     1      11.940  10.766  -8.720  1.00  0.00    -0.744 OA
ENDBRANCH  67  70
ENDBRANCH  40  63
ENDBRANCH  14  15
ENDBRANCH   7   9
ENDBRANCH   6   7
ENDBRANCH   5   6
ENDBRANCH   4   5
ENDBRANCH   3   4
ENDBRANCH   2   3
ENDBRANCH   1   2
BRANCH   1  74
ATOM     74  O   UNL     1       2.652  -3.809  -1.046  1.00  0.00    -0.377 OA
BRANCH  74  75
ATOM     75  C   UNL     1       4.065  -3.637  -1.034  1.00  0.00     0.188 C 
BRANCH  75  76
ATOM     76  C   UNL     1       4.737  -2.901  -2.212  1.00  0.00     0.188 C 
BRANCH  76  77
ATOM     77  O   UNL     1       3.825  -2.325  -3.133  1.00  0.00    -0.376 OA
BRANCH  77  78
ATOM     78  C   UNL     1       3.799  -2.918  -4.428  1.00  0.00     0.202 C 
BRANCH  78  79
ATOM     79  C   UNL     1       3.139  -4.303  -4.506  1.00  0.00     0.261 C 
BRANCH  79  80
ATOM     80  O   UNL     1       3.635  -5.264  -3.556  1.00  0.00    -0.460 OA
BRANCH  80  81
ATOM     81  C   UNL     1       4.848  -5.832  -3.748  1.00  0.00     0.340 C 
ATOM     82  O   UNL     1       5.578  -5.696  -4.714  1.00  0.00    -0.246 OA
BRANCH  81  83
ATOM     83  C   UNL     1       5.244  -6.456  -2.455  1.00  0.00     0.085 A 
ATOM     84  C   UNL     1       6.538  -6.188  -1.974  1.00  0.00     0.043 A 
ATOM     85  C   UNL     1       4.339  -7.165  -1.648  1.00  0.00     0.055 A 
ATOM     86  C   UNL     1       6.904  -6.500  -0.655  1.00  0.00     0.038 A 
ATOM     87  C   UNL     1       4.699  -7.479  -0.332  1.00  0.00     0.029 A 
ATOM     88  C   UNL     1       5.961  -7.131   0.161  1.00  0.00     0.028 A 
BRANCH  85  89
ATOM     89  N   UNL     1       3.069  -7.506  -2.139  1.00  0.00    -0.325 N 
ATOM     90  C   UNL     1       2.437  -8.718  -2.109  1.00  0.00     0.227 C 
ATOM     91  H   UNL     1       2.565  -6.773  -2.561  1.00  0.00     0.169 HD
ATOM     92  O   UNL     1       1.282  -8.799  -2.531  1.00  0.00    -0.274 OA
BRANCH  90  93
ATOM     93  C   UNL     1       3.185  -9.940  -1.583  1.00  0.00     0.079 C 
ATOM     94  C   UNL     1       2.455 -11.246  -1.900  1.00  0.00     0.013 C 
ATOM     95  C   UNL     1       4.539 -10.207  -2.246  1.00  0.00     0.013 C 
ATOM     96  C   UNL     1       3.506 -12.327  -1.672  1.00  0.00     0.001 C 
ATOM     97  C   UNL     1       4.856 -11.645  -1.867  1.00  0.00     0.001 C 
ENDBRANCH  90  93
ENDBRANCH  85  89
BRANCH  86  98
ATOM     98  N   UNL     1       8.151  -6.166  -0.185  1.00  0.00    -0.368 N 
ATOM     99  C   UNL     1       8.364  -5.347   1.021  1.00  0.00     0.138 C 
ATOM    100  C   UNL     1       9.331  -6.857  -0.722  1.00  0.00     0.138 C 
ATOM    101  C   UNL     1       9.138  -6.109   2.128  1.00  0.00     0.138 C 
ATOM    102  C   UNL     1      10.029  -7.662   0.394  1.00  0.00     0.138 C 
ATOM    103  N   UNL     1      10.302  -6.820   1.570  1.00  0.00    -0.368 N 
BRANCH 103 104
ATOM    104  C   UNL     1      11.585  -6.522   1.970  1.00  0.00     0.037 A 
ATOM    105  C   UNL     1      11.936  -6.544   3.329  1.00  0.00     0.029 A 
ATOM    106  C   UNL     1      12.593  -6.210   1.044  1.00  0.00     0.029 A 
ATOM    107  C   UNL     1      13.247  -6.293   3.747  1.00  0.00     0.041 A 
ATOM    108  C   UNL     1      13.902  -5.939   1.454  1.00  0.00     0.041 A 
ATOM    109  C   UNL     1      14.219  -5.993   2.803  1.00  0.00     0.123 A 
ATOM    110  F   UNL     1      15.476  -5.756   3.198  1.00  0.00    -0.207 F 
ENDBRANCH 103 104
ENDBRANCH  86  98
ENDBRANCH  81  83
ENDBRANCH  80  81
ENDBRANCH  79  80
ENDBRANCH  78  79
ENDBRANCH  77  78
ENDBRANCH  76  77
ENDBRANCH  75  76
ENDBRANCH  74  75
ENDBRANCH   1  74
TORSDOF 27
