REMARK SMILES O=C(Cc1ccc(CBr)cc1)OCCOCCOCCOCCOC(=O)c1ccc(-c2c3nc(c(-c4cccc(S(=O)(=O)[O-])c4F)c4ccc([nH]4)c(-c4cccc(S(=O)(=O)[O-])c4F)c4nc(c(-c5cccc(S(=O)(=O)[O-])c5F)c5ccc2[nH]5)C=C4)C=C3)cc1
REMARK SMILES IDX 19 1 18 2 17 3 16 4 15 5 14 6 13 7 12 8 2 9 1 10 3 11 4 12
REMARK SMILES IDX 5 13 11 14 6 15 10 16 7 17 8 18 9 19 20 20 21 21 22 22 23 23
REMARK SMILES IDX 24 24 25 25 26 26 27 27 28 28 89 29 29 30 88 31 30 32 31 33
REMARK SMILES IDX 32 34 82 35 33 36 87 37 81 38 83 39 34 40 86 41 80 42 79 43
REMARK SMILES IDX 35 45 67 46 47 47 66 48 48 49 51 50 65 51 84 52 49 53 50 54
REMARK SMILES IDX 64 56 85 57 52 58 36 59 37 60 45 61 38 62 40 63 46 64 39 65
REMARK SMILES IDX 41 66 42 67 43 68 44 69 68 70 69 71 77 72 70 73 72 74 78 75
REMARK SMILES IDX 71 76 73 77 74 78 75 79 76 80 53 81 54 82 62 83 55 84 57 85
REMARK SMILES IDX 63 86 56 87 58 88 59 89 60 90 61 91
REMARK H PARENT 83 44 51 55
REMARK Flexibility Score: inf
ROOT
ATOM      1  C   UNL     1       4.227  -1.463   3.276  1.00  0.00     0.188 C 
ENDROOT
BRANCH   1   2
ATOM      2  O   UNL     1       2.860  -1.827   3.213  1.00  0.00    -0.377 OA
BRANCH   2   3
ATOM      3  C   UNL     1       2.183  -1.366   2.056  1.00  0.00     0.188 C 
BRANCH   3   4
ATOM      4  C   UNL     1       2.729  -1.845   0.708  1.00  0.00     0.188 C 
BRANCH   4   5
ATOM      5  O   UNL     1       4.078  -1.610   0.351  1.00  0.00    -0.376 OA
BRANCH   5   6
ATOM      6  C   UNL     1       4.714  -0.362   0.177  1.00  0.00     0.202 C 
BRANCH   6   7
ATOM      7  C   UNL     1       4.007   0.984   0.293  1.00  0.00     0.261 C 
BRANCH   7   8
ATOM      8  O   UNL     1       2.586   1.031   0.102  1.00  0.00    -0.463 OA
BRANCH   8   9
ATOM      9  C   UNL     1       1.868   0.714  -0.992  1.00  0.00     0.310 C 
ATOM     10  O   UNL     1       0.647   0.875  -0.970  1.00  0.00    -0.252 OA
BRANCH   9  11
ATOM     11  C   UNL     1       2.525   0.046  -2.174  1.00  0.00     0.158 C 
BRANCH  11  12
ATOM     12  C   UNL     1       3.651   0.790  -2.825  1.00  0.00    -0.037 A 
ATOM     13  C   UNL     1       4.767   0.083  -3.293  1.00  0.00     0.004 A 
ATOM     14  C   UNL     1       3.596   2.175  -2.987  1.00  0.00     0.004 A 
ATOM     15  C   UNL     1       5.838   0.761  -3.866  1.00  0.00     0.005 A 
ATOM     16  C   UNL     1       4.670   2.852  -3.554  1.00  0.00     0.005 A 
ATOM     17  C   UNL     1       5.803   2.155  -3.997  1.00  0.00    -0.037 A 
BRANCH  17  18
ATOM     18  C   UNL     1       6.927   2.899  -4.650  1.00  0.00     0.116 C 
ATOM     19  Br  UNL     1       8.562   2.729  -3.618  1.00  0.00    -0.088 Br
ENDBRANCH  17  18
ENDBRANCH  11  12
ENDBRANCH   9  11
ENDBRANCH   8   9
ENDBRANCH   7   8
ENDBRANCH   6   7
ENDBRANCH   5   6
ENDBRANCH   4   5
ENDBRANCH   3   4
ENDBRANCH   2   3
ENDBRANCH   1   2
BRANCH   1  20
ATOM     20  C   UNL     1       5.177  -2.617   2.917  1.00  0.00     0.188 C 
BRANCH  20  21
ATOM     21  O   UNL     1       4.674  -3.735   2.215  1.00  0.00    -0.376 OA
BRANCH  21  22
ATOM     22  C   UNL     1       3.644  -4.568   2.723  1.00  0.00     0.202 C 
BRANCH  22  23
ATOM     23  C   UNL     1       3.115  -4.642   4.170  1.00  0.00     0.261 C 
BRANCH  23  24
ATOM     24  O   UNL     1       3.525  -3.652   5.103  1.00  0.00    -0.460 OA
BRANCH  24  25
ATOM     25  C   UNL     1       4.663  -3.916   5.769  1.00  0.00     0.338 C 
ATOM     26  O   UNL     1       5.362  -4.914   5.670  1.00  0.00    -0.246 OA
BRANCH  25  27
ATOM     27  C   UNL     1       5.063  -2.687   6.478  1.00  0.00     0.060 A 
ATOM     28  C   UNL     1       6.349  -2.188   6.236  1.00  0.00     0.016 A 
ATOM     29  C   UNL     1       4.193  -2.030   7.353  1.00  0.00     0.016 A 
ATOM     30  C   UNL     1       6.801  -1.074   6.924  1.00  0.00     0.010 A 
ATOM     31  C   UNL     1       4.661  -0.931   8.076  1.00  0.00     0.010 A 
ATOM     32  C   UNL     1       5.988  -0.498   7.906  1.00  0.00    -0.014 A 
BRANCH  32  33
ATOM     33  C   UNL     1       6.656   0.312   8.946  1.00  0.00     0.031 A 
ATOM     34  C   UNL     1       7.083  -0.395  10.205  1.00  0.00     0.074 A 
ATOM     35  C   UNL     1       6.960   1.604   8.743  1.00  0.00     0.049 A 
ATOM     36  N   UNL     1       7.746   0.066  11.231  1.00  0.00    -0.248 NA
ATOM     37  C   UNL     1       6.718  -1.820  10.317  1.00  0.00     0.031 C 
ATOM     38  C   UNL     1       6.628   2.376   7.547  1.00  0.00     0.029 A 
ATOM     39  N   UNL     1       7.619   2.493   9.551  1.00  0.00    -0.354 N 
ATOM     40  C   UNL     1       7.845  -0.997  12.121  1.00  0.00     0.074 A 
ATOM     41  C   UNL     1       7.168  -2.123  11.524  1.00  0.00     0.031 C 
ATOM     42  C   UNL     1       7.073   3.635   7.708  1.00  0.00     0.029 A 
ATOM     43  C   UNL     1       7.700   3.758   9.023  1.00  0.00     0.049 A 
ATOM     44  H   UNL     1       7.999   2.248  10.425  1.00  0.00     0.167 HD
ATOM     45  C   UNL     1       8.458  -1.036  13.326  1.00  0.00     0.034 A 
ATOM     46  C   UNL     1       8.212   4.885   9.555  1.00  0.00     0.034 A 
ATOM     47  C   UNL     1       9.144   0.083  13.907  1.00  0.00     0.049 A 
ATOM     48  C   UNL     1       8.862   4.821  10.914  1.00  0.00     0.074 A 
ATOM     49  C   UNL     1       9.831   0.142  15.105  1.00  0.00     0.029 A 
ATOM     50  N   UNL     1       9.212   1.346  13.340  1.00  0.00    -0.354 N 
ATOM     51  N   UNL     1       9.036   3.787  11.703  1.00  0.00    -0.248 NA
ATOM     52  C   UNL     1       9.424   6.074  11.438  1.00  0.00     0.031 C 
ATOM     53  C   UNL     1      10.276   1.455  15.284  1.00  0.00     0.029 A 
ATOM     54  C   UNL     1       9.917   2.198  14.170  1.00  0.00     0.049 A 
ATOM     55  H   UNL     1       8.818   1.599  12.474  1.00  0.00     0.167 HD
ATOM     56  C   UNL     1       9.769   4.253  12.789  1.00  0.00     0.074 A 
ATOM     57  C   UNL     1      10.018   5.660  12.548  1.00  0.00     0.031 C 
ATOM     58  C   UNL     1      10.197   3.582  13.888  1.00  0.00     0.034 A 
BRANCH  45  59
ATOM     59  C   UNL     1       8.399  -2.328  14.097  1.00  0.00     0.023 A 
ATOM     60  C   UNL     1       9.127  -3.453  13.657  1.00  0.00     0.012 A 
ATOM     61  C   UNL     1       7.642  -2.414  15.281  1.00  0.00     0.148 A 
ATOM     62  C   UNL     1       9.073  -4.654  14.366  1.00  0.00     0.002 A 
ATOM     63  C   UNL     1       7.635  -3.596  16.009  1.00  0.00     0.091 A 
ATOM     64  F   UNL     1       6.934  -1.343  15.665  1.00  0.00    -0.205 F 
ATOM     65  C   UNL     1       8.338  -4.721  15.547  1.00  0.00     0.022 A 
BRANCH  63  66
ATOM     66  S   UNL     1       6.789  -3.755  17.585  1.00  0.00     0.127 S 
ATOM     67  O   UNL     1       5.707  -4.679  17.247  1.00  0.00    -0.237 OA
ATOM     68  O   UNL     1       7.834  -4.324  18.436  1.00  0.00    -0.237 OA
ATOM     69  O   UNL     1       6.367  -2.411  17.954  1.00  0.00    -0.744 OA
ENDBRANCH  63  66
ENDBRANCH  45  59
BRANCH  46  70
ATOM     70  C   UNL     1       8.164   6.163   8.792  1.00  0.00     0.023 A 
ATOM     71  C   UNL     1       9.359   6.746   8.327  1.00  0.00     0.012 A 
ATOM     72  C   UNL     1       6.939   6.806   8.530  1.00  0.00     0.148 A 
ATOM     73  C   UNL     1       9.338   7.966   7.650  1.00  0.00     0.002 A 
ATOM     74  C   UNL     1       6.920   7.991   7.806  1.00  0.00     0.091 A 
ATOM     75  F   UNL     1       5.814   6.240   8.991  1.00  0.00    -0.205 F 
ATOM     76  C   UNL     1       8.120   8.584   7.383  1.00  0.00     0.022 A 
BRANCH  74  77
ATOM     77  S   UNL     1       5.393   8.795   7.309  1.00  0.00     0.127 S 
ATOM     78  O   UNL     1       5.439  10.031   8.086  1.00  0.00    -0.237 OA
ATOM     79  O   UNL     1       5.599   8.962   5.870  1.00  0.00    -0.237 OA
ATOM     80  O   UNL     1       4.326   7.869   7.661  1.00  0.00    -0.744 OA
ENDBRANCH  74  77
ENDBRANCH  46  70
BRANCH  58  81
ATOM     81  C   UNL     1      11.041   4.337  14.884  1.00  0.00     0.023 A 
ATOM     82  C   UNL     1      10.470   5.347  15.683  1.00  0.00     0.012 A 
ATOM     83  C   UNL     1      12.396   3.996  15.065  1.00  0.00     0.148 A 
ATOM     84  C   UNL     1      11.249   6.040  16.611  1.00  0.00     0.002 A 
ATOM     85  C   UNL     1      13.150   4.649  16.032  1.00  0.00     0.091 A 
ATOM     86  F   UNL     1      12.927   3.042  14.286  1.00  0.00    -0.205 F 
ATOM     87  C   UNL     1      12.583   5.684  16.793  1.00  0.00     0.022 A 
BRANCH  85  88
ATOM     88  S   UNL     1      14.843   4.182  16.407  1.00  0.00     0.127 S 
ATOM     89  O   UNL     1      15.594   5.293  15.825  1.00  0.00    -0.237 OA
ATOM     90  O   UNL     1      14.839   4.148  17.869  1.00  0.00    -0.237 OA
ATOM     91  O   UNL     1      15.051   2.886  15.774  1.00  0.00    -0.744 OA
ENDBRANCH  85  88
ENDBRANCH  58  81
ENDBRANCH  32  33
ENDBRANCH  25  27
ENDBRANCH  24  25
ENDBRANCH  23  24
ENDBRANCH  22  23
ENDBRANCH  21  22
ENDBRANCH  20  21
ENDBRANCH   1  20
TORSDOF 25
