REMARK SMILES Cc1ccc(Cl)c(Nc2ccccc2C(=O)N[C@@H](C)C(=O)OCCOCCOCCOCCOC(=O)c2ccc(-c3c4nc(c(-c5cccc(S(=O)(=O)[O-])c5F)c5ccc([nH]5)c(-c5cccc(S(=O)(=O)[O-])c5F)c5nc(c(-c6cccc(S(=O)(=O)[O-])c6F)c6ccc3[nH]6)C=C5)C=C4)cc2)c1Cl
REMARK SMILES IDX 27 1 26 2 25 3 24 4 23 5 22 6 20 7 21 8 18 9 19 10 17 11
REMARK SMILES IDX 15 12 16 13 14 15 9 16 10 17 11 18 13 19 12 20 8 21 7 23
REMARK SMILES IDX 1 24 2 25 3 26 100 27 4 28 101 29 5 30 6 31 28 32 29 33
REMARK SMILES IDX 30 34 31 35 32 36 33 37 34 38 35 39 36 40 37 41 38 42 99 43
REMARK SMILES IDX 39 44 98 45 40 46 41 47 42 48 92 49 43 50 97 51 91 52 93 53
REMARK SMILES IDX 44 54 96 55 90 56 89 57 45 59 77 60 57 61 76 62 58 63 61 64
REMARK SMILES IDX 75 65 94 66 59 67 60 68 74 70 95 71 62 72 46 73 47 74 55 75
REMARK SMILES IDX 48 76 50 77 56 78 49 79 51 80 52 81 53 82 54 83 78 84 79 85
REMARK SMILES IDX 87 86 80 87 82 88 88 89 81 90 83 91 84 92 85 93 86 94 63 95
REMARK SMILES IDX 64 96 72 97 65 98 67 99 73 100 66 101 68 102 69 103 70 104
REMARK SMILES IDX 71 105
REMARK H PARENT 17 14 8 22 93 58 61 69
REMARK Flexibility Score: inf
ROOT
ATOM      1  C   UNL     1       3.029   1.083  -1.332  1.00  0.00     0.188 C 
ENDROOT
BRANCH   1   2
ATOM      2  C   UNL     1       2.052   2.016  -2.156  1.00  0.00     0.188 C 
BRANCH   2   3
ATOM      3  O   UNL     1       0.674   2.242  -1.759  1.00  0.00    -0.376 OA
BRANCH   3   4
ATOM      4  C   UNL     1       0.231   3.357  -0.958  1.00  0.00     0.202 C 
BRANCH   4   5
ATOM      5  C   UNL     1      -0.932   3.123   0.191  1.00  0.00     0.261 C 
BRANCH   5   6
ATOM      6  O   UNL     1      -0.811   2.000   1.180  1.00  0.00    -0.462 OA
BRANCH   6   7
ATOM      7  C   UNL     1      -1.908   1.181   1.434  1.00  0.00     0.328 C 
ATOM      8  O   UNL     1      -3.053   1.528   1.141  1.00  0.00    -0.250 OA
BRANCH   7   9
ATOM      9  C   UNL     1      -1.590  -0.370   1.851  1.00  0.00     0.189 C 
ATOM     10  C   UNL     1      -2.749  -1.016   2.612  1.00  0.00     0.043 C 
BRANCH   9  11
ATOM     11  N   UNL     1      -0.335  -0.835   2.474  1.00  0.00    -0.339 N 
ATOM     12  C   UNL     1       0.494  -1.947   2.368  1.00  0.00     0.254 C 
ATOM     13  O   UNL     1       1.352  -1.949   3.270  1.00  0.00    -0.269 OA
ATOM     14  H   UNL     1       0.004  -0.190   3.137  1.00  0.00     0.164 HD
BRANCH  12  15
ATOM     15  C   UNL     1       0.599  -3.110   1.343  1.00  0.00     0.063 A 
ATOM     16  C   UNL     1      -0.246  -3.656   0.338  1.00  0.00     0.051 A 
ATOM     17  C   UNL     1       0.204  -4.771  -0.450  1.00  0.00     0.027 A 
ATOM     18  C   UNL     1       1.468  -5.330  -0.326  1.00  0.00     0.002 A 
ATOM     19  C   UNL     1       1.873  -3.766   1.456  1.00  0.00     0.016 A 
ATOM     20  C   UNL     1       2.306  -4.830   0.645  1.00  0.00     0.001 A 
BRANCH  16  21
ATOM     21  N   UNL     1      -1.490  -3.156  -0.120  1.00  0.00    -0.352 N 
ATOM     22  H   UNL     1      -2.300  -3.409   0.379  1.00  0.00     0.167 HD
BRANCH  21  23
ATOM     23  C   UNL     1      -1.649  -2.300  -1.271  1.00  0.00     0.077 A 
ATOM     24  C   UNL     1       0.379   0.129  -0.451  1.00  0.00     0.046 C 
ATOM     25  C   UNL     1      -0.650  -0.259  -1.453  1.00  0.00    -0.030 A 
ATOM     26  C   UNL     1      -1.846   0.401  -1.710  1.00  0.00     0.006 A 
ATOM     27  C   UNL     1      -0.572  -1.593  -1.746  1.00  0.00     0.069 A 
ATOM     28  C   UNL     1      -2.988  -0.370  -1.879  1.00  0.00     0.023 A 
ATOM     29  Cl  UNL     1       0.950  -2.271  -2.208  1.00  0.00    -0.082 Cl
ATOM     30  C   UNL     1      -2.901  -1.720  -1.532  1.00  0.00     0.066 A 
ATOM     31  Cl  UNL     1      -4.344  -2.624  -1.288  1.00  0.00    -0.082 Cl
ENDBRANCH  21  23
ENDBRANCH  16  21
ENDBRANCH  12  15
ENDBRANCH   9  11
ENDBRANCH   7   9
ENDBRANCH   6   7
ENDBRANCH   5   6
ENDBRANCH   4   5
ENDBRANCH   3   4
ENDBRANCH   2   3
ENDBRANCH   1   2
BRANCH   1  32
ATOM     32  O   UNL     1       3.046   1.216   0.088  1.00  0.00    -0.377 OA
BRANCH  32  33
ATOM     33  C   UNL     1       3.153   2.540   0.577  1.00  0.00     0.188 C 
BRANCH  33  34
ATOM     34  C   UNL     1       4.120   3.405  -0.225  1.00  0.00     0.188 C 
BRANCH  34  35
ATOM     35  O   UNL     1       5.175   2.729  -0.879  1.00  0.00    -0.376 OA
BRANCH  35  36
ATOM     36  C   UNL     1       6.145   1.973  -0.163  1.00  0.00     0.202 C 
BRANCH  36  37
ATOM     37  C   UNL     1       6.026   1.597   1.326  1.00  0.00     0.261 C 
BRANCH  37  38
ATOM     38  O   UNL     1       5.581   2.601   2.251  1.00  0.00    -0.460 OA
BRANCH  38  39
ATOM     39  C   UNL     1       6.102   3.845   2.155  1.00  0.00     0.338 C 
ATOM     40  O   UNL     1       7.020   4.201   1.458  1.00  0.00    -0.246 OA
BRANCH  39  41
ATOM     41  C   UNL     1       5.166   4.763   2.854  1.00  0.00     0.060 A 
ATOM     42  C   UNL     1       4.662   5.860   2.138  1.00  0.00     0.016 A 
ATOM     43  C   UNL     1       4.808   4.566   4.189  1.00  0.00     0.016 A 
ATOM     44  C   UNL     1       3.842   6.789   2.759  1.00  0.00     0.010 A 
ATOM     45  C   UNL     1       4.045   5.541   4.837  1.00  0.00     0.010 A 
ATOM     46  C   UNL     1       3.619   6.682   4.133  1.00  0.00    -0.014 A 
BRANCH  46  47
ATOM     47  C   UNL     1       3.284   7.935   4.842  1.00  0.00     0.031 A 
ATOM     48  C   UNL     1       4.434   8.754   5.370  1.00  0.00     0.074 A 
ATOM     49  C   UNL     1       2.024   8.395   4.905  1.00  0.00     0.049 A 
ATOM     50  N   UNL     1       4.421   9.907   5.981  1.00  0.00    -0.248 NA
ATOM     51  C   UNL     1       5.785   8.198   5.167  1.00  0.00     0.031 C 
ATOM     52  C   UNL     1       0.847   7.718   4.366  1.00  0.00     0.029 A 
ATOM     53  N   UNL     1       1.532   9.547   5.459  1.00  0.00    -0.354 N 
ATOM     54  C   UNL     1       5.751  10.196   6.264  1.00  0.00     0.074 A 
ATOM     55  C   UNL     1       6.546   9.099   5.765  1.00  0.00     0.031 C 
ATOM     56  C   UNL     1      -0.242   8.457   4.644  1.00  0.00     0.029 A 
ATOM     57  C   UNL     1       0.163   9.641   5.401  1.00  0.00     0.049 A 
ATOM     58  H   UNL     1       2.104  10.241   5.859  1.00  0.00     0.167 HD
ATOM     59  C   UNL     1       6.267  11.283   6.880  1.00  0.00     0.034 A 
ATOM     60  C   UNL     1      -0.662  10.567   5.927  1.00  0.00     0.034 A 
ATOM     61  C   UNL     1       5.470  12.373   7.367  1.00  0.00     0.049 A 
ATOM     62  C   UNL     1      -0.066  11.744   6.656  1.00  0.00     0.074 A 
ATOM     63  C   UNL     1       5.888  13.530   7.997  1.00  0.00     0.029 A 
ATOM     64  N   UNL     1       4.087  12.432   7.293  1.00  0.00    -0.354 N 
ATOM     65  N   UNL     1       1.195  12.038   6.863  1.00  0.00    -0.248 NA
ATOM     66  C   UNL     1      -1.008  12.737   7.192  1.00  0.00     0.031 C 
ATOM     67  C   UNL     1       4.753  14.270   8.343  1.00  0.00     0.029 A 
ATOM     68  C   UNL     1       3.632  13.601   7.876  1.00  0.00     0.049 A 
ATOM     69  H   UNL     1       3.513  11.744   6.885  1.00  0.00     0.167 HD
ATOM     70  C   UNL     1       1.200  13.270   7.511  1.00  0.00     0.074 A 
ATOM     71  C   UNL     1      -0.185  13.671   7.647  1.00  0.00     0.031 C 
ATOM     72  C   UNL     1       2.252  14.002   7.957  1.00  0.00     0.034 A 
BRANCH  59  73
ATOM     73  C   UNL     1       7.759  11.331   7.077  1.00  0.00     0.023 A 
ATOM     74  C   UNL     1       8.617  11.520   5.974  1.00  0.00     0.012 A 
ATOM     75  C   UNL     1       8.310  11.217   8.368  1.00  0.00     0.148 A 
ATOM     76  C   UNL     1      10.000  11.560   6.149  1.00  0.00     0.002 A 
ATOM     77  C   UNL     1       9.684  11.309   8.542  1.00  0.00     0.091 A 
ATOM     78  F   UNL     1       7.479  11.008   9.400  1.00  0.00    -0.205 F 
ATOM     79  C   UNL     1      10.532  11.466   7.433  1.00  0.00     0.022 A 
BRANCH  77  80
ATOM     80  S   UNL     1      10.459  11.283  10.161  1.00  0.00     0.127 S 
ATOM     81  O   UNL     1      11.185  10.014  10.120  1.00  0.00    -0.237 OA
ATOM     82  O   UNL     1      11.308  12.473  10.112  1.00  0.00    -0.237 OA
ATOM     83  O   UNL     1       9.373  11.348  11.129  1.00  0.00    -0.744 OA
ENDBRANCH  77  80
ENDBRANCH  59  73
BRANCH  60  84
ATOM     84  C   UNL     1      -2.137  10.424   5.778  1.00  0.00     0.023 A 
ATOM     85  C   UNL     1      -2.861  11.346   4.998  1.00  0.00     0.012 A 
ATOM     86  C   UNL     1      -2.826   9.371   6.411  1.00  0.00     0.148 A 
ATOM     87  C   UNL     1      -4.248  11.243   4.880  1.00  0.00     0.002 A 
ATOM     88  C   UNL     1      -4.199   9.240   6.242  1.00  0.00     0.091 A 
ATOM     89  F   UNL     1      -2.122   8.514   7.163  1.00  0.00    -0.205 F 
ATOM     90  C   UNL     1      -4.915  10.186   5.493  1.00  0.00     0.022 A 
BRANCH  88  91
ATOM     91  S   UNL     1      -5.119   7.839   6.887  1.00  0.00     0.127 S 
ATOM     92  O   UNL     1      -5.952   8.473   7.905  1.00  0.00    -0.237 OA
ATOM     93  O   UNL     1      -5.838   7.383   5.697  1.00  0.00    -0.237 OA
ATOM     94  O   UNL     1      -4.118   6.904   7.381  1.00  0.00    -0.744 OA
ENDBRANCH  88  91
ENDBRANCH  60  84
BRANCH  72  95
ATOM     95  C   UNL     1       1.955  15.346   8.570  1.00  0.00     0.023 A 
ATOM     96  C   UNL     1       1.327  15.435   9.828  1.00  0.00     0.012 A 
ATOM     97  C   UNL     1       2.360  16.527   7.915  1.00  0.00     0.148 A 
ATOM     98  C   UNL     1       1.062  16.679  10.400  1.00  0.00     0.002 A 
ATOM     99  C   UNL     1       2.145  17.759   8.517  1.00  0.00     0.091 A 
ATOM    100  F   UNL     1       2.943  16.423   6.712  1.00  0.00    -0.205 F 
ATOM    101  C   UNL     1       1.480  17.839   9.751  1.00  0.00     0.022 A 
BRANCH  99 102
ATOM    102  S   UNL     1       2.744  19.294   7.803  1.00  0.00     0.127 S 
ATOM    103  O   UNL     1       1.503  19.910   7.337  1.00  0.00    -0.237 OA
ATOM    104  O   UNL     1       3.357  19.953   8.956  1.00  0.00    -0.237 OA
ATOM    105  O   UNL     1       3.683  18.911   6.757  1.00  0.00    -0.744 OA
ENDBRANCH  99 102
ENDBRANCH  72  95
ENDBRANCH  46  47
ENDBRANCH  39  41
ENDBRANCH  38  39
ENDBRANCH  37  38
ENDBRANCH  36  37
ENDBRANCH  35  36
ENDBRANCH  34  35
ENDBRANCH  33  34
ENDBRANCH  32  33
ENDBRANCH   1  32
TORSDOF 27
