REMARK SMILES O=C(OCCOCCOCCOCCOC(=O)[C@@H]1CCC[C@@H](C(=O)N2CCN3C(=O)NC[C@@H]3C2)C1)c1ccc(-c2c3nc(c(-c4cccc(S(=O)(=O)[O-])c4F)c4ccc([nH]4)c(-c4cccc(S(=O)(=O)[O-])c4F)c4nc(c(-c5cccc(S(=O)(=O)[O-])c5F)c5ccc2[nH]5)C=C4)C=C3)cc1
REMARK SMILES IDX 8 1 7 2 6 3 5 4 4 5 3 6 2 7 1 8 36 9 37 10 98 11 38 12 97 13
REMARK SMILES IDX 39 14 40 15 41 16 91 17 42 18 96 19 90 20 92 21 43 22 95 23
REMARK SMILES IDX 89 24 88 25 44 27 76 28 56 29 75 30 57 31 60 32 74 33 93 34
REMARK SMILES IDX 58 35 59 36 73 38 94 39 61 40 45 41 46 42 54 43 47 44 49 45
REMARK SMILES IDX 55 46 48 47 50 48 51 49 52 50 53 51 77 52 78 53 86 54 79 55
REMARK SMILES IDX 81 56 87 57 80 58 82 59 83 60 84 61 85 62 62 63 63 64 71 65
REMARK SMILES IDX 64 66 66 67 72 68 65 69 67 70 68 71 69 72 70 73 9 74 10 75
REMARK SMILES IDX 11 76 12 77 13 78 14 79 15 80 16 81 17 82 18 83 19 84 35 85
REMARK SMILES IDX 20 86 22 87 21 88 23 89 24 90 25 91 26 92 34 93 27 94 33 95
REMARK SMILES IDX 28 96 32 97 29 98 31 99 30 100
REMARK H PARENT 92 26 60 37 31 101
REMARK Flexibility Score: inf
ROOT
ATOM      1  C   UNL     1       2.512   0.734  -2.556  1.00  0.00     0.188 C 
ENDROOT
BRANCH   1   2
ATOM      2  C   UNL     1       2.595  -0.115  -1.312  1.00  0.00     0.188 C 
BRANCH   2   3
ATOM      3  O   UNL     1       3.848   0.093  -0.701  1.00  0.00    -0.376 OA
BRANCH   3   4
ATOM      4  C   UNL     1       4.558  -0.937  -0.052  1.00  0.00     0.202 C 
BRANCH   4   5
ATOM      5  C   UNL     1       3.724  -2.012   0.619  1.00  0.00     0.261 C 
BRANCH   5   6
ATOM      6  O   UNL     1       3.025  -1.536   1.790  1.00  0.00    -0.460 OA
BRANCH   6   7
ATOM      7  C   UNL     1       2.014  -0.633   1.669  1.00  0.00     0.338 C 
ATOM      8  O   UNL     1       0.891  -0.852   1.253  1.00  0.00    -0.246 OA
BRANCH   7   9
ATOM      9  C   UNL     1       2.462   0.607   2.335  1.00  0.00     0.060 A 
ATOM     10  C   UNL     1       3.344   1.462   1.683  1.00  0.00     0.016 A 
ATOM     11  C   UNL     1       2.174   0.818   3.675  1.00  0.00     0.016 A 
ATOM     12  C   UNL     1       4.204   2.252   2.398  1.00  0.00     0.010 A 
ATOM     13  C   UNL     1       2.893   1.793   4.370  1.00  0.00     0.010 A 
ATOM     14  C   UNL     1       3.990   2.427   3.755  1.00  0.00    -0.014 A 
BRANCH  14  15
ATOM     15  C   UNL     1       5.045   3.120   4.517  1.00  0.00     0.031 A 
ATOM     16  C   UNL     1       5.754   2.342   5.585  1.00  0.00     0.074 A 
ATOM     17  C   UNL     1       5.454   4.349   4.146  1.00  0.00     0.049 A 
ATOM     18  N   UNL     1       6.597   2.758   6.487  1.00  0.00    -0.248 NA
ATOM     19  C   UNL     1       5.470   0.894   5.655  1.00  0.00     0.031 C 
ATOM     20  C   UNL     1       4.933   5.115   3.006  1.00  0.00     0.029 A 
ATOM     21  N   UNL     1       6.429   5.159   4.662  1.00  0.00    -0.354 N 
ATOM     22  C   UNL     1       6.845   1.658   7.298  1.00  0.00     0.074 A 
ATOM     23  C   UNL     1       6.097   0.545   6.766  1.00  0.00     0.031 C 
ATOM     24  C   UNL     1       5.624   6.257   2.883  1.00  0.00     0.029 A 
ATOM     25  C   UNL     1       6.537   6.365   4.009  1.00  0.00     0.049 A 
ATOM     26  H   UNL     1       6.997   4.903   5.424  1.00  0.00     0.167 HD
ATOM     27  C   UNL     1       7.621   1.602   8.402  1.00  0.00     0.034 A 
ATOM     28  C   UNL     1       7.250   7.458   4.332  1.00  0.00     0.034 A 
ATOM     29  C   UNL     1       8.394   2.722   8.855  1.00  0.00     0.049 A 
ATOM     30  C   UNL     1       8.073   7.386   5.587  1.00  0.00     0.074 A 
ATOM     31  C   UNL     1       9.194   2.830   9.974  1.00  0.00     0.029 A 
ATOM     32  N   UNL     1       8.461   3.939   8.187  1.00  0.00    -0.354 N 
ATOM     33  N   UNL     1       8.254   6.366   6.395  1.00  0.00    -0.248 NA
ATOM     34  C   UNL     1       8.787   8.604   5.980  1.00  0.00     0.031 C 
ATOM     35  C   UNL     1       9.718   4.127  10.000  1.00  0.00     0.029 A 
ATOM     36  C   UNL     1       9.285   4.809   8.871  1.00  0.00     0.049 A 
ATOM     37  H   UNL     1       7.990   4.150   7.348  1.00  0.00     0.167 HD
ATOM     38  C   UNL     1       9.130   6.807   7.375  1.00  0.00     0.074 A 
ATOM     39  C   UNL     1       9.457   8.182   7.044  1.00  0.00     0.031 C 
ATOM     40  C   UNL     1       9.613   6.151   8.459  1.00  0.00     0.034 A 
BRANCH  27  41
ATOM     41  C   UNL     1       7.587   0.331   9.206  1.00  0.00     0.023 A 
ATOM     42  C   UNL     1       8.184  -0.851   8.722  1.00  0.00     0.012 A 
ATOM     43  C   UNL     1       6.908   0.306  10.440  1.00  0.00     0.148 A 
ATOM     44  C   UNL     1       8.062  -2.047   9.432  1.00  0.00     0.002 A 
ATOM     45  C   UNL     1       6.835  -0.876  11.165  1.00  0.00     0.091 A 
ATOM     46  F   UNL     1       6.317   1.431  10.865  1.00  0.00    -0.205 F 
ATOM     47  C   UNL     1       7.396  -2.058  10.655  1.00  0.00     0.022 A 
BRANCH  45  48
ATOM     48  S   UNL     1       6.054  -0.974  12.779  1.00  0.00     0.127 S 
ATOM     49  O   UNL     1       4.901  -1.829  12.498  1.00  0.00    -0.237 OA
ATOM     50  O   UNL     1       7.100  -1.605  13.584  1.00  0.00    -0.237 OA
ATOM     51  O   UNL     1       5.735   0.395  13.158  1.00  0.00    -0.744 OA
ENDBRANCH  45  48
ENDBRANCH  27  41
BRANCH  28  52
ATOM     52  C   UNL     1       7.185   8.691   3.495  1.00  0.00     0.023 A 
ATOM     53  C   UNL     1       8.341   9.153   2.839  1.00  0.00     0.012 A 
ATOM     54  C   UNL     1       5.978   9.403   3.329  1.00  0.00     0.148 A 
ATOM     55  C   UNL     1       8.306  10.314   2.062  1.00  0.00     0.002 A 
ATOM     56  C   UNL     1       5.935  10.523   2.506  1.00  0.00     0.091 A 
ATOM     57  F   UNL     1       4.887   8.965   3.973  1.00  0.00    -0.205 F 
ATOM     58  C   UNL     1       7.103  10.992   1.888  1.00  0.00     0.022 A 
BRANCH  56  59
ATOM     59  S   UNL     1       4.403  11.380   2.124  1.00  0.00     0.127 S 
ATOM     60  O   UNL     1       4.574  12.636   2.850  1.00  0.00    -0.237 OA
ATOM     61  O   UNL     1       4.476  11.495   0.667  1.00  0.00    -0.237 OA
ATOM     62  O   UNL     1       3.336  10.512   2.603  1.00  0.00    -0.744 OA
ENDBRANCH  56  59
ENDBRANCH  28  52
BRANCH  40  63
ATOM     63  C   UNL     1      10.598   6.893   9.314  1.00  0.00     0.023 A 
ATOM     64  C   UNL     1      10.164   7.936  10.154  1.00  0.00     0.012 A 
ATOM     65  C   UNL     1      11.946   6.491   9.334  1.00  0.00     0.148 A 
ATOM     66  C   UNL     1      11.072   8.594  10.980  1.00  0.00     0.002 A 
ATOM     67  C   UNL     1      12.830   7.109  10.204  1.00  0.00     0.091 A 
ATOM     68  F   UNL     1      12.335   5.510   8.506  1.00  0.00    -0.205 F 
ATOM     69  C   UNL     1      12.400   8.171  11.016  1.00  0.00     0.022 A 
BRANCH  67  70
ATOM     70  S   UNL     1      14.522   6.543  10.397  1.00  0.00     0.127 S 
ATOM     71  O   UNL     1      15.267   7.590   9.699  1.00  0.00    -0.237 OA
ATOM     72  O   UNL     1      14.684   6.543  11.851  1.00  0.00    -0.237 OA
ATOM     73  O   UNL     1      14.575   5.222   9.786  1.00  0.00    -0.744 OA
ENDBRANCH  67  70
ENDBRANCH  40  63
ENDBRANCH  14  15
ENDBRANCH   7   9
ENDBRANCH   6   7
ENDBRANCH   5   6
ENDBRANCH   4   5
ENDBRANCH   3   4
ENDBRANCH   2   3
ENDBRANCH   1   2
BRANCH   1  74
ATOM     74  O   UNL     1       3.702   0.737  -3.321  1.00  0.00    -0.377 OA
BRANCH  74  75
ATOM     75  C   UNL     1       4.942   1.232  -2.814  1.00  0.00     0.188 C 
BRANCH  75  76
ATOM     76  C   UNL     1       5.043   2.686  -2.347  1.00  0.00     0.188 C 
BRANCH  76  77
ATOM     77  O   UNL     1       3.848   3.140  -1.758  1.00  0.00    -0.376 OA
BRANCH  77  78
ATOM     78  C   UNL     1       3.068   4.081  -2.488  1.00  0.00     0.202 C 
BRANCH  78  79
ATOM     79  C   UNL     1       2.912   4.025  -4.032  1.00  0.00     0.261 C 
BRANCH  79  80
ATOM     80  O   UNL     1       3.092   2.750  -4.702  1.00  0.00    -0.463 OA
BRANCH  80  81
ATOM     81  C   UNL     1       4.241   2.651  -5.415  1.00  0.00     0.309 C 
ATOM     82  O   UNL     1       4.991   3.621  -5.560  1.00  0.00    -0.252 OA
BRANCH  81  83
ATOM     83  C   UNL     1       4.551   1.322  -6.160  1.00  0.00     0.100 C 
ATOM     84  C   UNL     1       4.165  -0.111  -5.762  1.00  0.00     0.015 C 
ATOM     85  C   UNL     1       6.084   1.370  -6.429  1.00  0.00     0.028 C 
ATOM     86  C   UNL     1       4.643  -1.154  -6.782  1.00  0.00     0.002 C 
ATOM     87  C   UNL     1       6.576   0.379  -7.459  1.00  0.00     0.079 C 
ATOM     88  C   UNL     1       6.145  -1.038  -7.046  1.00  0.00     0.013 C 
BRANCH  87  89
ATOM     89  C   UNL     1       6.230   0.669  -8.928  1.00  0.00     0.225 C 
ATOM     90  O   UNL     1       6.752  -0.021  -9.811  1.00  0.00    -0.275 OA
BRANCH  89  91
ATOM     91  N   UNL     1       5.153   1.477  -9.240  1.00  0.00    -0.339 N 
ATOM     92  C   UNL     1       5.003   2.922  -8.904  1.00  0.00     0.141 C 
ATOM     93  C   UNL     1       4.019   0.796  -9.859  1.00  0.00     0.146 C 
ATOM     94  C   UNL     1       4.073   3.747  -9.818  1.00  0.00     0.143 C 
ATOM     95  C   UNL     1       3.404   1.625 -10.963  1.00  0.00     0.125 C 
ATOM     96  N   UNL     1       3.058   2.937 -10.461  1.00  0.00    -0.317 N 
ATOM     97  C   UNL     1       2.074   1.073 -11.461  1.00  0.00     0.144 C 
ATOM     98  C   UNL     1       1.790   3.305 -10.841  1.00  0.00     0.317 C 
ATOM     99  N   UNL     1       1.217   2.229 -11.493  1.00  0.00    -0.336 N 
ATOM    100  O   UNL     1       1.235   4.386 -10.656  1.00  0.00    -0.249 OA
ATOM    101  H   UNL     1       0.333   2.250 -11.926  1.00  0.00     0.165 HD
ENDBRANCH  89  91
ENDBRANCH  87  89
ENDBRANCH  81  83
ENDBRANCH  80  81
ENDBRANCH  79  80
ENDBRANCH  78  79
ENDBRANCH  77  78
ENDBRANCH  76  77
ENDBRANCH  75  76
ENDBRANCH  74  75
ENDBRANCH   1  74
TORSDOF 25
