REMARK SMILES CCOc1ccc(C(=O)N2CCC(C(=O)OCCOCCOCCOCCOC(=O)c3ccc(-c4c5nc(c(-c6cccc(S(=O)(=O)[O-])c6F)c6ccc([nH]6)c(-c6cccc(S(=O)(=O)[O-])c6F)c6nc(c(-c7cccc(S(=O)(=O)[O-])c7F)c7ccc4[nH]7)C=C6)C=C5)cc3)(c3ccccc3)CC2)cc1OC
REMARK SMILES IDX 22 1 21 2 20 3 19 4 18 5 17 6 16 7 14 8 15 9 13 10 8 11 9 12
REMARK SMILES IDX 10 13 11 14 101 15 12 16 100 17 7 18 4 19 5 20 103 21 6 22
REMARK SMILES IDX 102 23 3 24 2 25 1 26 104 27 105 28 94 29 95 30 99 31 96 32
REMARK SMILES IDX 98 33 97 34 23 35 24 36 25 37 26 38 27 39 28 40 29 41 30 42
REMARK SMILES IDX 31 43 32 44 93 45 33 46 92 47 34 48 35 49 36 50 86 51 37 52
REMARK SMILES IDX 91 53 85 54 87 55 38 56 90 57 84 58 83 59 39 61 71 62 51 63
REMARK SMILES IDX 70 64 52 65 55 66 69 67 88 68 53 69 54 70 68 72 89 73 56 74
REMARK SMILES IDX 40 75 41 76 49 77 42 78 44 79 50 80 43 81 45 82 46 83 47 84
REMARK SMILES IDX 48 85 72 86 73 87 81 88 74 89 76 90 82 91 75 92 77 93 78 94
REMARK SMILES IDX 79 95 80 96 57 97 58 98 66 99 59 100 61 101 67 102 60 103
REMARK SMILES IDX 62 104 63 105 64 106 65 107
REMARK H PARENT 87 60 55 71
REMARK Flexibility Score: inf
ROOT
ATOM      1  O   UNL     1      12.761  -3.298  -0.649  1.00  0.00    -0.377 OA
ENDROOT
BRANCH   1   2
ATOM      2  C   UNL     1      12.828  -2.152   0.170  1.00  0.00     0.188 C 
BRANCH   2   3
ATOM      3  C   UNL     1      13.322  -2.368   1.598  1.00  0.00     0.188 C 
BRANCH   3   4
ATOM      4  O   UNL     1      14.090  -3.516   1.866  1.00  0.00    -0.376 OA
BRANCH   4   5
ATOM      5  C   UNL     1      13.507  -4.811   1.869  1.00  0.00     0.202 C 
BRANCH   5   6
ATOM      6  C   UNL     1      12.014  -5.166   1.689  1.00  0.00     0.261 C 
BRANCH   6   7
ATOM      7  O   UNL     1      11.131  -4.167   1.176  1.00  0.00    -0.463 OA
BRANCH   7   8
ATOM      8  C   UNL     1      10.202  -3.666   2.018  1.00  0.00     0.316 C 
ATOM      9  O   UNL     1      10.132  -3.986   3.204  1.00  0.00    -0.251 OA
BRANCH   8  10
ATOM     10  C   UNL     1       9.201  -2.668   1.346  1.00  0.00     0.096 C 
ATOM     11  C   UNL     1       6.199  -2.868  -1.877  1.00  0.00     0.253 C 
ATOM     12  O   UNL     1       6.582  -2.999  -3.038  1.00  0.00    -0.269 OA
ATOM     13  N   UNL     1       7.083  -2.788  -0.786  1.00  0.00    -0.339 N 
ATOM     14  C   UNL     1       8.291  -2.050  -1.048  1.00  0.00     0.121 C 
ATOM     15  C   UNL     1       6.741  -3.048   0.614  1.00  0.00     0.121 C 
ATOM     16  C   UNL     1       9.472  -2.414  -0.169  1.00  0.00     0.045 C 
ATOM     17  C   UNL     1       7.904  -3.509   1.462  1.00  0.00     0.045 C 
BRANCH  11  18
ATOM     18  C   UNL     1       4.754  -2.596  -1.662  1.00  0.00     0.043 A 
ATOM     19  C   UNL     1       2.071  -1.915  -1.222  1.00  0.00     0.161 A 
ATOM     20  C   UNL     1       2.445  -2.658  -2.359  1.00  0.00     0.051 A 
ATOM     21  C   UNL     1       3.037  -1.512  -0.308  1.00  0.00     0.161 A 
ATOM     22  C   UNL     1       3.784  -3.018  -2.569  1.00  0.00     0.018 A 
ATOM     23  C   UNL     1       4.365  -1.767  -0.615  1.00  0.00     0.064 A 
BRANCH  19  24
ATOM     24  O   UNL     1       0.750  -1.631  -1.026  1.00  0.00    -0.490 OA
BRANCH  24  25
ATOM     25  C   UNL     1       0.296  -0.559  -1.861  1.00  0.00     0.226 C 
ATOM     26  C   UNL     1      -0.247   0.550  -0.975  1.00  0.00     0.049 C 
ENDBRANCH  24  25
ENDBRANCH  19  24
BRANCH  21  27
ATOM     27  O   UNL     1       2.944  -0.870   0.887  1.00  0.00    -0.493 OA
ATOM     28  C   UNL     1       1.691  -0.653   1.495  1.00  0.00     0.278 C 
ENDBRANCH  21  27
ENDBRANCH  11  18
BRANCH  10  29
ATOM     29  C   UNL     1       9.209  -1.303   2.119  1.00  0.00    -0.031 A 
ATOM     30  C   UNL     1      10.178  -1.012   3.107  1.00  0.00     0.005 A 
ATOM     31  C   UNL     1       8.320  -0.256   1.821  1.00  0.00     0.005 A 
ATOM     32  C   UNL     1      10.277   0.238   3.731  1.00  0.00     0.000 A 
ATOM     33  C   UNL     1       8.403   0.995   2.456  1.00  0.00     0.000 A 
ATOM     34  C   UNL     1       9.387   1.246   3.404  1.00  0.00     0.000 A 
ENDBRANCH  10  29
ENDBRANCH   8  10
ENDBRANCH   7   8
ENDBRANCH   6   7
ENDBRANCH   5   6
ENDBRANCH   4   5
ENDBRANCH   3   4
ENDBRANCH   2   3
ENDBRANCH   1   2
BRANCH   1  35
ATOM     35  C   UNL     1      13.951  -3.747  -1.283  1.00  0.00     0.188 C 
BRANCH  35  36
ATOM     36  C   UNL     1      15.316  -3.149  -0.882  1.00  0.00     0.188 C 
BRANCH  36  37
ATOM     37  O   UNL     1      15.312  -1.762  -0.580  1.00  0.00    -0.376 OA
BRANCH  37  38
ATOM     38  C   UNL     1      15.593  -0.823  -1.608  1.00  0.00     0.202 C 
BRANCH  38  39
ATOM     39  C   UNL     1      14.700  -0.799  -2.860  1.00  0.00     0.261 C 
BRANCH  39  40
ATOM     40  O   UNL     1      14.641  -2.006  -3.632  1.00  0.00    -0.460 OA
BRANCH  40  41
ATOM     41  C   UNL     1      15.800  -2.544  -4.066  1.00  0.00     0.338 C 
ATOM     42  O   UNL     1      16.920  -2.076  -3.943  1.00  0.00    -0.246 OA
BRANCH  41  43
ATOM     43  C   UNL     1      15.507  -3.915  -4.528  1.00  0.00     0.060 A 
ATOM     44  C   UNL     1      16.139  -4.992  -3.890  1.00  0.00     0.016 A 
ATOM     45  C   UNL     1      14.602  -4.138  -5.567  1.00  0.00     0.016 A 
ATOM     46  C   UNL     1      15.893  -6.296  -4.315  1.00  0.00     0.010 A 
ATOM     47  C   UNL     1      14.380  -5.443  -6.012  1.00  0.00     0.010 A 
ATOM     48  C   UNL     1      15.054  -6.522  -5.412  1.00  0.00    -0.014 A 
BRANCH  48  49
ATOM     49  C   UNL     1      15.059  -7.852  -6.064  1.00  0.00     0.031 A 
ATOM     50  C   UNL     1      15.936  -8.042  -7.271  1.00  0.00     0.074 A 
ATOM     51  C   UNL     1      14.315  -8.868  -5.594  1.00  0.00     0.049 A 
ATOM     52  N   UNL     1      16.078  -9.092  -8.035  1.00  0.00    -0.248 NA
ATOM     53  C   UNL     1      16.764  -6.890  -7.671  1.00  0.00     0.031 C 
ATOM     54  C   UNL     1      13.443  -8.809  -4.423  1.00  0.00     0.029 A 
ATOM     55  N   UNL     1      14.156 -10.146  -6.070  1.00  0.00    -0.354 N 
ATOM     56  C   UNL     1      16.979  -8.717  -9.025  1.00  0.00     0.074 A 
ATOM     57  C   UNL     1      17.351  -7.345  -8.767  1.00  0.00     0.031 C 
ATOM     58  C   UNL     1      12.810  -9.988  -4.293  1.00  0.00     0.029 A 
ATOM     59  C   UNL     1      13.209 -10.871  -5.388  1.00  0.00     0.049 A 
ATOM     60  H   UNL     1      14.671 -10.507  -6.827  1.00  0.00     0.167 HD
ATOM     61  C   UNL     1      17.459  -9.454 -10.053  1.00  0.00     0.034 A 
ATOM     62  C   UNL     1      12.700 -12.094  -5.642  1.00  0.00     0.034 A 
ATOM     63  C   UNL     1      17.096 -10.822 -10.299  1.00  0.00     0.049 A 
ATOM     64  C   UNL     1      13.228 -12.880  -6.817  1.00  0.00     0.074 A 
ATOM     65  C   UNL     1      17.565 -11.670 -11.286  1.00  0.00     0.029 A 
ATOM     66  N   UNL     1      16.162 -11.536  -9.566  1.00  0.00    -0.354 N 
ATOM     67  N   UNL     1      14.164 -12.557  -7.677  1.00  0.00    -0.248 NA
ATOM     68  C   UNL     1      12.651 -14.215  -7.037  1.00  0.00     0.031 C 
ATOM     69  C   UNL     1      16.880 -12.883 -11.178  1.00  0.00     0.029 A 
ATOM     70  C   UNL     1      16.024 -12.809 -10.091  1.00  0.00     0.049 A 
ATOM     71  H   UNL     1      15.669 -11.189  -8.787  1.00  0.00     0.167 HD
ATOM     72  C   UNL     1      14.314 -13.659  -8.512  1.00  0.00     0.074 A 
ATOM     73  C   UNL     1      13.388 -14.668  -8.042  1.00  0.00     0.031 C 
ATOM     74  C   UNL     1      15.136 -13.820  -9.579  1.00  0.00     0.034 A 
BRANCH  61  75
ATOM     75  C   UNL     1      18.430  -8.796 -10.996  1.00  0.00     0.023 A 
ATOM     76  C   UNL     1      19.747  -8.522 -10.575  1.00  0.00     0.012 A 
ATOM     77  C   UNL     1      18.053  -8.509 -12.322  1.00  0.00     0.148 A 
ATOM     78  C   UNL     1      20.666  -7.949 -11.454  1.00  0.00     0.002 A 
ATOM     79  C   UNL     1      18.987  -7.984 -13.205  1.00  0.00     0.091 A 
ATOM     80  F   UNL     1      16.788  -8.755 -12.693  1.00  0.00    -0.205 F 
ATOM     81  C   UNL     1      20.291  -7.693 -12.770  1.00  0.00     0.022 A 
BRANCH  79  82
ATOM     82  S   UNL     1      18.626  -7.695 -14.940  1.00  0.00     0.127 S 
ATOM     83  O   UNL     1      18.697  -6.237 -15.017  1.00  0.00    -0.237 OA
ATOM     84  O   UNL     1      19.728  -8.395 -15.601  1.00  0.00    -0.237 OA
ATOM     85  O   UNL     1      17.309  -8.266 -15.180  1.00  0.00    -0.744 OA
ENDBRANCH  79  82
ENDBRANCH  61  75
BRANCH  62  86
ATOM     86  C   UNL     1      11.629 -12.660  -4.773  1.00  0.00     0.023 A 
ATOM     87  C   UNL     1      11.896 -13.792  -3.978  1.00  0.00     0.012 A 
ATOM     88  C   UNL     1      10.341 -12.090  -4.743  1.00  0.00     0.148 A 
ATOM     89  C   UNL     1      10.889 -14.370  -3.203  1.00  0.00     0.002 A 
ATOM     90  C   UNL     1       9.360 -12.635  -3.925  1.00  0.00     0.091 A 
ATOM     91  F   UNL     1      10.102 -11.023  -5.519  1.00  0.00    -0.205 F 
ATOM     92  C   UNL     1       9.626 -13.788  -3.170  1.00  0.00     0.022 A 
BRANCH  90  93
ATOM     93  S   UNL     1       7.742 -11.883  -3.725  1.00  0.00     0.127 S 
ATOM     94  O   UNL     1       6.874 -12.868  -4.365  1.00  0.00    -0.237 OA
ATOM     95  O   UNL     1       7.624 -11.812  -2.268  1.00  0.00    -0.237 OA
ATOM     96  O   UNL     1       7.824 -10.589  -4.387  1.00  0.00    -0.744 OA
ENDBRANCH  90  93
ENDBRANCH  62  86
BRANCH  74  97
ATOM     97  C   UNL     1      15.121 -15.152 -10.286  1.00  0.00     0.023 A 
ATOM     98  C   UNL     1      14.012 -15.528 -11.069  1.00  0.00     0.012 A 
ATOM     99  C   UNL     1      16.247 -15.999 -10.233  1.00  0.00     0.148 A 
ATOM    100  C   UNL     1      14.008 -16.741 -11.757  1.00  0.00     0.002 A 
ATOM    101  C   UNL     1      16.259 -17.179 -10.965  1.00  0.00     0.091 A 
ATOM    102  F   UNL     1      17.288 -15.630  -9.472  1.00  0.00    -0.205 F 
ATOM    103  C   UNL     1      15.135 -17.560 -11.715  1.00  0.00     0.022 A 
BRANCH 101 104
ATOM    104  S   UNL     1      17.702 -18.245 -11.054  1.00  0.00     0.127 S 
ATOM    105  O   UNL     1      17.256 -19.413 -10.296  1.00  0.00    -0.237 OA
ATOM    106  O   UNL     1      17.835 -18.466 -12.494  1.00  0.00    -0.237 OA
ATOM    107  O   UNL     1      18.796 -17.495 -10.453  1.00  0.00    -0.744 OA
ENDBRANCH 101 104
ENDBRANCH  74  97
ENDBRANCH  48  49
ENDBRANCH  41  43
ENDBRANCH  40  41
ENDBRANCH  39  40
ENDBRANCH  38  39
ENDBRANCH  37  38
ENDBRANCH  36  37
ENDBRANCH  35  36
ENDBRANCH   1  35
TORSDOF 28
