REMARK SMILES O=C(COc1ccccc1/C=N/NC(=O)c1cc(-c2ccc(F)cc2)nc2ccccc12)OCCOCCOCCOCCOC(=O)c1ccc(-c2c3nc(c(-c4cccc(S(=O)(=O)[O-])c4F)c4ccc([nH]4)c(-c4cccc(S(=O)(=O)[O-])c4F)c4nc(c(-c5cccc(S(=O)(=O)[O-])c5F)c5ccc2[nH]5)C=C4)C=C3)cc1
REMARK SMILES IDX 37 1 36 2 35 3 34 4 33 5 2 6 1 7 3 8 4 9 5 10 6 11 10 12
REMARK SMILES IDX 7 13 9 14 8 15 11 16 12 17 13 18 14 19 15 21 16 22 17 23
REMARK SMILES IDX 32 24 18 25 27 26 31 27 26 28 28 29 30 30 29 31 19 32 20 33
REMARK SMILES IDX 25 34 21 35 24 36 22 37 23 38 38 39 39 40 40 41 41 42 42 43
REMARK SMILES IDX 43 44 44 45 45 46 46 47 47 48 48 49 49 50 110 51 50 52
REMARK SMILES IDX 109 53 51 54 52 55 53 56 103 57 54 58 108 59 102 60 104 61
REMARK SMILES IDX 55 62 107 63 101 64 100 65 56 67 88 68 68 69 87 70 69 71
REMARK SMILES IDX 72 72 86 73 105 74 70 75 71 76 85 78 106 79 73 80 57 81
REMARK SMILES IDX 58 82 66 83 59 84 61 85 67 86 60 87 62 88 63 89 64 90 65 91
REMARK SMILES IDX 89 92 90 93 98 94 91 95 93 96 99 97 92 98 94 99 95 100
REMARK SMILES IDX 96 101 97 102 74 103 75 104 83 105 76 106 78 107 84 108
REMARK SMILES IDX 77 109 79 110 80 111 81 112 82 113
REMARK H PARENT 13 20 104 66 72 77
REMARK Flexibility Score: inf
ROOT
ATOM      1  C   UNL     1       3.561  -0.842   2.259  1.00  0.00     0.188 C 
ENDROOT
BRANCH   1   2
ATOM      2  O   UNL     1       4.819  -0.881   1.607  1.00  0.00    -0.376 OA
BRANCH   2   3
ATOM      3  C   UNL     1       5.229  -0.325   0.370  1.00  0.00     0.202 C 
BRANCH   3   4
ATOM      4  C   UNL     1       4.254   0.256  -0.657  1.00  0.00     0.261 C 
BRANCH   4   5
ATOM      5  O   UNL     1       2.857   0.256  -0.277  1.00  0.00    -0.461 OA
BRANCH   5   6
ATOM      6  C   UNL     1       1.993  -0.799  -0.140  1.00  0.00     0.344 C 
ATOM      7  O   UNL     1       0.851  -0.653   0.294  1.00  0.00    -0.248 OA
BRANCH   6   8
ATOM      8  C   UNL     1       2.509  -2.178  -0.419  1.00  0.00     0.352 C 
BRANCH   8   9
ATOM      9  O   UNL     1       3.514  -2.033  -1.389  1.00  0.00    -0.481 OA
BRANCH   9  10
ATOM     10  C   UNL     1       2.898  -2.167  -2.594  1.00  0.00     0.129 A 
ATOM     11  C   UNL     1       3.260  -3.439  -3.081  1.00  0.00     0.047 A 
ATOM     12  C   UNL     1       1.905  -1.288  -3.142  1.00  0.00     0.037 A 
ATOM     13  C   UNL     1       2.593  -3.946  -4.156  1.00  0.00     0.004 A 
ATOM     14  C   UNL     1       1.254  -1.850  -4.236  1.00  0.00     0.013 A 
ATOM     15  C   UNL     1       1.589  -3.157  -4.722  1.00  0.00     0.001 A 
BRANCH  12  16
ATOM     16  C   UNL     1       1.674   0.249  -2.743  1.00  0.00     0.145 C 
ATOM     17  N   UNL     1       0.680   0.820  -2.059  1.00  0.00    -0.180 NA
BRANCH  17  18
ATOM     18  N   UNL     1       0.856   2.310  -1.718  1.00  0.00    -0.243 N 
ATOM     19  C   UNL     1      -0.038   3.084  -0.837  1.00  0.00     0.272 C 
ATOM     20  H   UNL     1       1.622   2.782  -2.117  1.00  0.00     0.194 HD
ATOM     21  O   UNL     1      -1.209   3.281  -1.168  1.00  0.00    -0.267 OA
BRANCH  19  22
ATOM     22  C   UNL     1       0.481   3.855   0.449  1.00  0.00     0.053 A 
ATOM     23  C   UNL     1       1.224   3.079   1.402  1.00  0.00     0.043 A 
ATOM     24  C   UNL     1       0.048   5.257   0.984  1.00  0.00     0.013 A 
ATOM     25  C   UNL     1       1.097   3.463   2.746  1.00  0.00     0.072 A 
ATOM     26  C   UNL     1       0.812   5.436   2.066  1.00  0.00     0.072 A 
ATOM     27  C   UNL     1      -0.819   6.465   1.004  1.00  0.00     0.011 A 
ATOM     28  N   UNL     1       0.424   4.551   2.878  1.00  0.00    -0.248 NA
ATOM     29  C   UNL     1       1.226   6.514   2.812  1.00  0.00     0.029 A 
ATOM     30  C   UNL     1      -0.759   7.455   2.082  1.00  0.00     0.001 A 
ATOM     31  C   UNL     1       0.293   7.477   2.992  1.00  0.00     0.002 A 
BRANCH  25  32
ATOM     32  C   UNL     1       1.614   3.371   4.151  1.00  0.00     0.000 A 
ATOM     33  C   UNL     1       0.686   3.489   5.241  1.00  0.00     0.013 A 
ATOM     34  C   UNL     1       2.865   3.901   4.456  1.00  0.00     0.013 A 
ATOM     35  C   UNL     1       0.998   4.038   6.511  1.00  0.00     0.040 A 
ATOM     36  C   UNL     1       3.170   4.390   5.749  1.00  0.00     0.040 A 
ATOM     37  C   UNL     1       2.270   4.449   6.768  1.00  0.00     0.123 A 
ATOM     38  F   UNL     1       2.662   4.922   7.958  1.00  0.00    -0.207 F 
ENDBRANCH  25  32
ENDBRANCH  19  22
ENDBRANCH  17  18
ENDBRANCH  12  16
ENDBRANCH   9  10
ENDBRANCH   8   9
ENDBRANCH   6   8
ENDBRANCH   5   6
ENDBRANCH   4   5
ENDBRANCH   3   4
ENDBRANCH   2   3
ENDBRANCH   1   2
BRANCH   1  39
ATOM     39  C   UNL     1       2.700   0.392   2.544  1.00  0.00     0.188 C 
BRANCH  39  40
ATOM     40  O   UNL     1       3.286   1.627   2.854  1.00  0.00    -0.377 OA
BRANCH  40  41
ATOM     41  C   UNL     1       4.487   1.931   2.220  1.00  0.00     0.188 C 
BRANCH  41  42
ATOM     42  C   UNL     1       5.634   1.413   3.063  1.00  0.00     0.188 C 
BRANCH  42  43
ATOM     43  O   UNL     1       5.485   0.326   3.961  1.00  0.00    -0.376 OA
BRANCH  43  44
ATOM     44  C   UNL     1       4.604   0.529   5.047  1.00  0.00     0.202 C 
BRANCH  44  45
ATOM     45  C   UNL     1       4.703   1.778   5.942  1.00  0.00     0.261 C 
BRANCH  45  46
ATOM     46  O   UNL     1       5.432   3.084   5.725  1.00  0.00    -0.460 OA
BRANCH  46  47
ATOM     47  C   UNL     1       6.479   3.580   5.004  1.00  0.00     0.338 C 
ATOM     48  O   UNL     1       7.562   3.019   4.902  1.00  0.00    -0.246 OA
BRANCH  47  49
ATOM     49  C   UNL     1       6.152   4.791   4.056  1.00  0.00     0.060 A 
ATOM     50  C   UNL     1       6.789   4.828   2.801  1.00  0.00     0.016 A 
ATOM     51  C   UNL     1       5.327   5.899   4.316  1.00  0.00     0.016 A 
ATOM     52  C   UNL     1       6.734   5.972   1.963  1.00  0.00     0.010 A 
ATOM     53  C   UNL     1       5.089   6.929   3.386  1.00  0.00     0.010 A 
ATOM     54  C   UNL     1       5.934   7.071   2.296  1.00  0.00    -0.014 A 
BRANCH  54  55
ATOM     55  C   UNL     1       6.132   8.447   1.738  1.00  0.00     0.031 A 
ATOM     56  C   UNL     1       6.569   9.567   2.673  1.00  0.00     0.074 A 
ATOM     57  C   UNL     1       5.909   8.733   0.442  1.00  0.00     0.049 A 
ATOM     58  N   UNL     1       6.802  10.829   2.413  1.00  0.00    -0.248 NA
ATOM     59  C   UNL     1       6.743   9.229   4.098  1.00  0.00     0.031 C 
ATOM     60  C   UNL     1       5.431   7.778  -0.553  1.00  0.00     0.029 A 
ATOM     61  N   UNL     1       6.035   9.911  -0.255  1.00  0.00    -0.354 N 
ATOM     62  C   UNL     1       7.109  11.424   3.636  1.00  0.00     0.074 A 
ATOM     63  C   UNL     1       6.973  10.408   4.647  1.00  0.00     0.031 C 
ATOM     64  C   UNL     1       5.325   8.398  -1.739  1.00  0.00     0.029 A 
ATOM     65  C   UNL     1       5.678   9.808  -1.579  1.00  0.00     0.049 A 
ATOM     66  H   UNL     1       6.350  10.749   0.154  1.00  0.00     0.167 HD
ATOM     67  C   UNL     1       7.494  12.694   3.903  1.00  0.00     0.034 A 
ATOM     68  C   UNL     1       5.615  10.743  -2.549  1.00  0.00     0.034 A 
ATOM     69  C   UNL     1       7.611  13.712   2.900  1.00  0.00     0.049 A 
ATOM     70  C   UNL     1       6.002  12.161  -2.236  1.00  0.00     0.074 A 
ATOM     71  C   UNL     1       8.049  15.014   3.047  1.00  0.00     0.029 A 
ATOM     72  N   UNL     1       7.236  13.556   1.577  1.00  0.00    -0.354 N 
ATOM     73  N   UNL     1       6.391  12.671  -1.093  1.00  0.00    -0.248 NA
ATOM     74  C   UNL     1       5.968  13.127  -3.345  1.00  0.00     0.031 C 
ATOM     75  C   UNL     1       7.842  15.675   1.835  1.00  0.00     0.029 A 
ATOM     76  C   UNL     1       7.394  14.751   0.903  1.00  0.00     0.049 A 
ATOM     77  H   UNL     1       6.907  12.719   1.176  1.00  0.00     0.167 HD
ATOM     78  C   UNL     1       6.694  14.002  -1.353  1.00  0.00     0.074 A 
ATOM     79  C   UNL     1       6.441  14.220  -2.762  1.00  0.00     0.031 C 
ATOM     80  C   UNL     1       7.155  14.949  -0.502  1.00  0.00     0.034 A 
BRANCH  67  81
ATOM     81  C   UNL     1       7.776  13.060   5.341  1.00  0.00     0.023 A 
ATOM     82  C   UNL     1       8.835  12.452   6.050  1.00  0.00     0.012 A 
ATOM     83  C   UNL     1       6.983  14.026   5.992  1.00  0.00     0.148 A 
ATOM     84  C   UNL     1       9.047  12.742   7.398  1.00  0.00     0.002 A 
ATOM     85  C   UNL     1       7.240  14.356   7.315  1.00  0.00     0.091 A 
ATOM     86  F   UNL     1       5.980  14.595   5.308  1.00  0.00    -0.205 F 
ATOM     87  C   UNL     1       8.255  13.699   8.027  1.00  0.00     0.022 A 
BRANCH  85  88
ATOM     88  S   UNL     1       6.318  15.624   8.188  1.00  0.00     0.127 S 
ATOM     89  O   UNL     1       5.642  14.836   9.219  1.00  0.00    -0.237 OA
ATOM     90  O   UNL     1       7.388  16.489   8.685  1.00  0.00    -0.237 OA
ATOM     91  O   UNL     1       5.439  16.240   7.204  1.00  0.00    -0.744 OA
ENDBRANCH  85  88
ENDBRANCH  67  81
BRANCH  68  92
ATOM     92  C   UNL     1       5.161  10.358  -3.913  1.00  0.00     0.023 A 
ATOM     93  C   UNL     1       6.060  10.363  -4.997  1.00  0.00     0.012 A 
ATOM     94  C   UNL     1       3.830   9.950  -4.122  1.00  0.00     0.148 A 
ATOM     95  C   UNL     1       5.632   9.988  -6.272  1.00  0.00     0.002 A 
ATOM     96  C   UNL     1       3.427   9.525  -5.382  1.00  0.00     0.091 A 
ATOM     97  F   UNL     1       2.997   9.954  -3.074  1.00  0.00    -0.205 F 
ATOM     98  C   UNL     1       4.321   9.559  -6.460  1.00  0.00     0.022 A 
BRANCH  96  99
ATOM     99  S   UNL     1       1.783   8.860  -5.665  1.00  0.00     0.127 S 
ATOM    100  O   UNL     1       1.260   9.809  -6.670  1.00  0.00    -0.237 OA
ATOM    101  O   UNL     1       2.106   7.527  -6.213  1.00  0.00    -0.237 OA
ATOM    102  O   UNL     1       1.119   8.855  -4.405  1.00  0.00    -0.744 OA
ENDBRANCH  96  99
ENDBRANCH  68  92
BRANCH  80 103
ATOM    103  C   UNL     1       7.520  16.293  -1.070  1.00  0.00     0.023 A 
ATOM    104  C   UNL     1       6.535  17.184  -1.534  1.00  0.00     0.012 A 
ATOM    105  C   UNL     1       8.870  16.698  -1.047  1.00  0.00     0.148 A 
ATOM    106  C   UNL     1       6.897  18.447  -2.001  1.00  0.00     0.002 A 
ATOM    107  C   UNL     1       9.214  17.976  -1.453  1.00  0.00     0.091 A 
ATOM    108  F   UNL     1       9.789  15.826  -0.605  1.00  0.00    -0.205 F 
ATOM    109  C   UNL     1       8.232  18.848  -1.946  1.00  0.00     0.022 A 
BRANCH 107 110
ATOM    110  S   UNL     1      10.893  18.597  -1.335  1.00  0.00     0.127 S 
ATOM    111  O   UNL     1      11.227  18.812  -2.742  1.00  0.00    -0.237 OA
ATOM    112  O   UNL     1      10.713  19.821  -0.555  1.00  0.00    -0.237 OA
ATOM    113  O   UNL     1      11.669  17.558  -0.671  1.00  0.00    -0.744 OA
ENDBRANCH 107 110
ENDBRANCH  80 103
ENDBRANCH  54  55
ENDBRANCH  47  49
ENDBRANCH  46  47
ENDBRANCH  45  46
ENDBRANCH  44  45
ENDBRANCH  43  44
ENDBRANCH  42  43
ENDBRANCH  41  42
ENDBRANCH  40  41
ENDBRANCH  39  40
ENDBRANCH   1  39
TORSDOF 29
