REMARK SMILES CC(C)CN(C)c1cc2c(cc1Cl)C=C(C(=O)OCCOCCOCCOCCOC(=O)c1ccc(-c3c4nc(c(-c5cccc(S(=O)(=O)[O-])c5F)c5ccc([nH]5)c(-c5cccc(S(=O)(=O)[O-])c5F)c5nc(c(-c6cccc(S(=O)(=O)[O-])c6F)c6ccc3[nH]6)C=C5)C=C4)cc1)[C@@H](C(F)(F)F)O2
REMARK SMILES IDX 24 1 23 2 22 3 21 4 20 5 19 6 18 7 16 8 17 9 15 10 7 11 8 12
REMARK SMILES IDX 12 13 9 14 11 15 13 16 10 17 101 18 14 19 96 20 5 21 6 22
REMARK SMILES IDX 4 23 2 24 1 25 3 26 97 27 98 28 99 29 100 30 25 31 26 32
REMARK SMILES IDX 27 33 28 34 29 35 30 36 31 37 32 38 33 39 34 40 95 41 35 42
REMARK SMILES IDX 94 43 36 44 37 45 38 46 88 47 39 48 93 49 87 50 89 51 40 52
REMARK SMILES IDX 92 53 86 54 85 55 41 57 73 58 53 59 72 60 54 61 57 62 71 63
REMARK SMILES IDX 90 64 55 65 56 66 70 68 91 69 58 70 42 71 43 72 51 73 44 74
REMARK SMILES IDX 46 75 52 76 45 77 47 78 48 79 49 80 50 81 74 82 75 83 83 84
REMARK SMILES IDX 76 85 78 86 84 87 77 88 79 89 80 90 81 91 82 92 59 93 60 94
REMARK SMILES IDX 68 95 61 96 63 97 69 98 62 99 64 100 65 101 66 102 67 103
REMARK H PARENT 89 56 57 67
REMARK Flexibility Score: inf
ROOT
ATOM      1  O   UNL     1      -1.969   4.792  -7.187  1.00  0.00    -0.377 OA
ENDROOT
BRANCH   1   2
ATOM      2  C   UNL     1      -0.909   4.582  -6.271  1.00  0.00     0.188 C 
BRANCH   2   3
ATOM      3  C   UNL     1       0.464   4.426  -6.949  1.00  0.00     0.188 C 
BRANCH   3   4
ATOM      4  O   UNL     1       0.477   4.891  -8.293  1.00  0.00    -0.376 OA
BRANCH   4   5
ATOM      5  C   UNL     1       0.410   3.932  -9.341  1.00  0.00     0.202 C 
BRANCH   5   6
ATOM      6  C   UNL     1      -0.833   3.030  -9.460  1.00  0.00     0.261 C 
BRANCH   6   7
ATOM      7  O   UNL     1      -1.234   2.358  -8.257  1.00  0.00    -0.460 OA
BRANCH   7   8
ATOM      8  C   UNL     1      -0.414   1.397  -7.802  1.00  0.00     0.338 C 
ATOM      9  O   UNL     1       0.592   0.980  -8.353  1.00  0.00    -0.246 OA
BRANCH   8  10
ATOM     10  C   UNL     1      -0.809   1.043  -6.423  1.00  0.00     0.087 C 
ATOM     11  C   UNL     1      -0.744  -0.948  -1.812  1.00  0.00     0.059 A 
ATOM     12  C   UNL     1      -1.745  -0.322  -2.592  1.00  0.00     0.074 A 
ATOM     13  C   UNL     1       0.572  -0.925  -2.327  1.00  0.00     0.065 A 
ATOM     14  C   UNL     1      -1.448   0.257  -3.835  1.00  0.00     0.130 A 
ATOM     15  C   UNL     1       0.885  -0.231  -3.494  1.00  0.00     0.034 A 
ATOM     16  Cl  UNL     1       1.864  -1.878  -1.677  1.00  0.00    -0.082 Cl
ATOM     17  C   UNL     1      -0.127   0.324  -4.266  1.00  0.00     0.019 A 
ATOM     18  O   UNL     1      -2.489   0.725  -4.593  1.00  0.00    -0.475 OA
ATOM     19  C   UNL     1       0.203   0.851  -5.571  1.00  0.00     0.027 C 
ATOM     20  C   UNL     1      -2.258   0.899  -6.034  1.00  0.00     0.316 C 
BRANCH  11  21
ATOM     21  N   UNL     1      -1.069  -1.627  -0.628  1.00  0.00    -0.373 N 
ATOM     22  C   UNL     1      -2.131  -2.624  -0.747  1.00  0.00     0.143 C 
BRANCH  21  23
ATOM     23  C   UNL     1      -0.968  -0.918   0.667  1.00  0.00     0.119 C 
BRANCH  23  24
ATOM     24  C   UNL     1       0.481  -0.786   1.179  1.00  0.00     0.002 C 
ATOM     25  C   UNL     1       1.088   0.572   0.815  1.00  0.00     0.009 C 
ATOM     26  C   UNL     1       0.589  -0.992   2.692  1.00  0.00     0.009 C 
ENDBRANCH  23  24
ENDBRANCH  21  23
ENDBRANCH  11  21
BRANCH  20  27
ATOM     27  C   UNL     1      -2.931  -0.237  -6.816  1.00  0.00     0.430 C 
ATOM     28  F   UNL     1      -4.225  -0.395  -6.450  1.00  0.00    -0.167 F 
ATOM     29  F   UNL     1      -2.921   0.002  -8.148  1.00  0.00    -0.167 F 
ATOM     30  F   UNL     1      -2.307  -1.422  -6.615  1.00  0.00    -0.167 F 
ENDBRANCH  20  27
ENDBRANCH   8  10
ENDBRANCH   7   8
ENDBRANCH   6   7
ENDBRANCH   5   6
ENDBRANCH   4   5
ENDBRANCH   3   4
ENDBRANCH   2   3
ENDBRANCH   1   2
BRANCH   1  31
ATOM     31  C   UNL     1      -2.137   6.101  -7.737  1.00  0.00     0.188 C 
BRANCH  31  32
ATOM     32  C   UNL     1      -1.033   7.183  -7.664  1.00  0.00     0.188 C 
BRANCH  32  33
ATOM     33  O   UNL     1      -0.342   7.237  -6.418  1.00  0.00    -0.376 OA
BRANCH  33  34
ATOM     34  C   UNL     1      -0.614   8.352  -5.582  1.00  0.00     0.202 C 
BRANCH  34  35
ATOM     35  C   UNL     1      -1.959   8.276  -4.851  1.00  0.00     0.261 C 
BRANCH  35  36
ATOM     36  O   UNL     1      -3.118   8.249  -5.696  1.00  0.00    -0.460 OA
BRANCH  36  37
ATOM     37  C   UNL     1      -3.311   9.290  -6.538  1.00  0.00     0.338 C 
ATOM     38  O   UNL     1      -2.630  10.296  -6.629  1.00  0.00    -0.246 OA
BRANCH  37  39
ATOM     39  C   UNL     1      -4.383   8.892  -7.475  1.00  0.00     0.060 A 
ATOM     40  C   UNL     1      -5.590   8.389  -6.983  1.00  0.00     0.016 A 
ATOM     41  C   UNL     1      -4.155   8.967  -8.855  1.00  0.00     0.016 A 
ATOM     42  C   UNL     1      -6.583   7.986  -7.875  1.00  0.00     0.010 A 
ATOM     43  C   UNL     1      -5.149   8.555  -9.748  1.00  0.00     0.010 A 
ATOM     44  C   UNL     1      -6.378   8.084  -9.262  1.00  0.00    -0.014 A 
BRANCH  44  45
ATOM     45  C   UNL     1      -7.528   7.898 -10.178  1.00  0.00     0.031 A 
ATOM     46  C   UNL     1      -7.735   6.648 -10.976  1.00  0.00     0.074 A 
ATOM     47  C   UNL     1      -8.400   8.919 -10.286  1.00  0.00     0.049 A 
ATOM     48  N   UNL     1      -8.757   6.324 -11.725  1.00  0.00    -0.248 NA
ATOM     49  C   UNL     1      -6.668   5.637 -10.940  1.00  0.00     0.031 C 
ATOM     50  C   UNL     1      -8.262  10.209  -9.605  1.00  0.00     0.029 A 
ATOM     51  N   UNL     1      -9.562   9.039 -11.002  1.00  0.00    -0.354 N 
ATOM     52  C   UNL     1      -8.461   5.079 -12.262  1.00  0.00     0.074 A 
ATOM     53  C   UNL     1      -7.153   4.708 -11.759  1.00  0.00     0.031 C 
ATOM     54  C   UNL     1      -9.305  10.987  -9.928  1.00  0.00     0.029 A 
ATOM     55  C   UNL     1     -10.178  10.257 -10.843  1.00  0.00     0.049 A 
ATOM     56  H   UNL     1      -9.920   8.323 -11.575  1.00  0.00     0.167 HD
ATOM     57  C   UNL     1      -9.220   4.316 -13.083  1.00  0.00     0.034 A 
ATOM     58  C   UNL     1     -11.323  10.736 -11.364  1.00  0.00     0.034 A 
ATOM     59  C   UNL     1     -10.527   4.686 -13.565  1.00  0.00     0.049 A 
ATOM     60  C   UNL     1     -12.158   9.858 -12.245  1.00  0.00     0.074 A 
ATOM     61  C   UNL     1     -11.405   3.929 -14.324  1.00  0.00     0.029 A 
ATOM     62  N   UNL     1     -11.135   5.913 -13.358  1.00  0.00    -0.354 N 
ATOM     63  N   UNL     1     -11.939   8.618 -12.605  1.00  0.00    -0.248 NA
ATOM     64  C   UNL     1     -13.409  10.427 -12.765  1.00  0.00     0.031 C 
ATOM     65  C   UNL     1     -12.533   4.708 -14.595  1.00  0.00     0.029 A 
ATOM     66  C   UNL     1     -12.367   5.943 -13.990  1.00  0.00     0.049 A 
ATOM     67  H   UNL     1     -10.749   6.655 -12.838  1.00  0.00     0.167 HD
ATOM     68  C   UNL     1     -13.030   8.250 -13.382  1.00  0.00     0.074 A 
ATOM     69  C   UNL     1     -13.917   9.394 -13.427  1.00  0.00     0.031 C 
ATOM     70  C   UNL     1     -13.263   7.071 -14.007  1.00  0.00     0.034 A 
BRANCH  57  71
ATOM     71  C   UNL     1      -8.701   2.962 -13.485  1.00  0.00     0.023 A 
ATOM     72  C   UNL     1      -8.809   1.891 -12.575  1.00  0.00     0.012 A 
ATOM     73  C   UNL     1      -8.245   2.719 -14.795  1.00  0.00     0.148 A 
ATOM     74  C   UNL     1      -8.466   0.597 -12.963  1.00  0.00     0.002 A 
ATOM     75  C   UNL     1      -7.931   1.421 -15.182  1.00  0.00     0.091 A 
ATOM     76  F   UNL     1      -8.146   3.756 -15.639  1.00  0.00    -0.205 F 
ATOM     77  C   UNL     1      -8.038   0.360 -14.267  1.00  0.00     0.022 A 
BRANCH  75  78
ATOM     78  S   UNL     1      -7.425   0.997 -16.853  1.00  0.00     0.127 S 
ATOM     79  O   UNL     1      -6.045   0.561 -16.640  1.00  0.00    -0.237 OA
ATOM     80  O   UNL     1      -8.358  -0.076 -17.194  1.00  0.00    -0.237 OA
ATOM     81  O   UNL     1      -7.574   2.212 -17.641  1.00  0.00    -0.744 OA
ENDBRANCH  75  78
ENDBRANCH  57  71
BRANCH  58  82
ATOM     82  C   UNL     1     -11.762  12.102 -10.977  1.00  0.00     0.023 A 
ATOM     83  C   UNL     1     -12.770  12.249 -10.006  1.00  0.00     0.012 A 
ATOM     84  C   UNL     1     -11.105  13.241 -11.479  1.00  0.00     0.148 A 
ATOM     85  C   UNL     1     -13.118  13.516  -9.539  1.00  0.00     0.002 A 
ATOM     86  C   UNL     1     -11.430  14.496 -10.980  1.00  0.00     0.091 A 
ATOM     87  F   UNL     1     -10.144  13.065 -12.396  1.00  0.00    -0.205 F 
ATOM     88  C   UNL     1     -12.442  14.636 -10.016  1.00  0.00     0.022 A 
BRANCH  86  89
ATOM     89  S   UNL     1     -10.542  15.985 -11.448  1.00  0.00     0.127 S 
ATOM     90  O   UNL     1     -11.604  16.786 -12.054  1.00  0.00    -0.237 OA
ATOM     91  O   UNL     1     -10.069  16.468 -10.151  1.00  0.00    -0.237 OA
ATOM     92  O   UNL     1      -9.492  15.553 -12.359  1.00  0.00    -0.744 OA
ENDBRANCH  86  89
ENDBRANCH  58  82
BRANCH  70  93
ATOM     93  C   UNL     1     -14.527   6.934 -14.809  1.00  0.00     0.023 A 
ATOM     94  C   UNL     1     -14.595   7.509 -16.093  1.00  0.00     0.012 A 
ATOM     95  C   UNL     1     -15.592   6.137 -14.347  1.00  0.00     0.148 A 
ATOM     96  C   UNL     1     -15.708   7.297 -16.904  1.00  0.00     0.002 A 
ATOM     97  C   UNL     1     -16.684   5.902 -15.174  1.00  0.00     0.091 A 
ATOM     98  F   UNL     1     -15.506   5.609 -13.117  1.00  0.00    -0.205 F 
ATOM     99  C   UNL     1     -16.746   6.485 -16.451  1.00  0.00     0.022 A 
BRANCH  97 100
ATOM    100  S   UNL     1     -18.037   4.814 -14.711  1.00  0.00     0.127 S 
ATOM    101  O   UNL     1     -19.155   5.751 -14.621  1.00  0.00    -0.237 OA
ATOM    102  O   UNL     1     -18.098   3.897 -15.850  1.00  0.00    -0.237 OA
ATOM    103  O   UNL     1     -17.646   4.195 -13.451  1.00  0.00    -0.744 OA
ENDBRANCH  97 100
ENDBRANCH  70  93
ENDBRANCH  44  45
ENDBRANCH  37  39
ENDBRANCH  36  37
ENDBRANCH  35  36
ENDBRANCH  34  35
ENDBRANCH  33  34
ENDBRANCH  32  33
ENDBRANCH  31  32
ENDBRANCH   1  31
TORSDOF 27
