REMARK SMILES O=C(OCCOCCOCCOCCOC(=O)[C@H]1CC2(CC[NH+](C(=O)C3CC3)CC2)CN1C(=O)CCn1cccn1)c1ccc(-c2c3nc(c(-c4cccc(S(=O)(=O)[O-])c4F)c4ccc([nH]4)c(-c4cccc(S(=O)(=O)[O-])c4F)c4nc(c(-c5cccc(S(=O)(=O)[O-])c5F)c5ccc2[nH]5)C=C4)C=C3)cc1
REMARK SMILES IDX 10 1 9 2 8 3 7 4 6 5 5 6 4 7 3 8 2 9 1 10 42 11 43 12 104 13
REMARK SMILES IDX 44 14 103 15 45 16 46 17 47 18 97 19 48 20 102 21 96 22
REMARK SMILES IDX 98 23 49 24 101 25 95 26 94 27 50 29 82 30 62 31 81 32 63 33
REMARK SMILES IDX 66 34 80 35 99 36 64 37 65 38 79 40 100 41 67 42 51 43 52 44
REMARK SMILES IDX 60 45 53 46 55 47 61 48 54 49 56 50 57 51 58 52 59 53 83 54
REMARK SMILES IDX 84 55 92 56 85 57 87 58 93 59 86 60 88 61 89 62 90 63 91 64
REMARK SMILES IDX 68 65 69 66 77 67 70 68 72 69 78 70 71 71 73 72 74 73 75 74
REMARK SMILES IDX 76 75 11 76 12 77 13 78 14 79 15 80 16 81 17 82 18 83 19 84
REMARK SMILES IDX 32 85 20 86 31 87 21 88 30 89 22 90 29 91 23 92 33 94 34 95
REMARK SMILES IDX 35 96 36 97 37 98 38 99 41 100 39 101 40 102 24 103 25 104
REMARK SMILES IDX 26 105 27 106 28 107
REMARK H PARENT 98 28 66 39 23 93
REMARK Flexibility Score: inf
ROOT
ATOM      1  C   UNL     1       8.065  -5.107   4.770  1.00  0.00     0.188 C 
ENDROOT
BRANCH   1   2
ATOM      2  O   UNL     1       7.566  -4.283   5.802  1.00  0.00    -0.377 OA
BRANCH   2   3
ATOM      3  C   UNL     1       8.590  -3.636   6.505  1.00  0.00     0.188 C 
BRANCH   3   4
ATOM      4  C   UNL     1       9.721  -4.583   6.918  1.00  0.00     0.188 C 
BRANCH   4   5
ATOM      5  O   UNL     1       9.569  -5.930   7.355  1.00  0.00    -0.376 OA
BRANCH   5   6
ATOM      6  C   UNL     1       8.449  -6.798   7.356  1.00  0.00     0.202 C 
BRANCH   6   7
ATOM      7  C   UNL     1       7.148  -6.494   8.110  1.00  0.00     0.261 C 
BRANCH   7   8
ATOM      8  O   UNL     1       6.802  -5.139   8.393  1.00  0.00    -0.460 OA
BRANCH   8   9
ATOM      9  C   UNL     1       7.318  -4.320   9.331  1.00  0.00     0.338 C 
ATOM     10  O   UNL     1       6.754  -3.259   9.592  1.00  0.00    -0.246 OA
BRANCH   9  11
ATOM     11  C   UNL     1       8.655  -4.556   9.914  1.00  0.00     0.060 A 
ATOM     12  C   UNL     1       9.147  -5.816  10.251  1.00  0.00     0.016 A 
ATOM     13  C   UNL     1       9.450  -3.407  10.122  1.00  0.00     0.016 A 
ATOM     14  C   UNL     1      10.403  -5.931  10.796  1.00  0.00     0.010 A 
ATOM     15  C   UNL     1      10.697  -3.513  10.709  1.00  0.00     0.010 A 
ATOM     16  C   UNL     1      11.127  -4.775  11.086  1.00  0.00    -0.014 A 
BRANCH  16  17
ATOM     17  C   UNL     1      12.282  -4.980  11.925  1.00  0.00     0.031 A 
ATOM     18  C   UNL     1      13.389  -5.713  11.279  1.00  0.00     0.074 A 
ATOM     19  C   UNL     1      12.181  -4.707  13.239  1.00  0.00     0.049 A 
ATOM     20  N   UNL     1      13.657  -6.971  11.408  1.00  0.00    -0.248 NA
ATOM     21  C   UNL     1      14.159  -5.036  10.231  1.00  0.00     0.031 C 
ATOM     22  C   UNL     1      11.204  -3.847  13.914  1.00  0.00     0.029 A 
ATOM     23  N   UNL     1      13.006  -5.083  14.247  1.00  0.00    -0.354 N 
ATOM     24  C   UNL     1      14.798  -7.188  10.646  1.00  0.00     0.074 A 
ATOM     25  C   UNL     1      14.939  -6.031   9.800  1.00  0.00     0.031 C 
ATOM     26  C   UNL     1      11.657  -3.558  15.154  1.00  0.00     0.029 A 
ATOM     27  C   UNL     1      12.862  -4.328  15.401  1.00  0.00     0.049 A 
ATOM     28  H   UNL     1      13.648  -5.825  14.166  1.00  0.00     0.167 HD
ATOM     29  C   UNL     1      15.672  -8.176  10.981  1.00  0.00     0.034 A 
ATOM     30  C   UNL     1      13.740  -4.280  16.431  1.00  0.00     0.034 A 
ATOM     31  C   UNL     1      15.052  -9.151  11.844  1.00  0.00     0.049 A 
ATOM     32  C   UNL     1      14.545  -5.525  16.381  1.00  0.00     0.074 A 
ATOM     33  C   UNL     1      13.963  -9.994  11.739  1.00  0.00     0.029 A 
ATOM     34  N   UNL     1      15.344  -9.071  13.184  1.00  0.00    -0.354 N 
ATOM     35  N   UNL     1      14.045  -6.705  16.625  1.00  0.00    -0.248 NA
ATOM     36  C   UNL     1      15.775  -5.516  15.602  1.00  0.00     0.031 C 
ATOM     37  C   UNL     1      13.373  -9.994  13.037  1.00  0.00     0.029 A 
ATOM     38  C   UNL     1      14.174  -9.217  13.877  1.00  0.00     0.049 A 
ATOM     39  H   UNL     1      16.236  -8.932  13.576  1.00  0.00     0.167 HD
ATOM     40  C   UNL     1      14.605  -7.522  15.651  1.00  0.00     0.074 A 
ATOM     41  C   UNL     1      15.737  -6.762  15.121  1.00  0.00     0.031 C 
ATOM     42  C   UNL     1      13.925  -8.600  15.160  1.00  0.00     0.034 A 
BRANCH  29  43
ATOM     43  C   UNL     1      17.177  -8.046  10.896  1.00  0.00     0.023 A 
ATOM     44  C   UNL     1      17.942  -9.184  11.243  1.00  0.00     0.012 A 
ATOM     45  C   UNL     1      17.868  -6.816  10.803  1.00  0.00     0.148 A 
ATOM     46  C   UNL     1      19.300  -9.085  11.563  1.00  0.00     0.002 A 
ATOM     47  C   UNL     1      19.233  -6.735  11.052  1.00  0.00     0.091 A 
ATOM     48  F   UNL     1      17.199  -5.681  10.599  1.00  0.00    -0.205 F 
ATOM     49  C   UNL     1      19.946  -7.859  11.468  1.00  0.00     0.022 A 
BRANCH  47  50
ATOM     50  S   UNL     1      20.116  -5.176  10.900  1.00  0.00     0.127 S 
ATOM     51  O   UNL     1      20.450  -4.899  12.305  1.00  0.00    -0.237 OA
ATOM     52  O   UNL     1      21.262  -5.572  10.069  1.00  0.00    -0.237 OA
ATOM     53  O   UNL     1      19.207  -4.255  10.269  1.00  0.00    -0.744 OA
ENDBRANCH  47  50
ENDBRANCH  29  43
BRANCH  30  54
ATOM     54  C   UNL     1      14.149  -3.103  17.231  1.00  0.00     0.023 A 
ATOM     55  C   UNL     1      14.827  -3.296  18.450  1.00  0.00     0.012 A 
ATOM     56  C   UNL     1      14.136  -1.805  16.671  1.00  0.00     0.148 A 
ATOM     57  C   UNL     1      15.502  -2.238  19.072  1.00  0.00     0.002 A 
ATOM     58  C   UNL     1      14.802  -0.756  17.297  1.00  0.00     0.091 A 
ATOM     59  F   UNL     1      13.556  -1.617  15.479  1.00  0.00    -0.205 F 
ATOM     60  C   UNL     1      15.497  -0.972  18.492  1.00  0.00     0.022 A 
BRANCH  58  61
ATOM     61  S   UNL     1      14.867   0.895  16.587  1.00  0.00     0.127 S 
ATOM     62  O   UNL     1      14.492   1.729  17.729  1.00  0.00    -0.237 OA
ATOM     63  O   UNL     1      16.268   0.997  16.187  1.00  0.00    -0.237 OA
ATOM     64  O   UNL     1      13.898   0.901  15.498  1.00  0.00    -0.744 OA
ENDBRANCH  58  61
ENDBRANCH  30  54
BRANCH  42  65
ATOM     65  C   UNL     1      12.685  -9.050  15.888  1.00  0.00     0.023 A 
ATOM     66  C   UNL     1      11.538  -8.241  16.024  1.00  0.00     0.012 A 
ATOM     67  C   UNL     1      12.627 -10.388  16.310  1.00  0.00     0.148 A 
ATOM     68  C   UNL     1      10.369  -8.751  16.598  1.00  0.00     0.002 A 
ATOM     69  C   UNL     1      11.450 -10.905  16.834  1.00  0.00     0.091 A 
ATOM     70  F   UNL     1      13.726 -11.146  16.172  1.00  0.00    -0.205 F 
ATOM     71  C   UNL     1      10.321 -10.087  16.991  1.00  0.00     0.022 A 
BRANCH  69  72
ATOM     72  S   UNL     1      11.304 -12.646  17.236  1.00  0.00     0.127 S 
ATOM     73  O   UNL     1      11.470 -12.641  18.687  1.00  0.00    -0.237 OA
ATOM     74  O   UNL     1       9.952 -12.966  16.774  1.00  0.00    -0.237 OA
ATOM     75  O   UNL     1      12.358 -13.316  16.482  1.00  0.00    -0.744 OA
ENDBRANCH  69  72
ENDBRANCH  42  65
ENDBRANCH  16  17
ENDBRANCH   9  11
ENDBRANCH   8   9
ENDBRANCH   7   8
ENDBRANCH   6   7
ENDBRANCH   5   6
ENDBRANCH   4   5
ENDBRANCH   3   4
ENDBRANCH   2   3
ENDBRANCH   1   2
BRANCH   1  76
ATOM     76  C   UNL     1       8.835  -4.380   3.639  1.00  0.00     0.188 C 
BRANCH  76  77
ATOM     77  O   UNL     1       8.240  -3.115   3.264  1.00  0.00    -0.376 OA
BRANCH  77  78
ATOM     78  C   UNL     1       8.325  -2.713   1.889  1.00  0.00     0.202 C 
BRANCH  78  79
ATOM     79  C   UNL     1       6.943  -2.144   1.221  1.00  0.00     0.261 C 
BRANCH  79  80
ATOM     80  O   UNL     1       5.649  -3.002   1.179  1.00  0.00    -0.462 OA
BRANCH  80  81
ATOM     81  C   UNL     1       4.869  -3.722   0.280  1.00  0.00     0.328 C 
ATOM     82  O   UNL     1       5.135  -3.742  -0.920  1.00  0.00    -0.250 OA
BRANCH  81  83
ATOM     83  C   UNL     1       3.676  -4.796   0.967  1.00  0.00     0.195 C 
ATOM     84  C   UNL     1       3.933  -6.345   1.022  1.00  0.00     0.046 C 
ATOM     85  N   UNL     1       2.869  -4.680   2.203  1.00  0.00    -0.328 N 
ATOM     86  C   UNL     1       2.913  -7.055   1.994  1.00  0.00     0.001 C 
ATOM     87  C   UNL     1       2.023  -5.864   2.409  1.00  0.00     0.128 C 
ATOM     88  C   UNL     1       3.468  -7.752   3.311  1.00  0.00     0.071 C 
ATOM     89  C   UNL     1       2.210  -8.173   1.220  1.00  0.00     0.071 C 
ATOM     90  C   UNL     1       4.194  -9.115   3.181  1.00  0.00     0.270 C 
ATOM     91  C   UNL     1       3.170  -9.351   0.974  1.00  0.00     0.270 C 
ATOM     92  N   UNL     1       3.560 -10.013   2.219  1.00  0.00    -0.272 N 
ATOM     93  H   UNL     1       2.776  -9.630   1.763  1.00  0.00     0.356 HD
BRANCH  85  94
ATOM     94  C   UNL     1       3.171  -3.959   3.325  1.00  0.00     0.225 C 
ATOM     95  O   UNL     1       2.434  -3.866   4.303  1.00  0.00    -0.275 OA
BRANCH  94  96
ATOM     96  C   UNL     1       4.485  -3.299   3.287  1.00  0.00     0.124 C 
BRANCH  96  97
ATOM     97  C   UNL     1       5.638  -4.375   3.279  1.00  0.00     0.154 C 
BRANCH  97  98
ATOM     98  N   UNL     1       6.334  -5.311   2.321  1.00  0.00    -0.272 N 
ATOM     99  C   UNL     1       7.010  -5.224   1.101  1.00  0.00     0.108 A 
ATOM    100  N   UNL     1       6.535  -6.609   2.764  1.00  0.00    -0.182 NA
ATOM    101  C   UNL     1       7.541  -6.434   0.741  1.00  0.00     0.042 A 
ATOM    102  C   UNL     1       7.237  -7.242   1.820  1.00  0.00     0.135 A 
ENDBRANCH  97  98
ENDBRANCH  96  97
ENDBRANCH  94  96
ENDBRANCH  85  94
BRANCH  92 103
ATOM    103  C   UNL     1       3.530 -11.419   2.217  1.00  0.00     0.315 C 
ATOM    104  O   UNL     1       3.176 -12.021   1.200  1.00  0.00    -0.231 OA
BRANCH 103 105
ATOM    105  C   UNL     1       3.845 -12.323   3.370  1.00  0.00     0.119 C 
ATOM    106  C   UNL     1       4.777 -12.159   4.531  1.00  0.00     0.019 C 
ATOM    107  C   UNL     1       3.288 -12.097   4.752  1.00  0.00     0.019 C 
ENDBRANCH 103 105
ENDBRANCH  92 103
ENDBRANCH  81  83
ENDBRANCH  80  81
ENDBRANCH  79  80
ENDBRANCH  78  79
ENDBRANCH  77  78
ENDBRANCH  76  77
ENDBRANCH   1  76
TORSDOF 29
