REMARK SMILES Cc1cc(OC(F)(F)F)cc2c1O[C@H](C(F)(F)F)C(C(=O)OCCOCCOCCOCCOC(=O)c1ccc(-c3c4nc(c(-c5cccc(S(=O)(=O)[O-])c5F)c5ccc([nH]5)c(-c5cccc(S(=O)(=O)[O-])c5F)c5nc(c(-c6cccc(S(=O)(=O)[O-])c6F)c6ccc3[nH]6)C=C5)C=C4)cc1)=C2
REMARK SMILES IDX 29 1 28 2 27 3 26 4 25 5 24 6 23 7 22 8 20 9 21 10 19 11
REMARK SMILES IDX 1 12 2 13 3 14 12 15 4 16 11 17 13 18 10 19 100 20 14 21
REMARK SMILES IDX 5 22 6 23 7 24 8 25 9 26 15 27 16 28 17 29 18 30 30 31 31 32
REMARK SMILES IDX 32 33 33 34 34 35 35 36 36 37 37 38 38 39 99 40 39 41 98 42
REMARK SMILES IDX 40 43 41 44 42 45 92 46 43 47 97 48 91 49 93 50 44 51 96 52
REMARK SMILES IDX 90 53 89 54 45 56 77 57 57 58 76 59 58 60 61 61 75 62 94 63
REMARK SMILES IDX 59 64 60 65 74 67 95 68 62 69 46 70 47 71 55 72 48 73 50 74
REMARK SMILES IDX 56 75 49 76 51 77 52 78 53 79 54 80 78 81 79 82 87 83 80 84
REMARK SMILES IDX 82 85 88 86 81 87 83 88 84 89 85 90 86 91 63 92 64 93 72 94
REMARK SMILES IDX 65 95 67 96 73 97 66 98 68 99 69 100 70 101 71 102
REMARK H PARENT 93 55 61 66
REMARK Flexibility Score: inf
ROOT
ATOM      1  C   UNL     1       6.483  -6.429   2.503  1.00  0.00     0.188 C 
ENDROOT
BRANCH   1   2
ATOM      2  O   UNL     1       5.599  -5.856   1.543  1.00  0.00    -0.377 OA
BRANCH   2   3
ATOM      3  C   UNL     1       4.213  -6.066   1.742  1.00  0.00     0.188 C 
BRANCH   3   4
ATOM      4  C   UNL     1       3.698  -7.333   1.035  1.00  0.00     0.188 C 
BRANCH   4   5
ATOM      5  O   UNL     1       4.659  -8.302   0.665  1.00  0.00    -0.376 OA
BRANCH   5   6
ATOM      6  C   UNL     1       5.593  -8.118  -0.389  1.00  0.00     0.202 C 
BRANCH   6   7
ATOM      7  C   UNL     1       5.814  -6.854  -1.244  1.00  0.00     0.261 C 
BRANCH   7   8
ATOM      8  O   UNL     1       4.943  -5.746  -1.047  1.00  0.00    -0.460 OA
BRANCH   8   9
ATOM      9  C   UNL     1       3.793  -5.741  -1.740  1.00  0.00     0.338 C 
ATOM     10  O   UNL     1       3.407  -6.580  -2.534  1.00  0.00    -0.246 OA
BRANCH   9  11
ATOM     11  C   UNL     1       2.976  -4.620  -1.231  1.00  0.00     0.087 C 
ATOM     12  C   UNL     1       1.051  -0.032   0.022  1.00  0.00     0.048 C 
ATOM     13  C   UNL     1       0.547  -1.450  -0.023  1.00  0.00    -0.005 A 
ATOM     14  C   UNL     1      -0.827  -1.685   0.167  1.00  0.00     0.054 A 
ATOM     15  C   UNL     1       1.391  -2.525  -0.341  1.00  0.00     0.131 A 
ATOM     16  C   UNL     1      -1.351  -2.976   0.078  1.00  0.00     0.130 A 
ATOM     17  C   UNL     1       0.861  -3.809  -0.474  1.00  0.00     0.021 A 
ATOM     18  O   UNL     1       2.714  -2.245  -0.520  1.00  0.00    -0.475 OA
ATOM     19  C   UNL     1      -0.495  -4.036  -0.225  1.00  0.00     0.058 A 
ATOM     20  C   UNL     1       1.696  -4.894  -0.955  1.00  0.00     0.027 C 
ATOM     21  C   UNL     1       3.622  -3.281  -0.984  1.00  0.00     0.316 C 
BRANCH  16  22
ATOM     22  O   UNL     1      -2.656  -3.337   0.243  1.00  0.00    -0.406 OA
BRANCH  22  23
ATOM     23  C   UNL     1      -3.625  -2.304   0.260  1.00  0.00     0.573 C 
ATOM     24  F   UNL     1      -3.486  -1.524   1.353  1.00  0.00    -0.132 F 
ATOM     25  F   UNL     1      -3.553  -1.543  -0.853  1.00  0.00    -0.132 F 
ATOM     26  F   UNL     1      -4.854  -2.866   0.302  1.00  0.00    -0.132 F 
ENDBRANCH  22  23
ENDBRANCH  16  22
BRANCH  21  27
ATOM     27  C   UNL     1       4.343  -2.751  -2.229  1.00  0.00     0.430 C 
ATOM     28  F   UNL     1       4.830  -1.506  -2.028  1.00  0.00    -0.167 F 
ATOM     29  F   UNL     1       5.387  -3.534  -2.583  1.00  0.00    -0.167 F 
ATOM     30  F   UNL     1       3.507  -2.693  -3.293  1.00  0.00    -0.167 F 
ENDBRANCH  21  27
ENDBRANCH   9  11
ENDBRANCH   8   9
ENDBRANCH   7   8
ENDBRANCH   6   7
ENDBRANCH   5   6
ENDBRANCH   4   5
ENDBRANCH   3   4
ENDBRANCH   2   3
ENDBRANCH   1   2
BRANCH   1  31
ATOM     31  C   UNL     1       6.123  -7.772   3.179  1.00  0.00     0.188 C 
BRANCH  31  32
ATOM     32  O   UNL     1       4.791  -7.827   3.679  1.00  0.00    -0.376 OA
BRANCH  32  33
ATOM     33  C   UNL     1       4.596  -7.719   5.080  1.00  0.00     0.202 C 
BRANCH  33  34
ATOM     34  C   UNL     1       4.882  -6.349   5.709  1.00  0.00     0.261 C 
BRANCH  34  35
ATOM     35  O   UNL     1       6.196  -5.817   5.495  1.00  0.00    -0.460 OA
BRANCH  35  36
ATOM     36  C   UNL     1       7.243  -6.505   5.997  1.00  0.00     0.338 C 
ATOM     37  O   UNL     1       7.204  -7.540   6.640  1.00  0.00    -0.246 OA
BRANCH  36  38
ATOM     38  C   UNL     1       8.469  -5.881   5.462  1.00  0.00     0.060 A 
ATOM     39  C   UNL     1       9.283  -6.608   4.582  1.00  0.00     0.016 A 
ATOM     40  C   UNL     1       8.800  -4.572   5.818  1.00  0.00     0.016 A 
ATOM     41  C   UNL     1      10.446  -6.031   4.073  1.00  0.00     0.010 A 
ATOM     42  C   UNL     1       9.984  -4.010   5.337  1.00  0.00     0.010 A 
ATOM     43  C   UNL     1      10.826  -4.749   4.489  1.00  0.00    -0.014 A 
BRANCH  43  44
ATOM     44  C   UNL     1      12.207  -4.280   4.238  1.00  0.00     0.031 A 
ATOM     45  C   UNL     1      13.246  -4.576   5.285  1.00  0.00     0.074 A 
ATOM     46  C   UNL     1      12.535  -3.603   3.123  1.00  0.00     0.049 A 
ATOM     47  N   UNL     1      14.501  -4.218   5.325  1.00  0.00    -0.248 NA
ATOM     48  C   UNL     1      12.814  -5.387   6.439  1.00  0.00     0.031 C 
ATOM     49  C   UNL     1      11.622  -3.271   2.031  1.00  0.00     0.029 A 
ATOM     50  N   UNL     1      13.732  -3.048   2.743  1.00  0.00    -0.354 N 
ATOM     51  C   UNL     1      15.001  -4.740   6.511  1.00  0.00     0.074 A 
ATOM     52  C   UNL     1      13.921  -5.442   7.165  1.00  0.00     0.031 C 
ATOM     53  C   UNL     1      12.284  -2.535   1.120  1.00  0.00     0.029 A 
ATOM     54  C   UNL     1      13.659  -2.328   1.575  1.00  0.00     0.049 A 
ATOM     55  H   UNL     1      14.564  -3.157   3.259  1.00  0.00     0.167 HD
ATOM     56  C   UNL     1      16.255  -4.653   7.004  1.00  0.00     0.034 A 
ATOM     57  C   UNL     1      14.587  -1.566   0.961  1.00  0.00     0.034 A 
ATOM     58  C   UNL     1      17.334  -3.971   6.351  1.00  0.00     0.049 A 
ATOM     59  C   UNL     1      15.968  -1.454   1.554  1.00  0.00     0.074 A 
ATOM     60  C   UNL     1      18.648  -3.859   6.768  1.00  0.00     0.029 A 
ATOM     61  N   UNL     1      17.225  -3.282   5.157  1.00  0.00    -0.354 N 
ATOM     62  N   UNL     1      16.449  -2.024   2.632  1.00  0.00    -0.248 NA
ATOM     63  C   UNL     1      16.942  -0.615   0.837  1.00  0.00     0.031 C 
ATOM     64  C   UNL     1      19.333  -3.085   5.831  1.00  0.00     0.029 A 
ATOM     65  C   UNL     1      18.450  -2.736   4.822  1.00  0.00     0.049 A 
ATOM     66  H   UNL     1      16.401  -3.193   4.626  1.00  0.00     0.167 HD
ATOM     67  C   UNL     1      17.783  -1.637   2.707  1.00  0.00     0.074 A 
ATOM     68  C   UNL     1      18.041  -0.792   1.561  1.00  0.00     0.031 C 
ATOM     69  C   UNL     1      18.706  -1.946   3.649  1.00  0.00     0.034 A 
BRANCH  56  70
ATOM     70  C   UNL     1      16.563  -5.343   8.300  1.00  0.00     0.023 A 
ATOM     71  C   UNL     1      16.838  -6.723   8.291  1.00  0.00     0.012 A 
ATOM     72  C   UNL     1      16.730  -4.601   9.484  1.00  0.00     0.148 A 
ATOM     73  C   UNL     1      17.291  -7.357   9.446  1.00  0.00     0.002 A 
ATOM     74  C   UNL     1      17.209  -5.234  10.623  1.00  0.00     0.091 A 
ATOM     75  F   UNL     1      16.447  -3.291   9.460  1.00  0.00    -0.205 F 
ATOM     76  C   UNL     1      17.490  -6.611  10.605  1.00  0.00     0.022 A 
BRANCH  74  77
ATOM     77  S   UNL     1      17.553  -4.356  12.151  1.00  0.00     0.127 S 
ATOM     78  O   UNL     1      16.671  -5.046  13.092  1.00  0.00    -0.237 OA
ATOM     79  O   UNL     1      18.977  -4.623  12.341  1.00  0.00    -0.237 OA
ATOM     80  O   UNL     1      17.212  -2.962  11.903  1.00  0.00    -0.744 OA
ENDBRANCH  74  77
ENDBRANCH  56  70
BRANCH  57  81
ATOM     81  C   UNL     1      14.243  -0.851  -0.298  1.00  0.00     0.023 A 
ATOM     82  C   UNL     1      14.773  -1.300  -1.522  1.00  0.00     0.012 A 
ATOM     83  C   UNL     1      13.379   0.262  -0.286  1.00  0.00     0.148 A 
ATOM     84  C   UNL     1      14.460  -0.643  -2.713  1.00  0.00     0.002 A 
ATOM     85  C   UNL     1      13.042   0.888  -1.479  1.00  0.00     0.091 A 
ATOM     86  F   UNL     1      12.899   0.677   0.895  1.00  0.00    -0.205 F 
ATOM     87  C   UNL     1      13.589   0.444  -2.693  1.00  0.00     0.022 A 
BRANCH  85  88
ATOM     88  S   UNL     1      11.866   2.243  -1.564  1.00  0.00     0.127 S 
ATOM     89  O   UNL     1      12.713   3.346  -2.012  1.00  0.00    -0.237 OA
ATOM     90  O   UNL     1      10.915   1.751  -2.561  1.00  0.00    -0.237 OA
ATOM     91  O   UNL     1      11.319   2.378  -0.221  1.00  0.00    -0.744 OA
ENDBRANCH  85  88
ENDBRANCH  57  81
BRANCH  69  92
ATOM     92  C   UNL     1      20.102  -1.410   3.493  1.00  0.00     0.023 A 
ATOM     93  C   UNL     1      20.377  -0.078   3.854  1.00  0.00     0.012 A 
ATOM     94  C   UNL     1      21.161  -2.273   3.148  1.00  0.00     0.148 A 
ATOM     95  C   UNL     1      21.690   0.390   3.872  1.00  0.00     0.002 A 
ATOM     96  C   UNL     1      22.469  -1.810   3.201  1.00  0.00     0.091 A 
ATOM     97  F   UNL     1      20.868  -3.538   2.812  1.00  0.00    -0.205 F 
ATOM     98  C   UNL     1      22.735  -0.478   3.559  1.00  0.00     0.022 A 
BRANCH  96  99
ATOM     99  S   UNL     1      23.886  -2.869   2.890  1.00  0.00     0.127 S 
ATOM    100  O   UNL     1      24.443  -2.272   1.677  1.00  0.00    -0.237 OA
ATOM    101  O   UNL     1      24.692  -2.669   4.095  1.00  0.00    -0.237 OA
ATOM    102  O   UNL     1      23.358  -4.217   2.727  1.00  0.00    -0.744 OA
ENDBRANCH  96  99
ENDBRANCH  69  92
ENDBRANCH  43  44
ENDBRANCH  36  38
ENDBRANCH  35  36
ENDBRANCH  34  35
ENDBRANCH  33  34
ENDBRANCH  32  33
ENDBRANCH  31  32
ENDBRANCH   1  31
TORSDOF 26
