REMARK SMILES CCNC(=O)c1cccc(-c2ccc(Cl)c(C(=O)OCCOCCOCCOCCOC(=O)c3ccc(-c4c5nc(c(-c6cccc(S(=O)(=O)[O-])c6F)c6ccc([nH]6)c(-c6cccc(S(=O)(=O)[O-])c6F)c6nc(c(-c7cccc(S(=O)(=O)[O-])c7F)c7ccc4[nH]7)C=C6)C=C5)cc3)c2)c1
REMARK SMILES IDX 25 1 24 2 23 3 22 4 21 5 20 6 19 7 17 8 18 9 16 10 11 11
REMARK SMILES IDX 12 12 97 13 13 14 14 15 15 16 10 17 6 18 7 19 98 20 8 21
REMARK SMILES IDX 9 22 4 23 3 24 5 26 2 27 1 28 26 29 27 30 28 31 29 32 30 33
REMARK SMILES IDX 31 34 32 35 33 36 34 37 35 38 96 39 36 40 95 41 37 42 38 43
REMARK SMILES IDX 39 44 89 45 40 46 94 47 88 48 90 49 41 50 93 51 87 52 86 53
REMARK SMILES IDX 42 55 74 56 54 57 73 58 55 59 58 60 72 61 91 62 56 63 57 64
REMARK SMILES IDX 71 66 92 67 59 68 43 69 44 70 52 71 45 72 47 73 53 74 46 75
REMARK SMILES IDX 48 76 49 77 50 78 51 79 75 80 76 81 84 82 77 83 79 84 85 85
REMARK SMILES IDX 78 86 80 87 81 88 82 89 83 90 60 91 61 92 69 93 62 94 64 95
REMARK SMILES IDX 70 96 63 97 65 98 66 99 67 100 68 101
REMARK H PARENT 3 25 90 54 58 65
REMARK Flexibility Score: inf
ROOT
ATOM      1  O   UNL     1      -4.677  -1.322   7.864  1.00  0.00    -0.377 OA
ENDROOT
BRANCH   1   2
ATOM      2  C   UNL     1      -5.512  -2.194   7.127  1.00  0.00     0.188 C 
BRANCH   2   3
ATOM      3  C   UNL     1      -5.378  -3.681   7.498  1.00  0.00     0.188 C 
BRANCH   3   4
ATOM      4  O   UNL     1      -4.571  -3.917   8.651  1.00  0.00    -0.376 OA
BRANCH   4   5
ATOM      5  C   UNL     1      -3.282  -4.474   8.414  1.00  0.00     0.202 C 
BRANCH   5   6
ATOM      6  C   UNL     1      -2.262  -3.528   7.773  1.00  0.00     0.261 C 
BRANCH   6   7
ATOM      7  O   UNL     1      -2.671  -3.026   6.494  1.00  0.00    -0.460 OA
BRANCH   7   8
ATOM      8  C   UNL     1      -2.713  -3.873   5.444  1.00  0.00     0.339 C 
ATOM      9  O   UNL     1      -2.352  -5.035   5.428  1.00  0.00    -0.246 OA
BRANCH   8  10
ATOM     10  C   UNL     1      -3.409  -3.145   4.353  1.00  0.00     0.079 A 
ATOM     11  C   UNL     1      -3.757  -0.999   3.198  1.00  0.00    -0.017 A 
ATOM     12  C   UNL     1      -4.787  -1.606   2.466  1.00  0.00     0.010 A 
ATOM     13  C   UNL     1      -3.091  -1.789   4.151  1.00  0.00     0.026 A 
ATOM     14  C   UNL     1      -5.121  -2.951   2.663  1.00  0.00     0.022 A 
ATOM     15  C   UNL     1      -4.428  -3.728   3.598  1.00  0.00     0.055 A 
ATOM     16  Cl  UNL     1      -4.951  -5.361   3.801  1.00  0.00    -0.083 Cl
BRANCH  11  17
ATOM     17  C   UNL     1      -3.327   0.389   2.933  1.00  0.00    -0.018 A 
ATOM     18  C   UNL     1      -1.492   1.954   2.518  1.00  0.00     0.040 A 
ATOM     19  C   UNL     1      -2.405   2.968   2.233  1.00  0.00     0.014 A 
ATOM     20  C   UNL     1      -1.957   0.702   2.926  1.00  0.00     0.022 A 
ATOM     21  C   UNL     1      -3.773   2.704   2.295  1.00  0.00     0.001 A 
ATOM     22  C   UNL     1      -4.228   1.421   2.624  1.00  0.00     0.009 A 
BRANCH  18  23
ATOM     23  C   UNL     1      -0.041   2.235   2.420  1.00  0.00     0.251 C 
ATOM     24  N   UNL     1       0.835   1.282   1.959  1.00  0.00    -0.352 N 
ATOM     25  H   UNL     1       1.783   1.467   2.148  1.00  0.00     0.163 HD
ATOM     26  O   UNL     1       0.379   3.345   2.732  1.00  0.00    -0.269 OA
BRANCH  24  27
ATOM     27  C   UNL     1       0.588   0.044   1.238  1.00  0.00     0.112 C 
ATOM     28  C   UNL     1       1.234   0.076  -0.133  1.00  0.00     0.027 C 
ENDBRANCH  24  27
ENDBRANCH  18  23
ENDBRANCH  11  17
ENDBRANCH   8  10
ENDBRANCH   7   8
ENDBRANCH   6   7
ENDBRANCH   5   6
ENDBRANCH   4   5
ENDBRANCH   3   4
ENDBRANCH   2   3
ENDBRANCH   1   2
BRANCH   1  29
ATOM     29  C   UNL     1      -4.979  -1.075   9.235  1.00  0.00     0.188 C 
BRANCH  29  30
ATOM     30  C   UNL     1      -6.097  -1.834   9.987  1.00  0.00     0.188 C 
BRANCH  30  31
ATOM     31  O   UNL     1      -7.258  -2.123   9.213  1.00  0.00    -0.376 OA
BRANCH  31  32
ATOM     32  C   UNL     1      -8.424  -1.364   9.502  1.00  0.00     0.202 C 
BRANCH  32  33
ATOM     33  C   UNL     1      -8.394   0.057   8.927  1.00  0.00     0.261 C 
BRANCH  33  34
ATOM     34  O   UNL     1      -7.386   0.908   9.490  1.00  0.00    -0.460 OA
BRANCH  34  35
ATOM     35  C   UNL     1      -7.451   1.124  10.822  1.00  0.00     0.338 C 
ATOM     36  O   UNL     1      -8.305   0.725  11.593  1.00  0.00    -0.246 OA
BRANCH  35  37
ATOM     37  C   UNL     1      -6.202   1.786  11.236  1.00  0.00     0.060 A 
ATOM     38  C   UNL     1      -5.445   1.212  12.265  1.00  0.00     0.016 A 
ATOM     39  C   UNL     1      -5.798   2.978  10.628  1.00  0.00     0.016 A 
ATOM     40  C   UNL     1      -4.312   1.869  12.737  1.00  0.00     0.010 A 
ATOM     41  C   UNL     1      -4.671   3.641  11.110  1.00  0.00     0.010 A 
ATOM     42  C   UNL     1      -3.957   3.114  12.200  1.00  0.00    -0.014 A 
BRANCH  42  43
ATOM     43  C   UNL     1      -3.008   3.980  12.935  1.00  0.00     0.031 A 
ATOM     44  C   UNL     1      -3.580   4.992  13.891  1.00  0.00     0.074 A 
ATOM     45  C   UNL     1      -1.680   3.880  12.757  1.00  0.00     0.049 A 
ATOM     46  N   UNL     1      -2.964   5.866  14.641  1.00  0.00    -0.248 NA
ATOM     47  C   UNL     1      -5.049   5.024  14.013  1.00  0.00     0.031 C 
ATOM     48  C   UNL     1      -1.013   2.943  11.856  1.00  0.00     0.029 A 
ATOM     49  N   UNL     1      -0.656   4.599  13.319  1.00  0.00    -0.354 N 
ATOM     50  C   UNL     1      -3.966   6.563  15.306  1.00  0.00     0.074 A 
ATOM     51  C   UNL     1      -5.231   6.026  14.857  1.00  0.00     0.031 C 
ATOM     52  C   UNL     1       0.314   3.160  11.910  1.00  0.00     0.029 A 
ATOM     53  C   UNL     1       0.585   4.258  12.836  1.00  0.00     0.049 A 
ATOM     54  H   UNL     1      -0.796   5.293  14.003  1.00  0.00     0.167 HD
ATOM     55  C   UNL     1      -3.846   7.549  16.225  1.00  0.00     0.034 A 
ATOM     56  C   UNL     1       1.795   4.784  13.110  1.00  0.00     0.034 A 
ATOM     57  C   UNL     1      -2.589   8.075  16.676  1.00  0.00     0.049 A 
ATOM     58  C   UNL     1       1.902   5.893  14.127  1.00  0.00     0.074 A 
ATOM     59  C   UNL     1      -2.355   9.057  17.622  1.00  0.00     0.029 A 
ATOM     60  N   UNL     1      -1.351   7.666  16.206  1.00  0.00    -0.354 N 
ATOM     61  N   UNL     1       0.955   6.460  14.837  1.00  0.00    -0.248 NA
ATOM     62  C   UNL     1       3.250   6.408  14.410  1.00  0.00     0.031 C 
ATOM     63  C   UNL     1      -0.973   9.252  17.712  1.00  0.00     0.029 A 
ATOM     64  C   UNL     1      -0.347   8.374  16.842  1.00  0.00     0.049 A 
ATOM     65  H   UNL     1      -1.207   6.974  15.521  1.00  0.00     0.167 HD
ATOM     66  C   UNL     1       1.597   7.359  15.683  1.00  0.00     0.074 A 
ATOM     67  C   UNL     1       3.014   7.253  15.404  1.00  0.00     0.031 C 
ATOM     68  C   UNL     1       1.063   8.204  16.601  1.00  0.00     0.034 A 
BRANCH  55  69
ATOM     69  C   UNL     1      -5.116   8.096  16.820  1.00  0.00     0.023 A 
ATOM     70  C   UNL     1      -5.847   7.312  17.736  1.00  0.00     0.012 A 
ATOM     71  C   UNL     1      -5.573   9.387  16.494  1.00  0.00     0.148 A 
ATOM     72  C   UNL     1      -7.031   7.790  18.293  1.00  0.00     0.002 A 
ATOM     73  C   UNL     1      -6.732   9.874  17.087  1.00  0.00     0.091 A 
ATOM     74  F   UNL     1      -4.881  10.105  15.598  1.00  0.00    -0.205 F 
ATOM     75  C   UNL     1      -7.468   9.074  17.977  1.00  0.00     0.022 A 
BRANCH  73  76
ATOM     76  S   UNL     1      -7.335  11.541  16.798  1.00  0.00     0.127 S 
ATOM     77  O   UNL     1      -8.493  11.291  15.940  1.00  0.00    -0.237 OA
ATOM     78  O   UNL     1      -7.665  11.989  18.151  1.00  0.00    -0.237 OA
ATOM     79  O   UNL     1      -6.235  12.261  16.174  1.00  0.00    -0.744 OA
ENDBRANCH  73  76
ENDBRANCH  55  69
BRANCH  56  80
ATOM     80  C   UNL     1       3.017   4.228  12.461  1.00  0.00     0.023 A 
ATOM     81  C   UNL     1       3.944   3.507  13.238  1.00  0.00     0.012 A 
ATOM     82  C   UNL     1       3.262   4.402  11.085  1.00  0.00     0.148 A 
ATOM     83  C   UNL     1       5.110   2.998  12.665  1.00  0.00     0.002 A 
ATOM     84  C   UNL     1       4.401   3.849  10.511  1.00  0.00     0.091 A 
ATOM     85  F   UNL     1       2.375   5.105  10.367  1.00  0.00    -0.205 F 
ATOM     86  C   UNL     1       5.334   3.161  11.301  1.00  0.00     0.022 A 
BRANCH  84  87
ATOM     87  S   UNL     1       4.718   3.906   8.744  1.00  0.00     0.127 S 
ATOM     88  O   UNL     1       5.867   4.806   8.676  1.00  0.00    -0.237 OA
ATOM     89  O   UNL     1       5.016   2.504   8.447  1.00  0.00    -0.237 OA
ATOM     90  O   UNL     1       3.489   4.402   8.141  1.00  0.00    -0.744 OA
ENDBRANCH  84  87
ENDBRANCH  56  80
BRANCH  68  91
ATOM     91  C   UNL     1       2.010   9.041  17.420  1.00  0.00     0.023 A 
ATOM     92  C   UNL     1       2.675  10.134  16.831  1.00  0.00     0.012 A 
ATOM     93  C   UNL     1       2.176   8.791  18.797  1.00  0.00     0.148 A 
ATOM     94  C   UNL     1       3.516  10.945  17.592  1.00  0.00     0.002 A 
ATOM     95  C   UNL     1       2.977   9.633  19.560  1.00  0.00     0.091 A 
ATOM     96  F   UNL     1       1.551   7.735  19.337  1.00  0.00    -0.205 F 
ATOM     97  C   UNL     1       3.657  10.703  18.957  1.00  0.00     0.022 A 
BRANCH  95  98
ATOM     98  S   UNL     1       3.131   9.449  21.340  1.00  0.00     0.127 S 
ATOM     99  O   UNL     1       4.440   8.809  21.463  1.00  0.00    -0.237 OA
ATOM    100  O   UNL     1       3.086  10.836  21.805  1.00  0.00    -0.237 OA
ATOM    101  O   UNL     1       1.993   8.641  21.755  1.00  0.00    -0.744 OA
ENDBRANCH  95  98
ENDBRANCH  68  91
ENDBRANCH  42  43
ENDBRANCH  35  37
ENDBRANCH  34  35
ENDBRANCH  33  34
ENDBRANCH  32  33
ENDBRANCH  31  32
ENDBRANCH  30  31
ENDBRANCH  29  30
ENDBRANCH   1  29
TORSDOF 26
