REMARK SMILES Cc1cc2nc(NC(=O)[C@H]3[C@@H](C(=O)OCCOCCOCCOCCOC(=O)c4ccc(-c5c6nc(c(-c7cccc(S(=O)(=O)[O-])c7F)c7ccc([nH]7)c(-c7cccc(S(=O)(=O)[O-])c7F)c7nc(c(-c8cccc(S(=O)(=O)[O-])c8F)c8ccc5[nH]8)C=C7)C=C6)cc4)[C@@H]4C=C[C@H]3C4)sc2cc1C
REMARK SMILES IDX 21 1 20 2 19 3 18 4 17 5 16 6 15 7 14 8 12 9 13 10 11 11
REMARK SMILES IDX 10 12 95 13 92 14 94 15 96 16 93 17 8 18 7 19 9 21 6 22 1 23
REMARK SMILES IDX 2 24 3 25 100 26 4 27 99 28 101 29 5 30 98 31 97 32 22 33
REMARK SMILES IDX 23 34 24 35 25 36 26 37 27 38 28 39 29 40 30 41 91 42 31 43
REMARK SMILES IDX 90 44 32 45 33 46 34 47 84 48 35 49 89 50 83 51 85 52 36 53
REMARK SMILES IDX 88 54 82 55 81 56 37 58 69 59 49 60 68 61 50 62 53 63 67 64
REMARK SMILES IDX 86 65 51 66 52 67 66 69 87 70 54 71 38 72 39 73 47 74 40 75
REMARK SMILES IDX 42 76 48 77 41 78 43 79 44 80 45 81 46 82 70 83 71 84 79 85
REMARK SMILES IDX 72 86 74 87 80 88 73 89 75 90 76 91 77 92 78 93 55 94 56 95
REMARK SMILES IDX 64 96 57 97 59 98 65 99 58 100 60 101 61 102 62 103 63 104
REMARK H PARENT 7 20 85 57 53 68
REMARK Flexibility Score: inf
ROOT
ATOM      1  C   UNL     1      -0.776   7.776  -1.794  1.00  0.00     0.188 C 
ENDROOT
BRANCH   1   2
ATOM      2  O   UNL     1       0.418   7.209  -2.318  1.00  0.00    -0.377 OA
BRANCH   2   3
ATOM      3  C   UNL     1       1.619   7.948  -2.254  1.00  0.00     0.188 C 
BRANCH   3   4
ATOM      4  C   UNL     1       1.880   8.954  -3.376  1.00  0.00     0.188 C 
BRANCH   4   5
ATOM      5  O   UNL     1       1.020  10.063  -3.473  1.00  0.00    -0.376 OA
BRANCH   5   6
ATOM      6  C   UNL     1      -0.241   9.934  -4.106  1.00  0.00     0.202 C 
BRANCH   6   7
ATOM      7  C   UNL     1      -0.562   8.978  -5.263  1.00  0.00     0.261 C 
BRANCH   7   8
ATOM      8  O   UNL     1      -0.270   7.582  -5.065  1.00  0.00    -0.463 OA
BRANCH   8   9
ATOM      9  C   UNL     1       0.600   7.085  -5.965  1.00  0.00     0.310 C 
ATOM     10  O   UNL     1       1.315   7.793  -6.678  1.00  0.00    -0.252 OA
BRANCH   9  11
ATOM     11  C   UNL     1       0.688   5.586  -6.098  1.00  0.00     0.119 C 
ATOM     12  C   UNL     1      -0.079   4.470  -5.297  1.00  0.00     0.100 C 
ATOM     13  C   UNL     1       1.069   3.535  -4.890  1.00  0.00     0.025 C 
ATOM     14  C   UNL     1       2.186   5.200  -5.874  1.00  0.00     0.027 C 
ATOM     15  C   UNL     1       1.773   2.965  -6.108  1.00  0.00    -0.027 C 
ATOM     16  C   UNL     1       2.125   4.572  -4.492  1.00  0.00     0.017 C 
ATOM     17  C   UNL     1       2.477   3.956  -6.669  1.00  0.00    -0.027 C 
BRANCH  12  18
ATOM     18  C   UNL     1      -1.129   4.851  -4.245  1.00  0.00     0.230 C 
ATOM     19  N   UNL     1      -1.186   4.504  -2.931  1.00  0.00    -0.302 N 
ATOM     20  H   UNL     1      -2.087   4.582  -2.542  1.00  0.00     0.172 HD
ATOM     21  O   UNL     1      -2.136   5.462  -4.645  1.00  0.00    -0.274 OA
BRANCH  19  22
ATOM     22  C   UNL     1      -0.244   4.068  -2.041  1.00  0.00     0.190 A 
ATOM     23  C   UNL     1       5.234   4.578   0.186  1.00  0.00     0.044 C 
ATOM     24  C   UNL     1       3.733   4.471   0.194  1.00  0.00    -0.046 A 
ATOM     25  C   UNL     1       3.113   3.976  -0.967  1.00  0.00     0.033 A 
ATOM     26  C   UNL     1       2.942   4.811   1.306  1.00  0.00    -0.047 A 
ATOM     27  C   UNL     1       1.710   3.931  -1.063  1.00  0.00     0.084 A 
ATOM     28  C   UNL     1       1.544   4.610   1.269  1.00  0.00     0.025 A 
ATOM     29  C   UNL     1       3.517   5.529   2.501  1.00  0.00     0.044 C 
ATOM     30  N   UNL     1       0.993   3.703  -2.215  1.00  0.00    -0.220 NA
ATOM     31  C   UNL     1       0.944   4.221   0.058  1.00  0.00     0.057 A 
ATOM     32  S   UNL     1      -0.727   4.095  -0.395  1.00  0.00    -0.097 S 
ENDBRANCH  19  22
ENDBRANCH  12  18
ENDBRANCH   9  11
ENDBRANCH   8   9
ENDBRANCH   7   8
ENDBRANCH   6   7
ENDBRANCH   5   6
ENDBRANCH   4   5
ENDBRANCH   3   4
ENDBRANCH   2   3
ENDBRANCH   1   2
BRANCH   1  33
ATOM     33  C   UNL     1      -0.728   8.942  -0.784  1.00  0.00     0.188 C 
BRANCH  33  34
ATOM     34  O   UNL     1       0.070   8.801   0.390  1.00  0.00    -0.376 OA
BRANCH  34  35
ATOM     35  C   UNL     1       0.042   7.534   1.028  1.00  0.00     0.202 C 
BRANCH  35  36
ATOM     36  C   UNL     1      -1.265   7.177   1.746  1.00  0.00     0.261 C 
BRANCH  36  37
ATOM     37  O   UNL     1      -2.267   6.832   0.781  1.00  0.00    -0.460 OA
BRANCH  37  38
ATOM     38  C   UNL     1      -3.527   7.218   1.087  1.00  0.00     0.338 C 
ATOM     39  O   UNL     1      -3.999   7.372   2.204  1.00  0.00    -0.246 OA
BRANCH  38  40
ATOM     40  C   UNL     1      -4.044   7.798  -0.163  1.00  0.00     0.060 A 
ATOM     41  C   UNL     1      -4.083   7.061  -1.351  1.00  0.00     0.016 A 
ATOM     42  C   UNL     1      -4.213   9.188  -0.166  1.00  0.00     0.016 A 
ATOM     43  C   UNL     1      -4.245   7.739  -2.557  1.00  0.00     0.010 A 
ATOM     44  C   UNL     1      -4.326   9.867  -1.371  1.00  0.00     0.010 A 
ATOM     45  C   UNL     1      -4.351   9.145  -2.569  1.00  0.00    -0.014 A 
BRANCH  45  46
ATOM     46  C   UNL     1      -4.944   9.787  -3.752  1.00  0.00     0.031 A 
ATOM     47  C   UNL     1      -6.351   9.350  -3.907  1.00  0.00     0.074 A 
ATOM     48  C   UNL     1      -4.421  10.775  -4.509  1.00  0.00     0.049 A 
ATOM     49  N   UNL     1      -6.846   8.645  -4.867  1.00  0.00    -0.248 NA
ATOM     50  C   UNL     1      -7.255   9.520  -2.754  1.00  0.00     0.031 C 
ATOM     51  C   UNL     1      -3.158  11.450  -4.267  1.00  0.00     0.029 A 
ATOM     52  N   UNL     1      -4.929  11.466  -5.582  1.00  0.00    -0.354 N 
ATOM     53  C   UNL     1      -8.196   8.533  -4.555  1.00  0.00     0.074 A 
ATOM     54  C   UNL     1      -8.320   8.831  -3.158  1.00  0.00     0.031 C 
ATOM     55  C   UNL     1      -3.038  12.527  -5.066  1.00  0.00     0.029 A 
ATOM     56  C   UNL     1      -4.233  12.648  -5.872  1.00  0.00     0.049 A 
ATOM     57  H   UNL     1      -5.708  11.160  -6.099  1.00  0.00     0.167 HD
ATOM     58  C   UNL     1      -9.125   8.556  -5.545  1.00  0.00     0.034 A 
ATOM     59  C   UNL     1      -4.611  13.707  -6.638  1.00  0.00     0.034 A 
ATOM     60  C   UNL     1      -8.532   8.217  -6.817  1.00  0.00     0.049 A 
ATOM     61  C   UNL     1      -5.660  13.221  -7.558  1.00  0.00     0.074 A 
ATOM     62  C   UNL     1      -7.794   7.148  -7.285  1.00  0.00     0.029 A 
ATOM     63  N   UNL     1      -8.334   9.242  -7.710  1.00  0.00    -0.354 N 
ATOM     64  N   UNL     1      -5.422  12.386  -8.530  1.00  0.00    -0.248 NA
ATOM     65  C   UNL     1      -7.041  13.290  -7.109  1.00  0.00     0.031 C 
ATOM     66  C   UNL     1      -6.851   7.713  -8.187  1.00  0.00     0.029 A 
ATOM     67  C   UNL     1      -7.106   9.082  -8.290  1.00  0.00     0.049 A 
ATOM     68  H   UNL     1      -8.970   9.969  -7.900  1.00  0.00     0.167 HD
ATOM     69  C   UNL     1      -6.474  11.486  -8.457  1.00  0.00     0.074 A 
ATOM     70  C   UNL     1      -7.493  12.154  -7.647  1.00  0.00     0.031 C 
ATOM     71  C   UNL     1      -6.299  10.174  -8.791  1.00  0.00     0.034 A 
BRANCH  58  72
ATOM     72  C   UNL     1     -10.447   9.286  -5.439  1.00  0.00     0.023 A 
ATOM     73  C   UNL     1     -11.325   9.158  -6.537  1.00  0.00     0.012 A 
ATOM     74  C   UNL     1     -10.766  10.281  -4.482  1.00  0.00     0.148 A 
ATOM     75  C   UNL     1     -12.413  10.019  -6.710  1.00  0.00     0.002 A 
ATOM     76  C   UNL     1     -11.897  11.075  -4.612  1.00  0.00     0.091 A 
ATOM     77  F   UNL     1      -9.920  10.574  -3.494  1.00  0.00    -0.205 F 
ATOM     78  C   UNL     1     -12.704  10.974  -5.745  1.00  0.00     0.022 A 
BRANCH  76  79
ATOM     79  S   UNL     1     -12.351  12.285  -3.360  1.00  0.00     0.127 S 
ATOM     80  O   UNL     1     -12.085  13.541  -4.056  1.00  0.00    -0.237 OA
ATOM     81  O   UNL     1     -13.765  11.977  -3.152  1.00  0.00    -0.237 OA
ATOM     82  O   UNL     1     -11.503  12.005  -2.208  1.00  0.00    -0.744 OA
ENDBRANCH  76  79
ENDBRANCH  58  72
BRANCH  59  83
ATOM     83  C   UNL     1      -4.264  15.155  -6.513  1.00  0.00     0.023 A 
ATOM     84  C   UNL     1      -4.552  16.051  -7.567  1.00  0.00     0.012 A 
ATOM     85  C   UNL     1      -3.880  15.721  -5.274  1.00  0.00     0.148 A 
ATOM     86  C   UNL     1      -4.492  17.443  -7.383  1.00  0.00     0.002 A 
ATOM     87  C   UNL     1      -3.813  17.102  -5.096  1.00  0.00     0.091 A 
ATOM     88  F   UNL     1      -3.667  14.915  -4.228  1.00  0.00    -0.205 F 
ATOM     89  C   UNL     1      -4.130  17.969  -6.146  1.00  0.00     0.022 A 
BRANCH  87  90
ATOM     90  S   UNL     1      -3.393  17.836  -3.507  1.00  0.00     0.127 S 
ATOM     91  O   UNL     1      -2.455  18.891  -3.892  1.00  0.00    -0.237 OA
ATOM     92  O   UNL     1      -4.693  18.312  -3.043  1.00  0.00    -0.237 OA
ATOM     93  O   UNL     1      -2.794  16.764  -2.721  1.00  0.00    -0.744 OA
ENDBRANCH  87  90
ENDBRANCH  59  83
BRANCH  71  94
ATOM     94  C   UNL     1      -5.041   9.767  -9.523  1.00  0.00     0.023 A 
ATOM     95  C   UNL     1      -3.758   9.860  -8.943  1.00  0.00     0.012 A 
ATOM     96  C   UNL     1      -5.195   9.044 -10.720  1.00  0.00     0.148 A 
ATOM     97  C   UNL     1      -2.657   9.238  -9.544  1.00  0.00     0.002 A 
ATOM     98  C   UNL     1      -4.113   8.376 -11.278  1.00  0.00     0.091 A 
ATOM     99  F   UNL     1      -6.421   8.975 -11.262  1.00  0.00    -0.205 F 
ATOM    100  C   UNL     1      -2.840   8.477 -10.698  1.00  0.00     0.022 A 
BRANCH  98 101
ATOM    101  S   UNL     1      -4.323   7.250 -12.661  1.00  0.00     0.127 S 
ATOM    102  O   UNL     1      -3.727   8.003 -13.762  1.00  0.00    -0.237 OA
ATOM    103  O   UNL     1      -3.556   6.079 -12.233  1.00  0.00    -0.237 OA
ATOM    104  O   UNL     1      -5.757   7.011 -12.771  1.00  0.00    -0.744 OA
ENDBRANCH  98 101
ENDBRANCH  71  94
ENDBRANCH  45  46
ENDBRANCH  38  40
ENDBRANCH  37  38
ENDBRANCH  36  37
ENDBRANCH  35  36
ENDBRANCH  34  35
ENDBRANCH  33  34
ENDBRANCH   1  33
TORSDOF 25
