REMARK SMILES CCN(CCC(=O)OCCOCCOCCOCCOC(=O)c1ccc(-c2c3nc(c(-c4cccc(S(=O)(=O)[O-])c4F)c4ccc([nH]4)c(-c4cccc(S(=O)(=O)[O-])c4F)c4nc(c(-c5cccc(S(=O)(=O)[O-])c5F)c5ccc2[nH]5)C=C4)C=C3)cc1)C(=O)N(C)CCc1cccs1
REMARK SMILES IDX 12 1 11 2 10 3 9 4 8 5 6 6 7 7 5 8 4 9 3 10 2 11 1 12 86 13
REMARK SMILES IDX 87 14 88 15 89 16 90 17 91 18 92 19 93 20 96 21 94 22 95 23
REMARK SMILES IDX 13 24 14 25 15 26 16 27 17 28 18 29 19 30 20 31 21 32 22 33
REMARK SMILES IDX 23 34 24 35 85 36 25 37 84 38 26 39 27 40 28 41 78 42 29 43
REMARK SMILES IDX 83 44 77 45 79 46 30 47 82 48 76 49 75 50 31 52 63 53 43 54
REMARK SMILES IDX 62 55 44 56 47 57 61 58 80 59 45 60 46 61 60 63 81 64 48 65
REMARK SMILES IDX 32 66 33 67 41 68 34 69 36 70 42 71 35 72 37 73 38 74 39 75
REMARK SMILES IDX 40 76 64 77 65 78 73 79 66 80 68 81 74 82 67 83 69 84 70 85
REMARK SMILES IDX 71 86 72 87 49 88 50 89 58 90 51 91 53 92 59 93 52 94 54 95
REMARK SMILES IDX 55 96 56 97 57 98
REMARK H PARENT 79 51 47 62
REMARK Flexibility Score: inf
ROOT
ATOM      1  C   UNL     1       1.564  -2.843  -6.027  1.00  0.00     0.188 C 
ENDROOT
BRANCH   1   2
ATOM      2  O   UNL     1       2.780  -2.792  -6.755  1.00  0.00    -0.376 OA
BRANCH   2   3
ATOM      3  C   UNL     1       3.547  -1.581  -6.732  1.00  0.00     0.202 C 
BRANCH   3   4
ATOM      4  C   UNL     1       2.885  -0.229  -7.058  1.00  0.00     0.261 C 
BRANCH   4   5
ATOM      5  O   UNL     1       2.189   0.376  -5.944  1.00  0.00    -0.463 OA
BRANCH   5   6
ATOM      6  C   UNL     1       0.848   0.553  -6.046  1.00  0.00     0.307 C 
ATOM      7  O   UNL     1       0.166   0.121  -6.971  1.00  0.00    -0.252 OA
BRANCH   6   8
ATOM      8  C   UNL     1       0.266   1.382  -4.919  1.00  0.00     0.144 C 
BRANCH   8   9
ATOM      9  C   UNL     1       0.005   0.690  -3.579  1.00  0.00     0.133 C 
BRANCH   9  10
ATOM     10  N   UNL     1       0.899   1.048  -2.452  1.00  0.00    -0.324 N 
BRANCH  10  11
ATOM     11  C   UNL     1       0.264   1.290  -1.148  1.00  0.00     0.118 C 
ATOM     12  C   UNL     1       0.542   0.151  -0.168  1.00  0.00     0.027 C 
ENDBRANCH  10  11
BRANCH  10  13
ATOM     13  C   UNL     1       2.291   1.169  -2.425  1.00  0.00     0.319 C 
ATOM     14  O   UNL     1       2.800   1.938  -1.619  1.00  0.00    -0.248 OA
BRANCH  13  15
ATOM     15  N   UNL     1       3.051   0.285  -3.171  1.00  0.00    -0.327 N 
ATOM     16  C   UNL     1       2.501  -1.014  -3.352  1.00  0.00     0.148 C 
BRANCH  15  17
ATOM     17  C   UNL     1       4.529   0.221  -3.087  1.00  0.00     0.126 C 
BRANCH  17  18
ATOM     18  C   UNL     1       5.390   1.452  -3.359  1.00  0.00     0.068 C 
BRANCH  18  19
ATOM     19  C   UNL     1       5.497   2.354  -2.182  1.00  0.00     0.006 A 
ATOM     20  C   UNL     1       5.578   2.012  -0.846  1.00  0.00     0.015 A 
ATOM     21  S   UNL     1       5.431   4.048  -2.396  1.00  0.00    -0.149 S 
ATOM     22  C   UNL     1       5.451   3.136   0.006  1.00  0.00     0.012 A 
ATOM     23  C   UNL     1       5.322   4.301  -0.712  1.00  0.00     0.065 A 
ENDBRANCH  18  19
ENDBRANCH  17  18
ENDBRANCH  15  17
ENDBRANCH  13  15
ENDBRANCH  10  13
ENDBRANCH   9  10
ENDBRANCH   8   9
ENDBRANCH   6   8
ENDBRANCH   5   6
ENDBRANCH   4   5
ENDBRANCH   3   4
ENDBRANCH   2   3
ENDBRANCH   1   2
BRANCH   1  24
ATOM     24  C   UNL     1       1.503  -3.796  -4.819  1.00  0.00     0.188 C 
BRANCH  24  25
ATOM     25  O   UNL     1       2.426  -3.636  -3.751  1.00  0.00    -0.377 OA
BRANCH  25  26
ATOM     26  C   UNL     1       3.808  -3.896  -3.971  1.00  0.00     0.188 C 
BRANCH  26  27
ATOM     27  C   UNL     1       4.197  -5.332  -4.279  1.00  0.00     0.188 C 
BRANCH  27  28
ATOM     28  O   UNL     1       3.078  -6.191  -4.377  1.00  0.00    -0.376 OA
BRANCH  28  29
ATOM     29  C   UNL     1       2.749  -6.905  -3.191  1.00  0.00     0.202 C 
BRANCH  29  30
ATOM     30  C   UNL     1       2.309  -6.112  -1.942  1.00  0.00     0.261 C 
BRANCH  30  31
ATOM     31  O   UNL     1       3.245  -5.185  -1.351  1.00  0.00    -0.460 OA
BRANCH  31  32
ATOM     32  C   UNL     1       4.420  -5.674  -0.903  1.00  0.00     0.338 C 
ATOM     33  O   UNL     1       4.831  -6.811  -1.029  1.00  0.00    -0.246 OA
BRANCH  32  34
ATOM     34  C   UNL     1       5.211  -4.583  -0.286  1.00  0.00     0.060 A 
ATOM     35  C   UNL     1       6.433  -4.219  -0.862  1.00  0.00     0.016 A 
ATOM     36  C   UNL     1       4.819  -4.026   0.934  1.00  0.00     0.016 A 
ATOM     37  C   UNL     1       7.304  -3.359  -0.180  1.00  0.00     0.010 A 
ATOM     38  C   UNL     1       5.694  -3.165   1.615  1.00  0.00     0.010 A 
ATOM     39  C   UNL     1       6.969  -2.874   1.093  1.00  0.00    -0.014 A 
BRANCH  39  40
ATOM     40  C   UNL     1       8.016  -2.260   1.963  1.00  0.00     0.031 A 
ATOM     41  C   UNL     1       8.640  -3.102   3.047  1.00  0.00     0.074 A 
ATOM     42  C   UNL     1       8.430  -0.988   1.812  1.00  0.00     0.049 A 
ATOM     43  N   UNL     1       9.569  -2.785   3.911  1.00  0.00    -0.248 NA
ATOM     44  C   UNL     1       8.163  -4.489   3.161  1.00  0.00     0.031 C 
ATOM     45  C   UNL     1       7.961  -0.074   0.780  1.00  0.00     0.029 A 
ATOM     46  N   UNL     1       9.322  -0.236   2.540  1.00  0.00    -0.354 N 
ATOM     47  C   UNL     1       9.771  -3.920   4.685  1.00  0.00     0.074 A 
ATOM     48  C   UNL     1       8.853  -4.928   4.203  1.00  0.00     0.031 C 
ATOM     49  C   UNL     1       8.521   1.134   0.971  1.00  0.00     0.029 A 
ATOM     50  C   UNL     1       9.395   1.079   2.139  1.00  0.00     0.049 A 
ATOM     51  H   UNL     1       9.859  -0.604   3.279  1.00  0.00     0.167 HD
ATOM     52  C   UNL     1      10.655  -4.119   5.692  1.00  0.00     0.034 A 
ATOM     53  C   UNL     1      10.083   2.122   2.649  1.00  0.00     0.034 A 
ATOM     54  C   UNL     1      11.584  -3.130   6.167  1.00  0.00     0.049 A 
ATOM     55  C   UNL     1      11.022   1.889   3.807  1.00  0.00     0.074 A 
ATOM     56  C   UNL     1      12.559  -3.264   7.139  1.00  0.00     0.029 A 
ATOM     57  N   UNL     1      11.639  -1.817   5.725  1.00  0.00    -0.354 N 
ATOM     58  N   UNL     1      11.301   0.771   4.432  1.00  0.00    -0.248 NA
ATOM     59  C   UNL     1      11.783   3.051   4.293  1.00  0.00     0.031 C 
ATOM     60  C   UNL     1      13.175  -2.021   7.316  1.00  0.00     0.029 A 
ATOM     61  C   UNL     1      12.615  -1.123   6.422  1.00  0.00     0.049 A 
ATOM     62  H   UNL     1      11.069  -1.434   5.020  1.00  0.00     0.167 HD
ATOM     63  C   UNL     1      12.307   1.081   5.342  1.00  0.00     0.074 A 
ATOM     64  C   UNL     1      12.592   2.492   5.183  1.00  0.00     0.031 C 
ATOM     65  C   UNL     1      12.935   0.268   6.227  1.00  0.00     0.034 A 
BRANCH  52  66
ATOM     66  C   UNL     1      10.662  -5.476   6.347  1.00  0.00     0.023 A 
ATOM     67  C   UNL     1      11.166  -6.592   5.649  1.00  0.00     0.012 A 
ATOM     68  C   UNL     1      10.200  -5.636   7.667  1.00  0.00     0.148 A 
ATOM     69  C   UNL     1      11.171  -7.855   6.241  1.00  0.00     0.002 A 
ATOM     70  C   UNL     1      10.253  -6.887   8.267  1.00  0.00     0.091 A 
ATOM     71  F   UNL     1       9.702  -4.566   8.305  1.00  0.00    -0.205 F 
ATOM     72  C   UNL     1      10.724  -8.000   7.551  1.00  0.00     0.022 A 
BRANCH  70  73
ATOM     73  S   UNL     1       9.776  -7.159   9.977  1.00  0.00     0.127 S 
ATOM     74  O   UNL     1       8.523  -7.896   9.820  1.00  0.00    -0.237 OA
ATOM     75  O   UNL     1      10.893  -7.955  10.485  1.00  0.00    -0.237 OA
ATOM     76  O   UNL     1       9.653  -5.836  10.574  1.00  0.00    -0.744 OA
ENDBRANCH  70  73
ENDBRANCH  52  66
BRANCH  53  77
ATOM     77  C   UNL     1       9.977   3.475   2.026  1.00  0.00     0.023 A 
ATOM     78  C   UNL     1      11.079   3.998   1.321  1.00  0.00     0.012 A 
ATOM     79  C   UNL     1       8.807   4.254   2.144  1.00  0.00     0.148 A 
ATOM     80  C   UNL     1      11.032   5.279   0.769  1.00  0.00     0.002 A 
ATOM     81  C   UNL     1       8.756   5.519   1.565  1.00  0.00     0.091 A 
ATOM     82  F   UNL     1       7.773   3.746   2.829  1.00  0.00    -0.205 F 
ATOM     83  C   UNL     1       9.870   6.035   0.885  1.00  0.00     0.022 A 
BRANCH  81  84
ATOM     84  S   UNL     1       7.295   6.562   1.625  1.00  0.00     0.127 S 
ATOM     85  O   UNL     1       7.738   7.652   2.491  1.00  0.00    -0.237 OA
ATOM     86  O   UNL     1       7.126   6.932   0.220  1.00  0.00    -0.237 OA
ATOM     87  O   UNL     1       6.233   5.727   2.168  1.00  0.00    -0.744 OA
ENDBRANCH  81  84
ENDBRANCH  53  77
BRANCH  65  88
ATOM     88  C   UNL     1      14.041   0.857   7.069  1.00  0.00     0.023 A 
ATOM     89  C   UNL     1      13.739   1.770   8.098  1.00  0.00     0.012 A 
ATOM     90  C   UNL     1      15.377   0.444   6.885  1.00  0.00     0.148 A 
ATOM     91  C   UNL     1      14.751   2.291   8.905  1.00  0.00     0.002 A 
ATOM     92  C   UNL     1      16.372   0.926   7.727  1.00  0.00     0.091 A 
ATOM     93  F   UNL     1      15.651  -0.412   5.890  1.00  0.00    -0.205 F 
ATOM     94  C   UNL     1      16.064   1.861   8.728  1.00  0.00     0.022 A 
BRANCH  92  95
ATOM     95  S   UNL     1      18.072   0.348   7.639  1.00  0.00     0.127 S 
ATOM     96  O   UNL     1      18.751   1.506   7.059  1.00  0.00    -0.237 OA
ATOM     97  O   UNL     1      18.388   0.098   9.046  1.00  0.00    -0.237 OA
ATOM     98  O   UNL     1      18.047  -0.846   6.805  1.00  0.00    -0.744 OA
ENDBRANCH  92  95
ENDBRANCH  65  88
ENDBRANCH  39  40
ENDBRANCH  32  34
ENDBRANCH  31  32
ENDBRANCH  30  31
ENDBRANCH  29  30
ENDBRANCH  28  29
ENDBRANCH  27  28
ENDBRANCH  26  27
ENDBRANCH  25  26
ENDBRANCH  24  25
ENDBRANCH   1  24
TORSDOF 31
