REMARK SMILES CC1(C)O[C@@H]2C[C@@H]3[C@H]4CCC5=CC(=O)C=C[C@@]5(C)[C@]4(F)[C@H](O)C[C@]3(C)[C@]2(C(=O)OCCOCCOCCOCCOC(=O)c2ccc(-c3c4nc(c(-c5cccc(S(=O)(=O)[O-])c5F)c5ccc([nH]5)c(-c5cccc(S(=O)(=O)[O-])c5F)c5nc(c(-c6cccc(S(=O)(=O)[O-])c6F)c6ccc3[nH]6)C=C5)C=C4)cc2)O1
REMARK SMILES IDX 36 1 35 2 34 3 33 4 32 5 31 6 30 7 29 8 27 9 28 10 26 11
REMARK SMILES IDX 1 12 2 13 4 14 107 15 3 16 5 17 6 18 24 19 7 20 23 21 25 22
REMARK SMILES IDX 8 23 21 24 9 25 19 26 10 27 17 28 20 29 11 30 16 31 18 32
REMARK SMILES IDX 12 33 15 34 13 35 14 36 22 37 37 39 38 40 39 41 40 42 41 43
REMARK SMILES IDX 42 44 43 45 44 46 45 47 106 48 46 49 105 50 47 51 48 52
REMARK SMILES IDX 49 53 99 54 50 55 104 56 98 57 100 58 51 59 103 60 97 61
REMARK SMILES IDX 96 62 52 64 84 65 64 66 83 67 65 68 68 69 82 70 101 71 66 72
REMARK SMILES IDX 67 73 81 75 102 76 69 77 53 78 54 79 62 80 55 81 57 82 63 83
REMARK SMILES IDX 56 84 58 85 59 86 60 87 61 88 85 89 86 90 94 91 87 92 89 93
REMARK SMILES IDX 95 94 88 95 90 96 91 97 92 98 93 99 70 100 71 101 79 102
REMARK SMILES IDX 72 103 74 104 80 105 73 106 75 107 76 108 77 109 78 110
REMARK H PARENT 22 38 100 63 68 74
REMARK Flexibility Score: inf
ROOT
ATOM      1  C   UNL     1      -5.422   3.696  -2.264  1.00  0.00     0.188 C 
ENDROOT
BRANCH   1   2
ATOM      2  O   UNL     1      -4.510   2.718  -1.754  1.00  0.00    -0.377 OA
BRANCH   2   3
ATOM      3  C   UNL     1      -4.911   1.860  -0.696  1.00  0.00     0.188 C 
BRANCH   3   4
ATOM      4  C   UNL     1      -4.118   2.030   0.601  1.00  0.00     0.188 C 
BRANCH   4   5
ATOM      5  O   UNL     1      -4.179   3.280   1.269  1.00  0.00    -0.376 OA
BRANCH   5   6
ATOM      6  C   UNL     1      -3.756   4.460   0.594  1.00  0.00     0.202 C 
BRANCH   6   7
ATOM      7  C   UNL     1      -2.362   4.513  -0.045  1.00  0.00     0.261 C 
BRANCH   7   8
ATOM      8  O   UNL     1      -2.181   3.620  -1.165  1.00  0.00    -0.461 OA
BRANCH   8   9
ATOM      9  C   UNL     1      -1.365   2.567  -0.929  1.00  0.00     0.341 C 
ATOM     10  O   UNL     1      -0.891   2.353   0.186  1.00  0.00    -0.249 OA
BRANCH   9  11
ATOM     11  C   UNL     1      -0.999   1.729  -2.163  1.00  0.00     0.200 C 
ATOM     12  C   UNL     1       0.466  -0.206   0.185  1.00  0.00     0.075 C 
ATOM     13  C   UNL     1       0.348  -0.040  -1.326  1.00  0.00     0.165 C 
ATOM     14  O   UNL     1      -0.883  -0.641  -1.734  1.00  0.00    -0.344 OA
ATOM     15  O   UNL     1       0.387   1.348  -1.738  1.00  0.00    -0.329 OA
ATOM     16  C   UNL     1       1.535  -0.780  -1.964  1.00  0.00     0.075 C 
ATOM     17  C   UNL     1      -1.590   0.328  -2.509  1.00  0.00     0.166 C 
ATOM     18  C   UNL     1      -1.236   0.068  -4.071  1.00  0.00     0.040 C 
ATOM     19  C   UNL     1      -1.027   2.413  -3.587  1.00  0.00     0.016 C 
ATOM     20  C   UNL     1      -0.296   1.268  -4.362  1.00  0.00     0.008 C 
ATOM     21  C   UNL     1      -0.442   3.810  -3.807  1.00  0.00     0.046 C 
ATOM     22  C   UNL     1      -2.498   2.584  -4.112  1.00  0.00     0.015 C 
ATOM     23  C   UNL     1       1.157   1.511  -4.892  1.00  0.00     0.035 C 
ATOM     24  C   UNL     1       1.054   3.872  -3.944  1.00  0.00     0.154 C 
ATOM     25  C   UNL     1       1.574   0.590  -6.030  1.00  0.00     0.012 C 
ATOM     26  C   UNL     1       1.540   2.981  -5.128  1.00  0.00     0.152 C 
ATOM     27  C   UNL     1       3.102   0.623  -6.138  1.00  0.00     0.032 C 
ATOM     28  C   UNL     1       3.086   3.156  -5.432  1.00  0.00     0.044 C 
ATOM     29  F   UNL     1       0.839   3.359  -6.252  1.00  0.00    -0.239 F 
ATOM     30  C   UNL     1       3.646   2.020  -6.319  1.00  0.00    -0.053 C 
ATOM     31  C   UNL     1       3.323   4.504  -6.116  1.00  0.00    -0.009 C 
ATOM     32  C   UNL     1       3.994   3.148  -4.166  1.00  0.00     0.024 C 
ATOM     33  C   UNL     1       4.680   2.240  -7.152  1.00  0.00     0.052 C 
ATOM     34  C   UNL     1       4.335   4.723  -6.969  1.00  0.00     0.048 C 
ATOM     35  C   UNL     1       5.229   3.604  -7.335  1.00  0.00     0.178 C 
ATOM     36  O   UNL     1       6.345   3.782  -7.802  1.00  0.00    -0.290 OA
BRANCH  24  37
ATOM     37  O   UNL     1       1.597   3.567  -2.663  1.00  0.00    -0.390 OA
ATOM     38  H   UNL     1       1.294   2.689  -2.384  1.00  0.00     0.211 HD
ENDBRANCH  24  37
ENDBRANCH   9  11
ENDBRANCH   8   9
ENDBRANCH   7   8
ENDBRANCH   6   7
ENDBRANCH   5   6
ENDBRANCH   4   5
ENDBRANCH   3   4
ENDBRANCH   2   3
ENDBRANCH   1   2
BRANCH   1  39
ATOM     39  C   UNL     1      -6.895   3.536  -1.898  1.00  0.00     0.188 C 
BRANCH  39  40
ATOM     40  O   UNL     1      -7.509   2.292  -2.250  1.00  0.00    -0.376 OA
BRANCH  40  41
ATOM     41  C   UNL     1      -7.004   1.579  -3.378  1.00  0.00     0.202 C 
BRANCH  41  42
ATOM     42  C   UNL     1      -7.544   2.026  -4.735  1.00  0.00     0.261 C 
BRANCH  42  43
ATOM     43  O   UNL     1      -7.106   3.345  -5.088  1.00  0.00    -0.460 OA
BRANCH  43  44
ATOM     44  C   UNL     1      -7.996   4.327  -4.803  1.00  0.00     0.338 C 
ATOM     45  O   UNL     1      -9.093   4.205  -4.294  1.00  0.00    -0.246 OA
BRANCH  44  46
ATOM     46  C   UNL     1      -7.382   5.636  -5.079  1.00  0.00     0.060 A 
ATOM     47  C   UNL     1      -7.458   6.625  -4.089  1.00  0.00     0.016 A 
ATOM     48  C   UNL     1      -6.855   5.920  -6.340  1.00  0.00     0.016 A 
ATOM     49  C   UNL     1      -7.079   7.928  -4.384  1.00  0.00     0.010 A 
ATOM     50  C   UNL     1      -6.486   7.230  -6.638  1.00  0.00     0.010 A 
ATOM     51  C   UNL     1      -6.655   8.244  -5.679  1.00  0.00    -0.014 A 
BRANCH  51  52
ATOM     52  C   UNL     1      -6.612   9.661  -6.096  1.00  0.00     0.031 A 
ATOM     53  C   UNL     1      -7.771  10.204  -6.885  1.00  0.00     0.074 A 
ATOM     54  C   UNL     1      -5.570  10.441  -5.768  1.00  0.00     0.049 A 
ATOM     55  N   UNL     1      -7.934  11.389  -7.408  1.00  0.00    -0.248 NA
ATOM     56  C   UNL     1      -8.897   9.283  -7.123  1.00  0.00     0.031 C 
ATOM     57  C   UNL     1      -4.410  10.015  -4.988  1.00  0.00     0.029 A 
ATOM     58  N   UNL     1      -5.312  11.750  -6.078  1.00  0.00    -0.354 N 
ATOM     59  C   UNL     1      -9.156  11.346  -8.067  1.00  0.00     0.074 A 
ATOM     60  C   UNL     1      -9.691  10.015  -7.889  1.00  0.00     0.031 C 
ATOM     61  C   UNL     1      -3.543  11.039  -4.907  1.00  0.00     0.029 A 
ATOM     62  C   UNL     1      -4.075  12.175  -5.656  1.00  0.00     0.049 A 
ATOM     63  H   UNL     1      -5.949  12.329  -6.555  1.00  0.00     0.167 HD
ATOM     64  C   UNL     1      -9.781  12.332  -8.752  1.00  0.00     0.034 A 
ATOM     65  C   UNL     1      -3.439  13.340  -5.883  1.00  0.00     0.034 A 
ATOM     66  C   UNL     1      -9.244  13.655  -8.908  1.00  0.00     0.049 A 
ATOM     67  C   UNL     1      -4.143  14.412  -6.673  1.00  0.00     0.074 A 
ATOM     68  C   UNL     1      -9.809  14.744  -9.545  1.00  0.00     0.029 A 
ATOM     69  N   UNL     1      -8.006  14.064  -8.436  1.00  0.00    -0.354 N 
ATOM     70  N   UNL     1      -5.340  14.392  -7.210  1.00  0.00    -0.248 NA
ATOM     71  C   UNL     1      -3.422  15.678  -6.862  1.00  0.00     0.031 C 
ATOM     72  C   UNL     1      -8.895  15.800  -9.492  1.00  0.00     0.029 A 
ATOM     73  C   UNL     1      -7.781  15.384  -8.779  1.00  0.00     0.049 A 
ATOM     74  H   UNL     1      -7.379  13.497  -7.930  1.00  0.00     0.167 HD
ATOM     75  C   UNL     1      -5.533  15.654  -7.761  1.00  0.00     0.074 A 
ATOM     76  C   UNL     1      -4.334  16.417  -7.479  1.00  0.00     0.031 C 
ATOM     77  C   UNL     1      -6.600  16.138  -8.444  1.00  0.00     0.034 A 
BRANCH  64  78
ATOM     78  C   UNL     1     -11.113  12.014  -9.380  1.00  0.00     0.023 A 
ATOM     79  C   UNL     1     -12.248  11.815  -8.568  1.00  0.00     0.012 A 
ATOM     80  C   UNL     1     -11.248  11.955 -10.781  1.00  0.00     0.148 A 
ATOM     81  C   UNL     1     -13.488  11.526  -9.139  1.00  0.00     0.002 A 
ATOM     82  C   UNL     1     -12.495  11.716 -11.344  1.00  0.00     0.091 A 
ATOM     83  F   UNL     1     -10.153  12.123 -11.536  1.00  0.00    -0.205 F 
ATOM     84  C   UNL     1     -13.613  11.488 -10.525  1.00  0.00     0.022 A 
BRANCH  82  85
ATOM     85  S   UNL     1     -12.777  11.726 -13.118  1.00  0.00     0.127 S 
ATOM     86  O   UNL     1     -13.082  10.320 -13.376  1.00  0.00    -0.237 OA
ATOM     87  O   UNL     1     -13.920  12.631 -13.240  1.00  0.00    -0.237 OA
ATOM     88  O   UNL     1     -11.545  12.216 -13.719  1.00  0.00    -0.744 OA
ENDBRANCH  82  85
ENDBRANCH  64  78
BRANCH  65  89
ATOM     89  C   UNL     1      -2.071  13.559  -5.337  1.00  0.00     0.023 A 
ATOM     90  C   UNL     1      -1.870  14.507  -4.315  1.00  0.00     0.012 A 
ATOM     91  C   UNL     1      -0.971  12.821  -5.816  1.00  0.00     0.148 A 
ATOM     92  C   UNL     1      -0.592  14.741  -3.805  1.00  0.00     0.002 A 
ATOM     93  C   UNL     1       0.288  13.017  -5.264  1.00  0.00     0.091 A 
ATOM     94  F   UNL     1      -1.183  11.931  -6.796  1.00  0.00    -0.205 F 
ATOM     95  C   UNL     1       0.484  13.990  -4.272  1.00  0.00     0.022 A 
BRANCH  93  96
ATOM     96  S   UNL     1       1.704  12.007  -5.710  1.00  0.00     0.127 S 
ATOM     97  O   UNL     1       2.554  12.973  -6.402  1.00  0.00    -0.237 OA
ATOM     98  O   UNL     1       2.192  11.581  -4.399  1.00  0.00    -0.237 OA
ATOM     99  O   UNL     1       1.176  10.927  -6.533  1.00  0.00    -0.744 OA
ENDBRANCH  93  96
ENDBRANCH  65  89
BRANCH  77 100
ATOM    100  C   UNL     1      -6.551  17.578  -8.887  1.00  0.00     0.023 A 
ATOM    101  C   UNL     1      -5.691  17.971  -9.931  1.00  0.00     0.012 A 
ATOM    102  C   UNL     1      -7.419  18.526  -8.311  1.00  0.00     0.148 A 
ATOM    103  C   UNL     1      -5.669  19.294 -10.368  1.00  0.00     0.002 A 
ATOM    104  C   UNL     1      -7.432  19.830  -8.790  1.00  0.00     0.091 A 
ATOM    105  F   UNL     1      -8.219  18.135  -7.308  1.00  0.00    -0.205 F 
ATOM    106  C   UNL     1      -6.547  20.220  -9.808  1.00  0.00     0.022 A 
BRANCH 104 107
ATOM    107  S   UNL     1      -8.600  21.060  -8.201  1.00  0.00     0.127 S 
ATOM    108  O   UNL     1      -7.728  21.963  -7.452  1.00  0.00    -0.237 OA
ATOM    109  O   UNL     1      -9.122  21.613  -9.451  1.00  0.00    -0.237 OA
ATOM    110  O   UNL     1      -9.580  20.337  -7.403  1.00  0.00    -0.744 OA
ENDBRANCH 104 107
ENDBRANCH  77 100
ENDBRANCH  51  52
ENDBRANCH  44  46
ENDBRANCH  43  44
ENDBRANCH  42  43
ENDBRANCH  41  42
ENDBRANCH  40  41
ENDBRANCH  39  40
ENDBRANCH   1  39
TORSDOF 24
