REMARK SMILES Cc1ccc(NC(=O)C[C@@H](C(=O)OCCOCCOCCOCCOC(=O)c2ccc(-c3c4nc(c(-c5cccc(S(=O)(=O)[O-])c5F)c5ccc([nH]5)c(-c5cccc(S(=O)(=O)[O-])c5F)c5nc(c(-c6cccc(S(=O)(=O)[O-])c6F)c6ccc3[nH]6)C=C5)C=C4)cc2)[NH+]2CCOCC2)cc1
REMARK SMILES IDX 19 1 18 2 17 3 16 4 15 5 14 6 13 7 11 8 12 9 10 10 9 11 7 12
REMARK SMILES IDX 6 13 8 15 5 16 1 17 2 18 3 19 98 20 4 21 97 22 91 23 92 24
REMARK SMILES IDX 96 25 93 27 95 28 94 29 20 30 21 31 22 32 23 33 24 34 25 35
REMARK SMILES IDX 26 36 27 37 28 38 29 39 90 40 30 41 89 42 31 43 32 44 33 45
REMARK SMILES IDX 83 46 34 47 88 48 82 49 84 50 35 51 87 52 81 53 80 54 36 56
REMARK SMILES IDX 68 57 48 58 67 59 49 60 52 61 66 62 85 63 50 64 51 65 65 67
REMARK SMILES IDX 86 68 53 69 37 70 38 71 46 72 39 73 41 74 47 75 40 76 42 77
REMARK SMILES IDX 43 78 44 79 45 80 69 81 70 82 78 83 71 84 73 85 79 86 72 87
REMARK SMILES IDX 74 88 75 89 76 90 77 91 54 92 55 93 63 94 56 95 58 96 64 97
REMARK SMILES IDX 57 98 59 99 60 100 61 101 62 102
REMARK H PARENT 6 14 91 26 84 55 52 66
REMARK Flexibility Score: inf
ROOT
ATOM      1  O   UNL     1      -2.205  -2.138   3.441  1.00  0.00    -0.377 OA
ENDROOT
BRANCH   1   2
ATOM      2  C   UNL     1      -1.258  -2.771   2.567  1.00  0.00     0.188 C 
BRANCH   2   3
ATOM      3  C   UNL     1       0.183  -2.179   2.083  1.00  0.00     0.188 C 
BRANCH   3   4
ATOM      4  O   UNL     1       0.376  -1.009   0.629  1.00  0.00    -0.376 OA
BRANCH   4   5
ATOM      5  C   UNL     1       0.437  -1.450  -1.351  1.00  0.00     0.202 C 
BRANCH   5   6
ATOM      6  C   UNL     1      -0.089  -1.597  -2.836  1.00  0.00     0.261 C 
BRANCH   6   7
ATOM      7  O   UNL     1      -1.217  -2.362  -3.136  1.00  0.00    -0.459 OA
BRANCH   7   8
ATOM      8  C   UNL     1      -1.244  -3.341  -2.252  1.00  0.00     0.365 C 
ATOM      9  O   UNL     1      -0.233  -3.936  -1.898  1.00  0.00    -0.245 OA
BRANCH   8  10
ATOM     10  C   UNL     1      -2.683  -3.711  -2.006  1.00  0.00     0.304 C 
BRANCH  10  11
ATOM     11  C   UNL     1      -3.250  -3.435  -0.570  1.00  0.00     0.177 C 
BRANCH  11  12
ATOM     12  C   UNL     1      -3.631  -2.056   0.093  1.00  0.00     0.231 C 
ATOM     13  N   UNL     1      -2.815  -1.055   0.553  1.00  0.00    -0.326 N 
ATOM     14  H   UNL     1      -3.316  -0.329   0.992  1.00  0.00     0.169 HD
ATOM     15  O   UNL     1      -4.846  -1.853   0.300  1.00  0.00    -0.274 OA
BRANCH  13  16
ATOM     16  C   UNL     1      -1.396  -0.821   0.544  1.00  0.00     0.041 A 
ATOM     17  C   UNL     1       3.687  -0.075   0.086  1.00  0.00     0.044 C 
ATOM     18  C   UNL     1       2.137  -0.100   0.075  1.00  0.00    -0.051 A 
ATOM     19  C   UNL     1       1.623  -2.002   0.051  1.00  0.00     0.005 A 
ATOM     20  C   UNL     1       1.126   1.606   0.354  1.00  0.00     0.005 A 
ATOM     21  C   UNL     1      -0.327  -2.419   0.126  1.00  0.00     0.026 A 
ATOM     22  C   UNL     1      -0.789   1.040   0.829  1.00  0.00     0.026 A 
ENDBRANCH  13  16
ENDBRANCH  11  12
ENDBRANCH  10  11
BRANCH  10  23
ATOM     23  N   UNL     1      -2.712  -5.125  -2.517  1.00  0.00    -0.319 N 
ATOM     24  C   UNL     1      -1.909  -5.216  -3.810  1.00  0.00     0.291 C 
ATOM     25  C   UNL     1      -2.044  -6.077  -1.597  1.00  0.00     0.291 C 
ATOM     26  H   UNL     1      -3.698  -5.362  -2.628  1.00  0.00     0.348 HD
ATOM     27  C   UNL     1      -2.069  -6.586  -4.419  1.00  0.00     0.221 C 
ATOM     28  C   UNL     1      -2.157  -7.474  -2.205  1.00  0.00     0.221 C 
ATOM     29  O   UNL     1      -1.579  -7.589  -3.516  1.00  0.00    -0.370 OA
ENDBRANCH  10  23
ENDBRANCH   8  10
ENDBRANCH   7   8
ENDBRANCH   6   7
ENDBRANCH   5   6
ENDBRANCH   4   5
ENDBRANCH   3   4
ENDBRANCH   2   3
ENDBRANCH   1   2
BRANCH   1  30
ATOM     30  C   UNL     1      -2.297  -0.725   3.394  1.00  0.00     0.188 C 
BRANCH  30  31
ATOM     31  C   UNL     1      -1.550  -0.114   4.524  1.00  0.00     0.188 C 
BRANCH  31  32
ATOM     32  O   UNL     1      -0.289  -0.742   4.478  1.00  0.00    -0.376 OA
BRANCH  32  33
ATOM     33  C   UNL     1       0.016  -1.784   5.373  1.00  0.00     0.202 C 
BRANCH  33  34
ATOM     34  C   UNL     1       0.203  -1.130   6.712  1.00  0.00     0.261 C 
BRANCH  34  35
ATOM     35  O   UNL     1       1.369  -0.254   6.606  1.00  0.00    -0.460 OA
BRANCH  35  36
ATOM     36  C   UNL     1       1.167   0.990   6.065  1.00  0.00     0.338 C 
ATOM     37  O   UNL     1       0.615   1.887   6.689  1.00  0.00    -0.246 OA
BRANCH  36  38
ATOM     38  C   UNL     1       1.567   1.107   4.607  1.00  0.00     0.060 A 
ATOM     39  C   UNL     1       0.951   2.091   3.887  1.00  0.00     0.016 A 
ATOM     40  C   UNL     1       2.187   0.099   3.865  1.00  0.00     0.016 A 
ATOM     41  C   UNL     1       0.567   1.778   2.564  1.00  0.00     0.010 A 
ATOM     42  C   UNL     1       1.869  -0.156   2.461  1.00  0.00     0.010 A 
ATOM     43  C   UNL     1       0.786   0.447   1.603  1.00  0.00    -0.014 A 
BRANCH  43  44
ATOM     44  C   UNL     1       0.200   0.469  -0.553  1.00  0.00     0.031 A 
ATOM     45  C   UNL     1       1.317   1.097  -1.941  1.00  0.00     0.074 A 
ATOM     46  C   UNL     1      -1.155   0.931  -1.348  1.00  0.00     0.049 A 
ATOM     47  N   UNL     1       1.168   0.721  -3.189  1.00  0.00    -0.248 NA
ATOM     48  C   UNL     1       2.717   1.644  -1.892  1.00  0.00     0.031 C 
ATOM     49  C   UNL     1      -2.229  -0.063  -1.954  1.00  0.00     0.029 A 
ATOM     50  N   UNL     1      -2.184   1.839  -0.951  1.00  0.00    -0.354 N 
ATOM     51  C   UNL     1       2.424   0.307  -3.712  1.00  0.00     0.074 A 
ATOM     52  C   UNL     1       3.362   0.990  -2.879  1.00  0.00     0.031 C 
ATOM     53  C   UNL     1      -3.515   0.271  -1.918  1.00  0.00     0.029 A 
ATOM     54  C   UNL     1      -3.497   1.532  -1.312  1.00  0.00     0.049 A 
ATOM     55  H   UNL     1      -1.975   2.654  -0.439  1.00  0.00     0.167 HD
ATOM     56  C   UNL     1       2.472  -0.677  -4.689  1.00  0.00     0.034 A 
ATOM     57  C   UNL     1      -4.388   2.447  -1.691  1.00  0.00     0.034 A 
ATOM     58  C   UNL     1       1.110  -0.767  -5.353  1.00  0.00     0.049 A 
ATOM     59  C   UNL     1      -3.793   2.649  -3.169  1.00  0.00     0.074 A 
ATOM     60  C   UNL     1       0.201  -1.751  -5.735  1.00  0.00     0.029 A 
ATOM     61  N   UNL     1       0.373   0.425  -5.480  1.00  0.00    -0.354 N 
ATOM     62  N   UNL     1      -2.814   1.917  -3.732  1.00  0.00    -0.248 NA
ATOM     63  C   UNL     1      -4.501   3.375  -4.209  1.00  0.00     0.031 C 
ATOM     64  C   UNL     1      -1.107  -1.135  -5.867  1.00  0.00     0.029 A 
ATOM     65  C   UNL     1      -0.998   0.240  -5.643  1.00  0.00     0.049 A 
ATOM     66  H   UNL     1       0.792   1.316  -5.455  1.00  0.00     0.167 HD
ATOM     67  C   UNL     1      -2.742   2.033  -5.098  1.00  0.00     0.074 A 
ATOM     68  C   UNL     1      -3.882   2.933  -5.326  1.00  0.00     0.031 C 
ATOM     69  C   UNL     1      -1.831   1.425  -5.971  1.00  0.00     0.034 A 
BRANCH  56  70
ATOM     70  C   UNL     1       3.656  -1.718  -5.008  1.00  0.00     0.023 A 
ATOM     71  C   UNL     1       3.335  -2.790  -5.890  1.00  0.00     0.012 A 
ATOM     72  C   UNL     1       5.002  -1.795  -4.510  1.00  0.00     0.148 A 
ATOM     73  C   UNL     1       4.216  -3.822  -6.278  1.00  0.00     0.002 A 
ATOM     74  C   UNL     1       5.916  -2.812  -4.945  1.00  0.00     0.091 A 
ATOM     75  F   UNL     1       5.416  -0.908  -3.596  1.00  0.00    -0.205 F 
ATOM     76  C   UNL     1       5.516  -3.821  -5.827  1.00  0.00     0.022 A 
BRANCH  74  77
ATOM     77  S   UNL     1       7.669  -2.948  -4.462  1.00  0.00     0.127 S 
ATOM     78  O   UNL     1       7.790  -4.358  -4.075  1.00  0.00    -0.237 OA
ATOM     79  O   UNL     1       8.365  -2.617  -5.705  1.00  0.00    -0.237 OA
ATOM     80  O   UNL     1       7.860  -2.009  -3.366  1.00  0.00    -0.744 OA
ENDBRANCH  74  77
ENDBRANCH  56  70
BRANCH  57  81
ATOM     81  C   UNL     1      -4.694   3.019  -0.285  1.00  0.00     0.023 A 
ATOM     82  C   UNL     1      -5.357   2.069   0.605  1.00  0.00     0.012 A 
ATOM     83  C   UNL     1      -3.893   3.973   0.369  1.00  0.00     0.148 A 
ATOM     84  C   UNL     1      -5.048   1.942   1.978  1.00  0.00     0.002 A 
ATOM     85  C   UNL     1      -3.578   3.826   1.746  1.00  0.00     0.091 A 
ATOM     86  F   UNL     1      -3.295   4.907  -0.379  1.00  0.00    -0.205 F 
ATOM     87  C   UNL     1      -4.117   2.795   2.537  1.00  0.00     0.022 A 
BRANCH  85  88
ATOM     88  S   UNL     1      -2.228   4.773   2.487  1.00  0.00     0.127 S 
ATOM     89  O   UNL     1      -2.917   5.965   2.962  1.00  0.00    -0.237 OA
ATOM     90  O   UNL     1      -1.748   3.879   3.541  1.00  0.00    -0.237 OA
ATOM     91  O   UNL     1      -1.288   4.937   1.387  1.00  0.00    -0.744 OA
ENDBRANCH  85  88
ENDBRANCH  57  81
BRANCH  69  92
ATOM     92  C   UNL     1      -1.445   2.041  -7.341  1.00  0.00     0.023 A 
ATOM     93  C   UNL     1      -2.001   3.241  -7.789  1.00  0.00     0.012 A 
ATOM     94  C   UNL     1      -0.344   1.553  -8.121  1.00  0.00     0.148 A 
ATOM     95  C   UNL     1      -1.501   3.939  -8.886  1.00  0.00     0.002 A 
ATOM     96  C   UNL     1       0.244   2.321  -9.115  1.00  0.00     0.091 A 
ATOM     97  F   UNL     1       0.129   0.311  -7.963  1.00  0.00    -0.205 F 
ATOM     98  C   UNL     1      -0.345   3.514  -9.512  1.00  0.00     0.022 A 
BRANCH  96  99
ATOM     99  S   UNL     1       1.819   1.869  -9.857  1.00  0.00     0.127 S 
ATOM    100  O   UNL     1       1.385   1.256 -11.110  1.00  0.00    -0.237 OA
ATOM    101  O   UNL     1       2.471   3.172 -10.007  1.00  0.00    -0.237 OA
ATOM    102  O   UNL     1       2.468   0.986  -8.899  1.00  0.00    -0.744 OA
ENDBRANCH  96  99
ENDBRANCH  69  92
ENDBRANCH  43  44
ENDBRANCH  36  38
ENDBRANCH  35  36
ENDBRANCH  34  35
ENDBRANCH  33  34
ENDBRANCH  32  33
ENDBRANCH  31  32
ENDBRANCH  30  31
ENDBRANCH   1  30
TORSDOF 27
