REMARK SMILES C[C@@]1(C(=O)OCCOCCOCCOCCOC(=O)c2ccc(-c3c4nc(c(-c5cccc(S(=O)(=O)[O-])c5F)c5ccc([nH]5)c(-c5cccc(S(=O)(=O)[O-])c5F)c5nc(c(-c6cccc(S(=O)(=O)[O-])c6F)c6ccc3[nH]6)C=C5)C=C4)cc2)CCCN1c1ncnc2c1CCCCC2
REMARK SMILES IDX 10 1 9 2 8 3 7 4 6 5 5 6 3 7 4 8 2 9 1 10 83 11 86 12 84 13
REMARK SMILES IDX 85 14 87 15 88 16 92 17 89 18 91 19 90 20 93 21 94 22 95 23
REMARK SMILES IDX 97 25 96 26 11 28 12 29 13 30 14 31 15 32 16 33 17 34 18 35
REMARK SMILES IDX 19 36 20 37 21 38 82 39 22 40 81 41 23 42 24 43 25 44 75 45
REMARK SMILES IDX 26 46 80 47 74 48 76 49 27 50 79 51 73 52 72 53 28 55 60 56
REMARK SMILES IDX 40 57 59 58 41 59 44 60 58 61 77 62 42 63 43 64 57 66 78 67
REMARK SMILES IDX 45 68 29 69 30 70 38 71 31 72 33 73 39 74 32 75 34 76 35 77
REMARK SMILES IDX 36 78 37 79 61 80 62 81 70 82 63 83 65 84 71 85 64 86 66 87
REMARK SMILES IDX 67 88 68 89 69 90 46 91 47 92 55 93 48 94 50 95 56 96 49 97
REMARK SMILES IDX 51 98 52 99 53 100 54 101
REMARK H PARENT 76 54 44 65
REMARK Flexibility Score: 80.00
ROOT
ATOM      1  C   UNL     1      -3.300   0.611   2.026  1.00  0.00     0.188 C 
ENDROOT
BRANCH   1   2
ATOM      2  C   UNL     1      -2.984  -0.093   0.684  1.00  0.00     0.188 C 
BRANCH   2   3
ATOM      3  O   UNL     1      -3.337  -1.472   0.609  1.00  0.00    -0.376 OA
BRANCH   3   4
ATOM      4  C   UNL     1      -3.255  -2.193   1.827  1.00  0.00     0.202 C 
BRANCH   4   5
ATOM      5  C   UNL     1      -1.863  -2.268   2.489  1.00  0.00     0.261 C 
BRANCH   5   6
ATOM      6  O   UNL     1      -1.018  -1.087   2.379  1.00  0.00    -0.461 OA
BRANCH   6   7
ATOM      7  C   UNL     1      -0.117  -1.097   1.347  1.00  0.00     0.331 C 
ATOM      8  O   UNL     1      -0.047  -2.050   0.569  1.00  0.00    -0.249 OA
BRANCH   7   9
ATOM      9  C   UNL     1       0.895   0.118   1.288  1.00  0.00     0.136 C 
ATOM     10  C   UNL     1       1.537   0.050  -0.112  1.00  0.00     0.047 C 
ATOM     11  C   UNL     1       1.936  -0.192   2.386  1.00  0.00     0.042 C 
ATOM     12  N   UNL     1       0.365   1.523   1.665  1.00  0.00    -0.340 N 
ATOM     13  C   UNL     1       1.385   0.535   3.600  1.00  0.00     0.025 C 
ATOM     14  C   UNL     1       0.900   1.852   3.013  1.00  0.00     0.119 C 
BRANCH  12  15
ATOM     15  C   UNL     1       0.584   2.653   0.831  1.00  0.00     0.136 A 
ATOM     16  N   UNL     1       1.840   2.872   0.396  1.00  0.00    -0.219 NA
ATOM     17  C   UNL     1      -0.429   3.586   0.492  1.00  0.00     0.016 A 
ATOM     18  C   UNL     1       2.082   3.902  -0.446  1.00  0.00     0.224 A 
ATOM     19  C   UNL     1      -0.070   4.610  -0.617  1.00  0.00     0.049 A 
ATOM     20  N   UNL     1       1.203   4.739  -1.022  1.00  0.00    -0.241 NA
BRANCH  17  21
ATOM     21  C   UNL     1      -1.925   3.362   1.375  1.00  0.00     0.041 C 
BRANCH  21  22
ATOM     22  C   UNL     1      -3.573   4.338   1.277  1.00  0.00     0.005 C 
BRANCH  22  23
ATOM     23  C   UNL     1      -4.103   5.516  -0.161  1.00  0.00     0.001 CG0
ATOM     24  G   UNL     1      -2.836   6.310  -1.327  1.00  0.00     0.000 G0
ENDBRANCH  22  23
ENDBRANCH  21  22
ENDBRANCH  17  21
BRANCH  19  25
ATOM     25  C   UNL     1      -1.120   5.637  -1.635  1.00  0.00     0.057 C 
BRANCH  25  26
ATOM     26  C   UNL     1      -2.836   6.310  -1.327  1.00  0.00     0.006 CG0
ATOM     27  G   UNL     1      -4.103   5.516  -0.161  1.00  0.00     0.000 G0
ENDBRANCH  25  26
ENDBRANCH  19  25
ENDBRANCH  12  15
ENDBRANCH   7   9
ENDBRANCH   6   7
ENDBRANCH   5   6
ENDBRANCH   4   5
ENDBRANCH   3   4
ENDBRANCH   2   3
ENDBRANCH   1   2
BRANCH   1  28
ATOM     28  O   UNL     1      -4.255   1.662   1.986  1.00  0.00    -0.377 OA
BRANCH  28  29
ATOM     29  C   UNL     1      -5.178   1.654   0.903  1.00  0.00     0.188 C 
BRANCH  29  30
ATOM     30  C   UNL     1      -4.718   2.455  -0.380  1.00  0.00     0.188 C 
BRANCH  30  31
ATOM     31  O   UNL     1      -3.306   2.734  -0.436  1.00  0.00    -0.376 OA
BRANCH  31  32
ATOM     32  C   UNL     1      -2.594   4.066  -0.694  1.00  0.00     0.202 C 
BRANCH  32  33
ATOM     33  C   UNL     1      -1.965   5.542   0.620  1.00  0.00     0.261 C 
BRANCH  33  34
ATOM     34  O   UNL     1      -2.836   6.818   1.211  1.00  0.00    -0.460 OA
BRANCH  34  35
ATOM     35  C   UNL     1      -3.738   7.290   2.118  1.00  0.00     0.338 C 
ATOM     36  O   UNL     1      -4.279   8.377   1.905  1.00  0.00    -0.246 OA
BRANCH  35  37
ATOM     37  C   UNL     1      -4.215   6.591   3.352  1.00  0.00     0.060 A 
ATOM     38  C   UNL     1      -5.388   5.800   3.351  1.00  0.00     0.016 A 
ATOM     39  C   UNL     1      -3.654   6.953   4.575  1.00  0.00     0.016 A 
ATOM     40  C   UNL     1      -5.978   5.367   4.551  1.00  0.00     0.010 A 
ATOM     41  C   UNL     1      -4.273   6.567   5.774  1.00  0.00     0.010 A 
ATOM     42  C   UNL     1      -5.462   5.811   5.772  1.00  0.00    -0.014 A 
BRANCH  42  43
ATOM     43  C   UNL     1      -6.281   5.764   7.018  1.00  0.00     0.031 A 
ATOM     44  C   UNL     1      -7.115   6.979   7.351  1.00  0.00     0.074 A 
ATOM     45  C   UNL     1      -6.239   4.724   7.871  1.00  0.00     0.049 A 
ATOM     46  N   UNL     1      -7.748   7.286   8.453  1.00  0.00    -0.248 NA
ATOM     47  C   UNL     1      -7.239   7.994   6.289  1.00  0.00     0.031 C 
ATOM     48  C   UNL     1      -5.513   3.476   7.649  1.00  0.00     0.029 A 
ATOM     49  N   UNL     1      -6.788   4.574   9.124  1.00  0.00    -0.354 N 
ATOM     50  C   UNL     1      -8.307   8.543   8.234  1.00  0.00     0.074 A 
ATOM     51  C   UNL     1      -7.945   8.938   6.892  1.00  0.00     0.031 C 
ATOM     52  C   UNL     1      -5.614   2.710   8.750  1.00  0.00     0.029 A 
ATOM     53  C   UNL     1      -6.379   3.428   9.769  1.00  0.00     0.049 A 
ATOM     54  H   UNL     1      -7.413   5.223   9.521  1.00  0.00     0.167 HD
ATOM     55  C   UNL     1      -9.053   9.301   9.073  1.00  0.00     0.034 A 
ATOM     56  C   UNL     1      -6.564   3.029  11.046  1.00  0.00     0.034 A 
ATOM     57  C   UNL     1      -9.408   8.900  10.408  1.00  0.00     0.049 A 
ATOM     58  C   UNL     1      -7.362   3.908  11.979  1.00  0.00     0.074 A 
ATOM     59  C   UNL     1     -10.165   9.583  11.343  1.00  0.00     0.029 A 
ATOM     60  N   UNL     1      -9.021   7.707  11.000  1.00  0.00    -0.354 N 
ATOM     61  N   UNL     1      -7.938   5.062  11.739  1.00  0.00    -0.248 NA
ATOM     62  C   UNL     1      -7.560   3.418  13.352  1.00  0.00     0.031 C 
ATOM     63  C   UNL     1     -10.216   8.812  12.509  1.00  0.00     0.029 A 
ATOM     64  C   UNL     1      -9.520   7.633  12.288  1.00  0.00     0.049 A 
ATOM     65  H   UNL     1      -8.471   7.015  10.568  1.00  0.00     0.167 HD
ATOM     66  C   UNL     1      -8.598   5.415  12.912  1.00  0.00     0.074 A 
ATOM     67  C   UNL     1      -8.364   4.343  13.858  1.00  0.00     0.031 C 
ATOM     68  C   UNL     1      -9.321   6.529  13.191  1.00  0.00     0.034 A 
BRANCH  55  69
ATOM     69  C   UNL     1      -9.544  10.636   8.567  1.00  0.00     0.023 A 
ATOM     70  C   UNL     1     -10.557  10.681   7.587  1.00  0.00     0.012 A 
ATOM     71  C   UNL     1      -9.036  11.844   9.087  1.00  0.00     0.148 A 
ATOM     72  C   UNL     1     -11.031  11.903   7.108  1.00  0.00     0.002 A 
ATOM     73  C   UNL     1      -9.545  13.058   8.636  1.00  0.00     0.091 A 
ATOM     74  F   UNL     1      -8.062  11.785  10.006  1.00  0.00    -0.205 F 
ATOM     75  C   UNL     1     -10.533  13.089   7.638  1.00  0.00     0.022 A 
BRANCH  73  76
ATOM     76  S   UNL     1      -9.025  14.642   9.309  1.00  0.00     0.127 S 
ATOM     77  O   UNL     1      -8.319  15.229   8.169  1.00  0.00    -0.237 OA
ATOM     78  O   UNL     1     -10.307  15.277   9.621  1.00  0.00    -0.237 OA
ATOM     79  O   UNL     1      -8.197  14.339  10.464  1.00  0.00    -0.744 OA
ENDBRANCH  73  76
ENDBRANCH  55  69
BRANCH  56  80
ATOM     80  C   UNL     1      -5.999   1.729  11.521  1.00  0.00     0.023 A 
ATOM     81  C   UNL     1      -6.870   0.677  11.868  1.00  0.00     0.012 A 
ATOM     82  C   UNL     1      -4.608   1.524  11.625  1.00  0.00     0.148 A 
ATOM     83  C   UNL     1      -6.371  -0.541  12.335  1.00  0.00     0.002 A 
ATOM     84  C   UNL     1      -4.116   0.288  12.033  1.00  0.00     0.091 A 
ATOM     85  F   UNL     1      -3.791   2.541  11.319  1.00  0.00    -0.205 F 
ATOM     86  C   UNL     1      -4.995  -0.740  12.405  1.00  0.00     0.022 A 
BRANCH  84  87
ATOM     87  S   UNL     1      -2.361  -0.100  12.019  1.00  0.00     0.127 S 
ATOM     88  O   UNL     1      -2.050  -0.134  13.448  1.00  0.00    -0.237 OA
ATOM     89  O   UNL     1      -2.344  -1.405  11.356  1.00  0.00    -0.237 OA
ATOM     90  O   UNL     1      -1.729   0.965  11.257  1.00  0.00    -0.744 OA
ENDBRANCH  84  87
ENDBRANCH  56  80
BRANCH  68  91
ATOM     91  C   UNL     1      -9.960   6.623  14.552  1.00  0.00     0.023 A 
ATOM     92  C   UNL     1      -9.167   6.867  15.690  1.00  0.00     0.012 A 
ATOM     93  C   UNL     1     -11.360   6.536  14.690  1.00  0.00     0.148 A 
ATOM     94  C   UNL     1      -9.753   6.985  16.950  1.00  0.00     0.002 A 
ATOM     95  C   UNL     1     -11.942   6.706  15.941  1.00  0.00     0.091 A 
ATOM     96  F   UNL     1     -12.097   6.287  13.598  1.00  0.00    -0.205 F 
ATOM     97  C   UNL     1     -11.139   6.916  17.074  1.00  0.00     0.022 A 
BRANCH  95  98
ATOM     98  S   UNL     1     -13.722   6.731  16.178  1.00  0.00     0.127 S 
ATOM     99  O   UNL     1     -13.952   5.447  16.840  1.00  0.00    -0.237 OA
ATOM    100  O   UNL     1     -13.904   7.901  17.038  1.00  0.00    -0.237 OA
ATOM    101  O   UNL     1     -14.303   6.862  14.849  1.00  0.00    -0.744 OA
ENDBRANCH  95  98
ENDBRANCH  68  91
ENDBRANCH  42  43
ENDBRANCH  35  37
ENDBRANCH  34  35
ENDBRANCH  33  34
ENDBRANCH  32  33
ENDBRANCH  31  32
ENDBRANCH  30  31
ENDBRANCH  29  30
ENDBRANCH  28  29
ENDBRANCH   1  28
TORSDOF 24
