REMARK SMILES O=C(OCCOCCOCCOCCOC(=O)[C@H]1C[NH2+]CCN1c1ncc(C(F)(F)F)cc1Cl)c1ccc(-c2c3nc(c(-c4cccc(S(=O)(=O)[O-])c4F)c4ccc([nH]4)c(-c4cccc(S(=O)(=O)[O-])c4F)c4nc(c(-c5cccc(S(=O)(=O)[O-])c5F)c5ccc2[nH]5)C=C4)C=C3)cc1
REMARK SMILES IDX 8 1 7 2 6 3 5 4 4 5 3 6 2 7 1 8 35 9 36 10 97 11 37 12 96 13
REMARK SMILES IDX 38 14 39 15 40 16 90 17 41 18 95 19 89 20 91 21 42 22 94 23
REMARK SMILES IDX 88 24 87 25 43 27 75 28 55 29 74 30 56 31 59 32 73 33 92 34
REMARK SMILES IDX 57 35 58 36 72 38 93 39 60 40 44 41 45 42 53 43 46 44 48 45
REMARK SMILES IDX 54 46 47 47 49 48 50 49 51 50 52 51 76 52 77 53 85 54 78 55
REMARK SMILES IDX 80 56 86 57 79 58 81 59 82 60 83 61 84 62 61 63 62 64 70 65
REMARK SMILES IDX 63 66 65 67 71 68 64 69 66 70 67 71 68 72 69 73 9 74 10 75
REMARK SMILES IDX 11 76 12 77 13 78 14 79 15 80 16 81 17 82 18 83 19 84 23 85
REMARK SMILES IDX 20 86 22 87 21 88 24 91 25 92 33 93 26 94 32 95 34 96 27 97
REMARK SMILES IDX 28 98 29 99 30 100 31 101
REMARK H PARENT 91 26 59 37 20 89 20 90
REMARK Flexibility Score: inf
ROOT
ATOM      1  C   UNL     1       6.962  -4.554   1.709  1.00  0.00     0.188 C 
ENDROOT
BRANCH   1   2
ATOM      2  C   UNL     1       7.942  -3.402   1.673  1.00  0.00     0.188 C 
BRANCH   2   3
ATOM      3  O   UNL     1       7.241  -2.257   1.247  1.00  0.00    -0.376 OA
BRANCH   3   4
ATOM      4  C   UNL     1       7.868  -1.279   0.446  1.00  0.00     0.202 C 
BRANCH   4   5
ATOM      5  C   UNL     1       9.211  -0.762   0.917  1.00  0.00     0.261 C 
BRANCH   5   6
ATOM      6  O   UNL     1       9.702  -1.231   2.186  1.00  0.00    -0.460 OA
BRANCH   6   7
ATOM      7  C   UNL     1       9.281  -1.158   3.464  1.00  0.00     0.338 C 
ATOM      8  O   UNL     1       9.943  -1.751   4.317  1.00  0.00    -0.246 OA
BRANCH   7   9
ATOM      9  C   UNL     1       8.096  -0.398   3.937  1.00  0.00     0.060 A 
ATOM     10  C   UNL     1       6.855  -0.350   3.308  1.00  0.00     0.016 A 
ATOM     11  C   UNL     1       8.203   0.191   5.204  1.00  0.00     0.016 A 
ATOM     12  C   UNL     1       5.780   0.335   3.830  1.00  0.00     0.010 A 
ATOM     13  C   UNL     1       7.117   0.857   5.770  1.00  0.00     0.010 A 
ATOM     14  C   UNL     1       5.920   0.959   5.051  1.00  0.00    -0.014 A 
BRANCH  14  15
ATOM     15  C   UNL     1       4.879   1.913   5.420  1.00  0.00     0.031 A 
ATOM     16  C   UNL     1       5.224   3.354   5.263  1.00  0.00     0.074 A 
ATOM     17  C   UNL     1       3.655   1.482   5.756  1.00  0.00     0.049 A 
ATOM     18  N   UNL     1       4.602   4.403   5.707  1.00  0.00    -0.248 NA
ATOM     19  C   UNL     1       6.455   3.651   4.502  1.00  0.00     0.031 C 
ATOM     20  C   UNL     1       3.213   0.085   5.737  1.00  0.00     0.029 A 
ATOM     21  N   UNL     1       2.565   2.178   6.194  1.00  0.00    -0.354 N 
ATOM     22  C   UNL     1       5.419   5.475   5.378  1.00  0.00     0.074 A 
ATOM     23  C   UNL     1       6.555   4.959   4.654  1.00  0.00     0.031 C 
ATOM     24  C   UNL     1       1.953   0.021   6.193  1.00  0.00     0.029 A 
ATOM     25  C   UNL     1       1.552   1.355   6.622  1.00  0.00     0.049 A 
ATOM     26  H   UNL     1       2.511   3.161   6.202  1.00  0.00     0.167 HD
ATOM     27  C   UNL     1       5.232   6.771   5.702  1.00  0.00     0.034 A 
ATOM     28  C   UNL     1       0.473   1.655   7.365  1.00  0.00     0.034 A 
ATOM     29  C   UNL     1       4.074   7.207   6.425  1.00  0.00     0.049 A 
ATOM     30  C   UNL     1       0.305   3.092   7.773  1.00  0.00     0.074 A 
ATOM     31  C   UNL     1       3.746   8.473   6.859  1.00  0.00     0.029 A 
ATOM     32  N   UNL     1       3.050   6.356   6.832  1.00  0.00    -0.354 N 
ATOM     33  N   UNL     1       1.086   4.115   7.507  1.00  0.00    -0.248 NA
ATOM     34  C   UNL     1      -0.880   3.427   8.566  1.00  0.00     0.031 C 
ATOM     35  C   UNL     1       2.543   8.378   7.568  1.00  0.00     0.029 A 
ATOM     36  C   UNL     1       2.092   7.064   7.524  1.00  0.00     0.049 A 
ATOM     37  H   UNL     1       3.016   5.389   6.651  1.00  0.00     0.167 HD
ATOM     38  C   UNL     1       0.472   5.225   8.067  1.00  0.00     0.074 A 
ATOM     39  C   UNL     1      -0.749   4.743   8.689  1.00  0.00     0.031 C 
ATOM     40  C   UNL     1       0.871   6.521   8.073  1.00  0.00     0.034 A 
BRANCH  27  41
ATOM     41  C   UNL     1       6.344   7.725   5.364  1.00  0.00     0.023 A 
ATOM     42  C   UNL     1       6.645   8.040   4.023  1.00  0.00     0.012 A 
ATOM     43  C   UNL     1       7.153   8.247   6.392  1.00  0.00     0.148 A 
ATOM     44  C   UNL     1       7.769   8.806   3.708  1.00  0.00     0.002 A 
ATOM     45  C   UNL     1       8.238   9.053   6.075  1.00  0.00     0.091 A 
ATOM     46  F   UNL     1       6.878   7.905   7.659  1.00  0.00    -0.205 F 
ATOM     47  C   UNL     1       8.561   9.316   4.734  1.00  0.00     0.022 A 
BRANCH  45  48
ATOM     48  S   UNL     1       9.278   9.811   7.326  1.00  0.00     0.127 S 
ATOM     49  O   UNL     1      10.520   9.059   7.177  1.00  0.00    -0.237 OA
ATOM     50  O   UNL     1       9.341  11.197   6.871  1.00  0.00    -0.237 OA
ATOM     51  O   UNL     1       8.579   9.621   8.596  1.00  0.00    -0.744 OA
ENDBRANCH  45  48
ENDBRANCH  27  41
BRANCH  28  52
ATOM     52  C   UNL     1      -0.458   0.572   7.786  1.00  0.00     0.023 A 
ATOM     53  C   UNL     1      -1.752   0.509   7.240  1.00  0.00     0.012 A 
ATOM     54  C   UNL     1      -0.030  -0.453   8.657  1.00  0.00     0.148 A 
ATOM     55  C   UNL     1      -2.607  -0.547   7.562  1.00  0.00     0.002 A 
ATOM     56  C   UNL     1      -0.865  -1.529   8.930  1.00  0.00     0.091 A 
ATOM     57  F   UNL     1       1.206  -0.374   9.171  1.00  0.00    -0.205 F 
ATOM     58  C   UNL     1      -2.162  -1.571   8.396  1.00  0.00     0.022 A 
BRANCH  56  59
ATOM     59  S   UNL     1      -0.335  -2.959   9.882  1.00  0.00     0.127 S 
ATOM     60  O   UNL     1      -1.195  -2.876  11.054  1.00  0.00    -0.237 OA
ATOM     61  O   UNL     1      -0.637  -4.057   8.966  1.00  0.00    -0.237 OA
ATOM     62  O   UNL     1       1.092  -2.760  10.133  1.00  0.00    -0.744 OA
ENDBRANCH  56  59
ENDBRANCH  28  52
BRANCH  40  63
ATOM     63  C   UNL     1      -0.054   7.521   8.700  1.00  0.00     0.023 A 
ATOM     64  C   UNL     1      -0.129   7.636  10.100  1.00  0.00     0.012 A 
ATOM     65  C   UNL     1      -0.724   8.447   7.878  1.00  0.00     0.148 A 
ATOM     66  C   UNL     1      -0.869   8.665  10.675  1.00  0.00     0.002 A 
ATOM     67  C   UNL     1      -1.407   9.503   8.457  1.00  0.00     0.091 A 
ATOM     68  F   UNL     1      -0.644   8.294   6.548  1.00  0.00    -0.205 F 
ATOM     69  C   UNL     1      -1.491   9.608   9.856  1.00  0.00     0.022 A 
BRANCH  67  70
ATOM     70  S   UNL     1      -2.123  10.828   7.483  1.00  0.00     0.127 S 
ATOM     71  O   UNL     1      -3.553  10.621   7.707  1.00  0.00    -0.237 OA
ATOM     72  O   UNL     1      -1.567  12.017   8.127  1.00  0.00    -0.237 OA
ATOM     73  O   UNL     1      -1.674  10.613   6.113  1.00  0.00    -0.744 OA
ENDBRANCH  67  70
ENDBRANCH  40  63
ENDBRANCH  14  15
ENDBRANCH   7   9
ENDBRANCH   6   7
ENDBRANCH   5   6
ENDBRANCH   4   5
ENDBRANCH   3   4
ENDBRANCH   2   3
ENDBRANCH   1   2
BRANCH   1  74
ATOM     74  O   UNL     1       6.247  -4.755   0.498  1.00  0.00    -0.377 OA
BRANCH  74  75
ATOM     75  C   UNL     1       5.496  -3.715  -0.113  1.00  0.00     0.188 C 
BRANCH  75  76
ATOM     76  C   UNL     1       4.227  -3.226   0.586  1.00  0.00     0.188 C 
BRANCH  76  77
ATOM     77  O   UNL     1       4.255  -3.365   1.986  1.00  0.00    -0.376 OA
BRANCH  77  78
ATOM     78  C   UNL     1       3.696  -4.534   2.578  1.00  0.00     0.202 C 
BRANCH  78  79
ATOM     79  C   UNL     1       3.353  -5.830   1.798  1.00  0.00     0.261 C 
BRANCH  79  80
ATOM     80  O   UNL     1       4.301  -6.306   0.810  1.00  0.00    -0.462 OA
BRANCH  80  81
ATOM     81  C   UNL     1       3.887  -6.277  -0.491  1.00  0.00     0.334 C 
ATOM     82  O   UNL     1       2.749  -5.938  -0.822  1.00  0.00    -0.250 OA
BRANCH  81  83
ATOM     83  C   UNL     1       4.950  -6.681  -1.574  1.00  0.00     0.249 C 
ATOM     84  C   UNL     1       6.458  -6.845  -1.266  1.00  0.00     0.298 C 
ATOM     85  N   UNL     1       4.571  -7.973  -2.175  1.00  0.00    -0.331 N 
ATOM     86  N   UNL     1       6.746  -7.867  -0.243  1.00  0.00    -0.343 N 
ATOM     87  C   UNL     1       4.696  -9.104  -1.257  1.00  0.00     0.180 C 
ATOM     88  C   UNL     1       6.157  -9.150  -0.694  1.00  0.00     0.282 C 
ATOM     89  H   UNL     1       6.333  -7.591   0.647  1.00  0.00     0.346 HD
ATOM     90  H   UNL     1       7.754  -7.966  -0.117  1.00  0.00     0.346 HD
BRANCH  85  91
ATOM     91  C   UNL     1       3.768  -7.961  -3.287  1.00  0.00     0.148 A 
ATOM     92  N   UNL     1       2.559  -8.557  -3.189  1.00  0.00    -0.237 NA
ATOM     93  C   UNL     1       4.166  -7.344  -4.494  1.00  0.00     0.084 A 
ATOM     94  C   UNL     1       1.722  -8.494  -4.254  1.00  0.00     0.126 A 
ATOM     95  C   UNL     1       3.299  -7.322  -5.582  1.00  0.00     0.039 A 
ATOM     96  Cl  UNL     1       5.741  -6.671  -4.763  1.00  0.00    -0.080 Cl
ATOM     97  C   UNL     1       2.045  -7.913  -5.470  1.00  0.00     0.075 A 
BRANCH  97  98
ATOM     98  C   UNL     1       1.085  -7.951  -6.613  1.00  0.00     0.417 C 
ATOM     99  F   UNL     1       0.603  -9.202  -6.846  1.00  0.00    -0.166 F 
ATOM    100  F   UNL     1      -0.001  -7.156  -6.423  1.00  0.00    -0.166 F 
ATOM    101  F   UNL     1       1.640  -7.548  -7.792  1.00  0.00    -0.166 F 
ENDBRANCH  97  98
ENDBRANCH  85  91
ENDBRANCH  81  83
ENDBRANCH  80  81
ENDBRANCH  79  80
ENDBRANCH  78  79
ENDBRANCH  77  78
ENDBRANCH  76  77
ENDBRANCH  75  76
ENDBRANCH  74  75
ENDBRANCH   1  74
TORSDOF 25
