REMARK SMILES O=C(CNC(=O)[C@@H](CC1=c2ccccc2=NC1)N1C(=O)N=C2C=CC=C[C@H]2C1=O)OCCOCCOCCOCCOC(=O)c1ccc(-c2c3nc(c(-c4cccc(S(=O)(=O)[O-])c4F)c4ccc([nH]4)c(-c4cccc(S(=O)(=O)[O-])c4F)c4nc(c(-c5cccc(S(=O)(=O)[O-])c5F)c5ccc2[nH]5)C=C4)C=C3)cc1
REMARK SMILES IDX 35 1 34 2 33 3 32 4 31 5 30 6 2 7 1 8 3 9 4 10 5 11 6 13
REMARK SMILES IDX 7 14 8 15 9 16 10 17 17 18 11 19 15 20 16 21 12 22 14 23
REMARK SMILES IDX 13 24 18 25 19 26 28 27 21 28 20 29 27 30 29 31 22 32 26 33
REMARK SMILES IDX 23 34 25 35 24 36 36 37 37 38 38 39 39 40 40 41 41 42 42 43
REMARK SMILES IDX 43 44 44 45 45 46 46 47 107 48 47 49 106 50 48 51 49 52
REMARK SMILES IDX 50 53 100 54 51 55 105 56 99 57 101 58 52 59 104 60 98 61
REMARK SMILES IDX 97 62 53 64 85 65 65 66 84 67 66 68 69 69 83 70 102 71 67 72
REMARK SMILES IDX 68 73 82 75 103 76 70 77 54 78 55 79 63 80 56 81 58 82 64 83
REMARK SMILES IDX 57 84 59 85 60 86 61 87 62 88 86 89 87 90 95 91 88 92 90 93
REMARK SMILES IDX 96 94 89 95 91 96 92 97 93 98 94 99 71 100 72 101 80 102
REMARK SMILES IDX 73 103 75 104 81 105 74 106 76 107 77 108 78 109 79 110
REMARK H PARENT 4 12 101 63 69 74
REMARK Flexibility Score: inf
ROOT
ATOM      1  C   UNL     1       2.513   2.825   1.712  1.00  0.00     0.188 C 
ENDROOT
BRANCH   1   2
ATOM      2  C   UNL     1       3.664   1.859   1.924  1.00  0.00     0.188 C 
BRANCH   2   3
ATOM      3  O   UNL     1       4.739   1.662   0.969  1.00  0.00    -0.376 OA
BRANCH   3   4
ATOM      4  C   UNL     1       4.653   1.913  -0.447  1.00  0.00     0.202 C 
BRANCH   4   5
ATOM      5  C   UNL     1       5.260   0.778  -1.361  1.00  0.00     0.261 C 
BRANCH   5   6
ATOM      6  O   UNL     1       4.173   0.062  -2.023  1.00  0.00    -0.462 OA
BRANCH   6   7
ATOM      7  C   UNL     1       3.903  -1.191  -2.425  1.00  0.00     0.325 C 
ATOM      8  O   UNL     1       3.103  -1.296  -3.367  1.00  0.00    -0.250 OA
BRANCH   7   9
ATOM      9  C   UNL     1       4.148  -2.495  -1.608  1.00  0.00     0.238 C 
BRANCH   9  10
ATOM     10  N   UNL     1       5.234  -3.091  -0.804  1.00  0.00    -0.343 N 
ATOM     11  C   UNL     1       5.289  -3.255   0.579  1.00  0.00     0.244 C 
ATOM     12  H   UNL     1       6.017  -3.412  -1.307  1.00  0.00     0.164 HD
ATOM     13  O   UNL     1       5.425  -4.374   1.068  1.00  0.00    -0.273 OA
BRANCH  11  14
ATOM     14  C   UNL     1       5.389  -1.980   1.397  1.00  0.00     0.188 C 
BRANCH  14  15
ATOM     15  C   UNL     1       4.212  -1.042   1.230  1.00  0.00     0.069 C 
BRANCH  15  16
ATOM     16  C   UNL     1       2.736  -1.196   1.007  1.00  0.00    -0.037 C 
ATOM     17  C   UNL     1       1.853  -2.063   1.472  1.00  0.00     0.001 A 
ATOM     18  C   UNL     1       1.996  -0.208   0.113  1.00  0.00     0.174 C 
ATOM     19  C   UNL     1       1.918  -3.248   2.244  1.00  0.00     0.010 A 
ATOM     20  C   UNL     1       0.564  -1.479   1.050  1.00  0.00     0.065 A 
ATOM     21  N   UNL     1       0.567  -0.376   0.375  1.00  0.00    -0.280 NA
ATOM     22  C   UNL     1       0.767  -3.885   2.506  1.00  0.00     0.001 A 
ATOM     23  C   UNL     1      -0.656  -2.193   1.429  1.00  0.00     0.028 A 
ATOM     24  C   UNL     1      -0.521  -3.355   2.083  1.00  0.00     0.002 A 
ENDBRANCH  15  16
ENDBRANCH  14  15
BRANCH  14  25
ATOM     25  N   UNL     1       6.133  -1.850   2.711  1.00  0.00    -0.249 N 
ATOM     26  C   UNL     1       7.422  -1.313   2.633  1.00  0.00     0.351 C 
ATOM     27  C   UNL     1       5.472  -1.873   3.934  1.00  0.00     0.244 C 
ATOM     28  N   UNL     1       8.211  -1.202   3.732  1.00  0.00    -0.197 NA
ATOM     29  O   UNL     1       7.858  -0.840   1.576  1.00  0.00    -0.246 OA
ATOM     30  C   UNL     1       6.344  -1.840   5.201  1.00  0.00     0.151 C 
ATOM     31  O   UNL     1       4.245  -1.932   4.029  1.00  0.00    -0.273 OA
ATOM     32  C   UNL     1       7.738  -1.354   4.922  1.00  0.00     0.062 C 
ATOM     33  C   UNL     1       5.803  -1.084   6.405  1.00  0.00    -0.007 C 
ATOM     34  C   UNL     1       8.632  -1.022   6.062  1.00  0.00     0.025 C 
ATOM     35  C   UNL     1       6.617  -0.548   7.334  1.00  0.00    -0.003 C 
ATOM     36  C   UNL     1       8.053  -0.632   7.204  1.00  0.00     0.002 C 
ENDBRANCH  14  25
ENDBRANCH  11  14
ENDBRANCH   9  10
ENDBRANCH   7   9
ENDBRANCH   6   7
ENDBRANCH   5   6
ENDBRANCH   4   5
ENDBRANCH   3   4
ENDBRANCH   2   3
ENDBRANCH   1   2
BRANCH   1  37
ATOM     37  O   UNL     1       2.824   4.147   2.057  1.00  0.00    -0.377 OA
BRANCH  37  38
ATOM     38  C   UNL     1       4.111   4.543   1.642  1.00  0.00     0.188 C 
BRANCH  38  39
ATOM     39  C   UNL     1       5.258   4.311   2.655  1.00  0.00     0.188 C 
BRANCH  39  40
ATOM     40  O   UNL     1       5.077   4.419   4.067  1.00  0.00    -0.376 OA
BRANCH  40  41
ATOM     41  C   UNL     1       3.801   4.696   4.612  1.00  0.00     0.202 C 
BRANCH  41  42
ATOM     42  C   UNL     1       3.366   6.171   4.578  1.00  0.00     0.261 C 
BRANCH  42  43
ATOM     43  O   UNL     1       3.562   6.848   3.325  1.00  0.00    -0.460 OA
BRANCH  43  44
ATOM     44  C   UNL     1       4.782   7.392   3.081  1.00  0.00     0.338 C 
ATOM     45  O   UNL     1       5.716   7.476   3.879  1.00  0.00    -0.246 OA
BRANCH  44  46
ATOM     46  C   UNL     1       4.902   7.631   1.612  1.00  0.00     0.060 A 
ATOM     47  C   UNL     1       3.797   8.065   0.866  1.00  0.00     0.016 A 
ATOM     48  C   UNL     1       6.049   7.167   0.938  1.00  0.00     0.016 A 
ATOM     49  C   UNL     1       3.850   8.064  -0.533  1.00  0.00     0.010 A 
ATOM     50  C   UNL     1       6.088   7.129  -0.462  1.00  0.00     0.010 A 
ATOM     51  C   UNL     1       5.008   7.628  -1.208  1.00  0.00    -0.014 A 
BRANCH  51  52
ATOM     52  C   UNL     1       5.248   8.119  -2.591  1.00  0.00     0.031 A 
ATOM     53  C   UNL     1       4.997   7.340  -3.845  1.00  0.00     0.074 A 
ATOM     54  C   UNL     1       5.723   9.378  -2.662  1.00  0.00     0.049 A 
ATOM     55  N   UNL     1       5.069   7.761  -5.083  1.00  0.00    -0.248 NA
ATOM     56  C   UNL     1       4.631   5.925  -3.712  1.00  0.00     0.031 C 
ATOM     57  C   UNL     1       6.050  10.207  -1.497  1.00  0.00     0.029 A 
ATOM     58  N   UNL     1       6.005  10.181  -3.732  1.00  0.00    -0.354 N 
ATOM     59  C   UNL     1       4.749   6.674  -5.885  1.00  0.00     0.074 A 
ATOM     60  C   UNL     1       4.506   5.560  -4.987  1.00  0.00     0.031 C 
ATOM     61  C   UNL     1       6.464  11.407  -1.912  1.00  0.00     0.029 A 
ATOM     62  C   UNL     1       6.441  11.431  -3.368  1.00  0.00     0.049 A 
ATOM     63  H   UNL     1       5.905   9.893  -4.668  1.00  0.00     0.167 HD
ATOM     64  C   UNL     1       4.645   6.626  -7.238  1.00  0.00     0.034 A 
ATOM     65  C   UNL     1       6.771  12.500  -4.111  1.00  0.00     0.034 A 
ATOM     66  C   UNL     1       4.898   7.743  -8.118  1.00  0.00     0.049 A 
ATOM     67  C   UNL     1       6.638  12.423  -5.595  1.00  0.00     0.074 A 
ATOM     68  C   UNL     1       4.775   7.796  -9.498  1.00  0.00     0.029 A 
ATOM     69  N   UNL     1       5.333   8.998  -7.715  1.00  0.00    -0.354 N 
ATOM     70  N   UNL     1       6.214  11.422  -6.325  1.00  0.00    -0.248 NA
ATOM     71  C   UNL     1       6.998  13.625  -6.355  1.00  0.00     0.031 C 
ATOM     72  C   UNL     1       5.147   9.075  -9.928  1.00  0.00     0.029 A 
ATOM     73  C   UNL     1       5.490   9.827  -8.816  1.00  0.00     0.049 A 
ATOM     74  H   UNL     1       5.506   9.261  -6.782  1.00  0.00     0.167 HD
ATOM     75  C   UNL     1       6.248  11.872  -7.636  1.00  0.00     0.074 A 
ATOM     76  C   UNL     1       6.713  13.246  -7.595  1.00  0.00     0.031 C 
ATOM     77  C   UNL     1       5.937  11.197  -8.769  1.00  0.00     0.034 A 
BRANCH  64  78
ATOM     78  C   UNL     1       4.163   5.343  -7.869  1.00  0.00     0.023 A 
ATOM     79  C   UNL     1       2.789   5.034  -7.807  1.00  0.00     0.012 A 
ATOM     80  C   UNL     1       5.023   4.511  -8.614  1.00  0.00     0.148 A 
ATOM     81  C   UNL     1       2.280   3.911  -8.460  1.00  0.00     0.002 A 
ATOM     82  C   UNL     1       4.504   3.405  -9.283  1.00  0.00     0.091 A 
ATOM     83  F   UNL     1       6.327   4.819  -8.662  1.00  0.00    -0.205 F 
ATOM     84  C   UNL     1       3.135   3.103  -9.204  1.00  0.00     0.022 A 
BRANCH  82  85
ATOM     85  S   UNL     1       5.508   2.323 -10.311  1.00  0.00     0.127 S 
ATOM     86  O   UNL     1       5.503   1.087  -9.530  1.00  0.00    -0.237 OA
ATOM     87  O   UNL     1       4.732   2.265 -11.550  1.00  0.00    -0.237 OA
ATOM     88  O   UNL     1       6.805   2.974 -10.433  1.00  0.00    -0.744 OA
ENDBRANCH  82  85
ENDBRANCH  64  78
BRANCH  65  89
ATOM     89  C   UNL     1       7.160  13.746  -3.405  1.00  0.00     0.023 A 
ATOM     90  C   UNL     1       6.203  14.762  -3.237  1.00  0.00     0.012 A 
ATOM     91  C   UNL     1       8.407  13.845  -2.758  1.00  0.00     0.148 A 
ATOM     92  C   UNL     1       6.481  15.863  -2.429  1.00  0.00     0.002 A 
ATOM     93  C   UNL     1       8.662  14.925  -1.925  1.00  0.00     0.091 A 
ATOM     94  F   UNL     1       9.284  12.844  -2.919  1.00  0.00    -0.205 F 
ATOM     95  C   UNL     1       7.703  15.939  -1.764  1.00  0.00     0.022 A 
BRANCH  93  96
ATOM     96  S   UNL     1      10.154  15.054  -0.935  1.00  0.00     0.127 S 
ATOM     97  O   UNL     1      10.731  16.302  -1.429  1.00  0.00    -0.237 OA
ATOM     98  O   UNL     1       9.607  15.121   0.420  1.00  0.00    -0.237 OA
ATOM     99  O   UNL     1      10.929  13.855  -1.223  1.00  0.00    -0.744 OA
ENDBRANCH  93  96
ENDBRANCH  65  89
BRANCH  77 100
ATOM    100  C   UNL     1       6.109  11.925 -10.074  1.00  0.00     0.023 A 
ATOM    101  C   UNL     1       7.405  12.098 -10.599  1.00  0.00     0.012 A 
ATOM    102  C   UNL     1       4.996  12.371 -10.812  1.00  0.00     0.148 A 
ATOM    103  C   UNL     1       7.592  12.716 -11.835  1.00  0.00     0.002 A 
ATOM    104  C   UNL     1       5.187  12.957 -12.057  1.00  0.00     0.091 A 
ATOM    105  F   UNL     1       3.774  12.210 -10.283  1.00  0.00    -0.205 F 
ATOM    106  C   UNL     1       6.484  13.136 -12.567  1.00  0.00     0.022 A 
BRANCH 104 107
ATOM    107  S   UNL     1       3.825  13.478 -13.106  1.00  0.00     0.127 S 
ATOM    108  O   UNL     1       3.996  14.930 -13.117  1.00  0.00    -0.237 OA
ATOM    109  O   UNL     1       4.141  12.817 -14.372  1.00  0.00    -0.237 OA
ATOM    110  O   UNL     1       2.610  13.002 -12.457  1.00  0.00    -0.744 OA
ENDBRANCH 104 107
ENDBRANCH  77 100
ENDBRANCH  51  52
ENDBRANCH  44  46
ENDBRANCH  43  44
ENDBRANCH  42  43
ENDBRANCH  41  42
ENDBRANCH  40  41
ENDBRANCH  39  40
ENDBRANCH  38  39
ENDBRANCH  37  38
ENDBRANCH   1  37
TORSDOF 28
