REMARK SMILES C[C@H]1[NH2+]CC[C@@H]1C(=O)N[C@@H](CC(=O)OCCOCCOCCOCCOC(=O)c1ccc(-c2c3nc(c(-c4cccc(S(=O)(=O)[O-])c4F)c4ccc([nH]4)c(-c4cccc(S(=O)(=O)[O-])c4F)c4nc(c(-c5cccc(S(=O)(=O)[O-])c5F)c5ccc2[nH]5)C=C4)C=C3)cc1)c1cccs1
REMARK SMILES IDX 20 1 19 2 18 3 17 4 16 5 15 6 14 7 12 8 13 9 11 10 10 11
REMARK SMILES IDX 9 12 7 13 8 14 6 16 1 17 2 18 3 19 4 20 5 23 92 24 93 25
REMARK SMILES IDX 96 26 94 27 95 28 21 29 22 30 23 31 24 32 25 33 26 34 27 35
REMARK SMILES IDX 28 36 29 37 30 38 91 39 31 40 90 41 32 42 33 43 34 44 84 45
REMARK SMILES IDX 35 46 89 47 83 48 85 49 36 50 88 51 82 52 81 53 37 55 69 56
REMARK SMILES IDX 49 57 68 58 50 59 53 60 67 61 86 62 51 63 52 64 66 66 87 67
REMARK SMILES IDX 54 68 38 69 39 70 47 71 40 72 42 73 48 74 41 75 43 76 44 77
REMARK SMILES IDX 45 78 46 79 70 80 71 81 79 82 72 83 74 84 80 85 73 86 75 87
REMARK SMILES IDX 76 88 77 89 78 90 55 91 56 92 64 93 57 94 59 95 65 96 58 97
REMARK SMILES IDX 60 98 61 99 62 100 63 101
REMARK H PARENT 9 15 3 21 3 22 85 54 53 65
REMARK Flexibility Score: inf
ROOT
ATOM      1  O   UNL     1      -4.783   2.495  -4.229  1.00  0.00    -0.377 OA
ENDROOT
BRANCH   1   2
ATOM      2  C   UNL     1      -5.273   2.837  -2.956  1.00  0.00     0.188 C 
BRANCH   2   3
ATOM      3  C   UNL     1      -6.127   4.099  -2.863  1.00  0.00     0.188 C 
BRANCH   3   4
ATOM      4  O   UNL     1      -5.969   5.178  -3.776  1.00  0.00    -0.376 OA
BRANCH   4   5
ATOM      5  C   UNL     1      -4.990   5.093  -4.799  1.00  0.00     0.202 C 
BRANCH   5   6
ATOM      6  C   UNL     1      -3.527   5.318  -4.362  1.00  0.00     0.261 C 
BRANCH   6   7
ATOM      7  O   UNL     1      -3.028   4.553  -3.232  1.00  0.00    -0.463 OA
BRANCH   7   8
ATOM      8  C   UNL     1      -3.131   5.143  -2.018  1.00  0.00     0.308 C 
ATOM      9  O   UNL     1      -3.626   6.255  -1.837  1.00  0.00    -0.252 OA
BRANCH   8  10
ATOM     10  C   UNL     1      -2.473   4.412  -0.858  1.00  0.00     0.153 C 
BRANCH  10  11
ATOM     11  C   UNL     1      -2.342   2.892  -0.657  1.00  0.00     0.133 C 
BRANCH  11  12
ATOM     12  N   UNL     1      -1.642   2.194  -1.714  1.00  0.00    -0.347 N 
ATOM     13  C   UNL     1      -0.667   1.234  -1.634  1.00  0.00     0.229 C 
ATOM     14  O   UNL     1      -0.341   0.702  -2.695  1.00  0.00    -0.275 OA
ATOM     15  H   UNL     1      -1.905   2.448  -2.628  1.00  0.00     0.164 HD
BRANCH  13  16
ATOM     16  C   UNL     1       0.049   0.929  -0.300  1.00  0.00     0.142 C 
ATOM     17  C   UNL     1       2.285   0.010   0.491  1.00  0.00     0.076 C 
ATOM     18  C   UNL     1       1.091  -0.202  -0.449  1.00  0.00     0.192 C 
ATOM     19  N   UNL     1       0.406  -1.457  -0.064  1.00  0.00    -0.343 N 
ATOM     20  C   UNL     1      -0.890  -1.114   0.504  1.00  0.00     0.261 C 
ATOM     21  H   UNL     1       0.964  -1.956   0.629  1.00  0.00     0.346 HD
ATOM     22  H   UNL     1       0.285  -2.057  -0.880  1.00  0.00     0.346 HD
ATOM     23  C   UNL     1      -0.804   0.362   0.827  1.00  0.00     0.081 C 
ENDBRANCH  13  16
ENDBRANCH  11  12
BRANCH  11  24
ATOM     24  C   UNL     1      -3.598   2.122  -0.206  1.00  0.00     0.027 A 
ATOM     25  C   UNL     1      -4.494   2.457   0.800  1.00  0.00     0.017 A 
ATOM     26  S   UNL     1      -3.982   0.538  -0.816  1.00  0.00    -0.147 S 
ATOM     27  C   UNL     1      -5.470   1.443   1.051  1.00  0.00     0.012 A 
ATOM     28  C   UNL     1      -5.298   0.345   0.244  1.00  0.00     0.065 A 
ENDBRANCH  11  24
ENDBRANCH  10  11
ENDBRANCH   8  10
ENDBRANCH   7   8
ENDBRANCH   6   7
ENDBRANCH   5   6
ENDBRANCH   4   5
ENDBRANCH   3   4
ENDBRANCH   2   3
ENDBRANCH   1   2
BRANCH   1  29
ATOM     29  C   UNL     1      -5.338   1.325  -4.793  1.00  0.00     0.188 C 
BRANCH  29  30
ATOM     30  C   UNL     1      -6.851   1.411  -5.026  1.00  0.00     0.188 C 
BRANCH  30  31
ATOM     31  O   UNL     1      -7.731   1.421  -3.912  1.00  0.00    -0.376 OA
BRANCH  31  32
ATOM     32  C   UNL     1      -7.746   0.421  -2.907  1.00  0.00     0.202 C 
BRANCH  32  33
ATOM     33  C   UNL     1      -7.375  -1.056  -3.103  1.00  0.00     0.261 C 
BRANCH  33  34
ATOM     34  O   UNL     1      -6.323  -1.336  -4.020  1.00  0.00    -0.460 OA
BRANCH  34  35
ATOM     35  C   UNL     1      -6.734  -1.809  -5.218  1.00  0.00     0.338 C 
ATOM     36  O   UNL     1      -7.888  -2.021  -5.567  1.00  0.00    -0.246 OA
BRANCH  35  37
ATOM     37  C   UNL     1      -5.595  -1.837  -6.146  1.00  0.00     0.060 A 
ATOM     38  C   UNL     1      -5.716  -1.110  -7.337  1.00  0.00     0.016 A 
ATOM     39  C   UNL     1      -4.457  -2.602  -5.882  1.00  0.00     0.016 A 
ATOM     40  C   UNL     1      -4.721  -1.186  -8.299  1.00  0.00     0.010 A 
ATOM     41  C   UNL     1      -3.470  -2.703  -6.863  1.00  0.00     0.010 A 
ATOM     42  C   UNL     1      -3.628  -2.034  -8.090  1.00  0.00    -0.014 A 
BRANCH  42  43
ATOM     43  C   UNL     1      -2.794  -2.395  -9.253  1.00  0.00     0.031 A 
ATOM     44  C   UNL     1      -3.118  -3.668  -9.984  1.00  0.00     0.074 A 
ATOM     45  C   UNL     1      -1.816  -1.579  -9.675  1.00  0.00     0.049 A 
ATOM     46  N   UNL     1      -2.547  -4.189 -11.036  1.00  0.00    -0.248 NA
ATOM     47  C   UNL     1      -4.245  -4.460  -9.457  1.00  0.00     0.031 C 
ATOM     48  C   UNL     1      -1.450  -0.308  -9.054  1.00  0.00     0.029 A 
ATOM     49  N   UNL     1      -0.943  -1.710 -10.723  1.00  0.00    -0.354 N 
ATOM     50  C   UNL     1      -3.221  -5.380 -11.279  1.00  0.00     0.074 A 
ATOM     51  C   UNL     1      -4.236  -5.513 -10.258  1.00  0.00     0.031 C 
ATOM     52  C   UNL     1      -0.409   0.217  -9.721  1.00  0.00     0.029 A 
ATOM     53  C   UNL     1      -0.021  -0.695 -10.794  1.00  0.00     0.049 A 
ATOM     54  H   UNL     1      -0.974  -2.459 -11.361  1.00  0.00     0.167 HD
ATOM     55  C   UNL     1      -3.020  -6.276 -12.273  1.00  0.00     0.034 A 
ATOM     56  C   UNL     1       1.029  -0.541 -11.624  1.00  0.00     0.034 A 
ATOM     57  C   UNL     1      -2.005  -6.127 -13.279  1.00  0.00     0.049 A 
ATOM     58  C   UNL     1       1.266  -1.579 -12.690  1.00  0.00     0.074 A 
ATOM     59  C   UNL     1      -1.721  -6.957 -14.347  1.00  0.00     0.029 A 
ATOM     60  N   UNL     1      -1.092  -5.083 -13.327  1.00  0.00    -0.354 N 
ATOM     61  N   UNL     1       0.568  -2.654 -12.968  1.00  0.00    -0.248 NA
ATOM     62  C   UNL     1       2.417  -1.365 -13.577  1.00  0.00     0.031 C 
ATOM     63  C   UNL     1      -0.610  -6.435 -15.018  1.00  0.00     0.029 A 
ATOM     64  C   UNL     1      -0.232  -5.254 -14.397  1.00  0.00     0.049 A 
ATOM     65  H   UNL     1      -1.060  -4.330 -12.693  1.00  0.00     0.167 HD
ATOM     66  C   UNL     1       1.169  -3.224 -14.085  1.00  0.00     0.074 A 
ATOM     67  C   UNL     1       2.280  -2.363 -14.440  1.00  0.00     0.031 C 
ATOM     68  C   UNL     1       0.839  -4.357 -14.754  1.00  0.00     0.034 A 
BRANCH  55  69
ATOM     69  C   UNL     1      -3.914  -7.488 -12.308  1.00  0.00     0.023 A 
ATOM     70  C   UNL     1      -5.279  -7.349 -12.636  1.00  0.00     0.012 A 
ATOM     71  C   UNL     1      -3.400  -8.770 -12.030  1.00  0.00     0.148 A 
ATOM     72  C   UNL     1      -6.126  -8.457 -12.643  1.00  0.00     0.002 A 
ATOM     73  C   UNL     1      -4.240  -9.876 -12.088  1.00  0.00     0.091 A 
ATOM     74  F   UNL     1      -2.107  -8.882 -11.696  1.00  0.00    -0.205 F 
ATOM     75  C   UNL     1      -5.605  -9.720 -12.378  1.00  0.00     0.022 A 
BRANCH  73  76
ATOM     76  S   UNL     1      -3.649 -11.554 -11.839  1.00  0.00     0.127 S 
ATOM     77  O   UNL     1      -4.258 -11.894 -10.554  1.00  0.00    -0.237 OA
ATOM     78  O   UNL     1      -4.223 -12.254 -12.989  1.00  0.00    -0.237 OA
ATOM     79  O   UNL     1      -2.196 -11.474 -11.840  1.00  0.00    -0.744 OA
ENDBRANCH  73  76
ENDBRANCH  55  69
BRANCH  56  80
ATOM     80  C   UNL     1       1.906   0.657 -11.502  1.00  0.00     0.023 A 
ATOM     81  C   UNL     1       1.894   1.632 -12.518  1.00  0.00     0.012 A 
ATOM     82  C   UNL     1       2.731   0.848 -10.376  1.00  0.00     0.148 A 
ATOM     83  C   UNL     1       2.710   2.761 -12.429  1.00  0.00     0.002 A 
ATOM     84  C   UNL     1       3.502   2.000 -10.269  1.00  0.00     0.091 A 
ATOM     85  F   UNL     1       2.735  -0.097  -9.425  1.00  0.00    -0.205 F 
ATOM     86  C   UNL     1       3.505   2.949 -11.302  1.00  0.00     0.022 A 
BRANCH  84  87
ATOM     87  S   UNL     1       4.473   2.387  -8.808  1.00  0.00     0.127 S 
ATOM     88  O   UNL     1       5.835   2.347  -9.336  1.00  0.00    -0.237 OA
ATOM     89  O   UNL     1       3.982   3.724  -8.470  1.00  0.00    -0.237 OA
ATOM     90  O   UNL     1       4.149   1.358  -7.831  1.00  0.00    -0.744 OA
ENDBRANCH  84  87
ENDBRANCH  56  80
BRANCH  68  91
ATOM     91  C   UNL     1       1.656  -4.710 -15.970  1.00  0.00     0.023 A 
ATOM     92  C   UNL     1       2.980  -5.169 -15.825  1.00  0.00     0.012 A 
ATOM     93  C   UNL     1       1.078  -4.658 -17.255  1.00  0.00     0.148 A 
ATOM     94  C   UNL     1       3.729  -5.534 -16.944  1.00  0.00     0.002 A 
ATOM     95  C   UNL     1       1.811  -5.077 -18.358  1.00  0.00     0.091 A 
ATOM     96  F   UNL     1      -0.178  -4.205 -17.372  1.00  0.00    -0.205 F 
ATOM     97  C   UNL     1       3.141  -5.500 -18.206  1.00  0.00     0.022 A 
BRANCH  95  98
ATOM     98  S   UNL     1       1.104  -5.167 -20.006  1.00  0.00     0.127 S 
ATOM     99  O   UNL     1       1.809  -4.085 -20.692  1.00  0.00    -0.237 OA
ATOM    100  O   UNL     1       1.489  -6.513 -20.433  1.00  0.00    -0.237 OA
ATOM    101  O   UNL     1      -0.330  -4.971 -19.843  1.00  0.00    -0.744 OA
ENDBRANCH  95  98
ENDBRANCH  68  91
ENDBRANCH  42  43
ENDBRANCH  35  37
ENDBRANCH  34  35
ENDBRANCH  33  34
ENDBRANCH  32  33
ENDBRANCH  31  32
ENDBRANCH  30  31
ENDBRANCH  29  30
ENDBRANCH   1  29
TORSDOF 27
