REMARK SMILES Cc1ccc(C)c(CC(=O)N(CC(=O)OCCOCCOCCOCCOC(=O)c2ccc(-c3c4nc(c(-c5cccc(S(=O)(=O)[O-])c5F)c5ccc([nH]5)c(-c5cccc(S(=O)(=O)[O-])c5F)c5nc(c(-c6cccc(S(=O)(=O)[O-])c6F)c6ccc3[nH]6)C=C5)C=C4)cc2)CC(F)(F)F)c1
REMARK SMILES IDX 20 1 19 2 18 3 17 4 16 5 15 6 13 7 14 8 12 9 11 10 9 11
REMARK SMILES IDX 10 12 8 13 7 14 1 15 2 16 3 17 98 18 4 19 5 20 6 21 93 22
REMARK SMILES IDX 94 23 95 24 96 25 97 26 21 27 22 28 23 29 24 30 25 31 26 32
REMARK SMILES IDX 27 33 28 34 29 35 30 36 31 37 92 38 32 39 91 40 33 41 34 42
REMARK SMILES IDX 35 43 85 44 36 45 90 46 84 47 86 48 37 49 89 50 83 51 82 52
REMARK SMILES IDX 38 54 70 55 50 56 69 57 51 58 54 59 68 60 87 61 52 62 53 63
REMARK SMILES IDX 67 65 88 66 55 67 39 68 40 69 48 70 41 71 43 72 49 73 42 74
REMARK SMILES IDX 44 75 45 76 46 77 47 78 71 79 72 80 80 81 73 82 75 83 81 84
REMARK SMILES IDX 74 85 76 86 77 87 78 88 79 89 56 90 57 91 65 92 58 93 60 94
REMARK SMILES IDX 66 95 59 96 61 97 62 98 63 99 64 100
REMARK H PARENT 86 53 54 64
REMARK Flexibility Score: inf
ROOT
ATOM      1  C   UNL     1      -2.642   0.487  -3.630  1.00  0.00     0.188 C 
ENDROOT
BRANCH   1   2
ATOM      2  C   UNL     1      -1.447   0.074  -4.473  1.00  0.00     0.188 C 
BRANCH   2   3
ATOM      3  O   UNL     1      -1.129  -1.296  -4.517  1.00  0.00    -0.376 OA
BRANCH   3   4
ATOM      4  C   UNL     1      -0.257  -1.808  -3.527  1.00  0.00     0.202 C 
BRANCH   4   5
ATOM      5  C   UNL     1       0.460  -0.877  -2.541  1.00  0.00     0.261 C 
BRANCH   5   6
ATOM      6  O   UNL     1      -0.369   0.174  -1.986  1.00  0.00    -0.462 OA
BRANCH   6   7
ATOM      7  C   UNL     1       0.237   1.388  -1.867  1.00  0.00     0.325 C 
ATOM      8  O   UNL     1       1.432   1.560  -2.093  1.00  0.00    -0.250 OA
BRANCH   7   9
ATOM      9  C   UNL     1      -0.670   2.609  -1.524  1.00  0.00     0.242 C 
BRANCH   9  10
ATOM     10  N   UNL     1      -2.112   2.675  -1.138  1.00  0.00    -0.322 N 
BRANCH  10  11
ATOM     11  C   UNL     1      -2.554   2.603   0.175  1.00  0.00     0.227 C 
ATOM     12  O   UNL     1      -3.666   3.049   0.485  1.00  0.00    -0.275 OA
BRANCH  11  13
ATOM     13  C   UNL     1      -1.652   2.070   1.265  1.00  0.00     0.136 C 
BRANCH  13  14
ATOM     14  C   UNL     1      -1.083   0.686   1.073  1.00  0.00    -0.035 A 
ATOM     15  C   UNL     1       2.442  -0.690   0.625  1.00  0.00     0.044 C 
ATOM     16  C   UNL     1       0.960  -0.651   0.871  1.00  0.00    -0.051 A 
ATOM     17  C   UNL     1       0.190  -1.806   0.767  1.00  0.00     0.004 A 
ATOM     18  C   UNL     1       0.320   0.566   1.113  1.00  0.00     0.008 A 
ATOM     19  C   UNL     1      -1.201  -1.712   0.740  1.00  0.00     0.004 A 
ATOM     20  C   UNL     1      -1.855  -0.471   0.853  1.00  0.00    -0.047 A 
ATOM     21  C   UNL     1      -3.343  -0.475   0.638  1.00  0.00     0.044 C 
ENDBRANCH  13  14
ENDBRANCH  11  13
ENDBRANCH  10  11
BRANCH  10  22
ATOM     22  C   UNL     1      -3.070   3.332  -2.079  1.00  0.00     0.235 C 
BRANCH  22  23
ATOM     23  C   UNL     1      -4.524   2.784  -2.164  1.00  0.00     0.406 C 
ATOM     24  F   UNL     1      -5.431   3.657  -1.666  1.00  0.00    -0.169 F 
ATOM     25  F   UNL     1      -4.874   2.598  -3.469  1.00  0.00    -0.169 F 
ATOM     26  F   UNL     1      -4.705   1.599  -1.546  1.00  0.00    -0.169 F 
ENDBRANCH  22  23
ENDBRANCH  10  22
ENDBRANCH   9  10
ENDBRANCH   7   9
ENDBRANCH   6   7
ENDBRANCH   5   6
ENDBRANCH   4   5
ENDBRANCH   3   4
ENDBRANCH   2   3
ENDBRANCH   1   2
BRANCH   1  27
ATOM     27  O   UNL     1      -3.554  -0.470  -3.129  1.00  0.00    -0.377 OA
BRANCH  27  28
ATOM     28  C   UNL     1      -4.085  -1.409  -4.049  1.00  0.00     0.188 C 
BRANCH  28  29
ATOM     29  C   UNL     1      -4.802  -0.806  -5.257  1.00  0.00     0.188 C 
BRANCH  29  30
ATOM     30  O   UNL     1      -3.901  -0.031  -6.031  1.00  0.00    -0.376 OA
BRANCH  30  31
ATOM     31  C   UNL     1      -4.455   1.120  -6.641  1.00  0.00     0.202 C 
BRANCH  31  32
ATOM     32  C   UNL     1      -5.249   0.773  -7.898  1.00  0.00     0.261 C 
BRANCH  32  33
ATOM     33  O   UNL     1      -4.648  -0.038  -8.946  1.00  0.00    -0.460 OA
BRANCH  33  34
ATOM     34  C   UNL     1      -3.627  -0.903  -8.704  1.00  0.00     0.338 C 
ATOM     35  O   UNL     1      -3.753  -2.110  -8.731  1.00  0.00    -0.246 OA
BRANCH  34  36
ATOM     36  C   UNL     1      -2.323  -0.215  -8.511  1.00  0.00     0.060 A 
ATOM     37  C   UNL     1      -1.332  -0.906  -7.822  1.00  0.00     0.016 A 
ATOM     38  C   UNL     1      -2.152   1.143  -8.827  1.00  0.00     0.016 A 
ATOM     39  C   UNL     1      -0.288  -0.178  -7.277  1.00  0.00     0.010 A 
ATOM     40  C   UNL     1      -1.138   1.881  -8.220  1.00  0.00     0.010 A 
ATOM     41  C   UNL     1      -0.264   1.236  -7.356  1.00  0.00    -0.014 A 
BRANCH  41  42
ATOM     42  C   UNL     1       0.812   1.927  -6.613  1.00  0.00     0.031 A 
ATOM     43  C   UNL     1       2.109   1.309  -6.957  1.00  0.00     0.074 A 
ATOM     44  C   UNL     1       0.690   2.960  -5.737  1.00  0.00     0.049 A 
ATOM     45  N   UNL     1       2.925   0.694  -6.162  1.00  0.00    -0.248 NA
ATOM     46  C   UNL     1       2.400   1.127  -8.398  1.00  0.00     0.031 C 
ATOM     47  C   UNL     1      -0.559   3.655  -5.419  1.00  0.00     0.029 A 
ATOM     48  N   UNL     1       1.620   3.667  -4.986  1.00  0.00    -0.354 N 
ATOM     49  C   UNL     1       3.998   0.386  -6.987  1.00  0.00     0.074 A 
ATOM     50  C   UNL     1       3.522   0.414  -8.349  1.00  0.00     0.031 C 
ATOM     51  C   UNL     1      -0.288   4.779  -4.724  1.00  0.00     0.029 A 
ATOM     52  C   UNL     1       1.148   4.907  -4.526  1.00  0.00     0.049 A 
ATOM     53  H   UNL     1       2.526   3.332  -4.794  1.00  0.00     0.167 HD
ATOM     54  C   UNL     1       5.240   0.739  -6.572  1.00  0.00     0.034 A 
ATOM     55  C   UNL     1       1.838   6.003  -4.093  1.00  0.00     0.034 A 
ATOM     56  C   UNL     1       5.385   0.747  -5.153  1.00  0.00     0.049 A 
ATOM     57  C   UNL     1       3.223   5.606  -3.760  1.00  0.00     0.074 A 
ATOM     58  C   UNL     1       5.364  -0.190  -4.146  1.00  0.00     0.029 A 
ATOM     59  N   UNL     1       5.214   1.971  -4.575  1.00  0.00    -0.354 N 
ATOM     60  N   UNL     1       3.588   5.082  -2.626  1.00  0.00    -0.248 NA
ATOM     61  C   UNL     1       4.239   5.611  -4.807  1.00  0.00     0.031 C 
ATOM     62  C   UNL     1       5.185   0.527  -2.933  1.00  0.00     0.029 A 
ATOM     63  C   UNL     1       5.141   1.892  -3.212  1.00  0.00     0.049 A 
ATOM     64  H   UNL     1       5.150   2.813  -5.081  1.00  0.00     0.167 HD
ATOM     65  C   UNL     1       4.675   4.294  -2.962  1.00  0.00     0.074 A 
ATOM     66  C   UNL     1       5.134   4.796  -4.248  1.00  0.00     0.031 C 
ATOM     67  C   UNL     1       4.829   3.058  -2.405  1.00  0.00     0.034 A 
BRANCH  54  68
ATOM     68  C   UNL     1       6.048   1.641  -7.464  1.00  0.00     0.023 A 
ATOM     69  C   UNL     1       7.443   1.567  -7.460  1.00  0.00     0.012 A 
ATOM     70  C   UNL     1       5.449   2.698  -8.193  1.00  0.00     0.148 A 
ATOM     71  C   UNL     1       8.199   2.453  -8.239  1.00  0.00     0.002 A 
ATOM     72  C   UNL     1       6.181   3.468  -9.074  1.00  0.00     0.091 A 
ATOM     73  F   UNL     1       4.180   3.044  -7.932  1.00  0.00    -0.205 F 
ATOM     74  C   UNL     1       7.569   3.365  -9.088  1.00  0.00     0.022 A 
BRANCH  72  75
ATOM     75  S   UNL     1       5.351   4.508 -10.279  1.00  0.00     0.127 S 
ATOM     76  O   UNL     1       5.486   5.829  -9.676  1.00  0.00    -0.237 OA
ATOM     77  O   UNL     1       6.156   4.282 -11.479  1.00  0.00    -0.237 OA
ATOM     78  O   UNL     1       3.997   3.969 -10.367  1.00  0.00    -0.744 OA
ENDBRANCH  72  75
ENDBRANCH  54  68
BRANCH  55  79
ATOM     79  C   UNL     1       1.468   7.460  -4.024  1.00  0.00     0.023 A 
ATOM     80  C   UNL     1       2.337   8.382  -3.385  1.00  0.00     0.012 A 
ATOM     81  C   UNL     1       0.412   8.014  -4.775  1.00  0.00     0.148 A 
ATOM     82  C   UNL     1       2.188   9.772  -3.537  1.00  0.00     0.002 A 
ATOM     83  C   UNL     1       0.247   9.393  -4.897  1.00  0.00     0.091 A 
ATOM     84  F   UNL     1      -0.394   7.211  -5.474  1.00  0.00    -0.205 F 
ATOM     85  C   UNL     1       1.143  10.280  -4.299  1.00  0.00     0.022 A 
BRANCH  83  86
ATOM     86  S   UNL     1      -1.109  10.055  -5.874  1.00  0.00     0.127 S 
ATOM     87  O   UNL     1      -1.412  11.313  -5.191  1.00  0.00    -0.237 OA
ATOM     88  O   UNL     1      -0.494  10.202  -7.189  1.00  0.00    -0.237 OA
ATOM     89  O   UNL     1      -2.169   9.057  -5.767  1.00  0.00    -0.744 OA
ENDBRANCH  83  86
ENDBRANCH  55  79
BRANCH  67  90
ATOM     90  C   UNL     1       4.525   2.879  -0.940  1.00  0.00     0.023 A 
ATOM     91  C   UNL     1       3.345   3.327  -0.322  1.00  0.00     0.012 A 
ATOM     92  C   UNL     1       5.471   2.192  -0.150  1.00  0.00     0.148 A 
ATOM     93  C   UNL     1       3.122   3.123   1.042  1.00  0.00     0.002 A 
ATOM     94  C   UNL     1       5.208   1.913   1.184  1.00  0.00     0.091 A 
ATOM     95  F   UNL     1       6.623   1.809  -0.721  1.00  0.00    -0.205 F 
ATOM     96  C   UNL     1       4.041   2.396   1.791  1.00  0.00     0.022 A 
BRANCH  94  97
ATOM     97  S   UNL     1       6.294   0.884   2.174  1.00  0.00     0.127 S 
ATOM     98  O   UNL     1       6.599   1.760   3.303  1.00  0.00    -0.237 OA
ATOM     99  O   UNL     1       5.426  -0.249   2.494  1.00  0.00    -0.237 OA
ATOM    100  O   UNL     1       7.434   0.554   1.328  1.00  0.00    -0.744 OA
ENDBRANCH  94  97
ENDBRANCH  67  90
ENDBRANCH  41  42
ENDBRANCH  34  36
ENDBRANCH  33  34
ENDBRANCH  32  33
ENDBRANCH  31  32
ENDBRANCH  30  31
ENDBRANCH  29  30
ENDBRANCH  28  29
ENDBRANCH  27  28
ENDBRANCH   1  27
TORSDOF 29
