REMARK SMILES C=CCOc1cccc(NS(=O)(=O)c2c[nH]c(C(=O)OCCOCCOCCOCCOC(=O)c3ccc(-c4c5nc(c(-c6cccc(S(=O)(=O)[O-])c6F)c6ccc([nH]6)c(-c6cccc(S(=O)(=O)[O-])c6F)c6nc(c(-c7cccc(S(=O)(=O)[O-])c7F)c7ccc4[nH]7)C=C6)C=C5)cc3)c2)c1
REMARK SMILES IDX 24 1 23 2 22 3 21 4 20 5 18 6 19 7 17 8 14 9 15 10 98 11
REMARK SMILES IDX 16 12 11 14 12 15 13 16 10 17 9 19 5 20 6 21 99 22 7 23 8 24
REMARK SMILES IDX 4 25 3 26 2 27 1 28 25 29 26 30 27 31 28 32 29 33 30 34
REMARK SMILES IDX 31 35 32 36 33 37 34 38 35 39 36 40 97 41 37 42 96 43 38 44
REMARK SMILES IDX 39 45 40 46 90 47 41 48 95 49 89 50 91 51 42 52 94 53 88 54
REMARK SMILES IDX 87 55 43 57 75 58 55 59 74 60 56 61 59 62 73 63 92 64 57 65
REMARK SMILES IDX 58 66 72 68 93 69 60 70 44 71 45 72 53 73 46 74 48 75 54 76
REMARK SMILES IDX 47 77 49 78 50 79 51 80 52 81 76 82 77 83 85 84 78 85 80 86
REMARK SMILES IDX 86 87 79 88 81 89 82 90 83 91 84 92 61 93 62 94 70 95 63 96
REMARK SMILES IDX 65 97 71 98 64 99 66 100 67 101 68 102 69 103
REMARK H PARENT 16 13 10 18 91 56 59 67
REMARK Flexibility Score: inf
ROOT
ATOM      1  C   UNL     1      -3.256  -6.255  -7.120  1.00  0.00     0.188 C 
ENDROOT
BRANCH   1   2
ATOM      2  O   UNL     1      -3.585  -7.128  -8.197  1.00  0.00    -0.376 OA
BRANCH   2   3
ATOM      3  C   UNL     1      -2.862  -8.319  -8.455  1.00  0.00     0.202 C 
BRANCH   3   4
ATOM      4  C   UNL     1      -1.343  -8.295  -8.685  1.00  0.00     0.261 C 
BRANCH   4   5
ATOM      5  O   UNL     1      -0.614  -7.246  -8.050  1.00  0.00    -0.459 OA
BRANCH   5   6
ATOM      6  C   UNL     1      -0.580  -6.071  -8.718  1.00  0.00     0.354 C 
ATOM      7  O   UNL     1      -1.058  -5.863  -9.833  1.00  0.00    -0.244 OA
BRANCH   6   8
ATOM      8  C   UNL     1      -0.042  -5.041  -7.865  1.00  0.00     0.126 A 
ATOM      9  C   UNL     1       0.993  -3.801  -6.275  1.00  0.00     0.106 A 
ATOM     10  C   UNL     1       0.181  -2.964  -7.014  1.00  0.00     0.105 A 
ATOM     11  C   UNL     1       0.841  -5.112  -6.800  1.00  0.00     0.057 A 
ATOM     12  N   UNL     1      -0.431  -3.723  -7.976  1.00  0.00    -0.354 N 
ATOM     13  H   UNL     1      -1.059  -3.377  -8.650  1.00  0.00     0.166 HD
BRANCH   9  14
ATOM     14  S   UNL     1       2.029  -3.366  -4.966  1.00  0.00     0.263 S 
ATOM     15  O   UNL     1       2.947  -2.424  -5.577  1.00  0.00    -0.201 OA
ATOM     16  O   UNL     1       2.507  -4.619  -4.429  1.00  0.00    -0.201 OA
BRANCH  14  17
ATOM     17  N   UNL     1       1.255  -2.519  -3.740  1.00  0.00    -0.279 N 
ATOM     18  H   UNL     1       1.645  -1.659  -3.461  1.00  0.00     0.180 HD
BRANCH  17  19
ATOM     19  C   UNL     1       0.064  -2.961  -3.069  1.00  0.00     0.052 A 
ATOM     20  C   UNL     1      -1.276  -2.703  -1.051  1.00  0.00     0.121 A 
ATOM     21  C   UNL     1      -2.402  -3.166  -1.721  1.00  0.00     0.046 A 
ATOM     22  C   UNL     1      -0.050  -2.621  -1.716  1.00  0.00     0.073 A 
ATOM     23  C   UNL     1      -2.300  -3.518  -3.064  1.00  0.00     0.006 A 
ATOM     24  C   UNL     1      -1.076  -3.408  -3.735  1.00  0.00     0.027 A 
BRANCH  20  25
ATOM     25  O   UNL     1      -1.396  -2.413   0.280  1.00  0.00    -0.489 OA
BRANCH  25  26
ATOM     26  C   UNL     1      -1.181  -1.032   0.597  1.00  0.00     0.257 C 
BRANCH  26  27
ATOM     27  C   UNL     1       0.266  -0.769   0.901  1.00  0.00     0.006 C 
ATOM     28  C   UNL     1       1.008   0.178   0.310  1.00  0.00     0.007 C 
ENDBRANCH  26  27
ENDBRANCH  25  26
ENDBRANCH  20  25
ENDBRANCH  17  19
ENDBRANCH  14  17
ENDBRANCH   9  14
ENDBRANCH   6   8
ENDBRANCH   5   6
ENDBRANCH   4   5
ENDBRANCH   3   4
ENDBRANCH   2   3
ENDBRANCH   1   2
BRANCH   1  29
ATOM     29  C   UNL     1      -2.554  -6.734  -5.828  1.00  0.00     0.188 C 
BRANCH  29  30
ATOM     30  O   UNL     1      -2.229  -8.113  -5.812  1.00  0.00    -0.377 OA
BRANCH  30  31
ATOM     31  C   UNL     1      -3.143  -8.951  -5.105  1.00  0.00     0.188 C 
BRANCH  31  32
ATOM     32  C   UNL     1      -4.643  -8.807  -5.463  1.00  0.00     0.188 C 
BRANCH  32  33
ATOM     33  O   UNL     1      -5.104  -7.462  -5.547  1.00  0.00    -0.376 OA
BRANCH  33  34
ATOM     34  C   UNL     1      -5.892  -6.880  -4.521  1.00  0.00     0.202 C 
BRANCH  34  35
ATOM     35  C   UNL     1      -5.213  -6.654  -3.171  1.00  0.00     0.261 C 
BRANCH  35  36
ATOM     36  O   UNL     1      -4.522  -7.788  -2.688  1.00  0.00    -0.460 OA
BRANCH  36  37
ATOM     37  C   UNL     1      -5.327  -8.844  -2.478  1.00  0.00     0.338 C 
ATOM     38  O   UNL     1      -6.486  -8.993  -2.829  1.00  0.00    -0.246 OA
BRANCH  37  39
ATOM     39  C   UNL     1      -4.648  -9.787  -1.616  1.00  0.00     0.060 A 
ATOM     40  C   UNL     1      -5.132 -11.096  -1.671  1.00  0.00     0.016 A 
ATOM     41  C   UNL     1      -4.114  -9.198  -0.471  1.00  0.00     0.016 A 
ATOM     42  C   UNL     1      -5.302 -11.752  -0.479  1.00  0.00     0.010 A 
ATOM     43  C   UNL     1      -4.384  -9.810   0.717  1.00  0.00     0.010 A 
ATOM     44  C   UNL     1      -4.986 -11.070   0.704  1.00  0.00    -0.014 A 
BRANCH  44  45
ATOM     45  C   UNL     1      -5.042 -11.819   1.952  1.00  0.00     0.031 A 
ATOM     46  C   UNL     1      -3.695 -12.588   2.085  1.00  0.00     0.074 A 
ATOM     47  C   UNL     1      -6.228 -11.713   2.639  1.00  0.00     0.049 A 
ATOM     48  N   UNL     1      -3.448 -13.747   2.608  1.00  0.00    -0.248 NA
ATOM     49  C   UNL     1      -2.455 -12.066   1.414  1.00  0.00     0.031 C 
ATOM     50  C   UNL     1      -7.362 -10.807   2.298  1.00  0.00     0.029 A 
ATOM     51  N   UNL     1      -6.737 -12.325   3.763  1.00  0.00    -0.354 N 
ATOM     52  C   UNL     1      -2.037 -13.906   2.618  1.00  0.00     0.074 A 
ATOM     53  C   UNL     1      -1.508 -12.958   1.702  1.00  0.00     0.031 C 
ATOM     54  C   UNL     1      -8.426 -11.011   3.116  1.00  0.00     0.029 A 
ATOM     55  C   UNL     1      -8.095 -12.033   4.093  1.00  0.00     0.049 A 
ATOM     56  H   UNL     1      -6.191 -12.933   4.311  1.00  0.00     0.167 HD
ATOM     57  C   UNL     1      -1.393 -14.659   3.557  1.00  0.00     0.034 A 
ATOM     58  C   UNL     1      -8.876 -12.613   5.068  1.00  0.00     0.034 A 
ATOM     59  C   UNL     1      -2.374 -15.211   4.433  1.00  0.00     0.049 A 
ATOM     60  C   UNL     1      -7.916 -13.386   5.861  1.00  0.00     0.074 A 
ATOM     61  C   UNL     1      -3.327 -16.173   4.230  1.00  0.00     0.029 A 
ATOM     62  N   UNL     1      -2.726 -14.401   5.490  1.00  0.00    -0.354 N 
ATOM     63  N   UNL     1      -7.038 -12.853   6.657  1.00  0.00    -0.248 NA
ATOM     64  C   UNL     1      -7.824 -14.834   5.649  1.00  0.00     0.031 C 
ATOM     65  C   UNL     1      -4.458 -15.593   4.832  1.00  0.00     0.029 A 
ATOM     66  C   UNL     1      -4.079 -14.517   5.647  1.00  0.00     0.049 A 
ATOM     67  H   UNL     1      -2.119 -13.844   6.030  1.00  0.00     0.167 HD
ATOM     68  C   UNL     1      -6.077 -13.828   6.695  1.00  0.00     0.074 A 
ATOM     69  C   UNL     1      -6.753 -15.077   6.399  1.00  0.00     0.031 C 
ATOM     70  C   UNL     1      -4.787 -13.508   6.394  1.00  0.00     0.034 A 
BRANCH  57  71
ATOM     71  C   UNL     1       0.035 -14.772   4.025  1.00  0.00     0.023 A 
ATOM     72  C   UNL     1       0.291 -15.892   4.869  1.00  0.00     0.012 A 
ATOM     73  C   UNL     1       0.996 -13.749   3.998  1.00  0.00     0.148 A 
ATOM     74  C   UNL     1       1.352 -15.922   5.767  1.00  0.00     0.002 A 
ATOM     75  C   UNL     1       2.095 -13.813   4.861  1.00  0.00     0.091 A 
ATOM     76  F   UNL     1       0.809 -12.688   3.208  1.00  0.00    -0.205 F 
ATOM     77  C   UNL     1       2.245 -14.868   5.776  1.00  0.00     0.022 A 
BRANCH  75  78
ATOM     78  S   UNL     1       3.385 -12.564   4.907  1.00  0.00     0.127 S 
ATOM     79  O   UNL     1       3.140 -11.923   6.197  1.00  0.00    -0.237 OA
ATOM     80  O   UNL     1       4.596 -13.387   4.860  1.00  0.00    -0.237 OA
ATOM     81  O   UNL     1       3.181 -11.739   3.725  1.00  0.00    -0.744 OA
ENDBRANCH  75  78
ENDBRANCH  57  71
BRANCH  58  82
ATOM     82  C   UNL     1     -10.329 -12.742   5.504  1.00  0.00     0.023 A 
ATOM     83  C   UNL     1     -11.386 -11.952   5.038  1.00  0.00     0.012 A 
ATOM     84  C   UNL     1     -10.710 -13.816   6.381  1.00  0.00     0.148 A 
ATOM     85  C   UNL     1     -12.732 -12.277   5.345  1.00  0.00     0.002 A 
ATOM     86  C   UNL     1     -12.029 -14.218   6.563  1.00  0.00     0.091 A 
ATOM     87  F   UNL     1      -9.780 -14.449   7.102  1.00  0.00    -0.205 F 
ATOM     88  C   UNL     1     -13.056 -13.436   6.056  1.00  0.00     0.022 A 
BRANCH  86  89
ATOM     89  S   UNL     1     -12.444 -15.816   7.303  1.00  0.00     0.127 S 
ATOM     90  O   UNL     1     -13.412 -15.444   8.333  1.00  0.00    -0.237 OA
ATOM     91  O   UNL     1     -13.011 -16.527   6.157  1.00  0.00    -0.237 OA
ATOM     92  O   UNL     1     -11.196 -16.377   7.804  1.00  0.00    -0.744 OA
ENDBRANCH  86  89
ENDBRANCH  58  82
BRANCH  70  93
ATOM     93  C   UNL     1      -4.394 -12.038   6.629  1.00  0.00     0.023 A 
ATOM     94  C   UNL     1      -4.680 -11.510   7.907  1.00  0.00     0.012 A 
ATOM     95  C   UNL     1      -3.876 -11.126   5.673  1.00  0.00     0.148 A 
ATOM     96  C   UNL     1      -4.511 -10.156   8.217  1.00  0.00     0.002 A 
ATOM     97  C   UNL     1      -3.723  -9.760   5.978  1.00  0.00     0.091 A 
ATOM     98  F   UNL     1      -3.534 -11.582   4.470  1.00  0.00    -0.205 F 
ATOM     99  C   UNL     1      -4.041  -9.280   7.252  1.00  0.00     0.022 A 
BRANCH  97 100
ATOM    100  S   UNL     1      -3.168  -8.500   4.807  1.00  0.00     0.127 S 
ATOM    101  O   UNL     1      -4.323  -7.601   4.737  1.00  0.00    -0.237 OA
ATOM    102  O   UNL     1      -2.008  -7.927   5.486  1.00  0.00    -0.237 OA
ATOM    103  O   UNL     1      -2.874  -9.200   3.565  1.00  0.00    -0.744 OA
ENDBRANCH  97 100
ENDBRANCH  70  93
ENDBRANCH  44  45
ENDBRANCH  37  39
ENDBRANCH  36  37
ENDBRANCH  35  36
ENDBRANCH  34  35
ENDBRANCH  33  34
ENDBRANCH  32  33
ENDBRANCH  31  32
ENDBRANCH  30  31
ENDBRANCH  29  30
ENDBRANCH   1  29
TORSDOF 29
