REMARK SMILES Nc1ccnc(N2CCC[C@](Cc3ccc(F)cc3)(C(=O)OCCOCCOCCOCCOC(=O)c3ccc(-c4c5nc(c(-c6cccc(S(=O)(=O)[O-])c6F)c6ccc([nH]6)c(-c6cccc(S(=O)(=O)[O-])c6F)c6nc(c(-c7cccc(S(=O)(=O)[O-])c7F)c7ccc4[nH]7)C=C6)C=C5)cc3)C2)n1
REMARK SMILES IDX 29 1 28 2 27 3 26 4 25 5 24 6 23 7 22 8 20 9 21 10 11 11
REMARK SMILES IDX 7 12 8 13 100 14 9 15 10 16 6 17 2 18 3 19 101 20 4 21 5 22
REMARK SMILES IDX 1 23 12 26 13 27 14 28 19 29 15 30 18 31 16 32 17 33 30 34
REMARK SMILES IDX 31 35 32 36 33 37 34 38 35 39 36 40 37 41 38 42 99 43 39 44
REMARK SMILES IDX 98 45 40 46 41 47 42 48 92 49 43 50 97 51 91 52 93 53 44 54
REMARK SMILES IDX 96 55 90 56 89 57 45 59 77 60 57 61 76 62 58 63 61 64 75 65
REMARK SMILES IDX 94 66 59 67 60 68 74 70 95 71 62 72 46 73 47 74 55 75 48 76
REMARK SMILES IDX 50 77 56 78 49 79 51 80 52 81 53 82 54 83 78 84 79 85 87 86
REMARK SMILES IDX 80 87 82 88 88 89 81 90 83 91 84 92 85 93 86 94 63 95 64 96
REMARK SMILES IDX 72 97 65 98 67 99 73 100 66 101 68 102 69 103 70 104 71 105
REMARK H PARENT 1 24 1 25 93 58 61 69
REMARK Flexibility Score: inf
ROOT
ATOM      1  C   UNL     1       2.062  -4.757   0.621  1.00  0.00     0.188 C 
ENDROOT
BRANCH   1   2
ATOM      2  O   UNL     1       0.956  -5.333  -0.070  1.00  0.00    -0.377 OA
BRANCH   2   3
ATOM      3  C   UNL     1       0.961  -6.698  -0.450  1.00  0.00     0.188 C 
BRANCH   3   4
ATOM      4  C   UNL     1       0.524  -6.870  -1.905  1.00  0.00     0.188 C 
BRANCH   4   5
ATOM      5  O   UNL     1       1.409  -6.359  -2.901  1.00  0.00    -0.376 OA
BRANCH   5   6
ATOM      6  C   UNL     1       1.844  -5.005  -2.779  1.00  0.00     0.202 C 
BRANCH   6   7
ATOM      7  C   UNL     1       0.794  -3.885  -2.894  1.00  0.00     0.261 C 
BRANCH   7   8
ATOM      8  O   UNL     1      -0.232  -3.883  -1.877  1.00  0.00    -0.463 OA
BRANCH   8   9
ATOM      9  C   UNL     1      -1.461  -4.281  -2.279  1.00  0.00     0.314 C 
ATOM     10  O   UNL     1      -1.668  -4.707  -3.416  1.00  0.00    -0.252 OA
BRANCH   9  11
ATOM     11  C   UNL     1      -2.594  -4.151  -1.224  1.00  0.00     0.090 C 
ATOM     12  N   UNL     1      -1.853  -2.238   0.084  1.00  0.00    -0.340 N 
ATOM     13  C   UNL     1      -2.007  -2.796   1.401  1.00  0.00     0.120 C 
ATOM     14  C   UNL     1      -2.777  -2.646  -0.947  1.00  0.00     0.138 C 
ATOM     15  C   UNL     1      -1.743  -4.286   1.300  1.00  0.00     0.023 C 
ATOM     16  C   UNL     1      -2.400  -4.971   0.092  1.00  0.00     0.023 C 
BRANCH  12  17
ATOM     17  C   UNL     1      -1.293  -0.992   0.026  1.00  0.00     0.227 A 
ATOM     18  C   UNL     1       0.623   0.238  -0.038  1.00  0.00     0.128 A 
ATOM     19  C   UNL     1      -0.083   1.409  -0.095  1.00  0.00     0.067 A 
ATOM     20  N   UNL     1       0.043  -0.956   0.075  1.00  0.00    -0.196 NA
ATOM     21  C   UNL     1      -1.447   1.276  -0.125  1.00  0.00     0.119 A 
ATOM     22  N   UNL     1      -2.080   0.086  -0.089  1.00  0.00    -0.221 NA
BRANCH  18  23
ATOM     23  N   UNL     1       1.997   0.228  -0.061  1.00  0.00    -0.384 N 
ATOM     24  H   UNL     1       2.494   1.074  -0.142  1.00  0.00     0.158 HD
ATOM     25  H   UNL     1       2.485  -0.625   0.004  1.00  0.00     0.158 HD
ENDBRANCH  18  23
ENDBRANCH  12  17
BRANCH  11  26
ATOM     26  C   UNL     1      -3.820  -4.760  -2.006  1.00  0.00     0.056 C 
BRANCH  26  27
ATOM     27  C   UNL     1      -5.157  -4.883  -1.315  1.00  0.00    -0.047 A 
ATOM     28  C   UNL     1      -5.983  -3.764  -1.162  1.00  0.00     0.007 A 
ATOM     29  C   UNL     1      -5.599  -6.133  -0.850  1.00  0.00     0.007 A 
ATOM     30  C   UNL     1      -7.203  -3.877  -0.500  1.00  0.00     0.039 A 
ATOM     31  C   UNL     1      -6.829  -6.249  -0.206  1.00  0.00     0.039 A 
ATOM     32  C   UNL     1      -7.613  -5.117  -0.026  1.00  0.00     0.123 A 
ATOM     33  F   UNL     1      -8.789  -5.223   0.606  1.00  0.00    -0.207 F 
ENDBRANCH  26  27
ENDBRANCH  11  26
ENDBRANCH   9  11
ENDBRANCH   8   9
ENDBRANCH   7   8
ENDBRANCH   6   7
ENDBRANCH   5   6
ENDBRANCH   4   5
ENDBRANCH   3   4
ENDBRANCH   2   3
ENDBRANCH   1   2
BRANCH   1  34
ATOM     34  C   UNL     1       3.159  -5.716   1.067  1.00  0.00     0.188 C 
BRANCH  34  35
ATOM     35  O   UNL     1       2.755  -6.781   1.934  1.00  0.00    -0.376 OA
BRANCH  35  36
ATOM     36  C   UNL     1       1.714  -6.517   2.873  1.00  0.00     0.202 C 
BRANCH  36  37
ATOM     37  C   UNL     1       2.155  -5.825   4.162  1.00  0.00     0.261 C 
BRANCH  37  38
ATOM     38  O   UNL     1       2.633  -4.493   3.926  1.00  0.00    -0.460 OA
BRANCH  38  39
ATOM     39  C   UNL     1       3.982  -4.379   3.851  1.00  0.00     0.338 C 
ATOM     40  O   UNL     1       4.805  -5.266   3.980  1.00  0.00    -0.246 OA
BRANCH  39  41
ATOM     41  C   UNL     1       4.333  -3.014   3.417  1.00  0.00     0.060 A 
ATOM     42  C   UNL     1       5.268  -2.865   2.382  1.00  0.00     0.016 A 
ATOM     43  C   UNL     1       3.816  -1.900   4.078  1.00  0.00     0.016 A 
ATOM     44  C   UNL     1       5.735  -1.600   2.042  1.00  0.00     0.010 A 
ATOM     45  C   UNL     1       4.296  -0.634   3.746  1.00  0.00     0.010 A 
ATOM     46  C   UNL     1       5.291  -0.487   2.761  1.00  0.00    -0.014 A 
BRANCH  46  47
ATOM     47  C   UNL     1       5.995   0.807   2.633  1.00  0.00     0.031 A 
ATOM     48  C   UNL     1       6.977   1.189   3.698  1.00  0.00     0.074 A 
ATOM     49  C   UNL     1       5.755   1.632   1.601  1.00  0.00     0.049 A 
ATOM     50  N   UNL     1       7.632   2.307   3.843  1.00  0.00    -0.248 NA
ATOM     51  C   UNL     1       7.280   0.170   4.719  1.00  0.00     0.031 C 
ATOM     52  C   UNL     1       4.904   1.312   0.465  1.00  0.00     0.029 A 
ATOM     53  N   UNL     1       6.164   2.918   1.360  1.00  0.00    -0.354 N 
ATOM     54  C   UNL     1       8.421   2.132   4.971  1.00  0.00     0.074 A 
ATOM     55  C   UNL     1       8.144   0.812   5.491  1.00  0.00     0.031 C 
ATOM     56  C   UNL     1       4.756   2.406  -0.300  1.00  0.00     0.029 A 
ATOM     57  C   UNL     1       5.515   3.499   0.295  1.00  0.00     0.049 A 
ATOM     58  H   UNL     1       6.850   3.378   1.895  1.00  0.00     0.167 HD
ATOM     59  C   UNL     1       9.318   2.992   5.500  1.00  0.00     0.034 A 
ATOM     60  C   UNL     1       5.515   4.774  -0.137  1.00  0.00     0.034 A 
ATOM     61  C   UNL     1       9.584   4.296   4.960  1.00  0.00     0.049 A 
ATOM     62  C   UNL     1       6.443   5.750   0.529  1.00  0.00     0.074 A 
ATOM     63  C   UNL     1      10.500   5.233   5.399  1.00  0.00     0.029 A 
ATOM     64  N   UNL     1       8.925   4.853   3.875  1.00  0.00    -0.354 N 
ATOM     65  N   UNL     1       7.254   5.545   1.539  1.00  0.00    -0.248 NA
ATOM     66  C   UNL     1       6.511   7.104  -0.034  1.00  0.00     0.031 C 
ATOM     67  C   UNL     1      10.365   6.374   4.606  1.00  0.00     0.029 A 
ATOM     68  C   UNL     1       9.399   6.131   3.641  1.00  0.00     0.049 A 
ATOM     69  H   UNL     1       8.224   4.406   3.348  1.00  0.00     0.167 HD
ATOM     70  C   UNL     1       7.973   6.722   1.695  1.00  0.00     0.074 A 
ATOM     71  C   UNL     1       7.497   7.638   0.677  1.00  0.00     0.031 C 
ATOM     72  C   UNL     1       8.944   7.012   2.595  1.00  0.00     0.034 A 
BRANCH  59  73
ATOM     73  C   UNL     1      10.095   2.545   6.706  1.00  0.00     0.023 A 
ATOM     74  C   UNL     1      11.110   1.578   6.564  1.00  0.00     0.012 A 
ATOM     75  C   UNL     1       9.879   3.148   7.959  1.00  0.00     0.148 A 
ATOM     76  C   UNL     1      11.891   1.207   7.658  1.00  0.00     0.002 A 
ATOM     77  C   UNL     1      10.693   2.809   9.032  1.00  0.00     0.091 A 
ATOM     78  F   UNL     1       8.889   4.044   8.074  1.00  0.00    -0.205 F 
ATOM     79  C   UNL     1      11.693   1.832   8.886  1.00  0.00     0.022 A 
BRANCH  77  80
ATOM     80  S   UNL     1      10.575   3.617  10.630  1.00  0.00     0.127 S 
ATOM     81  O   UNL     1      10.149   2.513  11.489  1.00  0.00    -0.237 OA
ATOM     82  O   UNL     1      11.950   4.064  10.848  1.00  0.00    -0.237 OA
ATOM     83  O   UNL     1       9.601   4.688  10.472  1.00  0.00    -0.744 OA
ENDBRANCH  77  80
ENDBRANCH  59  73
BRANCH  60  84
ATOM     84  C   UNL     1       4.658   5.165  -1.291  1.00  0.00     0.023 A 
ATOM     85  C   UNL     1       5.252   5.450  -2.534  1.00  0.00     0.012 A 
ATOM     86  C   UNL     1       3.253   5.194  -1.178  1.00  0.00     0.148 A 
ATOM     87  C   UNL     1       4.466   5.784  -3.637  1.00  0.00     0.002 A 
ATOM     88  C   UNL     1       2.473   5.482  -2.292  1.00  0.00     0.091 A 
ATOM     89  F   UNL     1       2.704   4.917   0.014  1.00  0.00    -0.205 F 
ATOM     90  C   UNL     1       3.078   5.792  -3.520  1.00  0.00     0.022 A 
BRANCH  88  91
ATOM     91  S   UNL     1       0.678   5.382  -2.268  1.00  0.00     0.127 S 
ATOM     92  O   UNL     1       0.296   6.784  -2.405  1.00  0.00    -0.237 OA
ATOM     93  O   UNL     1       0.409   4.548  -3.439  1.00  0.00    -0.237 OA
ATOM     94  O   UNL     1       0.334   4.752  -1.000  1.00  0.00    -0.744 OA
ENDBRANCH  88  91
ENDBRANCH  60  84
BRANCH  72  95
ATOM     95  C   UNL     1       9.601   8.363   2.511  1.00  0.00     0.023 A 
ATOM     96  C   UNL     1       8.900   9.512   2.924  1.00  0.00     0.012 A 
ATOM     97  C   UNL     1      10.957   8.470   2.141  1.00  0.00     0.148 A 
ATOM     98  C   UNL     1       9.534  10.752   2.952  1.00  0.00     0.002 A 
ATOM     99  C   UNL     1      11.597   9.698   2.227  1.00  0.00     0.091 A 
ATOM    100  F   UNL     1      11.597   7.364   1.735  1.00  0.00    -0.205 F 
ATOM    101  C   UNL     1      10.885  10.843   2.620  1.00  0.00     0.022 A 
BRANCH  99 102
ATOM    102  S   UNL     1      13.358   9.891   1.931  1.00  0.00     0.127 S 
ATOM    103  O   UNL     1      13.368  10.685   0.704  1.00  0.00    -0.237 OA
ATOM    104  O   UNL     1      13.794  10.611   3.128  1.00  0.00    -0.237 OA
ATOM    105  O   UNL     1      13.897   8.543   1.803  1.00  0.00    -0.744 OA
ENDBRANCH  99 102
ENDBRANCH  72  95
ENDBRANCH  46  47
ENDBRANCH  39  41
ENDBRANCH  38  39
ENDBRANCH  37  38
ENDBRANCH  36  37
ENDBRANCH  35  36
ENDBRANCH  34  35
ENDBRANCH   1  34
TORSDOF 27
