REMARK SMILES CCOC(=O)[C@@]1(C)C/C(=N/c2cccc(C(=O)OCCOCCOCCOCCOC(=O)c3ccc(-c4c5nc(c(-c6cccc(S(=O)(=O)[O-])c6F)c6ccc([nH]6)c(-c6cccc(S(=O)(=O)[O-])c6F)c6nc(c(-c7cccc(S(=O)(=O)[O-])c7F)c7ccc4[nH]7)C=C6)C=C5)cc3)c2)C(=O)N1c1ccccc1
REMARK SMILES IDX 23 1 22 2 21 3 20 4 19 5 18 6 16 7 17 8 15 9 11 10 12 11
REMARK SMILES IDX 96 12 13 13 14 14 10 15 6 16 7 17 8 18 99 19 9 20 97 21
REMARK SMILES IDX 98 22 4 23 5 24 3 25 2 26 1 27 100 28 101 29 105 30 102 31
REMARK SMILES IDX 104 32 103 33 24 34 25 35 26 36 27 37 28 38 29 39 30 40
REMARK SMILES IDX 31 41 32 42 33 43 34 44 95 45 35 46 94 47 36 48 37 49 38 50
REMARK SMILES IDX 88 51 39 52 93 53 87 54 89 55 40 56 92 57 86 58 85 59 41 61
REMARK SMILES IDX 73 62 53 63 72 64 54 65 57 66 71 67 90 68 55 69 56 70 70 72
REMARK SMILES IDX 91 73 58 74 42 75 43 76 51 77 44 78 46 79 52 80 45 81 47 82
REMARK SMILES IDX 48 83 49 84 50 85 74 86 75 87 83 88 76 89 78 90 84 91 77 92
REMARK SMILES IDX 79 93 80 94 81 95 82 96 59 97 60 98 68 99 61 100 63 101
REMARK SMILES IDX 69 102 62 103 64 104 65 105 66 106 67 107
REMARK H PARENT 89 60 57 71
REMARK Flexibility Score: inf
ROOT
ATOM      1  C   UNL     1       7.818 -10.098  -1.815  1.00  0.00     0.188 C 
ENDROOT
BRANCH   1   2
ATOM      2  C   UNL     1       7.621 -11.427  -2.563  1.00  0.00     0.188 C 
BRANCH   2   3
ATOM      3  O   UNL     1       7.625 -11.277  -3.987  1.00  0.00    -0.376 OA
BRANCH   3   4
ATOM      4  C   UNL     1       6.338 -11.152  -4.597  1.00  0.00     0.202 C 
BRANCH   4   5
ATOM      5  C   UNL     1       5.678  -9.771  -4.489  1.00  0.00     0.261 C 
BRANCH   5   6
ATOM      6  O   UNL     1       5.225  -9.419  -3.171  1.00  0.00    -0.460 OA
BRANCH   6   7
ATOM      7  C   UNL     1       4.255 -10.169  -2.606  1.00  0.00     0.338 C 
ATOM      8  O   UNL     1       3.715 -11.151  -3.086  1.00  0.00    -0.246 OA
BRANCH   7   9
ATOM      9  C   UNL     1       4.028  -9.684  -1.223  1.00  0.00     0.062 A 
ATOM     10  C   UNL     1       3.918  -7.882   0.403  1.00  0.00     0.064 A 
ATOM     11  C   UNL     1       3.591  -8.815   1.390  1.00  0.00     0.028 A 
ATOM     12  C   UNL     1       4.185  -8.333  -0.895  1.00  0.00     0.044 A 
ATOM     13  C   UNL     1       3.466 -10.172   1.077  1.00  0.00     0.003 A 
ATOM     14  C   UNL     1       3.665 -10.605  -0.235  1.00  0.00     0.016 A 
BRANCH  10  15
ATOM     15  N   UNL     1       4.040  -6.524   0.738  1.00  0.00    -0.248 NA
ATOM     16  C   UNL     1       3.255  -3.773  -1.248  1.00  0.00     0.148 C 
ATOM     17  C   UNL     1       4.588  -3.842  -2.015  1.00  0.00     0.048 C 
ATOM     18  C   UNL     1       3.528  -4.190   0.227  1.00  0.00     0.103 C 
ATOM     19  N   UNL     1       2.282  -4.785  -1.754  1.00  0.00    -0.290 N 
ATOM     20  C   UNL     1       3.300  -5.651   0.123  1.00  0.00     0.109 C 
ATOM     21  C   UNL     1       2.214  -5.883  -0.897  1.00  0.00     0.273 C 
ATOM     22  O   UNL     1       1.495  -6.850  -0.861  1.00  0.00    -0.267 OA
BRANCH  16  23
ATOM     23  C   UNL     1       2.755  -2.318  -1.107  1.00  0.00     0.332 C 
ATOM     24  O   UNL     1       3.466  -1.397  -0.721  1.00  0.00    -0.249 OA
BRANCH  23  25
ATOM     25  O   UNL     1       1.412  -2.213  -1.308  1.00  0.00    -0.464 OA
BRANCH  25  26
ATOM     26  C   UNL     1       0.895  -0.877  -1.367  1.00  0.00     0.229 C 
ATOM     27  C   UNL     1       0.567  -0.372   0.026  1.00  0.00     0.049 C 
ENDBRANCH  25  26
ENDBRANCH  23  25
ENDBRANCH  16  23
BRANCH  19  28
ATOM     28  C   UNL     1       1.579  -4.694  -3.000  1.00  0.00     0.045 A 
ATOM     29  C   UNL     1       0.615  -5.649  -3.368  1.00  0.00     0.026 A 
ATOM     30  C   UNL     1       1.829  -3.666  -3.920  1.00  0.00     0.026 A 
ATOM     31  C   UNL     1      -0.058  -5.584  -4.596  1.00  0.00     0.002 A 
ATOM     32  C   UNL     1       1.163  -3.599  -5.151  1.00  0.00     0.002 A 
ATOM     33  C   UNL     1       0.220  -4.560  -5.491  1.00  0.00     0.000 A 
ENDBRANCH  19  28
ENDBRANCH  10  15
ENDBRANCH   7   9
ENDBRANCH   6   7
ENDBRANCH   5   6
ENDBRANCH   4   5
ENDBRANCH   3   4
ENDBRANCH   2   3
ENDBRANCH   1   2
BRANCH   1  34
ATOM     34  O   UNL     1       8.258  -9.063  -2.692  1.00  0.00    -0.377 OA
BRANCH  34  35
ATOM     35  C   UNL     1       9.669  -8.869  -2.815  1.00  0.00     0.188 C 
BRANCH  35  36
ATOM     36  C   UNL     1      10.562 -10.124  -2.771  1.00  0.00     0.188 C 
BRANCH  36  37
ATOM     37  O   UNL     1      10.696 -10.640  -1.436  1.00  0.00    -0.376 OA
BRANCH  37  38
ATOM     38  C   UNL     1      12.000 -10.496  -0.865  1.00  0.00     0.202 C 
BRANCH  38  39
ATOM     39  C   UNL     1      12.152  -9.209  -0.043  1.00  0.00     0.261 C 
BRANCH  39  40
ATOM     40  O   UNL     1      12.063  -8.003  -0.817  1.00  0.00    -0.460 OA
BRANCH  40  41
ATOM     41  C   UNL     1      13.034  -7.806  -1.737  1.00  0.00     0.338 C 
ATOM     42  O   UNL     1      13.985  -8.535  -1.959  1.00  0.00    -0.246 OA
BRANCH  41  43
ATOM     43  C   UNL     1      12.700  -6.612  -2.542  1.00  0.00     0.060 A 
ATOM     44  C   UNL     1      12.954  -6.648  -3.919  1.00  0.00     0.016 A 
ATOM     45  C   UNL     1      12.190  -5.454  -1.944  1.00  0.00     0.016 A 
ATOM     46  C   UNL     1      12.744  -5.508  -4.694  1.00  0.00     0.010 A 
ATOM     47  C   UNL     1      11.997  -4.309  -2.717  1.00  0.00     0.010 A 
ATOM     48  C   UNL     1      12.306  -4.322  -4.087  1.00  0.00    -0.014 A 
BRANCH  48  49
ATOM     49  C   UNL     1      12.340  -3.045  -4.833  1.00  0.00     0.031 A 
ATOM     50  C   UNL     1      13.635  -2.282  -4.889  1.00  0.00     0.074 A 
ATOM     51  C   UNL     1      11.228  -2.549  -5.403  1.00  0.00     0.049 A 
ATOM     52  N   UNL     1      13.899  -1.147  -5.479  1.00  0.00    -0.248 NA
ATOM     53  C   UNL     1      14.786  -2.882  -4.191  1.00  0.00     0.031 C 
ATOM     54  C   UNL     1       9.918  -3.197  -5.400  1.00  0.00     0.029 A 
ATOM     55  N   UNL     1      11.021  -1.370  -6.073  1.00  0.00    -0.354 N 
ATOM     56  C   UNL     1      15.242  -0.897  -5.227  1.00  0.00     0.074 A 
ATOM     57  C   UNL     1      15.740  -1.993  -4.426  1.00  0.00     0.031 C 
ATOM     58  C   UNL     1       9.034  -2.393  -6.018  1.00  0.00     0.029 A 
ATOM     59  C   UNL     1       9.714  -1.174  -6.451  1.00  0.00     0.049 A 
ATOM     60  H   UNL     1      11.741  -0.726  -6.265  1.00  0.00     0.167 HD
ATOM     61  C   UNL     1      16.000   0.142  -5.645  1.00  0.00     0.034 A 
ATOM     62  C   UNL     1       9.138  -0.126  -7.075  1.00  0.00     0.034 A 
ATOM     63  C   UNL     1      15.508   1.232  -6.439  1.00  0.00     0.049 A 
ATOM     64  C   UNL     1       9.998   1.043  -7.487  1.00  0.00     0.074 A 
ATOM     65  C   UNL     1      16.204   2.316  -6.941  1.00  0.00     0.029 A 
ATOM     66  N   UNL     1      14.188   1.381  -6.831  1.00  0.00    -0.354 N 
ATOM     67  N   UNL     1      11.297   1.191  -7.377  1.00  0.00    -0.248 NA
ATOM     68  C   UNL     1       9.319   2.178  -8.130  1.00  0.00     0.031 C 
ATOM     69  C   UNL     1      15.300   3.122  -7.645  1.00  0.00     0.029 A 
ATOM     70  C   UNL     1      14.042   2.545  -7.562  1.00  0.00     0.049 A 
ATOM     71  H   UNL     1      13.461   0.751  -6.621  1.00  0.00     0.167 HD
ATOM     72  C   UNL     1      11.595   2.417  -7.962  1.00  0.00     0.074 A 
ATOM     73  C   UNL     1      10.341   2.969  -8.434  1.00  0.00     0.031 C 
ATOM     74  C   UNL     1      12.793   3.040  -8.082  1.00  0.00     0.034 A 
BRANCH  61  75
ATOM     75  C   UNL     1      17.460   0.100  -5.303  1.00  0.00     0.023 A 
ATOM     76  C   UNL     1      18.331  -0.601  -6.162  1.00  0.00     0.012 A 
ATOM     77  C   UNL     1      17.974   0.740  -4.162  1.00  0.00     0.148 A 
ATOM     78  C   UNL     1      19.695  -0.669  -5.883  1.00  0.00     0.002 A 
ATOM     79  C   UNL     1      19.340   0.678  -3.897  1.00  0.00     0.091 A 
ATOM     80  F   UNL     1      17.125   1.361  -3.330  1.00  0.00    -0.205 F 
ATOM     81  C   UNL     1      20.201  -0.025  -4.755  1.00  0.00     0.022 A 
BRANCH  79  82
ATOM     82  S   UNL     1      20.035   1.511  -2.462  1.00  0.00     0.127 S 
ATOM     83  O   UNL     1      19.841   0.516  -1.411  1.00  0.00    -0.237 OA
ATOM     84  O   UNL     1      21.432   1.723  -2.845  1.00  0.00    -0.237 OA
ATOM     85  O   UNL     1      19.259   2.738  -2.341  1.00  0.00    -0.744 OA
ENDBRANCH  79  82
ENDBRANCH  61  75
BRANCH  62  86
ATOM     86  C   UNL     1       7.689  -0.174  -7.420  1.00  0.00     0.023 A 
ATOM     87  C   UNL     1       7.314  -0.333  -8.768  1.00  0.00     0.012 A 
ATOM     88  C   UNL     1       6.683  -0.111  -6.438  1.00  0.00     0.148 A 
ATOM     89  C   UNL     1       5.967  -0.410  -9.130  1.00  0.00     0.002 A 
ATOM     90  C   UNL     1       5.343  -0.228  -6.802  1.00  0.00     0.091 A 
ATOM     91  F   UNL     1       7.040   0.041  -5.153  1.00  0.00    -0.205 F 
ATOM     92  C   UNL     1       4.980  -0.366  -8.148  1.00  0.00     0.022 A 
BRANCH  90  93
ATOM     93  S   UNL     1       4.083  -0.268  -5.525  1.00  0.00     0.127 S 
ATOM     94  O   UNL     1       4.161   1.069  -4.946  1.00  0.00    -0.237 OA
ATOM     95  O   UNL     1       2.847  -0.535  -6.266  1.00  0.00    -0.237 OA
ATOM     96  O   UNL     1       4.504  -1.378  -4.672  1.00  0.00    -0.744 OA
ENDBRANCH  90  93
ENDBRANCH  62  86
BRANCH  74  97
ATOM     97  C   UNL     1      12.821   4.385  -8.751  1.00  0.00     0.023 A 
ATOM     98  C   UNL     1      12.510   5.529  -7.992  1.00  0.00     0.012 A 
ATOM     99  C   UNL     1      13.260   4.531 -10.081  1.00  0.00     0.148 A 
ATOM    100  C   UNL     1      12.633   6.801  -8.549  1.00  0.00     0.002 A 
ATOM    101  C   UNL     1      13.406   5.805 -10.622  1.00  0.00     0.091 A 
ATOM    102  F   UNL     1      13.529   3.430 -10.799  1.00  0.00    -0.205 F 
ATOM    103  C   UNL     1      13.093   6.941  -9.859  1.00  0.00     0.022 A 
BRANCH 101 104
ATOM    104  S   UNL     1      14.071   6.024 -12.279  1.00  0.00     0.127 S 
ATOM    105  O   UNL     1      12.880   5.869 -13.110  1.00  0.00    -0.237 OA
ATOM    106  O   UNL     1      14.614   7.383 -12.245  1.00  0.00    -0.237 OA
ATOM    107  O   UNL     1      15.085   4.985 -12.406  1.00  0.00    -0.744 OA
ENDBRANCH 101 104
ENDBRANCH  74  97
ENDBRANCH  48  49
ENDBRANCH  41  43
ENDBRANCH  40  41
ENDBRANCH  39  40
ENDBRANCH  38  39
ENDBRANCH  37  38
ENDBRANCH  36  37
ENDBRANCH  35  36
ENDBRANCH  34  35
ENDBRANCH   1  34
TORSDOF 28
