REMARK SMILES O=C(OCCOCCOCCOCCOC(=O)c1ccc(-c2c3nc(c(-c4cccc(S(=O)(=O)[O-])c4F)c4ccc([nH]4)c(-c4cccc(S(=O)(=O)[O-])c4F)c4nc(c(-c5cccc(S(=O)(=O)[O-])c5F)c5ccc2[nH]5)C=C4)C=C3)cc1)C1=Cc2cc(Cl)c(Cl)c(Cl)c2O[C@@H]1C(F)(F)F
REMARK SMILES IDX 10 1 9 2 8 3 7 4 6 5 5 6 4 7 3 8 2 9 1 10 81 11 82 12 93 13
REMARK SMILES IDX 83 14 92 15 84 16 91 17 85 18 89 19 86 20 87 21 90 22 88 23
REMARK SMILES IDX 94 24 95 25 96 26 97 27 11 28 12 29 13 30 14 31 15 32 16 33
REMARK SMILES IDX 17 34 18 35 19 36 80 37 20 38 79 39 21 40 22 41 23 42 73 43
REMARK SMILES IDX 24 44 78 45 72 46 74 47 25 48 77 49 71 50 70 51 26 53 58 54
REMARK SMILES IDX 38 55 57 56 39 57 42 58 56 59 75 60 40 61 41 62 55 64 76 65
REMARK SMILES IDX 43 66 27 67 28 68 36 69 29 70 31 71 37 72 30 73 32 74 33 75
REMARK SMILES IDX 34 76 35 77 59 78 60 79 68 80 61 81 63 82 69 83 62 84 64 85
REMARK SMILES IDX 65 86 66 87 67 88 44 89 45 90 53 91 46 92 48 93 54 94 47 95
REMARK SMILES IDX 49 96 50 97 51 98 52 99
REMARK H PARENT 74 52 42 63
REMARK Flexibility Score: inf
ROOT
ATOM      1  C   UNL     1       4.230   3.155  -1.868  1.00  0.00     0.188 C 
ENDROOT
BRANCH   1   2
ATOM      2  O   UNL     1       2.885   3.573  -1.846  1.00  0.00    -0.377 OA
BRANCH   2   3
ATOM      3  C   UNL     1       2.034   2.565  -1.353  1.00  0.00     0.188 C 
BRANCH   3   4
ATOM      4  C   UNL     1       2.281   2.207   0.117  1.00  0.00     0.188 C 
BRANCH   4   5
ATOM      5  O   UNL     1       3.580   1.788   0.647  1.00  0.00    -0.376 OA
BRANCH   5   6
ATOM      6  C   UNL     1       4.321   0.336   0.819  1.00  0.00     0.202 C 
BRANCH   6   7
ATOM      7  C   UNL     1       3.636  -1.624   0.153  1.00  0.00     0.261 C 
BRANCH   7   8
ATOM      8  O   UNL     1       2.806  -2.621   0.977  1.00  0.00    -0.460 OA
BRANCH   8   9
ATOM      9  C   UNL     1       3.027  -2.525   2.293  1.00  0.00     0.338 C 
ATOM     10  O   UNL     1       2.474  -3.072   3.212  1.00  0.00    -0.246 OA
BRANCH   9  11
ATOM     11  C   UNL     1       3.805  -1.311   2.219  1.00  0.00     0.087 C 
ATOM     12  C   UNL     1       5.193  -1.560   1.786  1.00  0.00     0.027 C 
ATOM     13  C   UNL     1       2.493  -0.308   1.221  1.00  0.00     0.316 C 
ATOM     14  C   UNL     1       5.820  -1.131   0.149  1.00  0.00     0.020 A 
ATOM     15  O   UNL     1       3.115   0.056  -0.586  1.00  0.00    -0.474 OA
ATOM     16  C   UNL     1       7.102  -1.477  -0.177  1.00  0.00     0.034 A 
ATOM     17  C   UNL     1       4.814  -0.436  -1.077  1.00  0.00     0.148 A 
ATOM     18  C   UNL     1       7.492  -1.199  -1.505  1.00  0.00     0.062 A 
ATOM     19  C   UNL     1       5.259  -0.256  -2.369  1.00  0.00     0.103 A 
ATOM     20  Cl  UNL     1       9.149  -1.642  -1.849  1.00  0.00    -0.083 Cl
ATOM     21  C   UNL     1       6.630  -0.621  -2.550  1.00  0.00     0.082 A 
ATOM     22  Cl  UNL     1       4.240   0.253  -3.643  1.00  0.00    -0.079 Cl
ATOM     23  Cl  UNL     1       7.362  -0.350  -4.120  1.00  0.00    -0.081 Cl
BRANCH  13  24
ATOM     24  C   UNL     1       2.085   0.679   2.464  1.00  0.00     0.430 C 
ATOM     25  F   UNL     1       1.131   1.602   2.251  1.00  0.00    -0.167 F 
ATOM     26  F   UNL     1       1.554  -0.126   3.437  1.00  0.00    -0.167 F 
ATOM     27  F   UNL     1       3.130   1.290   3.074  1.00  0.00    -0.167 F 
ENDBRANCH  13  24
ENDBRANCH   9  11
ENDBRANCH   8   9
ENDBRANCH   7   8
ENDBRANCH   6   7
ENDBRANCH   5   6
ENDBRANCH   4   5
ENDBRANCH   3   4
ENDBRANCH   2   3
ENDBRANCH   1   2
BRANCH   1  28
ATOM     28  C   UNL     1       5.188   3.932  -0.960  1.00  0.00     0.188 C 
BRANCH  28  29
ATOM     29  O   UNL     1       4.736   4.791   0.074  1.00  0.00    -0.376 OA
BRANCH  29  30
ATOM     30  C   UNL     1       3.546   5.548  -0.070  1.00  0.00     0.202 C 
BRANCH  30  31
ATOM     31  C   UNL     1       3.354   6.539  -1.230  1.00  0.00     0.261 C 
BRANCH  31  32
ATOM     32  O   UNL     1       3.636   6.043  -2.544  1.00  0.00    -0.460 OA
BRANCH  32  33
ATOM     33  C   UNL     1       4.884   6.287  -3.004  1.00  0.00     0.338 C 
ATOM     34  O   UNL     1       5.756   6.931  -2.443  1.00  0.00    -0.246 OA
BRANCH  33  35
ATOM     35  C   UNL     1       5.129   5.482  -4.221  1.00  0.00     0.060 A 
ATOM     36  C   UNL     1       6.312   4.728  -4.284  1.00  0.00     0.016 A 
ATOM     37  C   UNL     1       4.228   5.467  -5.287  1.00  0.00     0.016 A 
ATOM     38  C   UNL     1       6.618   3.988  -5.422  1.00  0.00     0.010 A 
ATOM     39  C   UNL     1       4.557   4.762  -6.448  1.00  0.00     0.010 A 
ATOM     40  C   UNL     1       5.773   4.058  -6.533  1.00  0.00    -0.014 A 
BRANCH  40  41
ATOM     41  C   UNL     1       6.284   3.618  -7.851  1.00  0.00     0.031 A 
ATOM     42  C   UNL     1       6.864   4.666  -8.760  1.00  0.00     0.074 A 
ATOM     43  C   UNL     1       6.246   2.330  -8.230  1.00  0.00     0.049 A 
ATOM     44  N   UNL     1       7.304   4.551  -9.984  1.00  0.00    -0.248 NA
ATOM     45  C   UNL     1       6.957   6.031  -8.213  1.00  0.00     0.031 C 
ATOM     46  C   UNL     1       5.744   1.225  -7.418  1.00  0.00     0.029 A 
ATOM     47  N   UNL     1       6.612   1.742  -9.415  1.00  0.00    -0.354 N 
ATOM     48  C   UNL     1       7.682   5.831 -10.369  1.00  0.00     0.074 A 
ATOM     49  C   UNL     1       7.423   6.708  -9.250  1.00  0.00     0.031 C 
ATOM     50  C   UNL     1       5.795   0.095  -8.144  1.00  0.00     0.029 A 
ATOM     51  C   UNL     1       6.296   0.406  -9.482  1.00  0.00     0.049 A 
ATOM     52  H   UNL     1       7.058   2.230 -10.145  1.00  0.00     0.167 HD
ATOM     53  C   UNL     1       8.200   6.239 -11.550  1.00  0.00     0.034 A 
ATOM     54  C   UNL     1       6.363  -0.451 -10.520  1.00  0.00     0.034 A 
ATOM     55  C   UNL     1       8.460   5.359 -12.655  1.00  0.00     0.049 A 
ATOM     56  C   UNL     1       6.896   0.039 -11.844  1.00  0.00     0.074 A 
ATOM     57  C   UNL     1       9.024   5.664 -13.880  1.00  0.00     0.029 A 
ATOM     58  N   UNL     1       8.148   4.009 -12.681  1.00  0.00    -0.354 N 
ATOM     59  N   UNL     1       7.341   1.230 -12.167  1.00  0.00    -0.248 NA
ATOM     60  C   UNL     1       6.958  -0.939 -12.941  1.00  0.00     0.031 C 
ATOM     61  C   UNL     1       9.004   4.508 -14.667  1.00  0.00     0.029 A 
ATOM     62  C   UNL     1       8.483   3.470 -13.910  1.00  0.00     0.049 A 
ATOM     63  H   UNL     1       7.748   3.507 -11.934  1.00  0.00     0.167 HD
ATOM     64  C   UNL     1       7.772   1.134 -13.486  1.00  0.00     0.074 A 
ATOM     65  C   UNL     1       7.549  -0.237 -13.898  1.00  0.00     0.031 C 
ATOM     66  C   UNL     1       8.297   2.093 -14.289  1.00  0.00     0.034 A 
BRANCH  53  67
ATOM     67  C   UNL     1       8.503   7.705 -11.714  1.00  0.00     0.023 A 
ATOM     68  C   UNL     1       9.573   8.292 -11.010  1.00  0.00     0.012 A 
ATOM     69  C   UNL     1       7.749   8.490 -12.608  1.00  0.00     0.148 A 
ATOM     70  C   UNL     1       9.867   9.646 -11.168  1.00  0.00     0.002 A 
ATOM     71  C   UNL     1       8.080   9.825 -12.799  1.00  0.00     0.091 A 
ATOM     72  F   UNL     1       6.720   7.918 -13.250  1.00  0.00    -0.205 F 
ATOM     73  C   UNL     1       9.129  10.408 -12.069  1.00  0.00     0.022 A 
BRANCH  71  74
ATOM     74  S   UNL     1       7.244  10.869 -13.997  1.00  0.00     0.127 S 
ATOM     75  O   UNL     1       6.566  11.830 -13.129  1.00  0.00    -0.237 OA
ATOM     76  O   UNL     1       8.367  11.419 -14.757  1.00  0.00    -0.237 OA
ATOM     77  O   UNL     1       6.366   9.990 -14.756  1.00  0.00    -0.744 OA
ENDBRANCH  71  74
ENDBRANCH  53  67
BRANCH  54  78
ATOM     78  C   UNL     1       5.909  -1.862 -10.358  1.00  0.00     0.023 A 
ATOM     79  C   UNL     1       6.844  -2.912 -10.435  1.00  0.00     0.012 A 
ATOM     80  C   UNL     1       4.552  -2.167 -10.132  1.00  0.00     0.148 A 
ATOM     81  C   UNL     1       6.431  -4.241 -10.328  1.00  0.00     0.002 A 
ATOM     82  C   UNL     1       4.157  -3.488  -9.966  1.00  0.00     0.091 A 
ATOM     83  F   UNL     1       3.674  -1.155 -10.077  1.00  0.00    -0.205 F 
ATOM     84  C   UNL     1       5.091  -4.528 -10.084  1.00  0.00     0.022 A 
BRANCH  82  85
ATOM     85  S   UNL     1       2.477  -3.947  -9.527  1.00  0.00     0.127 S 
ATOM     86  O   UNL     1       2.041  -4.668 -10.721  1.00  0.00    -0.237 OA
ATOM     87  O   UNL     1       2.696  -4.785  -8.347  1.00  0.00    -0.237 OA
ATOM     88  O   UNL     1       1.780  -2.697  -9.258  1.00  0.00    -0.744 OA
ENDBRANCH  82  85
ENDBRANCH  54  78
BRANCH  66  89
ATOM     89  C   UNL     1       8.723   1.696 -15.679  1.00  0.00     0.023 A 
ATOM     90  C   UNL     1       7.757   1.400 -16.661  1.00  0.00     0.012 A 
ATOM     91  C   UNL     1      10.087   1.706 -16.033  1.00  0.00     0.148 A 
ATOM     92  C   UNL     1       8.144   1.088 -17.964  1.00  0.00     0.002 A 
ATOM     93  C   UNL     1      10.462   1.450 -17.345  1.00  0.00     0.091 A 
ATOM     94  F   UNL     1      10.992   1.980 -15.081  1.00  0.00    -0.205 F 
ATOM     95  C   UNL     1       9.494   1.126 -18.309  1.00  0.00     0.022 A 
BRANCH  93  96
ATOM     96  S   UNL     1      12.164   1.574 -17.907  1.00  0.00     0.127 S 
ATOM     97  O   UNL     1      12.473   0.182 -18.229  1.00  0.00    -0.237 OA
ATOM     98  O   UNL     1      12.041   2.457 -19.067  1.00  0.00    -0.237 OA
ATOM     99  O   UNL     1      12.919   2.134 -16.794  1.00  0.00    -0.744 OA
ENDBRANCH  93  96
ENDBRANCH  66  89
ENDBRANCH  40  41
ENDBRANCH  33  35
ENDBRANCH  32  33
ENDBRANCH  31  32
ENDBRANCH  30  31
ENDBRANCH  29  30
ENDBRANCH  28  29
ENDBRANCH   1  28
TORSDOF 24
