REMARK SMILES CCCCCCC(=O)Nc1ccc(Cl)c(C(=O)OCCOCCOCCOCCOC(=O)c2ccc(-c3c4nc(c(-c5cccc(S(=O)(=O)[O-])c5F)c5ccc([nH]5)c(-c5cccc(S(=O)(=O)[O-])c5F)c5nc(c(-c6cccc(S(=O)(=O)[O-])c6F)c6ccc3[nH]6)C=C5)C=C4)cc2)c1
REMARK SMILES IDX 22 1 21 2 20 3 19 4 18 5 16 6 17 7 15 8 10 9 11 10 96 11
REMARK SMILES IDX 12 12 13 13 14 14 9 15 7 16 8 17 6 19 5 20 4 21 3 22 2 23
REMARK SMILES IDX 1 24 23 25 24 26 25 27 26 28 27 29 28 30 29 31 30 32 31 33
REMARK SMILES IDX 32 34 33 35 34 36 95 37 35 38 94 39 36 40 37 41 38 42 88 43
REMARK SMILES IDX 39 44 93 45 87 46 89 47 40 48 92 49 86 50 85 51 41 53 73 54
REMARK SMILES IDX 53 55 72 56 54 57 57 58 71 59 90 60 55 61 56 62 70 64 91 65
REMARK SMILES IDX 58 66 42 67 43 68 51 69 44 70 46 71 52 72 45 73 47 74 48 75
REMARK SMILES IDX 49 76 50 77 74 78 75 79 83 80 76 81 78 82 84 83 77 84 79 85
REMARK SMILES IDX 80 86 81 87 82 88 59 89 60 90 68 91 61 92 63 93 69 94 62 95
REMARK SMILES IDX 64 96 65 97 66 98 67 99
REMARK H PARENT 9 18 89 52 57 63
REMARK Flexibility Score: inf
ROOT
ATOM      1  C   UNL     1       5.484  -2.724  -5.364  1.00  0.00     0.188 C 
ENDROOT
BRANCH   1   2
ATOM      2  O   UNL     1       6.302  -1.980  -6.256  1.00  0.00    -0.376 OA
BRANCH   2   3
ATOM      3  C   UNL     1       6.604  -0.607  -6.019  1.00  0.00     0.202 C 
BRANCH   3   4
ATOM      4  C   UNL     1       5.580   0.394  -5.454  1.00  0.00     0.261 C 
BRANCH   4   5
ATOM      5  O   UNL     1       4.797  -0.118  -4.375  1.00  0.00    -0.460 OA
BRANCH   5   6
ATOM      6  C   UNL     1       3.454  -0.143  -4.508  1.00  0.00     0.339 C 
ATOM      7  O   UNL     1       2.798   0.299  -5.436  1.00  0.00    -0.246 OA
BRANCH   6   8
ATOM      8  C   UNL     1       2.915  -1.088  -3.499  1.00  0.00     0.080 A 
ATOM      9  C   UNL     1       1.631  -3.122  -3.160  1.00  0.00     0.042 A 
ATOM     10  C   UNL     1       2.255  -3.302  -1.926  1.00  0.00     0.028 A 
ATOM     11  C   UNL     1       1.981  -2.039  -3.968  1.00  0.00     0.043 A 
ATOM     12  C   UNL     1       3.092  -2.306  -1.415  1.00  0.00     0.023 A 
ATOM     13  C   UNL     1       3.407  -1.181  -2.187  1.00  0.00     0.055 A 
ATOM     14  Cl  UNL     1       4.377   0.039  -1.447  1.00  0.00    -0.083 Cl
BRANCH   9  15
ATOM     15  N   UNL     1       0.746  -4.107  -3.602  1.00  0.00    -0.326 N 
ATOM     16  C   UNL     1      -0.621  -4.090  -3.535  1.00  0.00     0.224 C 
ATOM     17  O   UNL     1      -1.222  -5.150  -3.732  1.00  0.00    -0.275 OA
ATOM     18  H   UNL     1       1.152  -4.906  -4.008  1.00  0.00     0.169 HD
BRANCH  16  19
ATOM     19  C   UNL     1      -1.389  -2.817  -3.228  1.00  0.00     0.100 C 
BRANCH  19  20
ATOM     20  C   UNL     1      -1.690  -2.563  -1.744  1.00  0.00     0.010 C 
BRANCH  20  21
ATOM     21  C   UNL     1      -0.662  -1.774  -0.924  1.00  0.00     0.001 C 
BRANCH  21  22
ATOM     22  C   UNL     1      -0.173  -0.488  -1.595  1.00  0.00    -0.000 C 
BRANCH  22  23
ATOM     23  C   UNL     1      -0.218   0.768  -0.734  1.00  0.00    -0.003 C 
ATOM     24  C   UNL     1       0.686   0.707   0.485  1.00  0.00     0.004 C 
ENDBRANCH  22  23
ENDBRANCH  21  22
ENDBRANCH  20  21
ENDBRANCH  19  20
ENDBRANCH  16  19
ENDBRANCH   9  15
ENDBRANCH   6   8
ENDBRANCH   5   6
ENDBRANCH   4   5
ENDBRANCH   3   4
ENDBRANCH   2   3
ENDBRANCH   1   2
BRANCH   1  25
ATOM     25  C   UNL     1       5.849  -2.861  -3.877  1.00  0.00     0.188 C 
BRANCH  25  26
ATOM     26  O   UNL     1       6.639  -1.812  -3.366  1.00  0.00    -0.377 OA
BRANCH  26  27
ATOM     27  C   UNL     1       8.048  -2.004  -3.336  1.00  0.00     0.188 C 
BRANCH  27  28
ATOM     28  C   UNL     1       8.711  -2.950  -4.365  1.00  0.00     0.188 C 
BRANCH  28  29
ATOM     29  O   UNL     1       8.025  -4.174  -4.596  1.00  0.00    -0.376 OA
BRANCH  29  30
ATOM     30  C   UNL     1       8.455  -5.345  -3.918  1.00  0.00     0.202 C 
BRANCH  30  31
ATOM     31  C   UNL     1       8.329  -5.380  -2.385  1.00  0.00     0.261 C 
BRANCH  31  32
ATOM     32  O   UNL     1       9.015  -4.342  -1.674  1.00  0.00    -0.460 OA
BRANCH  32  33
ATOM     33  C   UNL     1      10.350  -4.270  -1.836  1.00  0.00     0.338 C 
ATOM     34  O   UNL     1      11.052  -5.030  -2.489  1.00  0.00    -0.246 OA
BRANCH  33  35
ATOM     35  C   UNL     1      10.818  -3.000  -1.253  1.00  0.00     0.060 A 
ATOM     36  C   UNL     1      11.501  -2.095  -2.076  1.00  0.00     0.016 A 
ATOM     37  C   UNL     1      10.609  -2.716   0.099  1.00  0.00     0.016 A 
ATOM     38  C   UNL     1      12.045  -0.935  -1.532  1.00  0.00     0.010 A 
ATOM     39  C   UNL     1      11.171  -1.562   0.647  1.00  0.00     0.010 A 
ATOM     40  C   UNL     1      11.939  -0.700  -0.156  1.00  0.00    -0.014 A 
BRANCH  40  41
ATOM     41  C   UNL     1      12.850   0.285   0.474  1.00  0.00     0.031 A 
ATOM     42  C   UNL     1      14.106  -0.234   1.123  1.00  0.00     0.074 A 
ATOM     43  C   UNL     1      12.594   1.604   0.444  1.00  0.00     0.049 A 
ATOM     44  N   UNL     1      15.051   0.419   1.746  1.00  0.00    -0.248 NA
ATOM     45  C   UNL     1      14.324  -1.690   1.062  1.00  0.00     0.031 C 
ATOM     46  C   UNL     1      11.426   2.228  -0.175  1.00  0.00     0.029 A 
ATOM     47  N   UNL     1      13.304   2.656   0.966  1.00  0.00    -0.354 N 
ATOM     48  C   UNL     1      15.955  -0.545   2.177  1.00  0.00     0.074 A 
ATOM     49  C   UNL     1      15.438  -1.829   1.762  1.00  0.00     0.031 C 
ATOM     50  C   UNL     1      11.487   3.556   0.024  1.00  0.00     0.029 A 
ATOM     51  C   UNL     1      12.683   3.872   0.804  1.00  0.00     0.049 A 
ATOM     52  H   UNL     1      14.174   2.550   1.413  1.00  0.00     0.167 HD
ATOM     53  C   UNL     1      17.120  -0.379   2.844  1.00  0.00     0.034 A 
ATOM     54  C   UNL     1      13.035   5.093   1.254  1.00  0.00     0.034 A 
ATOM     55  C   UNL     1      17.637   0.900   3.245  1.00  0.00     0.049 A 
ATOM     56  C   UNL     1      14.320   5.249   2.029  1.00  0.00     0.074 A 
ATOM     57  C   UNL     1      18.822   1.182   3.899  1.00  0.00     0.029 A 
ATOM     58  N   UNL     1      16.993   2.111   3.041  1.00  0.00    -0.354 N 
ATOM     59  N   UNL     1      15.210   4.340   2.350  1.00  0.00    -0.248 NA
ATOM     60  C   UNL     1      14.666   6.607   2.473  1.00  0.00     0.031 C 
ATOM     61  C   UNL     1      18.876   2.561   4.126  1.00  0.00     0.029 A 
ATOM     62  C   UNL     1      17.750   3.143   3.565  1.00  0.00     0.049 A 
ATOM     63  H   UNL     1      16.125   2.219   2.590  1.00  0.00     0.167 HD
ATOM     64  C   UNL     1      16.243   5.023   2.984  1.00  0.00     0.074 A 
ATOM     65  C   UNL     1      15.871   6.423   2.994  1.00  0.00     0.031 C 
ATOM     66  C   UNL     1      17.393   4.538   3.515  1.00  0.00     0.034 A 
BRANCH  53  67
ATOM     67  C   UNL     1      17.915  -1.615   3.176  1.00  0.00     0.023 A 
ATOM     68  C   UNL     1      18.555  -2.339   2.149  1.00  0.00     0.012 A 
ATOM     69  C   UNL     1      18.055  -2.041   4.511  1.00  0.00     0.148 A 
ATOM     70  C   UNL     1      19.286  -3.490   2.441  1.00  0.00     0.002 A 
ATOM     71  C   UNL     1      18.828  -3.158   4.800  1.00  0.00     0.091 A 
ATOM     72  F   UNL     1      17.419  -1.354   5.471  1.00  0.00    -0.205 F 
ATOM     73  C   UNL     1      19.432  -3.892   3.766  1.00  0.00     0.022 A 
BRANCH  71  74
ATOM     74  S   UNL     1      19.143  -3.710   6.480  1.00  0.00     0.127 S 
ATOM     75  O   UNL     1      18.397  -4.967   6.522  1.00  0.00    -0.237 OA
ATOM     76  O   UNL     1      20.598  -3.863   6.483  1.00  0.00    -0.237 OA
ATOM     77  O   UNL     1      18.640  -2.657   7.351  1.00  0.00    -0.744 OA
ENDBRANCH  71  74
ENDBRANCH  53  67
BRANCH  54  78
ATOM     78  C   UNL     1      12.180   6.277   0.957  1.00  0.00     0.023 A 
ATOM     79  C   UNL     1      12.657   7.284   0.096  1.00  0.00     0.012 A 
ATOM     80  C   UNL     1      10.900   6.412   1.529  1.00  0.00     0.148 A 
ATOM     81  C   UNL     1      11.892   8.423  -0.160  1.00  0.00     0.002 A 
ATOM     82  C   UNL     1      10.120   7.521   1.225  1.00  0.00     0.091 A 
ATOM     83  F   UNL     1      10.469   5.449   2.356  1.00  0.00    -0.205 F 
ATOM     84  C   UNL     1      10.621   8.537   0.397  1.00  0.00     0.022 A 
BRANCH  82  85
ATOM     85  S   UNL     1       8.428   7.700   1.802  1.00  0.00     0.127 S 
ATOM     86  O   UNL     1       8.540   8.843   2.705  1.00  0.00    -0.237 OA
ATOM     87  O   UNL     1       7.715   7.968   0.553  1.00  0.00    -0.237 OA
ATOM     88  O   UNL     1       8.088   6.432   2.431  1.00  0.00    -0.744 OA
ENDBRANCH  82  85
ENDBRANCH  54  78
BRANCH  66  89
ATOM     89  C   UNL     1      18.378   5.526   4.086  1.00  0.00     0.023 A 
ATOM     90  C   UNL     1      18.095   6.204   5.288  1.00  0.00     0.012 A 
ATOM     91  C   UNL     1      19.624   5.727   3.457  1.00  0.00     0.148 A 
ATOM     92  C   UNL     1      19.019   7.097   5.832  1.00  0.00     0.002 A 
ATOM     93  C   UNL     1      20.561   6.573   4.034  1.00  0.00     0.091 A 
ATOM     94  F   UNL     1      19.870   5.085   2.305  1.00  0.00    -0.205 F 
ATOM     95  C   UNL     1      20.255   7.272   5.213  1.00  0.00     0.022 A 
BRANCH  93  96
ATOM     96  S   UNL     1      22.215   6.777   3.364  1.00  0.00     0.127 S 
ATOM     97  O   UNL     1      22.152   8.134   2.823  1.00  0.00    -0.237 OA
ATOM     98  O   UNL     1      23.052   6.635   4.556  1.00  0.00    -0.237 OA
ATOM     99  O   UNL     1      22.384   5.719   2.378  1.00  0.00    -0.744 OA
ENDBRANCH  93  96
ENDBRANCH  66  89
ENDBRANCH  40  41
ENDBRANCH  33  35
ENDBRANCH  32  33
ENDBRANCH  31  32
ENDBRANCH  30  31
ENDBRANCH  29  30
ENDBRANCH  28  29
ENDBRANCH  27  28
ENDBRANCH  26  27
ENDBRANCH  25  26
ENDBRANCH   1  25
TORSDOF 29
