REMARK SMILES O=C(OCCOCCOCCOCCOC(=O)c1nnn(Cc2ccccc2Cl)c1-c1ccc(Cl)cc1)c1ccc(-c2c3nc(c(-c4cccc(S(=O)(=O)[O-])c4F)c4ccc([nH]4)c(-c4cccc(S(=O)(=O)[O-])c4F)c4nc(c(-c5cccc(S(=O)(=O)[O-])c5F)c5ccc2[nH]5)C=C4)C=C3)cc1
REMARK SMILES IDX 8 1 7 2 6 3 5 4 4 5 3 6 2 7 1 8 38 9 39 10 100 11 40 12
REMARK SMILES IDX 99 13 41 14 42 15 43 16 93 17 44 18 98 19 92 20 94 21 45 22
REMARK SMILES IDX 97 23 91 24 90 25 46 27 78 28 58 29 77 30 59 31 62 32 76 33
REMARK SMILES IDX 95 34 60 35 61 36 75 38 96 39 63 40 47 41 48 42 56 43 49 44
REMARK SMILES IDX 51 45 57 46 50 47 52 48 53 49 54 50 55 51 79 52 80 53 88 54
REMARK SMILES IDX 81 55 83 56 89 57 82 58 84 59 85 60 86 61 87 62 64 63 65 64
REMARK SMILES IDX 73 65 66 66 68 67 74 68 67 69 69 70 70 71 71 72 72 73 9 74
REMARK SMILES IDX 10 75 11 76 12 77 13 78 14 79 15 80 16 81 17 82 18 83 19 84
REMARK SMILES IDX 30 85 20 86 21 87 31 88 32 89 37 90 33 91 36 92 34 93 35 94
REMARK SMILES IDX 22 95 23 96 24 97 28 98 25 99 27 100 29 101 26 102
REMARK H PARENT 94 26 62 37
REMARK Flexibility Score: inf
ROOT
ATOM      1  C   UNL     1       2.292  -0.717   1.853  1.00  0.00     0.188 C 
ENDROOT
BRANCH   1   2
ATOM      2  C   UNL     1       2.961  -1.300   0.599  1.00  0.00     0.188 C 
BRANCH   2   3
ATOM      3  O   UNL     1       4.355  -1.133   0.449  1.00  0.00    -0.376 OA
BRANCH   3   4
ATOM      4  C   UNL     1       5.061   0.051   0.139  1.00  0.00     0.202 C 
BRANCH   4   5
ATOM      5  C   UNL     1       4.497   1.473   0.042  1.00  0.00     0.261 C 
BRANCH   5   6
ATOM      6  O   UNL     1       3.107   1.662   0.258  1.00  0.00    -0.460 OA
BRANCH   6   7
ATOM      7  C   UNL     1       2.079   1.583  -0.609  1.00  0.00     0.338 C 
ATOM      8  O   UNL     1       0.984   2.007  -0.245  1.00  0.00    -0.246 OA
BRANCH   7   9
ATOM      9  C   UNL     1       2.169   0.868  -1.911  1.00  0.00     0.060 A 
ATOM     10  C   UNL     1       3.340   0.619  -2.631  1.00  0.00     0.016 A 
ATOM     11  C   UNL     1       0.941   0.418  -2.433  1.00  0.00     0.016 A 
ATOM     12  C   UNL     1       3.280   0.049  -3.888  1.00  0.00     0.010 A 
ATOM     13  C   UNL     1       0.874  -0.160  -3.691  1.00  0.00     0.010 A 
ATOM     14  C   UNL     1       2.042  -0.262  -4.438  1.00  0.00    -0.014 A 
BRANCH  14  15
ATOM     15  C   UNL     1       2.034  -0.542  -5.861  1.00  0.00     0.031 A 
ATOM     16  C   UNL     1       2.703  -1.787  -6.311  1.00  0.00     0.074 A 
ATOM     17  C   UNL     1       1.472   0.337  -6.712  1.00  0.00     0.049 A 
ATOM     18  N   UNL     1       3.720  -1.905  -7.103  1.00  0.00    -0.248 NA
ATOM     19  C   UNL     1       2.228  -3.053  -5.739  1.00  0.00     0.031 C 
ATOM     20  C   UNL     1       0.593   1.466  -6.385  1.00  0.00     0.029 A 
ATOM     21  N   UNL     1       1.465   0.316  -8.071  1.00  0.00    -0.354 N 
ATOM     22  C   UNL     1       3.887  -3.275  -7.294  1.00  0.00     0.074 A 
ATOM     23  C   UNL     1       3.033  -3.931  -6.337  1.00  0.00     0.031 C 
ATOM     24  C   UNL     1      -0.071   1.839  -7.498  1.00  0.00     0.029 A 
ATOM     25  C   UNL     1       0.447   1.079  -8.621  1.00  0.00     0.049 A 
ATOM     26  H   UNL     1       2.116  -0.189  -8.610  1.00  0.00     0.167 HD
ATOM     27  C   UNL     1       4.565  -3.788  -8.356  1.00  0.00     0.034 A 
ATOM     28  C   UNL     1      -0.010   1.007  -9.890  1.00  0.00     0.034 A 
ATOM     29  C   UNL     1       5.429  -2.827  -8.980  1.00  0.00     0.049 A 
ATOM     30  C   UNL     1       1.050   0.388 -10.716  1.00  0.00     0.074 A 
ATOM     31  C   UNL     1       6.527  -2.095  -8.579  1.00  0.00     0.029 A 
ATOM     32  N   UNL     1       5.007  -2.259 -10.155  1.00  0.00    -0.354 N 
ATOM     33  N   UNL     1       2.194   0.958 -10.975  1.00  0.00    -0.248 NA
ATOM     34  C   UNL     1       1.002  -1.046 -10.943  1.00  0.00     0.031 C 
ATOM     35  C   UNL     1       6.423  -0.857  -9.278  1.00  0.00     0.029 A 
ATOM     36  C   UNL     1       5.278  -0.918 -10.076  1.00  0.00     0.049 A 
ATOM     37  H   UNL     1       4.588  -2.727 -10.913  1.00  0.00     0.167 HD
ATOM     38  C   UNL     1       3.113  -0.083 -10.977  1.00  0.00     0.074 A 
ATOM     39  C   UNL     1       2.306  -1.296 -11.084  1.00  0.00     0.031 C 
ATOM     40  C   UNL     1       4.414   0.116 -10.607  1.00  0.00     0.034 A 
BRANCH  27  41
ATOM     41  C   UNL     1       4.230  -5.105  -9.008  1.00  0.00     0.023 A 
ATOM     42  C   UNL     1       5.166  -5.675  -9.897  1.00  0.00     0.012 A 
ATOM     43  C   UNL     1       2.942  -5.685  -8.970  1.00  0.00     0.148 A 
ATOM     44  C   UNL     1       4.831  -6.764 -10.711  1.00  0.00     0.002 A 
ATOM     45  C   UNL     1       2.642  -6.819  -9.714  1.00  0.00     0.091 A 
ATOM     46  F   UNL     1       1.952  -5.066  -8.315  1.00  0.00    -0.205 F 
ATOM     47  C   UNL     1       3.575  -7.350 -10.606  1.00  0.00     0.022 A 
BRANCH  45  48
ATOM     48  S   UNL     1       1.058  -7.646  -9.536  1.00  0.00     0.127 S 
ATOM     49  O   UNL     1       0.320  -7.122 -10.680  1.00  0.00    -0.237 OA
ATOM     50  O   UNL     1       1.435  -9.057  -9.635  1.00  0.00    -0.237 OA
ATOM     51  O   UNL     1       0.578  -7.255  -8.216  1.00  0.00    -0.744 OA
ENDBRANCH  45  48
ENDBRANCH  27  41
BRANCH  28  52
ATOM     52  C   UNL     1      -1.402   1.176 -10.354  1.00  0.00     0.023 A 
ATOM     53  C   UNL     1      -1.654   1.519 -11.693  1.00  0.00     0.012 A 
ATOM     54  C   UNL     1      -2.490   0.766  -9.548  1.00  0.00     0.148 A 
ATOM     55  C   UNL     1      -2.948   1.442 -12.220  1.00  0.00     0.002 A 
ATOM     56  C   UNL     1      -3.776   0.707 -10.071  1.00  0.00     0.091 A 
ATOM     57  F   UNL     1      -2.251   0.346  -8.298  1.00  0.00    -0.205 F 
ATOM     58  C   UNL     1      -4.008   1.034 -11.411  1.00  0.00     0.022 A 
BRANCH  56  59
ATOM     59  S   UNL     1      -5.184   0.184  -9.082  1.00  0.00     0.127 S 
ATOM     60  O   UNL     1      -6.191   1.185  -9.433  1.00  0.00    -0.237 OA
ATOM     61  O   UNL     1      -5.441  -1.154  -9.607  1.00  0.00    -0.237 OA
ATOM     62  O   UNL     1      -4.739   0.248  -7.695  1.00  0.00    -0.744 OA
ENDBRANCH  56  59
ENDBRANCH  28  52
BRANCH  40  63
ATOM     63  C   UNL     1       4.890   1.540 -10.422  1.00  0.00     0.023 A 
ATOM     64  C   UNL     1       4.322   2.385  -9.444  1.00  0.00     0.012 A 
ATOM     65  C   UNL     1       6.040   1.977 -11.103  1.00  0.00     0.148 A 
ATOM     66  C   UNL     1       4.865   3.643  -9.173  1.00  0.00     0.002 A 
ATOM     67  C   UNL     1       6.606   3.211 -10.797  1.00  0.00     0.091 A 
ATOM     68  F   UNL     1       6.583   1.163 -12.022  1.00  0.00    -0.205 F 
ATOM     69  C   UNL     1       6.015   4.051  -9.841  1.00  0.00     0.022 A 
BRANCH  67  70
ATOM     70  S   UNL     1       8.165   3.737 -11.518  1.00  0.00     0.127 S 
ATOM     71  O   UNL     1       7.726   4.677 -12.547  1.00  0.00    -0.237 OA
ATOM     72  O   UNL     1       8.850   4.353 -10.380  1.00  0.00    -0.237 OA
ATOM     73  O   UNL     1       8.806   2.521 -12.005  1.00  0.00    -0.744 OA
ENDBRANCH  67  70
ENDBRANCH  40  63
ENDBRANCH  14  15
ENDBRANCH   7   9
ENDBRANCH   6   7
ENDBRANCH   5   6
ENDBRANCH   4   5
ENDBRANCH   3   4
ENDBRANCH   2   3
ENDBRANCH   1   2
BRANCH   1  74
ATOM     74  O   UNL     1       2.857  -1.142   3.090  1.00  0.00    -0.377 OA
BRANCH  74  75
ATOM     75  C   UNL     1       4.189  -0.707   3.299  1.00  0.00     0.188 C 
BRANCH  75  76
ATOM     76  C   UNL     1       5.285  -1.789   3.143  1.00  0.00     0.188 C 
BRANCH  76  77
ATOM     77  O   UNL     1       5.020  -3.181   2.993  1.00  0.00    -0.376 OA
BRANCH  77  78
ATOM     78  C   UNL     1       3.756  -3.735   3.299  1.00  0.00     0.202 C 
BRANCH  78  79
ATOM     79  C   UNL     1       3.379  -3.821   4.781  1.00  0.00     0.261 C 
BRANCH  79  80
ATOM     80  O   UNL     1       3.664  -2.637   5.529  1.00  0.00    -0.458 OA
BRANCH  80  81
ATOM     81  C   UNL     1       4.888  -2.584   6.127  1.00  0.00     0.361 C 
ATOM     82  O   UNL     1       5.688  -3.510   6.197  1.00  0.00    -0.244 OA
BRANCH  81  83
ATOM     83  C   UNL     1       5.147  -1.261   6.663  1.00  0.00     0.198 A 
ATOM     84  N   UNL     1       6.130  -0.439   6.182  1.00  0.00    -0.122 NA
ATOM     85  C   UNL     1       4.422  -0.604   7.648  1.00  0.00     0.104 A 
ATOM     86  N   UNL     1       6.009   0.733   6.781  1.00  0.00    -0.066 NA
ATOM     87  N   UNL     1       5.033   0.627   7.708  1.00  0.00    -0.239 N 
BRANCH  85  88
ATOM     88  C   UNL     1       3.327  -1.132   8.448  1.00  0.00     0.002 A 
ATOM     89  C   UNL     1       3.488  -2.391   9.052  1.00  0.00     0.012 A 
ATOM     90  C   UNL     1       2.075  -0.512   8.491  1.00  0.00     0.012 A 
ATOM     91  C   UNL     1       2.412  -3.037   9.657  1.00  0.00     0.021 A 
ATOM     92  C   UNL     1       0.998  -1.153   9.115  1.00  0.00     0.021 A 
ATOM     93  C   UNL     1       1.168  -2.416   9.683  1.00  0.00     0.041 A 
ATOM     94  Cl  UNL     1      -0.169  -3.227  10.398  1.00  0.00    -0.084 Cl
ENDBRANCH  85  88
BRANCH  87  95
ATOM     95  C   UNL     1       4.851   1.718   8.652  1.00  0.00     0.183 C 
BRANCH  95  96
ATOM     96  C   UNL     1       6.074   1.863   9.529  1.00  0.00    -0.008 A 
ATOM     97  C   UNL     1       6.199   1.027  10.655  1.00  0.00     0.007 A 
ATOM     98  C   UNL     1       7.143   2.720   9.211  1.00  0.00     0.046 A 
ATOM     99  C   UNL     1       7.360   1.039  11.430  1.00  0.00     0.000 A 
ATOM    100  C   UNL     1       8.308   2.720   9.985  1.00  0.00     0.021 A 
ATOM    101  Cl  UNL     1       7.086   3.810   7.872  1.00  0.00    -0.084 Cl
ATOM    102  C   UNL     1       8.417   1.878  11.091  1.00  0.00     0.002 A 
ENDBRANCH  95  96
ENDBRANCH  87  95
ENDBRANCH  81  83
ENDBRANCH  80  81
ENDBRANCH  79  80
ENDBRANCH  78  79
ENDBRANCH  77  78
ENDBRANCH  76  77
ENDBRANCH  75  76
ENDBRANCH  74  75
ENDBRANCH   1  74
TORSDOF 26
