REMARK SMILES C[NH+](C)CCNC(=O)NC1(CC(=O)OCCOCCOCCOCCOC(=O)c2ccc(-c3c4nc(c(-c5cccc(S(=O)(=O)[O-])c5F)c5ccc([nH]5)c(-c5cccc(S(=O)(=O)[O-])c5F)c5nc(c(-c6cccc(S(=O)(=O)[O-])c6F)c6ccc3[nH]6)C=C5)C=C4)cc2)CCC1
REMARK SMILES IDX 19 1 18 2 17 3 16 4 15 5 14 6 12 7 13 8 11 9 10 10 92 11
REMARK SMILES IDX 94 12 93 13 9 14 6 15 7 16 8 18 5 20 4 21 2 22 1 23 3 24
REMARK SMILES IDX 20 26 21 27 22 28 23 29 24 30 25 31 26 32 27 33 28 34 29 35
REMARK SMILES IDX 30 36 91 37 31 38 90 39 32 40 33 41 34 42 84 43 35 44 89 45
REMARK SMILES IDX 83 46 85 47 36 48 88 49 82 50 81 51 37 53 69 54 49 55 68 56
REMARK SMILES IDX 50 57 53 58 67 59 86 60 51 61 52 62 66 64 87 65 54 66 38 67
REMARK SMILES IDX 39 68 47 69 40 70 42 71 48 72 41 73 43 74 44 75 45 76 46 77
REMARK SMILES IDX 70 78 71 79 79 80 72 81 74 82 80 83 73 84 75 85 76 86 77 87
REMARK SMILES IDX 78 88 55 89 56 90 64 91 57 92 59 93 65 94 58 95 60 96 61 97
REMARK SMILES IDX 62 98 63 99
REMARK H PARENT 6 17 9 19 2 25 85 52 53 63
REMARK Flexibility Score: inf
ROOT
ATOM      1  C   UNL     1       0.320  -4.790   1.218  1.00  0.00     0.188 C 
ENDROOT
BRANCH   1   2
ATOM      2  C   UNL     1      -0.943  -4.982   2.064  1.00  0.00     0.188 C 
BRANCH   2   3
ATOM      3  O   UNL     1      -2.149  -4.436   1.542  1.00  0.00    -0.376 OA
BRANCH   3   4
ATOM      4  C   UNL     1      -2.311  -3.017   1.664  1.00  0.00     0.202 C 
BRANCH   4   5
ATOM      5  C   UNL     1      -2.362  -2.457   3.093  1.00  0.00     0.261 C 
BRANCH   5   6
ATOM      6  O   UNL     1      -1.063  -2.428   3.746  1.00  0.00    -0.463 OA
BRANCH   6   7
ATOM      7  C   UNL     1      -1.011  -2.913   5.004  1.00  0.00     0.308 C 
ATOM      8  O   UNL     1      -1.970  -3.461   5.549  1.00  0.00    -0.252 OA
BRANCH   7   9
ATOM      9  C   UNL     1       0.297  -2.819   5.753  1.00  0.00     0.151 C 
BRANCH   9  10
ATOM     10  C   UNL     1       1.605  -2.152   5.286  1.00  0.00     0.052 C 
ATOM     11  C   UNL     1       2.673  -2.275   6.455  1.00  0.00     0.029 C 
ATOM     12  C   UNL     1       1.851  -0.601   5.444  1.00  0.00     0.029 C 
ATOM     13  C   UNL     1       2.364  -0.833   6.862  1.00  0.00     0.005 C 
BRANCH  10  14
ATOM     14  N   UNL     1       2.197  -2.849   4.108  1.00  0.00    -0.332 N 
ATOM     15  N   UNL     1       2.238  -1.237   2.405  1.00  0.00    -0.332 N 
ATOM     16  C   UNL     1       2.727  -2.350   2.969  1.00  0.00     0.315 C 
ATOM     17  H   UNL     1       2.841  -0.758   1.792  1.00  0.00     0.165 HD
ATOM     18  O   UNL     1       3.670  -2.948   2.449  1.00  0.00    -0.249 OA
ATOM     19  H   UNL     1       2.204  -3.831   4.170  1.00  0.00     0.165 HD
BRANCH  15  20
ATOM     20  C   UNL     1       0.925  -0.657   2.593  1.00  0.00     0.179 C 
BRANCH  20  21
ATOM     21  C   UNL     1       0.887   0.860   2.391  1.00  0.00     0.283 C 
BRANCH  21  22
ATOM     22  N   UNL     1       0.286   1.238   1.111  1.00  0.00    -0.338 N 
ATOM     23  C   UNL     1       0.935   0.530   0.019  1.00  0.00     0.332 C 
ATOM     24  C   UNL     1      -1.164   1.062   1.129  1.00  0.00     0.332 C 
ATOM     25  H   UNL     1       0.441   2.233   0.954  1.00  0.00     0.347 HD
ENDBRANCH  21  22
ENDBRANCH  20  21
ENDBRANCH  15  20
ENDBRANCH  10  14
ENDBRANCH   9  10
ENDBRANCH   7   9
ENDBRANCH   6   7
ENDBRANCH   5   6
ENDBRANCH   4   5
ENDBRANCH   3   4
ENDBRANCH   2   3
ENDBRANCH   1   2
BRANCH   1  26
ATOM     26  O   UNL     1       0.397  -3.517   0.583  1.00  0.00    -0.377 OA
BRANCH  26  27
ATOM     27  C   UNL     1       0.006  -3.582  -0.788  1.00  0.00     0.188 C 
BRANCH  27  28
ATOM     28  C   UNL     1       1.181  -3.776  -1.750  1.00  0.00     0.188 C 
BRANCH  28  29
ATOM     29  O   UNL     1       2.173  -4.723  -1.363  1.00  0.00    -0.376 OA
BRANCH  29  30
ATOM     30  C   UNL     1       3.162  -4.220  -0.452  1.00  0.00     0.202 C 
BRANCH  30  31
ATOM     31  C   UNL     1       4.268  -3.359  -1.078  1.00  0.00     0.261 C 
BRANCH  31  32
ATOM     32  O   UNL     1       3.830  -2.004  -1.328  1.00  0.00    -0.460 OA
BRANCH  32  33
ATOM     33  C   UNL     1       3.657  -1.661  -2.626  1.00  0.00     0.338 C 
ATOM     34  O   UNL     1       3.833  -2.370  -3.609  1.00  0.00    -0.246 OA
BRANCH  33  35
ATOM     35  C   UNL     1       3.025  -0.330  -2.702  1.00  0.00     0.060 A 
ATOM     36  C   UNL     1       1.780  -0.210  -3.339  1.00  0.00     0.016 A 
ATOM     37  C   UNL     1       3.659   0.799  -2.180  1.00  0.00     0.016 A 
ATOM     38  C   UNL     1       1.167   1.043  -3.463  1.00  0.00     0.010 A 
ATOM     39  C   UNL     1       3.042   2.051  -2.302  1.00  0.00     0.010 A 
ATOM     40  C   UNL     1       1.798   2.187  -2.953  1.00  0.00    -0.014 A 
BRANCH  40  41
ATOM     41  C   UNL     1       1.276   3.550  -3.246  1.00  0.00     0.031 A 
ATOM     42  C   UNL     1       1.903   4.292  -4.383  1.00  0.00     0.074 A 
ATOM     43  C   UNL     1       0.326   4.154  -2.504  1.00  0.00     0.049 A 
ATOM     44  N   UNL     1       1.676   5.510  -4.789  1.00  0.00    -0.248 NA
ATOM     45  C   UNL     1       2.915   3.563  -5.167  1.00  0.00     0.031 C 
ATOM     46  C   UNL     1      -0.389   3.532  -1.409  1.00  0.00     0.029 A 
ATOM     47  N   UNL     1      -0.178   5.433  -2.519  1.00  0.00    -0.354 N 
ATOM     48  C   UNL     1       2.526   5.703  -5.865  1.00  0.00     0.074 A 
ATOM     49  C   UNL     1       3.292   4.488  -6.034  1.00  0.00     0.031 C 
ATOM     50  C   UNL     1      -1.167   4.426  -0.786  1.00  0.00     0.029 A 
ATOM     51  C   UNL     1      -1.025   5.703  -1.462  1.00  0.00     0.049 A 
ATOM     52  H   UNL     1       0.043   6.092  -3.216  1.00  0.00     0.167 HD
ATOM     53  C   UNL     1       2.640   6.794  -6.653  1.00  0.00     0.034 A 
ATOM     54  C   UNL     1      -1.619   6.846  -1.070  1.00  0.00     0.034 A 
ATOM     55  C   UNL     1       1.886   8.000  -6.464  1.00  0.00     0.049 A 
ATOM     56  C   UNL     1      -1.433   8.061  -1.930  1.00  0.00     0.074 A 
ATOM     57  C   UNL     1       1.897   9.147  -7.235  1.00  0.00     0.029 A 
ATOM     58  N   UNL     1       1.009   8.230  -5.413  1.00  0.00    -0.354 N 
ATOM     59  N   UNL     1      -0.732   8.183  -3.031  1.00  0.00    -0.248 NA
ATOM     60  C   UNL     1      -2.155   9.277  -1.535  1.00  0.00     0.031 C 
ATOM     61  C   UNL     1       1.059  10.086  -6.626  1.00  0.00     0.029 A 
ATOM     62  C   UNL     1       0.491   9.510  -5.500  1.00  0.00     0.049 A 
ATOM     63  H   UNL     1       0.788   7.578  -4.710  1.00  0.00     0.167 HD
ATOM     64  C   UNL     1      -0.958   9.474  -3.484  1.00  0.00     0.074 A 
ATOM     65  C   UNL     1      -1.878  10.088  -2.547  1.00  0.00     0.031 C 
ATOM     66  C   UNL     1      -0.444  10.095  -4.573  1.00  0.00     0.034 A 
BRANCH  53  67
ATOM     67  C   UNL     1       3.621   6.712  -7.787  1.00  0.00     0.023 A 
ATOM     68  C   UNL     1       3.347   5.883  -8.894  1.00  0.00     0.012 A 
ATOM     69  C   UNL     1       4.810   7.463  -7.758  1.00  0.00     0.148 A 
ATOM     70  C   UNL     1       4.260   5.775  -9.941  1.00  0.00     0.002 A 
ATOM     71  C   UNL     1       5.691   7.389  -8.828  1.00  0.00     0.091 A 
ATOM     72  F   UNL     1       5.064   8.216  -6.679  1.00  0.00    -0.205 F 
ATOM     73  C   UNL     1       5.425   6.537  -9.913  1.00  0.00     0.022 A 
BRANCH  71  74
ATOM     74  S   UNL     1       7.180   8.385  -8.922  1.00  0.00     0.127 S 
ATOM     75  O   UNL     1       8.223   7.366  -8.815  1.00  0.00    -0.237 OA
ATOM     76  O   UNL     1       7.055   8.994 -10.246  1.00  0.00    -0.237 OA
ATOM     77  O   UNL     1       7.110   9.323  -7.810  1.00  0.00    -0.744 OA
ENDBRANCH  71  74
ENDBRANCH  53  67
BRANCH  54  78
ATOM     78  C   UNL     1      -2.490   6.878   0.143  1.00  0.00     0.023 A 
ATOM     79  C   UNL     1      -3.882   7.043  -0.007  1.00  0.00     0.012 A 
ATOM     80  C   UNL     1      -1.956   6.732   1.440  1.00  0.00     0.148 A 
ATOM     81  C   UNL     1      -4.719   7.104   1.109  1.00  0.00     0.002 A 
ATOM     82  C   UNL     1      -2.803   6.743   2.546  1.00  0.00     0.091 A 
ATOM     83  F   UNL     1      -0.631   6.580   1.568  1.00  0.00    -0.205 F 
ATOM     84  C   UNL     1      -4.181   6.948   2.383  1.00  0.00     0.022 A 
BRANCH  82  85
ATOM     85  S   UNL     1      -2.225   6.437   4.221  1.00  0.00     0.127 S 
ATOM     86  O   UNL     1      -2.453   7.731   4.858  1.00  0.00    -0.237 OA
ATOM     87  O   UNL     1      -3.126   5.369   4.658  1.00  0.00    -0.237 OA
ATOM     88  O   UNL     1      -0.831   6.034   4.095  1.00  0.00    -0.744 OA
ENDBRANCH  82  85
ENDBRANCH  54  78
BRANCH  66  89
ATOM     89  C   UNL     1      -0.882  11.511  -4.825  1.00  0.00     0.023 A 
ATOM     90  C   UNL     1      -0.429  12.547  -3.985  1.00  0.00     0.012 A 
ATOM     91  C   UNL     1      -1.692  11.819  -5.935  1.00  0.00     0.148 A 
ATOM     92  C   UNL     1      -0.804  13.867  -4.227  1.00  0.00     0.002 A 
ATOM     93  C   UNL     1      -2.014  13.143  -6.203  1.00  0.00     0.091 A 
ATOM     94  F   UNL     1      -2.127  10.814  -6.709  1.00  0.00    -0.205 F 
ATOM     95  C   UNL     1      -1.584  14.166  -5.342  1.00  0.00     0.022 A 
BRANCH  93  96
ATOM     96  S   UNL     1      -2.926  13.633  -7.669  1.00  0.00     0.127 S 
ATOM     97  O   UNL     1      -4.200  14.066  -7.096  1.00  0.00    -0.237 OA
ATOM     98  O   UNL     1      -2.096  14.715  -8.200  1.00  0.00    -0.237 OA
ATOM     99  O   UNL     1      -2.995  12.450  -8.516  1.00  0.00    -0.744 OA
ENDBRANCH  93  96
ENDBRANCH  66  89
ENDBRANCH  40  41
ENDBRANCH  33  35
ENDBRANCH  32  33
ENDBRANCH  31  32
ENDBRANCH  30  31
ENDBRANCH  29  30
ENDBRANCH  28  29
ENDBRANCH  27  28
ENDBRANCH  26  27
ENDBRANCH   1  26
TORSDOF 28
