REMARK SMILES CC(=O)N[C@@H](Cc1c(OCC(C)C)ccc2ccccc12)C(=O)OCCOCCOCCOCCOC(=O)c1ccc(-c2c3nc(c(-c4cccc(S(=O)(=O)[O-])c4F)c4ccc([nH]4)c(-c4cccc(S(=O)(=O)[O-])c4F)c4nc(c(-c5cccc(S(=O)(=O)[O-])c5F)c5ccc2[nH]5)C=C4)C=C3)cc1
REMARK SMILES IDX 29 1 28 2 27 3 26 4 25 5 24 6 22 7 23 8 5 9 4 10 1 11 2 12
REMARK SMILES IDX 3 13 6 15 7 16 8 17 21 18 14 19 16 20 20 21 15 22 17 23
REMARK SMILES IDX 19 24 18 25 9 26 10 27 11 28 12 29 13 30 30 31 31 32 32 33
REMARK SMILES IDX 33 34 34 35 35 36 36 37 37 38 38 39 39 40 40 41 101 42 41 43
REMARK SMILES IDX 100 44 42 45 43 46 44 47 94 48 45 49 99 50 93 51 95 52 46 53
REMARK SMILES IDX 98 54 92 55 91 56 47 58 79 59 59 60 78 61 60 62 63 63 77 64
REMARK SMILES IDX 96 65 61 66 62 67 76 69 97 70 64 71 48 72 49 73 57 74 50 75
REMARK SMILES IDX 52 76 58 77 51 78 53 79 54 80 55 81 56 82 80 83 81 84 89 85
REMARK SMILES IDX 82 86 84 87 90 88 83 89 85 90 86 91 87 92 88 93 65 94 66 95
REMARK SMILES IDX 74 96 67 97 69 98 75 99 68 100 70 101 71 102 72 103 73 104
REMARK H PARENT 4 14 95 57 63 68
REMARK Flexibility Score: inf
ROOT
ATOM      1  C   UNL     1      -1.240  -2.253   2.351  1.00  0.00     0.188 C 
ENDROOT
BRANCH   1   2
ATOM      2  C   UNL     1      -0.832  -3.602   1.724  1.00  0.00     0.188 C 
BRANCH   2   3
ATOM      3  O   UNL     1      -0.971  -4.824   2.440  1.00  0.00    -0.376 OA
BRANCH   3   4
ATOM      4  C   UNL     1      -0.698  -4.868   3.832  1.00  0.00     0.202 C 
BRANCH   4   5
ATOM      5  C   UNL     1       0.603  -4.278   4.378  1.00  0.00     0.261 C 
BRANCH   5   6
ATOM      6  O   UNL     1       0.976  -2.973   3.899  1.00  0.00    -0.462 OA
BRANCH   6   7
ATOM      7  C   UNL     1       2.039  -2.905   3.064  1.00  0.00     0.329 C 
ATOM      8  O   UNL     1       2.651  -3.882   2.638  1.00  0.00    -0.250 OA
BRANCH   7   9
ATOM      9  C   UNL     1       2.533  -1.470   2.814  1.00  0.00     0.196 C 
BRANCH   9  10
ATOM     10  N   UNL     1       1.572  -0.358   2.832  1.00  0.00    -0.343 N 
ATOM     11  C   UNL     1       1.399  -0.065   0.384  1.00  0.00     0.114 C 
ATOM     12  C   UNL     1       1.071   0.368   1.789  1.00  0.00     0.217 C 
ATOM     13  O   UNL     1       0.330   1.328   1.994  1.00  0.00    -0.275 OA
ATOM     14  H   UNL     1       1.242  -0.100   3.723  1.00  0.00     0.164 HD
ENDBRANCH   9  10
BRANCH   9  15
ATOM     15  C   UNL     1       3.718  -1.199   3.767  1.00  0.00     0.077 C 
BRANCH  15  16
ATOM     16  C   UNL     1       3.365  -0.971   5.237  1.00  0.00     0.005 A 
ATOM     17  C   UNL     1       3.166   0.355   5.697  1.00  0.00     0.123 A 
ATOM     18  C   UNL     1       3.187  -2.065   6.153  1.00  0.00    -0.011 A 
ATOM     19  C   UNL     1       2.971   0.586   7.053  1.00  0.00     0.047 A 
ATOM     20  C   UNL     1       2.729  -1.781   7.462  1.00  0.00    -0.018 A 
ATOM     21  C   UNL     1       3.397  -3.435   5.859  1.00  0.00     0.009 A 
ATOM     22  C   UNL     1       2.689  -0.467   7.913  1.00  0.00     0.012 A 
ATOM     23  C   UNL     1       2.313  -2.806   8.325  1.00  0.00     0.009 A 
ATOM     24  C   UNL     1       2.999  -4.456   6.733  1.00  0.00     0.001 A 
ATOM     25  C   UNL     1       2.410  -4.139   7.946  1.00  0.00     0.001 A 
BRANCH  17  26
ATOM     26  O   UNL     1       3.093   1.341   4.746  1.00  0.00    -0.493 OA
BRANCH  26  27
ATOM     27  C   UNL     1       2.922   2.705   5.147  1.00  0.00     0.232 C 
BRANCH  27  28
ATOM     28  C   UNL     1       1.462   3.197   5.309  1.00  0.00     0.020 C 
ATOM     29  C   UNL     1       0.620   2.483   6.368  1.00  0.00     0.011 C 
ATOM     30  C   UNL     1       1.484   4.695   5.640  1.00  0.00     0.011 C 
ENDBRANCH  27  28
ENDBRANCH  26  27
ENDBRANCH  17  26
ENDBRANCH  15  16
ENDBRANCH   9  15
ENDBRANCH   7   9
ENDBRANCH   6   7
ENDBRANCH   5   6
ENDBRANCH   4   5
ENDBRANCH   3   4
ENDBRANCH   2   3
ENDBRANCH   1   2
BRANCH   1  31
ATOM     31  O   UNL     1      -1.564  -2.295   3.726  1.00  0.00    -0.377 OA
BRANCH  31  32
ATOM     32  C   UNL     1      -2.945  -2.336   4.050  1.00  0.00     0.188 C 
BRANCH  32  33
ATOM     33  C   UNL     1      -3.824  -3.264   3.190  1.00  0.00     0.188 C 
BRANCH  33  34
ATOM     34  O   UNL     1      -3.694  -3.047   1.791  1.00  0.00    -0.376 OA
BRANCH  34  35
ATOM     35  C   UNL     1      -4.613  -2.186   1.137  1.00  0.00     0.202 C 
BRANCH  35  36
ATOM     36  C   UNL     1      -4.670  -0.705   1.551  1.00  0.00     0.261 C 
BRANCH  36  37
ATOM     37  O   UNL     1      -4.953  -0.422   2.929  1.00  0.00    -0.460 OA
BRANCH  37  38
ATOM     38  C   UNL     1      -6.070  -0.943   3.474  1.00  0.00     0.338 C 
ATOM     39  O   UNL     1      -6.937  -1.580   2.896  1.00  0.00    -0.246 OA
BRANCH  38  40
ATOM     40  C   UNL     1      -5.966  -0.808   4.943  1.00  0.00     0.060 A 
ATOM     41  C   UNL     1      -6.053  -1.962   5.733  1.00  0.00     0.016 A 
ATOM     42  C   UNL     1      -5.786   0.443   5.538  1.00  0.00     0.016 A 
ATOM     43  C   UNL     1      -6.021  -1.863   7.123  1.00  0.00     0.010 A 
ATOM     44  C   UNL     1      -5.781   0.544   6.933  1.00  0.00     0.010 A 
ATOM     45  C   UNL     1      -5.947  -0.604   7.728  1.00  0.00    -0.014 A 
BRANCH  45  46
ATOM     46  C   UNL     1      -6.280  -0.477   9.167  1.00  0.00     0.031 A 
ATOM     47  C   UNL     1      -7.680  -0.061   9.536  1.00  0.00     0.074 A 
ATOM     48  C   UNL     1      -5.380  -0.754  10.126  1.00  0.00     0.049 A 
ATOM     49  N   UNL     1      -8.207   0.125  10.716  1.00  0.00    -0.248 NA
ATOM     50  C   UNL     1      -8.610   0.178   8.418  1.00  0.00     0.031 C 
ATOM     51  C   UNL     1      -4.004  -1.186   9.896  1.00  0.00     0.029 A 
ATOM     52  N   UNL     1      -5.493  -0.693  11.493  1.00  0.00    -0.354 N 
ATOM     53  C   UNL     1      -9.516   0.531  10.485  1.00  0.00     0.074 A 
ATOM     54  C   UNL     1      -9.701   0.577   9.052  1.00  0.00     0.031 C 
ATOM     55  C   UNL     1      -3.388  -1.325  11.084  1.00  0.00     0.029 A 
ATOM     56  C   UNL     1      -4.319  -0.965  12.154  1.00  0.00     0.049 A 
ATOM     57  H   UNL     1      -6.334  -0.475  11.956  1.00  0.00     0.167 HD
ATOM     58  C   UNL     1     -10.484   0.826  11.384  1.00  0.00     0.034 A 
ATOM     59  C   UNL     1      -4.026  -0.904  13.468  1.00  0.00     0.034 A 
ATOM     60  C   UNL     1     -10.302   0.770  12.808  1.00  0.00     0.049 A 
ATOM     61  C   UNL     1      -5.111  -0.534  14.449  1.00  0.00     0.074 A 
ATOM     62  C   UNL     1     -11.230   1.012  13.804  1.00  0.00     0.029 A 
ATOM     63  N   UNL     1      -9.106   0.467  13.441  1.00  0.00    -0.354 N 
ATOM     64  N   UNL     1      -6.372  -0.256  14.222  1.00  0.00    -0.248 NA
ATOM     65  C   UNL     1      -4.739  -0.504  15.871  1.00  0.00     0.031 C 
ATOM     66  C   UNL     1     -10.585   0.897  15.039  1.00  0.00     0.029 A 
ATOM     67  C   UNL     1      -9.267   0.533  14.813  1.00  0.00     0.049 A 
ATOM     68  H   UNL     1      -8.266   0.239  12.981  1.00  0.00     0.167 HD
ATOM     69  C   UNL     1      -6.952  -0.059  15.471  1.00  0.00     0.074 A 
ATOM     70  C   UNL     1      -5.908  -0.269  16.452  1.00  0.00     0.031 C 
ATOM     71  C   UNL     1      -8.231   0.274  15.780  1.00  0.00     0.034 A 
BRANCH  58  72
ATOM     72  C   UNL     1     -11.832   1.235  10.850  1.00  0.00     0.023 A 
ATOM     73  C   UNL     1     -12.663   0.281  10.228  1.00  0.00     0.012 A 
ATOM     74  C   UNL     1     -12.294   2.557  11.008  1.00  0.00     0.148 A 
ATOM     75  C   UNL     1     -13.918   0.644   9.741  1.00  0.00     0.002 A 
ATOM     76  C   UNL     1     -13.565   2.898  10.565  1.00  0.00     0.091 A 
ATOM     77  F   UNL     1     -11.479   3.454  11.581  1.00  0.00    -0.205 F 
ATOM     78  C   UNL     1     -14.373   1.948   9.919  1.00  0.00     0.022 A 
BRANCH  76  79
ATOM     79  S   UNL     1     -14.275   4.528  10.822  1.00  0.00     0.127 S 
ATOM     80  O   UNL     1     -14.337   5.041   9.454  1.00  0.00    -0.237 OA
ATOM     81  O   UNL     1     -15.574   4.206  11.412  1.00  0.00    -0.237 OA
ATOM     82  O   UNL     1     -13.360   5.232  11.709  1.00  0.00    -0.744 OA
ENDBRANCH  76  79
ENDBRANCH  58  72
BRANCH  59  83
ATOM     83  C   UNL     1      -2.648  -1.218  13.943  1.00  0.00     0.023 A 
ATOM     84  C   UNL     1      -2.421  -2.365  14.729  1.00  0.00     0.012 A 
ATOM     85  C   UNL     1      -1.560  -0.385  13.617  1.00  0.00     0.148 A 
ATOM     86  C   UNL     1      -1.145  -2.655  15.213  1.00  0.00     0.002 A 
ATOM     87  C   UNL     1      -0.281  -0.714  14.048  1.00  0.00     0.091 A 
ATOM     88  F   UNL     1      -1.798   0.710  12.881  1.00  0.00    -0.205 F 
ATOM     89  C   UNL     1      -0.074  -1.836  14.865  1.00  0.00     0.022 A 
BRANCH  87  90
ATOM     90  S   UNL     1       1.176   0.203  13.535  1.00  0.00     0.127 S 
ATOM     91  O   UNL     1       1.620   0.791  14.795  1.00  0.00    -0.237 OA
ATOM     92  O   UNL     1       2.030  -0.865  13.014  1.00  0.00    -0.237 OA
ATOM     93  O   UNL     1       0.717   1.146  12.524  1.00  0.00    -0.744 OA
ENDBRANCH  87  90
ENDBRANCH  59  83
BRANCH  71  94
ATOM     94  C   UNL     1      -8.597   0.381  17.239  1.00  0.00     0.023 A 
ATOM     95  C   UNL     1      -8.109   1.450  18.017  1.00  0.00     0.012 A 
ATOM     96  C   UNL     1      -9.485  -0.547  17.821  1.00  0.00     0.148 A 
ATOM     97  C   UNL     1      -8.465   1.569  19.361  1.00  0.00     0.002 A 
ATOM     98  C   UNL     1      -9.879  -0.390  19.144  1.00  0.00     0.091 A 
ATOM     99  F   UNL     1      -9.928  -1.565  17.070  1.00  0.00    -0.205 F 
ATOM    100  C   UNL     1      -9.357   0.658  19.920  1.00  0.00     0.022 A 
BRANCH  98 101
ATOM    101  S   UNL     1     -11.100  -1.454  19.919  1.00  0.00     0.127 S 
ATOM    102  O   UNL     1     -10.278  -2.217  20.857  1.00  0.00    -0.237 OA
ATOM    103  O   UNL     1     -12.001  -0.486  20.546  1.00  0.00    -0.237 OA
ATOM    104  O   UNL     1     -11.700  -2.230  18.843  1.00  0.00    -0.744 OA
ENDBRANCH  98 101
ENDBRANCH  71  94
ENDBRANCH  45  46
ENDBRANCH  38  40
ENDBRANCH  37  38
ENDBRANCH  36  37
ENDBRANCH  35  36
ENDBRANCH  34  35
ENDBRANCH  33  34
ENDBRANCH  32  33
ENDBRANCH  31  32
ENDBRANCH   1  31
TORSDOF 29
