REMARK SMILES CC[NH+]1CC[NH+]([C@@H]2CC(=O)N(c3ccc(C(=O)OCCOCCOCCOCCOC(=O)c4ccc(-c5c6nc(c(-c7cccc(S(=O)(=O)[O-])c7F)c7ccc([nH]7)c(-c7cccc(S(=O)(=O)[O-])c7F)c7nc(c(-c8cccc(S(=O)(=O)[O-])c8F)c8ccc5[nH]8)C=C7)C=C6)cc4)cc3)C2=O)CC1
REMARK SMILES IDX 24 1 23 2 22 3 21 4 20 5 19 6 18 7 16 8 17 9 15 10 12 11
REMARK SMILES IDX 13 12 97 13 14 14 96 15 11 16 7 17 8 18 98 19 9 20 99 21
REMARK SMILES IDX 10 22 6 23 3 24 4 25 101 26 5 28 100 29 2 31 1 32 25 33
REMARK SMILES IDX 26 34 27 35 28 36 29 37 30 38 31 39 32 40 33 41 34 42 95 43
REMARK SMILES IDX 35 44 94 45 36 46 37 47 38 48 88 49 39 50 93 51 87 52 89 53
REMARK SMILES IDX 40 54 92 55 86 56 85 57 41 59 73 60 53 61 72 62 54 63 57 64
REMARK SMILES IDX 71 65 90 66 55 67 56 68 70 70 91 71 58 72 42 73 43 74 51 75
REMARK SMILES IDX 44 76 46 77 52 78 45 79 47 80 48 81 49 82 50 83 74 84 75 85
REMARK SMILES IDX 83 86 76 87 78 88 84 89 77 90 79 91 80 92 81 93 82 94 59 95
REMARK SMILES IDX 60 96 68 97 61 98 63 99 69 100 62 101 64 102 65 103 66 104
REMARK SMILES IDX 67 105
REMARK H PARENT 3 27 6 30 89 58 57 69
REMARK Flexibility Score: inf
ROOT
ATOM      1  O   UNL     1      10.049  -5.621  -6.333  1.00  0.00    -0.377 OA
ENDROOT
BRANCH   1   2
ATOM      2  C   UNL     1       8.917  -5.021  -6.939  1.00  0.00     0.188 C 
BRANCH   2   3
ATOM      3  C   UNL     1       9.118  -3.703  -7.715  1.00  0.00     0.188 C 
BRANCH   3   4
ATOM      4  O   UNL     1      10.471  -3.405  -8.004  1.00  0.00    -0.376 OA
BRANCH   4   5
ATOM      5  C   UNL     1      11.159  -2.410  -7.270  1.00  0.00     0.202 C 
BRANCH   5   6
ATOM      6  C   UNL     1      11.180  -2.422  -5.735  1.00  0.00     0.261 C 
BRANCH   6   7
ATOM      7  O   UNL     1       9.977  -2.832  -5.085  1.00  0.00    -0.460 OA
BRANCH   7   8
ATOM      8  C   UNL     1       8.951  -1.958  -5.052  1.00  0.00     0.338 C 
ATOM      9  O   UNL     1       8.919  -0.838  -5.529  1.00  0.00    -0.246 OA
BRANCH   8  10
ATOM     10  C   UNL     1       7.775  -2.690  -4.528  1.00  0.00     0.060 A 
ATOM     11  C   UNL     1       5.514  -4.061  -3.575  1.00  0.00     0.052 A 
ATOM     12  C   UNL     1       5.429  -3.271  -4.731  1.00  0.00     0.028 A 
ATOM     13  C   UNL     1       6.770  -4.231  -2.971  1.00  0.00     0.028 A 
ATOM     14  C   UNL     1       6.547  -2.562  -5.186  1.00  0.00     0.018 A 
ATOM     15  C   UNL     1       7.898  -3.562  -3.447  1.00  0.00     0.018 A 
BRANCH  11  16
ATOM     16  N   UNL     1       4.345  -4.574  -2.956  1.00  0.00    -0.245 N 
ATOM     17  C   UNL     1       2.074  -5.074  -2.558  1.00  0.00     0.285 C 
ATOM     18  C   UNL     1       2.842  -5.121  -1.247  1.00  0.00     0.176 C 
ATOM     19  C   UNL     1       3.173  -4.890  -3.606  1.00  0.00     0.292 C 
ATOM     20  C   UNL     1       4.217  -4.660  -1.590  1.00  0.00     0.240 C 
ATOM     21  O   UNL     1       2.990  -4.996  -4.814  1.00  0.00    -0.267 OA
ATOM     22  O   UNL     1       5.025  -4.358  -0.722  1.00  0.00    -0.274 OA
BRANCH  17  23
ATOM     23  N   UNL     1       0.960  -4.113  -2.743  1.00  0.00    -0.315 N 
ATOM     24  N   UNL     1       0.856  -1.916  -0.695  1.00  0.00    -0.326 N 
ATOM     25  C   UNL     1       0.157  -3.188  -0.474  1.00  0.00     0.324 C 
ATOM     26  C   UNL     1       1.793  -1.914  -1.826  1.00  0.00     0.324 C 
ATOM     27  H   UNL     1       1.441  -1.843   0.138  1.00  0.00     0.348 HD
ATOM     28  C   UNL     1      -0.065  -4.129  -1.688  1.00  0.00     0.325 C 
ATOM     29  C   UNL     1       1.316  -2.720  -3.045  1.00  0.00     0.325 C 
ATOM     30  H   UNL     1       0.561  -4.501  -3.598  1.00  0.00     0.349 HD
BRANCH  24  31
ATOM     31  C   UNL     1       0.007  -0.729  -0.663  1.00  0.00     0.259 C 
ATOM     32  C   UNL     1       0.697   0.329   0.193  1.00  0.00     0.071 C 
ENDBRANCH  24  31
ENDBRANCH  17  23
ENDBRANCH  11  16
ENDBRANCH   8  10
ENDBRANCH   7   8
ENDBRANCH   6   7
ENDBRANCH   5   6
ENDBRANCH   4   5
ENDBRANCH   3   4
ENDBRANCH   2   3
ENDBRANCH   1   2
BRANCH   1  33
ATOM     33  C   UNL     1      11.209  -5.912  -7.109  1.00  0.00     0.188 C 
BRANCH  33  34
ATOM     34  C   UNL     1      11.184  -5.957  -8.657  1.00  0.00     0.188 C 
BRANCH  34  35
ATOM     35  O   UNL     1       9.891  -5.970  -9.239  1.00  0.00    -0.376 OA
BRANCH  35  36
ATOM     36  C   UNL     1       9.433  -7.182  -9.809  1.00  0.00     0.202 C 
BRANCH  36  37
ATOM     37  C   UNL     1       9.250  -8.372  -8.858  1.00  0.00     0.261 C 
BRANCH  37  38
ATOM     38  O   UNL     1      10.392  -8.729  -8.067  1.00  0.00    -0.460 OA
BRANCH  38  39
ATOM     39  C   UNL     1      11.478  -9.191  -8.722  1.00  0.00     0.338 C 
ATOM     40  O   UNL     1      11.597  -9.347  -9.928  1.00  0.00    -0.246 OA
BRANCH  39  41
ATOM     41  C   UNL     1      12.580  -9.297  -7.745  1.00  0.00     0.060 A 
ATOM     42  C   UNL     1      13.738  -8.532  -7.938  1.00  0.00     0.016 A 
ATOM     43  C   UNL     1      12.462 -10.137  -6.636  1.00  0.00     0.016 A 
ATOM     44  C   UNL     1      14.798  -8.634  -7.037  1.00  0.00     0.010 A 
ATOM     45  C   UNL     1      13.533 -10.253  -5.746  1.00  0.00     0.010 A 
ATOM     46  C   UNL     1      14.719  -9.529  -5.963  1.00  0.00    -0.014 A 
BRANCH  46  47
ATOM     47  C   UNL     1      15.938  -9.846  -5.181  1.00  0.00     0.031 A 
ATOM     48  C   UNL     1      16.686 -11.112  -5.503  1.00  0.00     0.074 A 
ATOM     49  C   UNL     1      16.384  -9.025  -4.213  1.00  0.00     0.049 A 
ATOM     50  N   UNL     1      17.749 -11.615  -4.934  1.00  0.00    -0.248 NA
ATOM     51  C   UNL     1      16.161 -11.919  -6.619  1.00  0.00     0.031 C 
ATOM     52  C   UNL     1      15.751  -7.770  -3.811  1.00  0.00     0.029 A 
ATOM     53  N   UNL     1      17.464  -9.144  -3.373  1.00  0.00    -0.354 N 
ATOM     54  C   UNL     1      18.011 -12.803  -5.607  1.00  0.00     0.074 A 
ATOM     55  C   UNL     1      16.982 -12.958  -6.611  1.00  0.00     0.031 C 
ATOM     56  C   UNL     1      16.433  -7.253  -2.774  1.00  0.00     0.029 A 
ATOM     57  C   UNL     1      17.532  -8.151  -2.424  1.00  0.00     0.049 A 
ATOM     58  H   UNL     1      18.125  -9.870  -3.444  1.00  0.00     0.167 HD
ATOM     59  C   UNL     1      19.027 -13.678  -5.421  1.00  0.00     0.034 A 
ATOM     60  C   UNL     1      18.366  -8.006  -1.374  1.00  0.00     0.034 A 
ATOM     61  C   UNL     1      20.051 -13.522  -4.424  1.00  0.00     0.049 A 
ATOM     62  C   UNL     1      19.465  -9.016  -1.161  1.00  0.00     0.074 A 
ATOM     63  C   UNL     1      21.134 -14.344  -4.169  1.00  0.00     0.029 A 
ATOM     64  N   UNL     1      20.112 -12.484  -3.508  1.00  0.00    -0.354 N 
ATOM     65  N   UNL     1      19.759 -10.082  -1.866  1.00  0.00    -0.248 NA
ATOM     66  C   UNL     1      20.372  -8.784  -0.026  1.00  0.00     0.031 C 
ATOM     67  C   UNL     1      21.833 -13.818  -3.077  1.00  0.00     0.029 A 
ATOM     68  C   UNL     1      21.210 -12.646  -2.682  1.00  0.00     0.049 A 
ATOM     69  H   UNL     1      19.468 -11.740  -3.454  1.00  0.00     0.167 HD
ATOM     70  C   UNL     1      20.902 -10.623  -1.285  1.00  0.00     0.074 A 
ATOM     71  C   UNL     1      21.261  -9.754  -0.185  1.00  0.00     0.031 C 
ATOM     72  C   UNL     1      21.586 -11.745  -1.622  1.00  0.00     0.034 A 
BRANCH  59  73
ATOM     73  C   UNL     1      19.095 -14.873  -6.335  1.00  0.00     0.023 A 
ATOM     74  C   UNL     1      19.453 -14.697  -7.688  1.00  0.00     0.012 A 
ATOM     75  C   UNL     1      18.861 -16.173  -5.846  1.00  0.00     0.148 A 
ATOM     76  C   UNL     1      19.546 -15.791  -8.546  1.00  0.00     0.002 A 
ATOM     77  C   UNL     1      19.003 -17.263  -6.696  1.00  0.00     0.091 A 
ATOM     78  F   UNL     1      18.503 -16.317  -4.562  1.00  0.00    -0.205 F 
ATOM     79  C   UNL     1      19.333 -17.074  -8.048  1.00  0.00     0.022 A 
BRANCH  77  80
ATOM     80  S   UNL     1      18.827 -18.961  -6.136  1.00  0.00     0.127 S 
ATOM     81  O   UNL     1      17.624 -19.384  -6.851  1.00  0.00    -0.237 OA
ATOM     82  O   UNL     1      20.067 -19.570  -6.616  1.00  0.00    -0.237 OA
ATOM     83  O   UNL     1      18.698 -18.898  -4.687  1.00  0.00    -0.744 OA
ENDBRANCH  77  80
ENDBRANCH  59  73
BRANCH  60  84
ATOM     84  C   UNL     1      18.198  -6.859  -0.436  1.00  0.00     0.023 A 
ATOM     85  C   UNL     1      19.185  -5.857  -0.363  1.00  0.00     0.012 A 
ATOM     86  C   UNL     1      17.065  -6.768   0.396  1.00  0.00     0.148 A 
ATOM     87  C   UNL     1      19.066  -4.808   0.551  1.00  0.00     0.002 A 
ATOM     88  C   UNL     1      16.923  -5.689   1.260  1.00  0.00     0.091 A 
ATOM     89  F   UNL     1      16.145  -7.741   0.325  1.00  0.00    -0.205 F 
ATOM     90  C   UNL     1      17.933  -4.719   1.355  1.00  0.00     0.022 A 
BRANCH  88  91
ATOM     91  S   UNL     1      15.439  -5.427   2.236  1.00  0.00     0.127 S 
ATOM     92  O   UNL     1      15.925  -5.675   3.591  1.00  0.00    -0.237 OA
ATOM     93  O   UNL     1      15.128  -4.029   1.938  1.00  0.00    -0.237 OA
ATOM     94  O   UNL     1      14.462  -6.381   1.730  1.00  0.00    -0.744 OA
ENDBRANCH  88  91
ENDBRANCH  60  84
BRANCH  72  95
ATOM     95  C   UNL     1      22.826 -12.076  -0.831  1.00  0.00     0.023 A 
ATOM     96  C   UNL     1      22.720 -12.516   0.503  1.00  0.00     0.012 A 
ATOM     97  C   UNL     1      24.098 -12.010  -1.436  1.00  0.00     0.148 A 
ATOM     98  C   UNL     1      23.861 -12.845   1.235  1.00  0.00     0.002 A 
ATOM     99  C   UNL     1      25.225 -12.391  -0.719  1.00  0.00     0.091 A 
ATOM    100  F   UNL     1      24.182 -11.575  -2.702  1.00  0.00    -0.205 F 
ATOM    101  C   UNL     1      25.110 -12.794   0.622  1.00  0.00     0.022 A 
BRANCH  99 102
ATOM    102  S   UNL     1      26.863 -12.451  -1.454  1.00  0.00     0.127 S 
ATOM    103  O   UNL     1      27.531 -11.337  -0.784  1.00  0.00    -0.237 OA
ATOM    104  O   UNL     1      27.334 -13.777  -1.050  1.00  0.00    -0.237 OA
ATOM    105  O   UNL     1      26.668 -12.289  -2.888  1.00  0.00    -0.744 OA
ENDBRANCH  99 102
ENDBRANCH  72  95
ENDBRANCH  46  47
ENDBRANCH  39  41
ENDBRANCH  38  39
ENDBRANCH  37  38
ENDBRANCH  36  37
ENDBRANCH  35  36
ENDBRANCH  34  35
ENDBRANCH  33  34
ENDBRANCH   1  33
TORSDOF 26
