REMARK SMILES Cc1cccc(Cl)c1Nc1ccccc1CC(=O)OCCOCCOCCOCCOC(=O)c1ccc(-c2c3nc(c(-c4cccc(S(=O)(=O)[O-])c4F)c4ccc([nH]4)c(-c4cccc(S(=O)(=O)[O-])c4F)c4nc(c(-c5cccc(S(=O)(=O)[O-])c5F)c5ccc2[nH]5)C=C4)C=C3)cc1
REMARK SMILES IDX 25 1 24 2 23 3 22 4 21 5 20 6 19 7 17 8 18 9 16 10 15 11
REMARK SMILES IDX 10 12 11 13 12 14 14 15 13 16 9 17 8 19 1 20 2 21 3 22 4 23
REMARK SMILES IDX 6 24 5 25 7 26 26 27 27 28 28 29 29 30 30 31 31 32 32 33
REMARK SMILES IDX 33 34 34 35 35 36 96 37 36 38 95 39 37 40 38 41 39 42 89 43
REMARK SMILES IDX 40 44 94 45 88 46 90 47 41 48 93 49 87 50 86 51 42 53 74 54
REMARK SMILES IDX 54 55 73 56 55 57 58 58 72 59 91 60 56 61 57 62 71 64 92 65
REMARK SMILES IDX 59 66 43 67 44 68 52 69 45 70 47 71 53 72 46 73 48 74 49 75
REMARK SMILES IDX 50 76 51 77 75 78 76 79 84 80 77 81 79 82 85 83 78 84 80 85
REMARK SMILES IDX 81 86 82 87 83 88 60 89 61 90 69 91 62 92 64 93 70 94 63 95
REMARK SMILES IDX 65 96 66 97 67 98 68 99
REMARK H PARENT 9 18 90 52 58 63
REMARK Flexibility Score: inf
ROOT
ATOM      1  O   UNL     1       2.703   4.829  -4.074  1.00  0.00    -0.377 OA
ENDROOT
BRANCH   1   2
ATOM      2  C   UNL     1       3.271   3.705  -3.434  1.00  0.00     0.188 C 
BRANCH   2   3
ATOM      3  C   UNL     1       3.506   2.500  -4.374  1.00  0.00     0.188 C 
BRANCH   3   4
ATOM      4  O   UNL     1       2.743   2.322  -5.568  1.00  0.00    -0.376 OA
BRANCH   4   5
ATOM      5  C   UNL     1       1.588   3.118  -5.778  1.00  0.00     0.202 C 
BRANCH   5   6
ATOM      6  C   UNL     1       0.407   2.912  -4.806  1.00  0.00     0.261 C 
BRANCH   6   7
ATOM      7  O   UNL     1       0.764   2.554  -3.449  1.00  0.00    -0.463 OA
BRANCH   7   8
ATOM      8  C   UNL     1       0.761   1.238  -3.142  1.00  0.00     0.310 C 
ATOM      9  O   UNL     1       0.317   0.374  -3.900  1.00  0.00    -0.252 OA
BRANCH   8  10
ATOM     10  C   UNL     1       1.464   0.829  -1.855  1.00  0.00     0.160 C 
BRANCH  10  11
ATOM     11  C   UNL     1       1.961   1.808  -0.792  1.00  0.00    -0.013 A 
ATOM     12  C   UNL     1       1.139   2.416   0.181  1.00  0.00     0.042 A 
ATOM     13  C   UNL     1       1.683   3.397   1.039  1.00  0.00     0.026 A 
ATOM     14  C   UNL     1       3.044   3.691   1.038  1.00  0.00     0.002 A 
ATOM     15  C   UNL     1       3.351   2.061  -0.711  1.00  0.00     0.006 A 
ATOM     16  C   UNL     1       3.886   2.988   0.190  1.00  0.00     0.000 A 
BRANCH  12  17
ATOM     17  N   UNL     1      -0.149   1.951   0.511  1.00  0.00    -0.354 N 
ATOM     18  H   UNL     1      -0.813   2.652   0.701  1.00  0.00     0.167 HD
BRANCH  17  19
ATOM     19  C   UNL     1      -0.629   0.623   0.610  1.00  0.00     0.060 A 
ATOM     20  C   UNL     1      -2.922   1.500  -0.060  1.00  0.00     0.046 C 
ATOM     21  C   UNL     1      -1.955   0.372   0.193  1.00  0.00    -0.026 A 
ATOM     22  C   UNL     1      -2.368  -0.947  -0.056  1.00  0.00     0.005 A 
ATOM     23  C   UNL     1      -1.500  -2.020   0.135  1.00  0.00     0.002 A 
ATOM     24  C   UNL     1       0.191  -0.491   0.927  1.00  0.00     0.064 A 
ATOM     25  C   UNL     1      -0.232  -1.795   0.655  1.00  0.00     0.023 A 
ATOM     26  Cl  UNL     1       1.745  -0.349   1.688  1.00  0.00    -0.082 Cl
ENDBRANCH  17  19
ENDBRANCH  12  17
ENDBRANCH  10  11
ENDBRANCH   8  10
ENDBRANCH   7   8
ENDBRANCH   6   7
ENDBRANCH   5   6
ENDBRANCH   4   5
ENDBRANCH   3   4
ENDBRANCH   2   3
ENDBRANCH   1   2
BRANCH   1  27
ATOM     27  C   UNL     1       3.571   5.925  -4.246  1.00  0.00     0.188 C 
BRANCH  27  28
ATOM     28  C   UNL     1       4.851   5.600  -5.028  1.00  0.00     0.188 C 
BRANCH  28  29
ATOM     29  O   UNL     1       5.595   4.531  -4.451  1.00  0.00    -0.376 OA
BRANCH  29  30
ATOM     30  C   UNL     1       6.742   4.820  -3.672  1.00  0.00     0.202 C 
BRANCH  30  31
ATOM     31  C   UNL     1       6.568   5.499  -2.302  1.00  0.00     0.261 C 
BRANCH  31  32
ATOM     32  O   UNL     1       5.712   6.644  -2.237  1.00  0.00    -0.460 OA
BRANCH  32  33
ATOM     33  C   UNL     1       6.098   7.757  -2.905  1.00  0.00     0.338 C 
ATOM     34  O   UNL     1       7.110   7.900  -3.551  1.00  0.00    -0.246 OA
BRANCH  33  35
ATOM     35  C   UNL     1       4.951   8.701  -2.885  1.00  0.00     0.060 A 
ATOM     36  C   UNL     1       4.393   9.100  -4.107  1.00  0.00     0.016 A 
ATOM     37  C   UNL     1       4.401   9.145  -1.680  1.00  0.00     0.016 A 
ATOM     38  C   UNL     1       3.296   9.961  -4.129  1.00  0.00     0.010 A 
ATOM     39  C   UNL     1       3.325  10.039  -1.704  1.00  0.00     0.010 A 
ATOM     40  C   UNL     1       2.789  10.474  -2.929  1.00  0.00    -0.014 A 
BRANCH  40  41
ATOM     41  C   UNL     1       1.865  11.632  -2.969  1.00  0.00     0.031 A 
ATOM     42  C   UNL     1       2.459  13.008  -2.835  1.00  0.00     0.074 A 
ATOM     43  C   UNL     1       0.539  11.477  -3.130  1.00  0.00     0.049 A 
ATOM     44  N   UNL     1       1.866  14.171  -2.813  1.00  0.00    -0.248 NA
ATOM     45  C   UNL     1       3.926  13.077  -2.709  1.00  0.00     0.031 C 
ATOM     46  C   UNL     1      -0.151  10.199  -3.290  1.00  0.00     0.029 A 
ATOM     47  N   UNL     1      -0.467  12.411  -3.160  1.00  0.00    -0.354 N 
ATOM     48  C   UNL     1       2.879  15.106  -2.641  1.00  0.00     0.074 A 
ATOM     49  C   UNL     1       4.124  14.377  -2.555  1.00  0.00     0.031 C 
ATOM     50  C   UNL     1      -1.474  10.427  -3.368  1.00  0.00     0.029 A 
ATOM     51  C   UNL     1      -1.725  11.862  -3.237  1.00  0.00     0.049 A 
ATOM     52  H   UNL     1      -0.303  13.381  -3.129  1.00  0.00     0.167 HD
ATOM     53  C   UNL     1       2.784  16.454  -2.571  1.00  0.00     0.034 A 
ATOM     54  C   UNL     1      -2.936  12.451  -3.180  1.00  0.00     0.034 A 
ATOM     55  C   UNL     1       1.545  17.176  -2.657  1.00  0.00     0.049 A 
ATOM     56  C   UNL     1      -3.019  13.953  -3.057  1.00  0.00     0.074 A 
ATOM     57  C   UNL     1       1.344  18.544  -2.633  1.00  0.00     0.029 A 
ATOM     58  N   UNL     1       0.294  16.588  -2.763  1.00  0.00    -0.354 N 
ATOM     59  N   UNL     1      -2.049  14.834  -3.003  1.00  0.00    -0.248 NA
ATOM     60  C   UNL     1      -4.365  14.545  -3.019  1.00  0.00     0.031 C 
ATOM     61  C   UNL     1      -0.033  18.782  -2.681  1.00  0.00     0.029 A 
ATOM     62  C   UNL     1      -0.686  17.565  -2.787  1.00  0.00     0.049 A 
ATOM     63  H   UNL     1       0.127  15.619  -2.813  1.00  0.00     0.167 HD
ATOM     64  C   UNL     1      -2.664  16.082  -2.969  1.00  0.00     0.074 A 
ATOM     65  C   UNL     1      -4.091  15.843  -3.023  1.00  0.00     0.031 C 
ATOM     66  C   UNL     1      -2.101  17.313  -2.893  1.00  0.00     0.034 A 
BRANCH  53  67
ATOM     67  C   UNL     1       4.058  17.234  -2.389  1.00  0.00     0.023 A 
ATOM     68  C   UNL     1       4.984  17.328  -3.448  1.00  0.00     0.012 A 
ATOM     69  C   UNL     1       4.319  17.909  -1.181  1.00  0.00     0.148 A 
ATOM     70  C   UNL     1       6.165  18.052  -3.296  1.00  0.00     0.002 A 
ATOM     71  C   UNL     1       5.474  18.670  -1.054  1.00  0.00     0.091 A 
ATOM     72  F   UNL     1       3.439  17.786  -0.177  1.00  0.00    -0.205 F 
ATOM     73  C   UNL     1       6.405  18.732  -2.104  1.00  0.00     0.022 A 
BRANCH  71  74
ATOM     74  S   UNL     1       5.835  19.645   0.410  1.00  0.00     0.127 S 
ATOM     75  O   UNL     1       6.984  18.931   0.964  1.00  0.00    -0.237 OA
ATOM     76  O   UNL     1       6.148  20.954  -0.165  1.00  0.00    -0.237 OA
ATOM     77  O   UNL     1       4.629  19.611   1.225  1.00  0.00    -0.744 OA
ENDBRANCH  71  74
ENDBRANCH  53  67
BRANCH  54  78
ATOM     78  C   UNL     1      -4.177  11.626  -3.254  1.00  0.00     0.023 A 
ATOM     79  C   UNL     1      -5.021  11.732  -4.376  1.00  0.00     0.012 A 
ATOM     80  C   UNL     1      -4.524  10.739  -2.216  1.00  0.00     0.148 A 
ATOM     81  C   UNL     1      -6.206  10.998  -4.447  1.00  0.00     0.002 A 
ATOM     82  C   UNL     1      -5.675   9.967  -2.319  1.00  0.00     0.091 A 
ATOM     83  F   UNL     1      -3.716  10.664  -1.149  1.00  0.00    -0.205 F 
ATOM     84  C   UNL     1      -6.528  10.109  -3.425  1.00  0.00     0.022 A 
BRANCH  82  85
ATOM     85  S   UNL     1      -6.108   8.711  -1.111  1.00  0.00     0.127 S 
ATOM     86  O   UNL     1      -7.316   9.274  -0.513  1.00  0.00    -0.237 OA
ATOM     87  O   UNL     1      -6.328   7.541  -1.960  1.00  0.00    -0.237 OA
ATOM     88  O   UNL     1      -4.958   8.602  -0.223  1.00  0.00    -0.744 OA
ENDBRANCH  82  85
ENDBRANCH  54  78
BRANCH  66  89
ATOM     89  C   UNL     1      -3.016  18.511  -2.919  1.00  0.00     0.023 A 
ATOM     90  C   UNL     1      -3.830  18.808  -1.808  1.00  0.00     0.012 A 
ATOM     91  C   UNL     1      -3.005  19.390  -4.022  1.00  0.00     0.148 A 
ATOM     92  C   UNL     1      -4.643  19.941  -1.809  1.00  0.00     0.002 A 
ATOM     93  C   UNL     1      -3.776  20.545  -3.992  1.00  0.00     0.091 A 
ATOM     94  F   UNL     1      -2.234  19.083  -5.075  1.00  0.00    -0.205 F 
ATOM     95  C   UNL     1      -4.607  20.815  -2.893  1.00  0.00     0.022 A 
BRANCH  93  96
ATOM     96  S   UNL     1      -3.715  21.779  -5.297  1.00  0.00     0.127 S 
ATOM     97  O   UNL     1      -5.033  21.626  -5.912  1.00  0.00    -0.237 OA
ATOM     98  O   UNL     1      -3.535  23.019  -4.541  1.00  0.00    -0.237 OA
ATOM     99  O   UNL     1      -2.587  21.417  -6.143  1.00  0.00    -0.744 OA
ENDBRANCH  93  96
ENDBRANCH  66  89
ENDBRANCH  40  41
ENDBRANCH  33  35
ENDBRANCH  32  33
ENDBRANCH  31  32
ENDBRANCH  30  31
ENDBRANCH  29  30
ENDBRANCH  28  29
ENDBRANCH  27  28
ENDBRANCH   1  27
TORSDOF 26
