REMARK SMILES CCCCCCNC(=O)Oc1cccc(-c2ccc(CC(=O)OCCOCCOCCOCCOC(=O)c3ccc(-c4c5nc(c(-c6cccc(S(=O)(=O)[O-])c6F)c6ccc([nH]6)c(-c6cccc(S(=O)(=O)[O-])c6F)c6nc(c(-c7cccc(S(=O)(=O)[O-])c7F)c7ccc4[nH]7)C=C6)C=C5)cc3)cc2F)c1
REMARK SMILES IDX 26 1 25 2 24 3 23 4 21 5 22 6 20 7 19 8 16 9 17 10 102 11
REMARK SMILES IDX 18 12 101 13 103 14 15 15 11 16 12 17 104 18 13 19 14 20
REMARK SMILES IDX 10 21 8 22 7 23 9 25 6 26 5 27 4 28 3 29 2 30 1 31 27 32
REMARK SMILES IDX 28 33 29 34 30 35 31 36 32 37 33 38 34 39 35 40 36 41 37 42
REMARK SMILES IDX 38 43 39 44 100 45 40 46 99 47 41 48 42 49 43 50 93 51 44 52
REMARK SMILES IDX 98 53 92 54 94 55 45 56 97 57 91 58 90 59 46 61 78 62 58 63
REMARK SMILES IDX 77 64 59 65 62 66 76 67 95 68 60 69 61 70 75 72 96 73 63 74
REMARK SMILES IDX 47 75 48 76 56 77 49 78 51 79 57 80 50 81 52 82 53 83 54 84
REMARK SMILES IDX 55 85 79 86 80 87 88 88 81 89 83 90 89 91 82 92 84 93 85 94
REMARK SMILES IDX 86 95 87 96 64 97 65 98 73 99 66 100 68 101 74 102 67 103
REMARK SMILES IDX 69 104 70 105 71 106 72 107
REMARK H PARENT 7 24 94 60 62 71
REMARK Flexibility Score: inf
ROOT
ATOM      1  O   UNL     1      -7.191  12.608  10.269  1.00  0.00    -0.376 OA
ENDROOT
BRANCH   1   2
ATOM      2  C   UNL     1      -8.127  12.978   9.270  1.00  0.00     0.202 C 
BRANCH   2   3
ATOM      3  C   UNL     1      -7.618  13.042   7.817  1.00  0.00     0.261 C 
BRANCH   3   4
ATOM      4  O   UNL     1      -6.573  12.108   7.460  1.00  0.00    -0.463 OA
BRANCH   4   5
ATOM      5  C   UNL     1      -5.298  12.538   7.604  1.00  0.00     0.310 C 
ATOM      6  O   UNL     1      -4.998  13.686   7.928  1.00  0.00    -0.252 OA
BRANCH   5   7
ATOM      7  C   UNL     1      -4.215  11.510   7.314  1.00  0.00     0.158 C 
BRANCH   7   8
ATOM      8  C   UNL     1      -4.496  10.016   7.257  1.00  0.00    -0.034 A 
ATOM      9  C   UNL     1      -4.872   7.182   7.096  1.00  0.00     0.018 A 
ATOM     10  C   UNL     1      -4.467   7.788   8.294  1.00  0.00     0.012 A 
ATOM     11  C   UNL     1      -5.075   8.020   5.991  1.00  0.00     0.131 A 
ATOM     12  C   UNL     1      -4.262   9.180   8.367  1.00  0.00     0.005 A 
ATOM     13  C   UNL     1      -4.909   9.409   6.065  1.00  0.00     0.044 A 
ATOM     14  F   UNL     1      -5.415   7.486   4.807  1.00  0.00    -0.206 F 
BRANCH   9  15
ATOM     15  C   UNL     1      -5.049   5.725   6.989  1.00  0.00    -0.012 A 
ATOM     16  C   UNL     1      -4.277   3.557   6.199  1.00  0.00     0.133 A 
ATOM     17  C   UNL     1      -5.449   2.948   6.641  1.00  0.00     0.047 A 
ATOM     18  C   UNL     1      -4.076   4.932   6.358  1.00  0.00     0.056 A 
ATOM     19  C   UNL     1      -6.418   3.720   7.279  1.00  0.00     0.004 A 
ATOM     20  C   UNL     1      -6.218   5.096   7.455  1.00  0.00     0.009 A 
BRANCH  16  21
ATOM     21  O   UNL     1      -3.385   2.761   5.457  1.00  0.00    -0.410 OA
BRANCH  21  22
ATOM     22  C   UNL     1      -2.031   2.822   5.751  1.00  0.00     0.412 C 
ATOM     23  N   UNL     1      -1.251   2.135   4.862  1.00  0.00    -0.321 N 
ATOM     24  H   UNL     1      -0.282   2.133   5.038  1.00  0.00     0.167 HD
ATOM     25  O   UNL     1      -1.523   3.406   6.702  1.00  0.00    -0.224 OA
BRANCH  23  26
ATOM     26  C   UNL     1      -1.694   1.408   3.688  1.00  0.00     0.119 C 
BRANCH  26  27
ATOM     27  C   UNL     1      -1.077   1.963   2.402  1.00  0.00     0.021 C 
BRANCH  27  28
ATOM     28  C   UNL     1       0.454   1.875   2.326  1.00  0.00     0.002 C 
BRANCH  28  29
ATOM     29  C   UNL     1       1.042   0.464   2.432  1.00  0.00    -0.000 C 
BRANCH  29  30
ATOM     30  C   UNL     1       0.575  -0.525   1.361  1.00  0.00    -0.003 C 
ATOM     31  C   UNL     1       0.974  -0.118  -0.049  1.00  0.00     0.004 C 
ENDBRANCH  29  30
ENDBRANCH  28  29
ENDBRANCH  27  28
ENDBRANCH  26  27
ENDBRANCH  23  26
ENDBRANCH  21  22
ENDBRANCH  16  21
ENDBRANCH   9  15
ENDBRANCH   7   8
ENDBRANCH   5   7
ENDBRANCH   4   5
ENDBRANCH   3   4
ENDBRANCH   2   3
ENDBRANCH   1   2
BRANCH   1  32
ATOM     32  C   UNL     1      -6.642  11.290  10.260  1.00  0.00     0.188 C 
BRANCH  32  33
ATOM     33  C   UNL     1      -7.242  10.165   9.386  1.00  0.00     0.188 C 
BRANCH  33  34
ATOM     34  O   UNL     1      -8.606  10.352   9.061  1.00  0.00    -0.377 OA
BRANCH  34  35
ATOM     35  C   UNL     1      -9.506   9.479   9.711  1.00  0.00     0.188 C 
BRANCH  35  36
ATOM     36  C   UNL     1      -9.459   9.560  11.243  1.00  0.00     0.188 C 
BRANCH  36  37
ATOM     37  O   UNL     1      -8.155   9.312  11.755  1.00  0.00    -0.376 OA
BRANCH  37  38
ATOM     38  C   UNL     1      -7.854   8.055  12.331  1.00  0.00     0.202 C 
BRANCH  38  39
ATOM     39  C   UNL     1      -7.803   6.804  11.437  1.00  0.00     0.261 C 
BRANCH  39  40
ATOM     40  O   UNL     1      -8.855   6.627  10.484  1.00  0.00    -0.460 OA
BRANCH  40  41
ATOM     41  C   UNL     1     -10.098   6.375  10.962  1.00  0.00     0.338 C 
ATOM     42  O   UNL     1     -10.422   6.276  12.121  1.00  0.00    -0.246 OA
BRANCH  41  43
ATOM     43  C   UNL     1     -11.033   6.460   9.811  1.00  0.00     0.060 A 
ATOM     44  C   UNL     1     -12.071   7.400   9.861  1.00  0.00     0.016 A 
ATOM     45  C   UNL     1     -10.859   5.660   8.678  1.00  0.00     0.016 A 
ATOM     46  C   UNL     1     -12.951   7.529   8.787  1.00  0.00     0.010 A 
ATOM     47  C   UNL     1     -11.763   5.767   7.616  1.00  0.00     0.010 A 
ATOM     48  C   UNL     1     -12.831   6.679   7.682  1.00  0.00    -0.014 A 
BRANCH  48  49
ATOM     49  C   UNL     1     -13.945   6.589   6.710  1.00  0.00     0.031 A 
ATOM     50  C   UNL     1     -14.960   5.497   6.899  1.00  0.00     0.074 A 
ATOM     51  C   UNL     1     -14.055   7.443   5.678  1.00  0.00     0.049 A 
ATOM     52  N   UNL     1     -15.997   5.189   6.169  1.00  0.00    -0.248 NA
ATOM     53  C   UNL     1     -14.769   4.629   8.074  1.00  0.00     0.031 C 
ATOM     54  C   UNL     1     -13.135   8.540   5.388  1.00  0.00     0.029 A 
ATOM     55  N   UNL     1     -14.975   7.491   4.660  1.00  0.00    -0.354 N 
ATOM     56  C   UNL     1     -16.560   4.070   6.769  1.00  0.00     0.074 A 
ATOM     57  C   UNL     1     -15.746   3.750   7.920  1.00  0.00     0.031 C 
ATOM     58  C   UNL     1     -13.511   9.126   4.237  1.00  0.00     0.029 A 
ATOM     59  C   UNL     1     -14.679   8.428   3.700  1.00  0.00     0.049 A 
ATOM     60  H   UNL     1     -15.770   6.910   4.622  1.00  0.00     0.167 HD
ATOM     61  C   UNL     1     -17.659   3.372   6.399  1.00  0.00     0.034 A 
ATOM     62  C   UNL     1     -15.261   8.669   2.508  1.00  0.00     0.034 A 
ATOM     63  C   UNL     1     -18.464   3.693   5.252  1.00  0.00     0.049 A 
ATOM     64  C   UNL     1     -16.473   7.871   2.101  1.00  0.00     0.074 A 
ATOM     65  C   UNL     1     -19.634   3.090   4.828  1.00  0.00     0.029 A 
ATOM     66  N   UNL     1     -18.163   4.681   4.328  1.00  0.00    -0.354 N 
ATOM     67  N   UNL     1     -17.077   6.901   2.745  1.00  0.00    -0.248 NA
ATOM     68  C   UNL     1     -17.103   8.221   0.820  1.00  0.00     0.031 C 
ATOM     69  C   UNL     1     -20.013   3.682   3.618  1.00  0.00     0.029 A 
ATOM     70  C   UNL     1     -19.109   4.689   3.317  1.00  0.00     0.049 A 
ATOM     71  H   UNL     1     -17.391   5.289   4.382  1.00  0.00     0.167 HD
ATOM     72  C   UNL     1     -18.174   6.546   1.966  1.00  0.00     0.074 A 
ATOM     73  C   UNL     1     -18.159   7.417   0.808  1.00  0.00     0.031 C 
ATOM     74  C   UNL     1     -19.104   5.583   2.186  1.00  0.00     0.034 A 
BRANCH  61  75
ATOM     75  C   UNL     1     -18.034   2.179   7.239  1.00  0.00     0.023 A 
ATOM     76  C   UNL     1     -18.516   2.360   8.552  1.00  0.00     0.012 A 
ATOM     77  C   UNL     1     -17.910   0.876   6.722  1.00  0.00     0.148 A 
ATOM     78  C   UNL     1     -18.819   1.260   9.354  1.00  0.00     0.002 A 
ATOM     79  C   UNL     1     -18.265  -0.213   7.509  1.00  0.00     0.091 A 
ATOM     80  F   UNL     1     -17.424   0.721   5.482  1.00  0.00    -0.205 F 
ATOM     81  C   UNL     1     -18.702  -0.025   8.830  1.00  0.00     0.022 A 
BRANCH  79  82
ATOM     82  S   UNL     1     -18.226  -1.899   6.892  1.00  0.00     0.127 S 
ATOM     83  O   UNL     1     -17.063  -2.442   7.593  1.00  0.00    -0.237 OA
ATOM     84  O   UNL     1     -19.513  -2.423   7.349  1.00  0.00    -0.237 OA
ATOM     85  O   UNL     1     -18.094  -1.794   5.446  1.00  0.00    -0.744 OA
ENDBRANCH  79  82
ENDBRANCH  61  75
BRANCH  62  86
ATOM     86  C   UNL     1     -14.695   9.721   1.618  1.00  0.00     0.023 A 
ATOM     87  C   UNL     1     -15.395  10.925   1.417  1.00  0.00     0.012 A 
ATOM     88  C   UNL     1     -13.435   9.546   1.012  1.00  0.00     0.148 A 
ATOM     89  C   UNL     1     -14.856  11.932   0.614  1.00  0.00     0.002 A 
ATOM     90  C   UNL     1     -12.879  10.574   0.262  1.00  0.00     0.091 A 
ATOM     91  F   UNL     1     -12.795   8.385   1.208  1.00  0.00    -0.205 F 
ATOM     92  C   UNL     1     -13.595  11.762   0.048  1.00  0.00     0.022 A 
BRANCH  90  93
ATOM     93  S   UNL     1     -11.210  10.498  -0.396  1.00  0.00     0.127 S 
ATOM     94  O   UNL     1     -11.453  10.549  -1.836  1.00  0.00    -0.237 OA
ATOM     95  O   UNL     1     -10.613  11.706   0.172  1.00  0.00    -0.237 OA
ATOM     96  O   UNL     1     -10.644   9.251   0.099  1.00  0.00    -0.744 OA
ENDBRANCH  90  93
ENDBRANCH  62  86
BRANCH  74  97
ATOM     97  C   UNL     1     -20.217   5.434   1.179  1.00  0.00     0.023 A 
ATOM     98  C   UNL     1     -19.954   4.892  -0.094  1.00  0.00     0.012 A 
ATOM     99  C   UNL     1     -21.545   5.752   1.533  1.00  0.00     0.148 A 
ATOM    100  C   UNL     1     -20.988   4.700  -1.010  1.00  0.00     0.002 A 
ATOM    101  C   UNL     1     -22.577   5.507   0.635  1.00  0.00     0.091 A 
ATOM    102  F   UNL     1     -21.774   6.280   2.744  1.00  0.00    -0.205 F 
ATOM    103  C   UNL     1     -22.299   4.994  -0.642  1.00  0.00     0.022 A 
BRANCH 101 104
ATOM    104  S   UNL     1     -24.304   5.759   1.059  1.00  0.00     0.127 S 
ATOM    105  O   UNL     1     -24.650   6.910   0.226  1.00  0.00    -0.237 OA
ATOM    106  O   UNL     1     -24.913   4.497   0.639  1.00  0.00    -0.237 OA
ATOM    107  O   UNL     1     -24.337   5.999   2.496  1.00  0.00    -0.744 OA
ENDBRANCH 101 104
ENDBRANCH  74  97
ENDBRANCH  48  49
ENDBRANCH  41  43
ENDBRANCH  40  41
ENDBRANCH  39  40
ENDBRANCH  38  39
ENDBRANCH  37  38
ENDBRANCH  36  37
ENDBRANCH  35  36
ENDBRANCH  34  35
ENDBRANCH  33  34
ENDBRANCH  32  33
ENDBRANCH   1  32
TORSDOF 32
