REMARK SMILES COc1ccc([C@@H]2[NH2+][C@H](C(=O)OCCOCCOCCOCCOC(=O)c3ccc(-c4c5nc(c(-c6cccc(S(=O)(=O)[O-])c6F)c6ccc([nH]6)c(-c6cccc(S(=O)(=O)[O-])c6F)c6nc(c(-c7cccc(S(=O)(=O)[O-])c7F)c7ccc4[nH]7)C=C6)C=C5)cc3)CS2)cc1Cn1nc(C)c(Br)c1C
REMARK SMILES IDX 18 1 17 2 16 3 15 4 14 5 13 6 12 7 10 8 11 9 9 10 7 11 8 12
REMARK SMILES IDX 91 13 90 16 6 17 3 18 4 19 93 20 5 21 92 22 2 23 1 24 94 25
REMARK SMILES IDX 95 26 96 27 101 28 97 29 99 30 102 31 98 32 100 33 19 34
REMARK SMILES IDX 20 35 21 36 22 37 23 38 24 39 25 40 26 41 27 42 28 43 89 44
REMARK SMILES IDX 29 45 88 46 30 47 31 48 32 49 82 50 33 51 87 52 81 53 83 54
REMARK SMILES IDX 34 55 86 56 80 57 79 58 35 60 67 61 47 62 66 63 48 64 51 65
REMARK SMILES IDX 65 66 84 67 49 68 50 69 64 71 85 72 52 73 36 74 37 75 45 76
REMARK SMILES IDX 38 77 40 78 46 79 39 80 41 81 42 82 43 83 44 84 68 85 69 86
REMARK SMILES IDX 77 87 70 88 72 89 78 90 71 91 73 92 74 93 75 94 76 95 53 96
REMARK SMILES IDX 54 97 62 98 55 99 57 100 63 101 56 102 58 103 59 104 60 105
REMARK SMILES IDX 61 106
REMARK H PARENT 8 14 8 15 83 59 51 70
REMARK Flexibility Score: inf
ROOT
ATOM      1  O   UNL     1       3.138  -3.914  -4.837  1.00  0.00    -0.377 OA
ENDROOT
BRANCH   1   2
ATOM      2  C   UNL     1       3.713  -4.138  -6.112  1.00  0.00     0.188 C 
BRANCH   2   3
ATOM      3  C   UNL     1       5.256  -4.245  -6.118  1.00  0.00     0.188 C 
BRANCH   3   4
ATOM      4  O   UNL     1       5.964  -4.503  -4.913  1.00  0.00    -0.376 OA
BRANCH   4   5
ATOM      5  C   UNL     1       5.651  -3.728  -3.769  1.00  0.00     0.202 C 
BRANCH   5   6
ATOM      6  C   UNL     1       5.337  -2.241  -3.898  1.00  0.00     0.261 C 
BRANCH   6   7
ATOM      7  O   UNL     1       4.585  -1.778  -5.012  1.00  0.00    -0.459 OA
BRANCH   7   8
ATOM      8  C   UNL     1       5.139  -0.853  -5.817  1.00  0.00     0.365 C 
ATOM      9  O   UNL     1       6.319  -0.514  -5.791  1.00  0.00    -0.245 OA
BRANCH   8  10
ATOM     10  C   UNL     1       4.130  -0.230  -6.780  1.00  0.00     0.304 C 
ATOM     11  C   UNL     1       1.881   0.107  -5.944  1.00  0.00     0.274 C 
ATOM     12  N   UNL     1       2.755  -0.794  -6.698  1.00  0.00    -0.319 N 
ATOM     13  S   UNL     1       2.438   1.785  -6.293  1.00  0.00    -0.087 SA
ATOM     14  H   UNL     1       2.384  -0.913  -7.640  1.00  0.00     0.348 HD
ATOM     15  H   UNL     1       2.794  -1.694  -6.220  1.00  0.00     0.348 HD
ATOM     16  C   UNL     1       4.144   1.282  -6.571  1.00  0.00     0.153 C 
BRANCH  11  17
ATOM     17  C   UNL     1       1.710  -0.234  -4.471  1.00  0.00     0.021 A 
ATOM     18  C   UNL     1       1.198  -0.747  -1.757  1.00  0.00     0.123 A 
ATOM     19  C   UNL     1       0.248  -1.086  -2.722  1.00  0.00     0.047 A 
ATOM     20  C   UNL     1       2.461  -0.246  -2.104  1.00  0.00     0.016 A 
ATOM     21  C   UNL     1       0.507  -0.841  -4.068  1.00  0.00     0.015 A 
ATOM     22  C   UNL     1       2.673   0.045  -3.469  1.00  0.00     0.020 A 
BRANCH  18  23
ATOM     23  O   UNL     1       0.828  -0.888  -0.444  1.00  0.00    -0.496 OA
ATOM     24  C   UNL     1       0.401   0.384   0.073  1.00  0.00     0.278 C 
ENDBRANCH  18  23
BRANCH  20  25
ATOM     25  C   UNL     1       3.463   0.102  -1.017  1.00  0.00     0.184 C 
BRANCH  25  26
ATOM     26  N   UNL     1       4.774  -0.561  -1.078  1.00  0.00    -0.264 N 
ATOM     27  N   UNL     1       4.946  -1.743  -0.427  1.00  0.00    -0.177 NA
ATOM     28  C   UNL     1       5.953  -0.081  -1.617  1.00  0.00     0.050 A 
ATOM     29  C   UNL     1       6.243  -2.038  -0.574  1.00  0.00     0.074 A 
ATOM     30  C   UNL     1       6.910  -1.012  -1.271  1.00  0.00     0.061 A 
ATOM     31  C   UNL     1       6.045   1.112  -2.492  1.00  0.00     0.067 C 
ATOM     32  C   UNL     1       6.774  -3.338  -0.088  1.00  0.00     0.070 C 
ATOM     33  Br  UNL     1       8.716  -1.046  -1.777  1.00  0.00    -0.047 Br
ENDBRANCH  25  26
ENDBRANCH  20  25
ENDBRANCH  11  17
ENDBRANCH   8  10
ENDBRANCH   7   8
ENDBRANCH   6   7
ENDBRANCH   5   6
ENDBRANCH   4   5
ENDBRANCH   3   4
ENDBRANCH   2   3
ENDBRANCH   1   2
BRANCH   1  34
ATOM     34  C   UNL     1       2.606  -5.030  -4.139  1.00  0.00     0.188 C 
BRANCH  34  35
ATOM     35  C   UNL     1       3.420  -6.340  -4.162  1.00  0.00     0.188 C 
BRANCH  35  36
ATOM     36  O   UNL     1       3.876  -6.710  -5.455  1.00  0.00    -0.376 OA
BRANCH  36  37
ATOM     37  C   UNL     1       3.108  -7.618  -6.226  1.00  0.00     0.202 C 
BRANCH  37  38
ATOM     38  C   UNL     1       1.658  -7.257  -6.595  1.00  0.00     0.261 C 
BRANCH  38  39
ATOM     39  O   UNL     1       0.762  -6.920  -5.525  1.00  0.00    -0.460 OA
BRANCH  39  40
ATOM     40  C   UNL     1       0.586  -7.820  -4.531  1.00  0.00     0.338 C 
ATOM     41  O   UNL     1       1.048  -8.938  -4.475  1.00  0.00    -0.246 OA
BRANCH  40  42
ATOM     42  C   UNL     1      -0.108  -7.130  -3.412  1.00  0.00     0.060 A 
ATOM     43  C   UNL     1       0.489  -7.128  -2.143  1.00  0.00     0.016 A 
ATOM     44  C   UNL     1      -1.340  -6.502  -3.608  1.00  0.00     0.016 A 
ATOM     45  C   UNL     1      -0.174  -6.558  -1.054  1.00  0.00     0.010 A 
ATOM     46  C   UNL     1      -2.014  -5.954  -2.512  1.00  0.00     0.010 A 
ATOM     47  C   UNL     1      -1.458  -6.026  -1.221  1.00  0.00    -0.014 A 
BRANCH  47  48
ATOM     48  C   UNL     1      -2.316  -5.785  -0.033  1.00  0.00     0.031 A 
ATOM     49  C   UNL     1      -3.316  -6.845   0.343  1.00  0.00     0.074 A 
ATOM     50  C   UNL     1      -2.220  -4.671   0.712  1.00  0.00     0.049 A 
ATOM     51  N   UNL     1      -4.215  -6.839   1.291  1.00  0.00    -0.248 NA
ATOM     52  C   UNL     1      -3.297  -8.079  -0.461  1.00  0.00     0.031 C 
ATOM     53  C   UNL     1      -1.261  -3.594   0.499  1.00  0.00     0.029 A 
ATOM     54  N   UNL     1      -2.963  -4.257   1.794  1.00  0.00    -0.354 N 
ATOM     55  C   UNL     1      -4.891  -8.047   1.177  1.00  0.00     0.074 A 
ATOM     56  C   UNL     1      -4.306  -8.758   0.061  1.00  0.00     0.031 C 
ATOM     57  C   UNL     1      -1.496  -2.629   1.404  1.00  0.00     0.029 A 
ATOM     58  C   UNL     1      -2.647  -2.989   2.221  1.00  0.00     0.049 A 
ATOM     59  H   UNL     1      -3.653  -4.815   2.221  1.00  0.00     0.167 HD
ATOM     60  C   UNL     1      -5.901  -8.528   1.937  1.00  0.00     0.034 A 
ATOM     61  C   UNL     1      -3.235  -2.194   3.139  1.00  0.00     0.034 A 
ATOM     62  C   UNL     1      -6.474  -7.831   3.056  1.00  0.00     0.049 A 
ATOM     63  C   UNL     1      -4.398  -2.726   3.933  1.00  0.00     0.074 A 
ATOM     64  C   UNL     1      -7.472  -8.260   3.913  1.00  0.00     0.029 A 
ATOM     65  N   UNL     1      -6.120  -6.554   3.461  1.00  0.00    -0.354 N 
ATOM     66  N   UNL     1      -4.963  -3.907   3.878  1.00  0.00    -0.248 NA
ATOM     67  C   UNL     1      -4.979  -1.832   4.947  1.00  0.00     0.031 C 
ATOM     68  C   UNL     1      -7.753  -7.223   4.808  1.00  0.00     0.029 A 
ATOM     69  C   UNL     1      -6.894  -6.169   4.542  1.00  0.00     0.049 A 
ATOM     70  H   UNL     1      -5.420  -6.003   3.042  1.00  0.00     0.167 HD
ATOM     71  C   UNL     1      -5.931  -3.915   4.877  1.00  0.00     0.074 A 
ATOM     72  C   UNL     1      -5.866  -2.625   5.531  1.00  0.00     0.031 C 
ATOM     73  C   UNL     1      -6.795  -4.902   5.218  1.00  0.00     0.034 A 
BRANCH  60  74
ATOM     74  C   UNL     1      -6.459  -9.879   1.577  1.00  0.00     0.023 A 
ATOM     75  C   UNL     1      -5.700 -11.043   1.812  1.00  0.00     0.012 A 
ATOM     76  C   UNL     1      -7.758  -9.993   1.045  1.00  0.00     0.148 A 
ATOM     77  C   UNL     1      -6.213 -12.299   1.490  1.00  0.00     0.002 A 
ATOM     78  C   UNL     1      -8.281 -11.250   0.775  1.00  0.00     0.091 A 
ATOM     79  F   UNL     1      -8.451  -8.871   0.806  1.00  0.00    -0.205 F 
ATOM     80  C   UNL     1      -7.506 -12.403   0.983  1.00  0.00     0.022 A 
BRANCH  78  81
ATOM     81  S   UNL     1      -9.964 -11.493   0.199  1.00  0.00     0.127 S 
ATOM     82  O   UNL     1      -9.743 -11.979  -1.163  1.00  0.00    -0.237 OA
ATOM     83  O   UNL     1     -10.463 -12.503   1.133  1.00  0.00    -0.237 OA
ATOM     84  O   UNL     1     -10.617 -10.196   0.298  1.00  0.00    -0.744 OA
ENDBRANCH  78  81
ENDBRANCH  60  74
BRANCH  61  85
ATOM     85  C   UNL     1      -2.734  -0.807   3.369  1.00  0.00     0.023 A 
ATOM     86  C   UNL     1      -2.118  -0.477   4.592  1.00  0.00     0.012 A 
ATOM     87  C   UNL     1      -2.875   0.190   2.384  1.00  0.00     0.148 A 
ATOM     88  C   UNL     1      -1.685   0.827   4.844  1.00  0.00     0.002 A 
ATOM     89  C   UNL     1      -2.386   1.471   2.617  1.00  0.00     0.091 A 
ATOM     90  F   UNL     1      -3.470  -0.138   1.228  1.00  0.00    -0.205 F 
ATOM     91  C   UNL     1      -1.811   1.798   3.854  1.00  0.00     0.022 A 
BRANCH  89  92
ATOM     92  S   UNL     1      -2.349   2.740   1.346  1.00  0.00     0.127 S 
ATOM     93  O   UNL     1      -3.248   3.750   1.897  1.00  0.00    -0.237 OA
ATOM     94  O   UNL     1      -0.932   3.106   1.339  1.00  0.00    -0.237 OA
ATOM     95  O   UNL     1      -2.801   2.089   0.124  1.00  0.00    -0.744 OA
ENDBRANCH  89  92
ENDBRANCH  61  85
BRANCH  73  96
ATOM     96  C   UNL     1      -7.715  -4.658   6.387  1.00  0.00     0.023 A 
ATOM     97  C   UNL     1      -8.778  -3.740   6.275  1.00  0.00     0.012 A 
ATOM     98  C   UNL     1      -7.562  -5.397   7.577  1.00  0.00     0.148 A 
ATOM     99  C   UNL     1      -9.651  -3.534   7.343  1.00  0.00     0.002 A 
ATOM    100  C   UNL     1      -8.468  -5.227   8.616  1.00  0.00     0.091 A 
ATOM    101  F   UNL     1      -6.534  -6.253   7.671  1.00  0.00    -0.205 F 
ATOM    102  C   UNL     1      -9.504  -4.285   8.507  1.00  0.00     0.022 A 
BRANCH 100 103
ATOM    103  S   UNL     1      -8.418  -6.221  10.112  1.00  0.00     0.127 S 
ATOM    104  O   UNL     1      -7.999  -5.237  11.109  1.00  0.00    -0.237 OA
ATOM    105  O   UNL     1      -9.808  -6.660  10.236  1.00  0.00    -0.237 OA
ATOM    106  O   UNL     1      -7.465  -7.292   9.854  1.00  0.00    -0.744 OA
ENDBRANCH 100 103
ENDBRANCH  73  96
ENDBRANCH  47  48
ENDBRANCH  40  42
ENDBRANCH  39  40
ENDBRANCH  38  39
ENDBRANCH  37  38
ENDBRANCH  36  37
ENDBRANCH  35  36
ENDBRANCH  34  35
ENDBRANCH   1  34
TORSDOF 27
