REMARK SMILES CCN(Cc1cn(CC)nc1C)C(=O)c1ccn([C@@H](C)C(=O)OCCOCCOCCOCCOC(=O)c2ccc(-c3c4nc(c(-c5cccc(S(=O)(=O)[O-])c5F)c5ccc([nH]5)c(-c5cccc(S(=O)(=O)[O-])c5F)c5nc(c(-c6cccc(S(=O)(=O)[O-])c6F)c6ccc3[nH]6)C=C5)C=C4)cc2)n1
REMARK SMILES IDX 27 1 26 2 25 3 24 4 23 5 21 6 22 7 19 8 20 9 18 10 15 11
REMARK SMILES IDX 16 12 101 13 17 14 13 15 14 16 3 17 2 18 1 19 4 20 5 21 6 22
REMARK SMILES IDX 11 23 7 24 10 25 12 26 8 27 9 28 28 29 29 30 30 31 31 32
REMARK SMILES IDX 32 33 33 34 34 35 35 36 36 37 37 38 38 39 39 40 100 41 40 42
REMARK SMILES IDX 99 43 41 44 42 45 43 46 93 47 44 48 98 49 92 50 94 51 45 52
REMARK SMILES IDX 97 53 91 54 90 55 46 57 78 58 58 59 77 60 59 61 62 62 76 63
REMARK SMILES IDX 95 64 60 65 61 66 75 68 96 69 63 70 47 71 48 72 56 73 49 74
REMARK SMILES IDX 51 75 57 76 50 77 52 78 53 79 54 80 55 81 79 82 80 83 88 84
REMARK SMILES IDX 81 85 83 86 89 87 82 88 84 89 85 90 86 91 87 92 64 93 65 94
REMARK SMILES IDX 73 95 66 96 68 97 74 98 67 99 69 100 70 101 71 102 72 103
REMARK H PARENT 94 56 62 67
REMARK Flexibility Score: inf
ROOT
ATOM      1  C   UNL     1       7.709  -5.598   1.104  1.00  0.00     0.188 C 
ENDROOT
BRANCH   1   2
ATOM      2  O   UNL     1       8.571  -6.717   1.294  1.00  0.00    -0.376 OA
BRANCH   2   3
ATOM      3  C   UNL     1       8.026  -8.011   1.481  1.00  0.00     0.202 C 
BRANCH   3   4
ATOM      4  C   UNL     1       7.135  -8.256   2.706  1.00  0.00     0.261 C 
BRANCH   4   5
ATOM      5  O   UNL     1       6.112  -7.271   2.948  1.00  0.00    -0.462 OA
BRANCH   5   6
ATOM      6  C   UNL     1       6.333  -6.395   3.959  1.00  0.00     0.330 C 
ATOM      7  O   UNL     1       7.343  -6.423   4.664  1.00  0.00    -0.250 OA
BRANCH   6   8
ATOM      8  C   UNL     1       5.221  -5.393   4.229  1.00  0.00     0.213 C 
ATOM      9  C   UNL     1       4.569  -5.725   5.563  1.00  0.00     0.046 C 
BRANCH   8  10
ATOM     10  N   UNL     1       4.210  -5.192   3.190  1.00  0.00    -0.258 N 
ATOM     11  C   UNL     1       3.108  -4.089   1.708  1.00  0.00     0.150 A 
ATOM     12  C   UNL     1       2.825  -5.468   1.540  1.00  0.00     0.056 A 
ATOM     13  N   UNL     1       3.946  -3.931   2.759  1.00  0.00    -0.167 NA
ATOM     14  C   UNL     1       3.444  -6.130   2.570  1.00  0.00     0.110 A 
BRANCH  11  15
ATOM     15  C   UNL     1       2.744  -2.964   0.804  1.00  0.00     0.274 C 
ATOM     16  O   UNL     1       3.637  -2.258   0.327  1.00  0.00    -0.267 OA
BRANCH  15  17
ATOM     17  N   UNL     1       1.393  -2.731   0.483  1.00  0.00    -0.333 N 
BRANCH  17  18
ATOM     18  C   UNL     1       1.077  -1.689  -0.501  1.00  0.00     0.117 C 
ATOM     19  C   UNL     1       1.124  -0.289   0.101  1.00  0.00     0.027 C 
ENDBRANCH  17  18
BRANCH  17  20
ATOM     20  C   UNL     1       0.252  -3.338   1.173  1.00  0.00     0.159 C 
BRANCH  20  21
ATOM     21  C   UNL     1      -0.060  -4.697   0.643  1.00  0.00     0.012 A 
ATOM     22  C   UNL     1       0.136  -5.214  -0.625  1.00  0.00     0.114 A 
ATOM     23  C   UNL     1      -0.578  -5.799   1.383  1.00  0.00     0.064 A 
ATOM     24  N   UNL     1      -0.099  -6.557  -0.529  1.00  0.00    -0.272 N 
ATOM     25  N   UNL     1      -0.547  -6.934   0.677  1.00  0.00    -0.178 NA
ATOM     26  C   UNL     1      -1.030  -5.846   2.793  1.00  0.00     0.069 C 
BRANCH  24  27
ATOM     27  C   UNL     1       0.249  -7.569  -1.506  1.00  0.00     0.141 C 
ATOM     28  C   UNL     1       1.552  -8.284  -1.170  1.00  0.00     0.029 C 
ENDBRANCH  24  27
ENDBRANCH  20  21
ENDBRANCH  17  20
ENDBRANCH  15  17
ENDBRANCH  11  15
ENDBRANCH   8  10
ENDBRANCH   6   8
ENDBRANCH   5   6
ENDBRANCH   4   5
ENDBRANCH   3   4
ENDBRANCH   2   3
ENDBRANCH   1   2
BRANCH   1  29
ATOM     29  C   UNL     1       6.319  -5.738   0.452  1.00  0.00     0.188 C 
BRANCH  29  30
ATOM     30  O   UNL     1       5.949  -7.041   0.033  1.00  0.00    -0.377 OA
BRANCH  30  31
ATOM     31  C   UNL     1       5.992  -7.233  -1.377  1.00  0.00     0.188 C 
BRANCH  31  32
ATOM     32  C   UNL     1       7.354  -6.939  -2.040  1.00  0.00     0.188 C 
BRANCH  32  33
ATOM     33  O   UNL     1       7.897  -5.658  -1.717  1.00  0.00    -0.376 OA
BRANCH  33  34
ATOM     34  C   UNL     1       7.834  -4.604  -2.671  1.00  0.00     0.202 C 
BRANCH  34  35
ATOM     35  C   UNL     1       6.462  -3.963  -2.865  1.00  0.00     0.261 C 
BRANCH  35  36
ATOM     36  O   UNL     1       5.459  -4.892  -3.235  1.00  0.00    -0.460 OA
BRANCH  36  37
ATOM     37  C   UNL     1       5.657  -5.620  -4.350  1.00  0.00     0.338 C 
ATOM     38  O   UNL     1       6.624  -5.616  -5.084  1.00  0.00    -0.246 OA
BRANCH  37  39
ATOM     39  C   UNL     1       4.449  -6.425  -4.560  1.00  0.00     0.060 A 
ATOM     40  C   UNL     1       4.461  -7.338  -5.618  1.00  0.00     0.016 A 
ATOM     41  C   UNL     1       3.270  -6.053  -3.899  1.00  0.00     0.016 A 
ATOM     42  C   UNL     1       3.257  -7.665  -6.200  1.00  0.00     0.010 A 
ATOM     43  C   UNL     1       2.080  -6.360  -4.490  1.00  0.00     0.010 A 
ATOM     44  C   UNL     1       2.109  -7.058  -5.693  1.00  0.00    -0.014 A 
BRANCH  44  45
ATOM     45  C   UNL     1       0.937  -6.958  -6.526  1.00  0.00     0.031 A 
ATOM     46  C   UNL     1       0.011  -8.096  -6.449  1.00  0.00     0.074 A 
ATOM     47  C   UNL     1       0.626  -5.785  -7.108  1.00  0.00     0.049 A 
ATOM     48  N   UNL     1      -0.172  -9.034  -7.314  1.00  0.00    -0.248 NA
ATOM     49  C   UNL     1      -0.683  -8.302  -5.174  1.00  0.00     0.031 C 
ATOM     50  C   UNL     1       1.249  -4.470  -6.894  1.00  0.00     0.029 A 
ATOM     51  N   UNL     1      -0.436  -5.499  -7.895  1.00  0.00    -0.354 N 
ATOM     52  C   UNL     1      -1.191  -9.813  -6.776  1.00  0.00     0.074 A 
ATOM     53  C   UNL     1      -1.256  -9.487  -5.376  1.00  0.00     0.031 C 
ATOM     54  C   UNL     1       0.407  -3.508  -7.336  1.00  0.00     0.029 A 
ATOM     55  C   UNL     1      -0.716  -4.146  -7.997  1.00  0.00     0.049 A 
ATOM     56  H   UNL     1      -0.964  -6.192  -8.355  1.00  0.00     0.167 HD
ATOM     57  C   UNL     1      -2.107 -10.437  -7.564  1.00  0.00     0.034 A 
ATOM     58  C   UNL     1      -1.843  -3.613  -8.520  1.00  0.00     0.034 A 
ATOM     59  C   UNL     1      -1.725 -10.401  -8.952  1.00  0.00     0.049 A 
ATOM     60  C   UNL     1      -2.485  -4.666  -9.346  1.00  0.00     0.074 A 
ATOM     61  C   UNL     1      -0.646 -10.848  -9.685  1.00  0.00     0.029 A 
ATOM     62  N   UNL     1      -2.360  -9.466  -9.736  1.00  0.00    -0.354 N 
ATOM     63  N   UNL     1      -1.949  -5.171 -10.424  1.00  0.00    -0.248 NA
ATOM     64  C   UNL     1      -3.537  -5.469  -8.742  1.00  0.00     0.031 C 
ATOM     65  C   UNL     1      -0.433  -9.847 -10.678  1.00  0.00     0.029 A 
ATOM     66  C   UNL     1      -1.414  -8.864 -10.524  1.00  0.00     0.049 A 
ATOM     67  H   UNL     1      -3.324  -9.266  -9.732  1.00  0.00     0.167 HD
ATOM     68  C   UNL     1      -2.281  -6.522 -10.389  1.00  0.00     0.074 A 
ATOM     69  C   UNL     1      -3.362  -6.613  -9.410  1.00  0.00     0.031 C 
ATOM     70  C   UNL     1      -1.457  -7.470 -10.929  1.00  0.00     0.034 A 
BRANCH  57  71
ATOM     71  C   UNL     1      -3.518 -10.774  -7.147  1.00  0.00     0.023 A 
ATOM     72  C   UNL     1      -4.242 -11.651  -7.981  1.00  0.00     0.012 A 
ATOM     73  C   UNL     1      -4.245 -10.118  -6.127  1.00  0.00     0.148 A 
ATOM     74  C   UNL     1      -5.618 -11.848  -7.823  1.00  0.00     0.002 A 
ATOM     75  C   UNL     1      -5.590 -10.393  -5.910  1.00  0.00     0.091 A 
ATOM     76  F   UNL     1      -3.691  -9.111  -5.443  1.00  0.00    -0.205 F 
ATOM     77  C   UNL     1      -6.290 -11.234  -6.774  1.00  0.00     0.022 A 
BRANCH  75  78
ATOM     78  S   UNL     1      -6.464  -9.682  -4.511  1.00  0.00     0.127 S 
ATOM     79  O   UNL     1      -7.154  -8.559  -5.136  1.00  0.00    -0.237 OA
ATOM     80  O   UNL     1      -7.327 -10.788  -4.095  1.00  0.00    -0.237 OA
ATOM     81  O   UNL     1      -5.420  -9.350  -3.548  1.00  0.00    -0.744 OA
ENDBRANCH  75  78
ENDBRANCH  57  71
BRANCH  58  82
ATOM     82  C   UNL     1      -2.531  -2.365  -8.130  1.00  0.00     0.023 A 
ATOM     83  C   UNL     1      -3.361  -1.708  -9.056  1.00  0.00     0.012 A 
ATOM     84  C   UNL     1      -2.571  -1.951  -6.779  1.00  0.00     0.148 A 
ATOM     85  C   UNL     1      -4.221  -0.684  -8.645  1.00  0.00     0.002 A 
ATOM     86  C   UNL     1      -3.420  -0.925  -6.377  1.00  0.00     0.091 A 
ATOM     87  F   UNL     1      -1.841  -2.622  -5.876  1.00  0.00    -0.205 F 
ATOM     88  C   UNL     1      -4.256  -0.296  -7.307  1.00  0.00     0.022 A 
BRANCH  86  89
ATOM     89  S   UNL     1      -3.524  -0.381  -4.665  1.00  0.00     0.127 S 
ATOM     90  O   UNL     1      -3.436   1.073  -4.803  1.00  0.00    -0.237 OA
ATOM     91  O   UNL     1      -4.838  -0.880  -4.270  1.00  0.00    -0.237 OA
ATOM     92  O   UNL     1      -2.386  -0.986  -3.984  1.00  0.00    -0.744 OA
ENDBRANCH  86  89
ENDBRANCH  58  82
BRANCH  70  93
ATOM     93  C   UNL     1      -0.309  -7.003 -11.798  1.00  0.00     0.023 A 
ATOM     94  C   UNL     1       0.747  -6.222 -11.282  1.00  0.00     0.012 A 
ATOM     95  C   UNL     1      -0.190  -7.518 -13.100  1.00  0.00     0.148 A 
ATOM     96  C   UNL     1       1.883  -5.946 -12.048  1.00  0.00     0.002 A 
ATOM     97  C   UNL     1       0.963  -7.281 -13.844  1.00  0.00     0.091 A 
ATOM     98  F   UNL     1      -1.195  -8.267 -13.581  1.00  0.00    -0.205 F 
ATOM     99  C   UNL     1       1.997  -6.488 -13.324  1.00  0.00     0.022 A 
BRANCH  97 100
ATOM    100  S   UNL     1       1.230  -8.063 -15.437  1.00  0.00     0.127 S 
ATOM    101  O   UNL     1       0.939  -6.974 -16.366  1.00  0.00    -0.237 OA
ATOM    102  O   UNL     1       2.641  -8.449 -15.369  1.00  0.00    -0.237 OA
ATOM    103  O   UNL     1       0.310  -9.194 -15.482  1.00  0.00    -0.744 OA
ENDBRANCH  97 100
ENDBRANCH  70  93
ENDBRANCH  44  45
ENDBRANCH  37  39
ENDBRANCH  36  37
ENDBRANCH  35  36
ENDBRANCH  34  35
ENDBRANCH  33  34
ENDBRANCH  32  33
ENDBRANCH  31  32
ENDBRANCH  30  31
ENDBRANCH  29  30
ENDBRANCH   1  29
TORSDOF 30
