REMARK SMILES [NH3+]CCOCC(=O)N1C[C@@H](C(=O)OCCOCCOCCOCCOC(=O)c2ccc(-c3c4nc(c(-c5cccc(S(=O)(=O)[O-])c5F)c5ccc([nH]5)c(-c5cccc(S(=O)(=O)[O-])c5F)c5nc(c(-c6cccc(S(=O)(=O)[O-])c6F)c6ccc3[nH]6)C=C5)C=C4)cc2)Oc2ccccc21
REMARK SMILES IDX 17 1 16 2 15 3 14 4 13 5 11 6 12 7 10 8 8 9 9 10 97 11 92 12
REMARK SMILES IDX 96 13 91 14 93 15 95 16 94 17 6 18 7 19 5 20 4 21 3 22 2 23
REMARK SMILES IDX 1 24 18 28 19 29 20 30 21 31 22 32 23 33 24 34 25 35 26 36
REMARK SMILES IDX 27 37 28 38 29 39 90 40 30 41 89 42 31 43 32 44 33 45 83 46
REMARK SMILES IDX 34 47 88 48 82 49 84 50 35 51 87 52 81 53 80 54 36 56 68 57
REMARK SMILES IDX 48 58 67 59 49 60 52 61 66 62 85 63 50 64 51 65 65 67 86 68
REMARK SMILES IDX 53 69 37 70 38 71 46 72 39 73 41 74 47 75 40 76 42 77 43 78
REMARK SMILES IDX 44 79 45 80 69 81 70 82 78 83 71 84 73 85 79 86 72 87 74 88
REMARK SMILES IDX 75 89 76 90 77 91 54 92 55 93 63 94 56 95 58 96 64 97 57 98
REMARK SMILES IDX 59 99 60 100 61 101 62 102
REMARK H PARENT 1 25 1 26 1 27 84 55 52 66
REMARK Flexibility Score: inf
ROOT
ATOM      1  C   UNL     1       3.865   3.750  -2.853  1.00  0.00     0.188 C 
ENDROOT
BRANCH   1   2
ATOM      2  O   UNL     1       4.452   3.941  -1.575  1.00  0.00    -0.376 OA
BRANCH   2   3
ATOM      3  C   UNL     1       5.348   2.999  -0.994  1.00  0.00     0.202 C 
BRANCH   3   4
ATOM      4  C   UNL     1       6.419   2.209  -1.784  1.00  0.00     0.261 C 
BRANCH   4   5
ATOM      5  O   UNL     1       6.040   1.699  -3.067  1.00  0.00    -0.460 OA
BRANCH   5   6
ATOM      6  C   UNL     1       4.975   0.871  -3.065  1.00  0.00     0.349 C 
ATOM      7  O   UNL     1       4.419   0.493  -2.040  1.00  0.00    -0.248 OA
BRANCH   6   8
ATOM      8  C   UNL     1       4.473   0.626  -4.508  1.00  0.00     0.302 C 
ATOM      9  N   UNL     1       3.169  -1.273  -3.751  1.00  0.00    -0.303 N 
ATOM     10  C   UNL     1       3.094  -0.015  -4.494  1.00  0.00     0.183 C 
ATOM     11  C   UNL     1       4.383  -2.019  -4.035  1.00  0.00     0.086 A 
ATOM     12  C   UNL     1       5.382  -1.437  -4.863  1.00  0.00     0.144 A 
ATOM     13  C   UNL     1       4.654  -3.283  -3.518  1.00  0.00     0.030 A 
ATOM     14  O   UNL     1       5.327  -0.145  -5.327  1.00  0.00    -0.475 OA
ATOM     15  C   UNL     1       6.558  -2.102  -5.207  1.00  0.00     0.049 A 
ATOM     16  C   UNL     1       5.856  -3.940  -3.832  1.00  0.00     0.002 A 
ATOM     17  C   UNL     1       6.798  -3.359  -4.681  1.00  0.00     0.004 A 
BRANCH   9  18
ATOM     18  C   UNL     1       2.310  -1.534  -2.675  1.00  0.00     0.253 C 
ATOM     19  O   UNL     1       2.549  -2.338  -1.768  1.00  0.00    -0.272 OA
BRANCH  18  20
ATOM     20  C   UNL     1       0.901  -0.849  -2.682  1.00  0.00     0.260 C 
BRANCH  20  21
ATOM     21  O   UNL     1       0.610   0.530  -2.740  1.00  0.00    -0.366 OA
BRANCH  21  22
ATOM     22  C   UNL     1       1.141   1.365  -1.713  1.00  0.00     0.222 C 
BRANCH  22  23
ATOM     23  C   UNL     1       0.505   1.221  -0.324  1.00  0.00     0.287 C 
BRANCH  23  24
ATOM     24  N   UNL     1       1.092   0.159   0.493  1.00  0.00    -0.356 N 
ATOM     25  H   UNL     1       0.619   0.125   1.397  1.00  0.00     0.344 HD
ATOM     26  H   UNL     1       2.084   0.347   0.635  1.00  0.00     0.344 HD
ATOM     27  H   UNL     1       0.981  -0.737   0.018  1.00  0.00     0.344 HD
ENDBRANCH  23  24
ENDBRANCH  22  23
ENDBRANCH  21  22
ENDBRANCH  20  21
ENDBRANCH  18  20
ENDBRANCH   9  18
ENDBRANCH   6   8
ENDBRANCH   5   6
ENDBRANCH   4   5
ENDBRANCH   3   4
ENDBRANCH   2   3
ENDBRANCH   1   2
BRANCH   1  28
ATOM     28  C   UNL     1       4.730   4.223  -4.032  1.00  0.00     0.188 C 
BRANCH  28  29
ATOM     29  O   UNL     1       6.094   4.319  -3.685  1.00  0.00    -0.377 OA
BRANCH  29  30
ATOM     30  C   UNL     1       6.537   5.541  -3.108  1.00  0.00     0.188 C 
BRANCH  30  31
ATOM     31  C   UNL     1       5.575   6.435  -2.287  1.00  0.00     0.188 C 
BRANCH  31  32
ATOM     32  O   UNL     1       4.265   6.566  -2.830  1.00  0.00    -0.376 OA
BRANCH  32  33
ATOM     33  C   UNL     1       3.931   7.767  -3.505  1.00  0.00     0.202 C 
BRANCH  33  34
ATOM     34  C   UNL     1       4.589   7.982  -4.875  1.00  0.00     0.261 C 
BRANCH  34  35
ATOM     35  O   UNL     1       6.021   7.970  -4.890  1.00  0.00    -0.460 OA
BRANCH  35  36
ATOM     36  C   UNL     1       6.666   8.884  -4.132  1.00  0.00     0.338 C 
ATOM     37  O   UNL     1       6.161   9.764  -3.455  1.00  0.00    -0.246 OA
BRANCH  36  38
ATOM     38  C   UNL     1       8.092   8.501  -4.098  1.00  0.00     0.060 A 
ATOM     39  C   UNL     1       8.704   8.240  -2.862  1.00  0.00     0.016 A 
ATOM     40  C   UNL     1       8.805   8.352  -5.289  1.00  0.00     0.016 A 
ATOM     41  C   UNL     1      10.045   7.858  -2.814  1.00  0.00     0.010 A 
ATOM     42  C   UNL     1      10.152   7.998  -5.238  1.00  0.00     0.010 A 
ATOM     43  C   UNL     1      10.785   7.784  -4.000  1.00  0.00    -0.014 A 
BRANCH  43  44
ATOM     44  C   UNL     1      12.264   7.728  -3.964  1.00  0.00     0.031 A 
ATOM     45  C   UNL     1      13.008   9.027  -4.099  1.00  0.00     0.074 A 
ATOM     46  C   UNL     1      12.929   6.562  -3.888  1.00  0.00     0.049 A 
ATOM     47  N   UNL     1      14.284   9.240  -4.269  1.00  0.00    -0.248 NA
ATOM     48  C   UNL     1      12.193  10.255  -4.049  1.00  0.00     0.031 C 
ATOM     49  C   UNL     1      12.317   5.245  -3.730  1.00  0.00     0.029 A 
ATOM     50  N   UNL     1      14.275   6.303  -3.981  1.00  0.00    -0.354 N 
ATOM     51  C   UNL     1      14.421  10.617  -4.393  1.00  0.00     0.074 A 
ATOM     52  C   UNL     1      13.100  11.191  -4.276  1.00  0.00     0.031 C 
ATOM     53  C   UNL     1      13.283   4.310  -3.783  1.00  0.00     0.029 A 
ATOM     54  C   UNL     1      14.571   4.960  -4.021  1.00  0.00     0.049 A 
ATOM     55  H   UNL     1      14.960   7.009  -4.016  1.00  0.00     0.167 HD
ATOM     56  C   UNL     1      15.547  11.340  -4.586  1.00  0.00     0.034 A 
ATOM     57  C   UNL     1      15.740   4.334  -4.266  1.00  0.00     0.034 A 
ATOM     58  C   UNL     1      16.857  10.763  -4.695  1.00  0.00     0.049 A 
ATOM     59  C   UNL     1      16.978   5.160  -4.522  1.00  0.00     0.074 A 
ATOM     60  C   UNL     1      18.069  11.409  -4.852  1.00  0.00     0.029 A 
ATOM     61  N   UNL     1      17.122   9.403  -4.676  1.00  0.00    -0.354 N 
ATOM     62  N   UNL     1      17.111   6.465  -4.543  1.00  0.00    -0.248 NA
ATOM     63  C   UNL     1      18.232   4.429  -4.766  1.00  0.00     0.031 C 
ATOM     64  C   UNL     1      19.065  10.436  -4.966  1.00  0.00     0.029 A 
ATOM     65  C   UNL     1      18.479   9.187  -4.831  1.00  0.00     0.049 A 
ATOM     66  H   UNL     1      16.446   8.696  -4.567  1.00  0.00     0.167 HD
ATOM     67  C   UNL     1      18.466   6.709  -4.751  1.00  0.00     0.074 A 
ATOM     68  C   UNL     1      19.113   5.418  -4.849  1.00  0.00     0.031 C 
ATOM     69  C   UNL     1      19.114   7.895  -4.855  1.00  0.00     0.034 A 
BRANCH  56  70
ATOM     70  C   UNL     1      15.410  12.834  -4.692  1.00  0.00     0.023 A 
ATOM     71  C   UNL     1      15.096  13.594  -3.547  1.00  0.00     0.012 A 
ATOM     72  C   UNL     1      15.638  13.489  -5.918  1.00  0.00     0.148 A 
ATOM     73  C   UNL     1      14.978  14.981  -3.628  1.00  0.00     0.002 A 
ATOM     74  C   UNL     1      15.568  14.874  -5.980  1.00  0.00     0.091 A 
ATOM     75  F   UNL     1      15.910  12.745  -6.999  1.00  0.00    -0.205 F 
ATOM     76  C   UNL     1      15.225  15.621  -4.840  1.00  0.00     0.022 A 
BRANCH  74  77
ATOM     77  S   UNL     1      15.947  15.796  -7.473  1.00  0.00     0.127 S 
ATOM     78  O   UNL     1      14.630  16.312  -7.844  1.00  0.00    -0.237 OA
ATOM     79  O   UNL     1      16.881  16.808  -6.980  1.00  0.00    -0.237 OA
ATOM     80  O   UNL     1      16.524  14.836  -8.404  1.00  0.00    -0.744 OA
ENDBRANCH  74  77
ENDBRANCH  56  70
BRANCH  57  81
ATOM     81  C   UNL     1      15.807   2.845  -4.271  1.00  0.00     0.023 A 
ATOM     82  C   UNL     1      16.521   2.178  -3.256  1.00  0.00     0.012 A 
ATOM     83  C   UNL     1      15.167   2.086  -5.271  1.00  0.00     0.148 A 
ATOM     84  C   UNL     1      16.624   0.786  -3.255  1.00  0.00     0.002 A 
ATOM     85  C   UNL     1      15.227   0.697  -5.232  1.00  0.00     0.091 A 
ATOM     86  F   UNL     1      14.506   2.738  -6.238  1.00  0.00    -0.205 F 
ATOM     87  C   UNL     1      15.970   0.046  -4.236  1.00  0.00     0.022 A 
BRANCH  85  88
ATOM     88  S   UNL     1      14.322  -0.343  -6.384  1.00  0.00     0.127 S 
ATOM     89  O   UNL     1      15.405  -0.959  -7.146  1.00  0.00    -0.237 OA
ATOM     90  O   UNL     1      13.614  -1.248  -5.477  1.00  0.00    -0.237 OA
ATOM     91  O   UNL     1      13.456   0.556  -7.134  1.00  0.00    -0.744 OA
ENDBRANCH  85  88
ENDBRANCH  57  81
BRANCH  69  92
ATOM     92  C   UNL     1      20.613   7.881  -5.008  1.00  0.00     0.023 A 
ATOM     93  C   UNL     1      21.198   7.530  -6.240  1.00  0.00     0.012 A 
ATOM     94  C   UNL     1      21.430   8.354  -3.961  1.00  0.00     0.148 A 
ATOM     95  C   UNL     1      22.577   7.636  -6.421  1.00  0.00     0.002 A 
ATOM     96  C   UNL     1      22.795   8.507  -4.166  1.00  0.00     0.091 A 
ATOM     97  F   UNL     1      20.851   8.670  -2.794  1.00  0.00    -0.205 F 
ATOM     98  C   UNL     1      23.372   8.139  -5.392  1.00  0.00     0.022 A 
BRANCH  96  99
ATOM     99  S   UNL     1      23.880   9.246  -2.939  1.00  0.00     0.127 S 
ATOM    100  O   UNL     1      24.730   8.114  -2.575  1.00  0.00    -0.237 OA
ATOM    101  O   UNL     1      24.551  10.290  -3.713  1.00  0.00    -0.237 OA
ATOM    102  O   UNL     1      23.015   9.737  -1.876  1.00  0.00    -0.744 OA
ENDBRANCH  96  99
ENDBRANCH  69  92
ENDBRANCH  43  44
ENDBRANCH  36  38
ENDBRANCH  35  36
ENDBRANCH  34  35
ENDBRANCH  33  34
ENDBRANCH  32  33
ENDBRANCH  31  32
ENDBRANCH  30  31
ENDBRANCH  29  30
ENDBRANCH  28  29
ENDBRANCH   1  28
TORSDOF 29
