REMARK SMILES CC[C@](C)(Nc1cccc(Cl)c1C(N)=O)C(=O)OCCOCCOCCOCCOC(=O)c1ccc(-c2c3nc(c(-c4cccc(S(=O)(=O)[O-])c4F)c4ccc([nH]4)c(-c4cccc(S(=O)(=O)[O-])c4F)c4nc(c(-c5cccc(S(=O)(=O)[O-])c5F)c5ccc2[nH]5)C=C4)C=C3)cc1
REMARK SMILES IDX 24 1 23 2 22 3 21 4 20 5 19 6 18 7 16 8 17 9 3 10 4 11 2 12
REMARK SMILES IDX 1 13 5 14 6 16 7 17 12 18 8 19 10 20 9 21 11 22 13 23 14 24
REMARK SMILES IDX 15 25 25 28 26 29 27 30 28 31 29 32 30 33 31 34 32 35 33 36
REMARK SMILES IDX 34 37 95 38 35 39 94 40 36 41 37 42 38 43 88 44 39 45 93 46
REMARK SMILES IDX 87 47 89 48 40 49 92 50 86 51 85 52 41 54 73 55 53 56 72 57
REMARK SMILES IDX 54 58 57 59 71 60 90 61 55 62 56 63 70 65 91 66 58 67 42 68
REMARK SMILES IDX 43 69 51 70 44 71 46 72 52 73 45 74 47 75 48 76 49 77 50 78
REMARK SMILES IDX 74 79 75 80 83 81 76 82 78 83 84 84 77 85 79 86 80 87 81 88
REMARK SMILES IDX 82 89 59 90 60 91 68 92 61 93 63 94 69 95 62 96 64 97 65 98
REMARK SMILES IDX 66 99 67 100
REMARK H PARENT 5 15 14 26 14 27 89 53 57 64
REMARK Flexibility Score: inf
ROOT
ATOM      1  O   UNL     1       4.123  -4.319  -0.270  1.00  0.00    -0.377 OA
ENDROOT
BRANCH   1   2
ATOM      2  C   UNL     1       3.844  -3.099  -0.929  1.00  0.00     0.188 C 
BRANCH   2   3
ATOM      3  C   UNL     1       4.564  -1.840  -0.430  1.00  0.00     0.188 C 
BRANCH   3   4
ATOM      4  O   UNL     1       5.638  -1.968   0.489  1.00  0.00    -0.376 OA
BRANCH   4   5
ATOM      5  C   UNL     1       5.365  -2.497   1.789  1.00  0.00     0.202 C 
BRANCH   5   6
ATOM      6  C   UNL     1       4.318  -1.762   2.621  1.00  0.00     0.261 C 
BRANCH   6   7
ATOM      7  O   UNL     1       2.995  -2.253   2.316  1.00  0.00    -0.462 OA
BRANCH   7   8
ATOM      8  C   UNL     1       2.102  -1.376   1.823  1.00  0.00     0.331 C 
ATOM      9  O   UNL     1       2.391  -0.201   1.589  1.00  0.00    -0.249 OA
BRANCH   8  10
ATOM     10  C   UNL     1       0.658  -1.902   1.641  1.00  0.00     0.133 C 
ATOM     11  C   UNL     1       0.170  -1.289   0.305  1.00  0.00     0.047 C 
BRANCH  10  12
ATOM     12  C   UNL     1      -0.174  -1.370   2.847  1.00  0.00     0.037 C 
ATOM     13  C   UNL     1      -0.373   0.140   2.930  1.00  0.00     0.007 C 
ENDBRANCH  10  12
BRANCH  10  14
ATOM     14  N   UNL     1       0.336  -3.366   1.525  1.00  0.00    -0.369 N 
ATOM     15  H   UNL     1      -0.629  -3.545   1.442  1.00  0.00     0.161 HD
BRANCH  14  16
ATOM     16  C   UNL     1       1.109  -4.526   1.508  1.00  0.00     0.049 A 
ATOM     17  C   UNL     1       1.926  -4.810   2.617  1.00  0.00     0.026 A 
ATOM     18  C   UNL     1       0.854  -5.599   0.590  1.00  0.00     0.081 A 
ATOM     19  C   UNL     1       2.565  -6.038   2.782  1.00  0.00     0.004 A 
ATOM     20  C   UNL     1       1.429  -6.872   0.829  1.00  0.00     0.055 A 
ATOM     21  C   UNL     1       2.304  -7.070   1.898  1.00  0.00     0.021 A 
ATOM     22  Cl  UNL     1       0.996  -8.318  -0.034  1.00  0.00    -0.083 Cl
BRANCH  18  23
ATOM     23  C   UNL     1      -0.003  -5.433  -0.640  1.00  0.00     0.252 C 
ATOM     24  N   UNL     1      -0.903  -4.408  -0.665  1.00  0.00    -0.365 N 
ATOM     25  O   UNL     1       0.076  -6.143  -1.637  1.00  0.00    -0.269 OA
ATOM     26  H   UNL     1      -0.996  -3.816   0.116  1.00  0.00     0.159 HD
ATOM     27  H   UNL     1      -1.460  -4.261  -1.464  1.00  0.00     0.159 HD
ENDBRANCH  18  23
ENDBRANCH  14  16
ENDBRANCH  10  14
ENDBRANCH   8  10
ENDBRANCH   7   8
ENDBRANCH   6   7
ENDBRANCH   5   6
ENDBRANCH   4   5
ENDBRANCH   3   4
ENDBRANCH   2   3
ENDBRANCH   1   2
BRANCH   1  28
ATOM     28  C   UNL     1       5.376  -4.915  -0.574  1.00  0.00     0.188 C 
BRANCH  28  29
ATOM     29  C   UNL     1       5.614  -5.401  -2.013  1.00  0.00     0.188 C 
BRANCH  29  30
ATOM     30  O   UNL     1       4.558  -5.300  -2.959  1.00  0.00    -0.376 OA
BRANCH  30  31
ATOM     31  C   UNL     1       3.349  -6.013  -2.687  1.00  0.00     0.202 C 
BRANCH  31  32
ATOM     32  C   UNL     1       3.474  -7.532  -2.712  1.00  0.00     0.261 C 
BRANCH  32  33
ATOM     33  O   UNL     1       3.925  -8.008  -1.430  1.00  0.00    -0.460 OA
BRANCH  33  34
ATOM     34  C   UNL     1       5.062  -8.726  -1.426  1.00  0.00     0.338 C 
ATOM     35  O   UNL     1       5.774  -9.008  -2.381  1.00  0.00    -0.246 OA
BRANCH  34  36
ATOM     36  C   UNL     1       5.436  -9.019  -0.037  1.00  0.00     0.060 A 
ATOM     37  C   UNL     1       6.669  -8.549   0.423  1.00  0.00     0.016 A 
ATOM     38  C   UNL     1       4.639  -9.845   0.760  1.00  0.00     0.016 A 
ATOM     39  C   UNL     1       7.150  -8.972   1.658  1.00  0.00     0.010 A 
ATOM     40  C   UNL     1       5.119 -10.259   2.005  1.00  0.00     0.010 A 
ATOM     41  C   UNL     1       6.404  -9.876   2.428  1.00  0.00    -0.014 A 
BRANCH  41  42
ATOM     42  C   UNL     1       7.071 -10.572   3.557  1.00  0.00     0.031 A 
ATOM     43  C   UNL     1       7.544 -11.989   3.357  1.00  0.00     0.074 A 
ATOM     44  C   UNL     1       7.306  -9.937   4.719  1.00  0.00     0.049 A 
ATOM     45  N   UNL     1       8.206 -12.764   4.177  1.00  0.00    -0.248 NA
ATOM     46  C   UNL     1       7.228 -12.617   2.062  1.00  0.00     0.031 C 
ATOM     47  C   UNL     1       6.886  -8.575   5.040  1.00  0.00     0.029 A 
ATOM     48  N   UNL     1       7.952 -10.368   5.851  1.00  0.00    -0.354 N 
ATOM     49  C   UNL     1       8.373 -13.970   3.505  1.00  0.00     0.074 A 
ATOM     50  C   UNL     1       7.711 -13.839   2.227  1.00  0.00     0.031 C 
ATOM     51  C   UNL     1       7.266  -8.287   6.296  1.00  0.00     0.029 A 
ATOM     52  C   UNL     1       7.950  -9.446   6.869  1.00  0.00     0.049 A 
ATOM     53  H   UNL     1       8.376 -11.253   5.926  1.00  0.00     0.167 HD
ATOM     54  C   UNL     1       9.046 -15.077   3.898  1.00  0.00     0.034 A 
ATOM     55  C   UNL     1       8.440  -9.531   8.122  1.00  0.00     0.034 A 
ATOM     56  C   UNL     1       9.724 -15.203   5.160  1.00  0.00     0.049 A 
ATOM     57  C   UNL     1       9.186 -10.774   8.537  1.00  0.00     0.074 A 
ATOM     58  C   UNL     1      10.459 -16.272   5.640  1.00  0.00     0.029 A 
ATOM     59  N   UNL     1       9.746 -14.228   6.144  1.00  0.00    -0.354 N 
ATOM     60  N   UNL     1       9.443 -11.857   7.842  1.00  0.00    -0.248 NA
ATOM     61  C   UNL     1       9.752 -10.787   9.894  1.00  0.00     0.031 C 
ATOM     62  C   UNL     1      10.912 -15.949   6.924  1.00  0.00     0.029 A 
ATOM     63  C   UNL     1      10.480 -14.669   7.232  1.00  0.00     0.049 A 
ATOM     64  H   UNL     1       9.304 -13.350   6.080  1.00  0.00     0.167 HD
ATOM     65  C   UNL     1      10.223 -12.664   8.664  1.00  0.00     0.074 A 
ATOM     66  C   UNL     1      10.425 -11.929   9.896  1.00  0.00     0.031 C 
ATOM     67  C   UNL     1      10.713 -13.907   8.432  1.00  0.00     0.034 A 
BRANCH  54  68
ATOM     68  C   UNL     1       9.121 -16.227   2.927  1.00  0.00     0.023 A 
ATOM     69  C   UNL     1       9.931 -16.111   1.778  1.00  0.00     0.012 A 
ATOM     70  C   UNL     1       8.434 -17.431   3.169  1.00  0.00     0.148 A 
ATOM     71  C   UNL     1      10.030 -17.163   0.869  1.00  0.00     0.002 A 
ATOM     72  C   UNL     1       8.573 -18.492   2.281  1.00  0.00     0.091 A 
ATOM     73  F   UNL     1       7.651 -17.514   4.254  1.00  0.00    -0.205 F 
ATOM     74  C   UNL     1       9.361 -18.356   1.126  1.00  0.00     0.022 A 
BRANCH  72  75
ATOM     75  S   UNL     1       7.816 -20.097   2.559  1.00  0.00     0.127 S 
ATOM     76  O   UNL     1       6.810 -20.137   1.499  1.00  0.00    -0.237 OA
ATOM     77  O   UNL     1       8.945 -21.007   2.364  1.00  0.00    -0.237 OA
ATOM     78  O   UNL     1       7.289 -20.064   3.917  1.00  0.00    -0.744 OA
ENDBRANCH  72  75
ENDBRANCH  54  68
BRANCH  55  79
ATOM     79  C   UNL     1       8.277  -8.389   9.065  1.00  0.00     0.023 A 
ATOM     80  C   UNL     1       9.402  -7.647   9.474  1.00  0.00     0.012 A 
ATOM     81  C   UNL     1       7.005  -8.031   9.554  1.00  0.00     0.148 A 
ATOM     82  C   UNL     1       9.269  -6.596  10.382  1.00  0.00     0.002 A 
ATOM     83  C   UNL     1       6.872  -6.944  10.410  1.00  0.00     0.091 A 
ATOM     84  F   UNL     1       5.947  -8.759   9.168  1.00  0.00    -0.205 F 
ATOM     85  C   UNL     1       8.004  -6.238  10.842  1.00  0.00     0.022 A 
BRANCH  83  86
ATOM     86  S   UNL     1       5.267  -6.329  10.932  1.00  0.00     0.127 S 
ATOM     87  O   UNL     1       5.226  -6.747  12.330  1.00  0.00    -0.237 OA
ATOM     88  O   UNL     1       5.413  -4.888  10.722  1.00  0.00    -0.237 OA
ATOM     89  O   UNL     1       4.299  -6.964  10.048  1.00  0.00    -0.744 OA
ENDBRANCH  83  86
ENDBRANCH  55  79
BRANCH  67  90
ATOM     90  C   UNL     1      11.538 -14.545   9.521  1.00  0.00     0.023 A 
ATOM     91  C   UNL     1      10.915 -14.979  10.708  1.00  0.00     0.012 A 
ATOM     92  C   UNL     1      12.920 -14.761   9.348  1.00  0.00     0.148 A 
ATOM     93  C   UNL     1      11.661 -15.574  11.725  1.00  0.00     0.002 A 
ATOM     94  C   UNL     1      13.648 -15.400  10.345  1.00  0.00     0.091 A 
ATOM     95  F   UNL     1      13.501 -14.327   8.220  1.00  0.00    -0.205 F 
ATOM     96  C   UNL     1      13.024 -15.793  11.540  1.00  0.00     0.022 A 
BRANCH  94  97
ATOM     97  S   UNL     1      15.387 -15.807  10.151  1.00  0.00     0.127 S 
ATOM     98  O   UNL     1      16.027 -14.782  10.974  1.00  0.00    -0.237 OA
ATOM     99  O   UNL     1      15.455 -17.161  10.701  1.00  0.00    -0.237 OA
ATOM    100  O   UNL     1      15.656 -15.725   8.722  1.00  0.00    -0.744 OA
ENDBRANCH  94  97
ENDBRANCH  67  90
ENDBRANCH  41  42
ENDBRANCH  34  36
ENDBRANCH  33  34
ENDBRANCH  32  33
ENDBRANCH  31  32
ENDBRANCH  30  31
ENDBRANCH  29  30
ENDBRANCH  28  29
ENDBRANCH   1  28
TORSDOF 27
