REMARK SMILES COc1cc([C@H]2CC(c3ccc(S(C)(=O)=O)cc3)=NN2c2ccc(C(=O)OCCOCCOCCOCCOC(=O)c3ccc(-c4c5nc(c(-c6cccc(S(=O)(=O)[O-])c6F)c6ccc([nH]6)c(-c6cccc(S(=O)(=O)[O-])c6F)c6nc(c(-c7cccc(S(=O)(=O)[O-])c7F)c7ccc4[nH]7)C=C6)C=C5)cc3)cc2)cc(OC)c1OC
REMARK SMILES IDX 33 1 32 2 31 3 30 4 29 5 28 6 27 7 25 8 26 9 24 10 21 11
REMARK SMILES IDX 22 12 106 13 23 14 105 15 20 16 6 17 7 18 8 19 19 20 5 21
REMARK SMILES IDX 3 22 4 23 111 24 108 25 107 26 2 27 1 28 112 29 113 30
REMARK SMILES IDX 109 31 110 32 9 33 10 34 18 35 11 36 17 37 12 38 13 39 14 40
REMARK SMILES IDX 15 41 16 42 34 43 35 44 36 45 37 46 38 47 39 48 40 49 41 50
REMARK SMILES IDX 42 51 43 52 104 53 44 54 103 55 45 56 46 57 47 58 97 59
REMARK SMILES IDX 48 60 102 61 96 62 98 63 49 64 101 65 95 66 94 67 50 69
REMARK SMILES IDX 82 70 62 71 81 72 63 73 66 74 80 75 99 76 64 77 65 78 79 80
REMARK SMILES IDX 100 81 67 82 51 83 52 84 60 85 53 86 55 87 61 88 54 89 56 90
REMARK SMILES IDX 57 91 58 92 59 93 83 94 84 95 92 96 85 97 87 98 93 99 86 100
REMARK SMILES IDX 88 101 89 102 90 103 91 104 68 105 69 106 77 107 70 108
REMARK SMILES IDX 72 109 78 110 71 111 73 112 74 113 75 114 76 115
REMARK H PARENT 98 68 66 79
REMARK Flexibility Score: inf
ROOT
ATOM      1  O   UNL     1       0.065   7.252   7.101  1.00  0.00    -0.377 OA
ENDROOT
BRANCH   1   2
ATOM      2  C   UNL     1       1.232   6.466   7.292  1.00  0.00     0.188 C 
BRANCH   2   3
ATOM      3  C   UNL     1       2.541   6.802   6.541  1.00  0.00     0.188 C 
BRANCH   3   4
ATOM      4  O   UNL     1       2.506   8.009   5.803  1.00  0.00    -0.376 OA
BRANCH   4   5
ATOM      5  C   UNL     1       2.464   7.965   4.390  1.00  0.00     0.202 C 
BRANCH   5   6
ATOM      6  C   UNL     1       1.310   7.230   3.694  1.00  0.00     0.261 C 
BRANCH   6   7
ATOM      7  O   UNL     1       0.932   5.975   4.262  1.00  0.00    -0.460 OA
BRANCH   7   8
ATOM      8  C   UNL     1       1.769   4.934   4.066  1.00  0.00     0.338 C 
ATOM      9  O   UNL     1       2.831   4.953   3.468  1.00  0.00    -0.246 OA
BRANCH   8  10
ATOM     10  C   UNL     1       1.281   3.803   4.888  1.00  0.00     0.060 A 
ATOM     11  C   UNL     1       0.430   1.589   6.378  1.00  0.00     0.060 A 
ATOM     12  C   UNL     1       1.775   1.979   6.400  1.00  0.00     0.029 A 
ATOM     13  C   UNL     1      -0.496   2.392   5.696  1.00  0.00     0.029 A 
ATOM     14  C   UNL     1       2.208   3.062   5.631  1.00  0.00     0.018 A 
ATOM     15  C   UNL     1      -0.081   3.501   4.962  1.00  0.00     0.018 A 
BRANCH  11  16
ATOM     16  N   UNL     1       0.040   0.345   6.868  1.00  0.00    -0.257 N 
ATOM     17  C   UNL     1      -0.400  -0.712   5.942  1.00  0.00     0.144 C 
ATOM     18  C   UNL     1      -0.457  -1.938   6.867  1.00  0.00     0.091 C 
ATOM     19  C   UNL     1       0.060  -1.343   8.154  1.00  0.00     0.071 C 
ATOM     20  N   UNL     1       0.370  -0.084   8.114  1.00  0.00    -0.176 NA
BRANCH  17  21
ATOM     21  C   UNL     1       0.532  -0.839   4.732  1.00  0.00    -0.015 A 
ATOM     22  C   UNL     1       1.099  -0.224   2.420  1.00  0.00     0.164 A 
ATOM     23  C   UNL     1       0.187  -0.264   3.495  1.00  0.00     0.056 A 
ATOM     24  C   UNL     1       2.388  -0.773   2.544  1.00  0.00     0.203 A 
ATOM     25  C   UNL     1       2.740  -1.349   3.785  1.00  0.00     0.164 A 
ATOM     26  C   UNL     1       1.820  -1.374   4.850  1.00  0.00     0.056 A 
BRANCH  22  27
ATOM     27  O   UNL     1       0.744   0.546   1.341  1.00  0.00    -0.493 OA
ATOM     28  C   UNL     1      -0.054  -0.150   0.386  1.00  0.00     0.278 C 
ENDBRANCH  22  27
BRANCH  24  29
ATOM     29  O   UNL     1       3.361  -0.793   1.584  1.00  0.00    -0.490 OA
ATOM     30  C   UNL     1       3.133  -0.309   0.275  1.00  0.00     0.278 C 
ENDBRANCH  24  29
BRANCH  25  31
ATOM     31  O   UNL     1       3.938  -1.925   4.142  1.00  0.00    -0.493 OA
ATOM     32  C   UNL     1       5.086  -1.643   3.354  1.00  0.00     0.278 C 
ENDBRANCH  25  31
ENDBRANCH  17  21
BRANCH  19  33
ATOM     33  C   UNL     1       0.127  -2.149   9.386  1.00  0.00    -0.002 A 
ATOM     34  C   UNL     1      -0.553  -1.698  10.525  1.00  0.00     0.011 A 
ATOM     35  C   UNL     1       0.825  -3.359   9.414  1.00  0.00     0.011 A 
ATOM     36  C   UNL     1      -0.559  -2.472  11.691  1.00  0.00     0.021 A 
ATOM     37  C   UNL     1       0.844  -4.122  10.587  1.00  0.00     0.021 A 
ATOM     38  C   UNL     1       0.149  -3.678  11.718  1.00  0.00     0.067 A 
BRANCH  38  39
ATOM     39  S   UNL     1       0.117  -4.680  13.190  1.00  0.00     0.175 S 
ATOM     40  C   UNL     1       0.839  -3.664  14.450  1.00  0.00     0.163 C 
ATOM     41  O   UNL     1      -1.278  -4.895  13.522  1.00  0.00    -0.224 OA
ATOM     42  O   UNL     1       1.011  -5.803  12.977  1.00  0.00    -0.224 OA
ENDBRANCH  38  39
ENDBRANCH  19  33
ENDBRANCH  11  16
ENDBRANCH   8  10
ENDBRANCH   7   8
ENDBRANCH   6   7
ENDBRANCH   5   6
ENDBRANCH   4   5
ENDBRANCH   3   4
ENDBRANCH   2   3
ENDBRANCH   1   2
BRANCH   1  43
ATOM     43  C   UNL     1       0.159   8.665   6.964  1.00  0.00     0.188 C 
BRANCH  43  44
ATOM     44  C   UNL     1       1.235   9.463   7.737  1.00  0.00     0.188 C 
BRANCH  44  45
ATOM     45  O   UNL     1       2.037   8.682   8.607  1.00  0.00    -0.376 OA
BRANCH  45  46
ATOM     46  C   UNL     1       1.790   8.787   9.997  1.00  0.00     0.202 C 
BRANCH  46  47
ATOM     47  C   UNL     1       0.394   8.401  10.507  1.00  0.00     0.261 C 
BRANCH  47  48
ATOM     48  O   UNL     1      -0.721   9.037   9.868  1.00  0.00    -0.460 OA
BRANCH  48  49
ATOM     49  C   UNL     1      -0.859  10.374  10.031  1.00  0.00     0.338 C 
ATOM     50  O   UNL     1      -0.140  11.114  10.662  1.00  0.00    -0.246 OA
BRANCH  49  51
ATOM     51  C   UNL     1      -1.953  10.805   9.130  1.00  0.00     0.060 A 
ATOM     52  C   UNL     1      -1.672  11.704   8.092  1.00  0.00     0.016 A 
ATOM     53  C   UNL     1      -3.241  10.294   9.296  1.00  0.00     0.016 A 
ATOM     54  C   UNL     1      -2.691  12.112   7.229  1.00  0.00     0.010 A 
ATOM     55  C   UNL     1      -4.263  10.720   8.445  1.00  0.00     0.010 A 
ATOM     56  C   UNL     1      -3.999  11.653   7.427  1.00  0.00    -0.014 A 
BRANCH  56  57
ATOM     57  C   UNL     1      -5.125  12.274   6.691  1.00  0.00     0.031 A 
ATOM     58  C   UNL     1      -5.938  13.330   7.387  1.00  0.00     0.074 A 
ATOM     59  C   UNL     1      -5.439  11.894   5.440  1.00  0.00     0.049 A 
ATOM     60  N   UNL     1      -6.990  13.980   6.967  1.00  0.00    -0.248 NA
ATOM     61  C   UNL     1      -5.505  13.697   8.746  1.00  0.00     0.031 C 
ATOM     62  C   UNL     1      -4.721  10.893   4.655  1.00  0.00     0.029 A 
ATOM     63  N   UNL     1      -6.465  12.295   4.621  1.00  0.00    -0.354 N 
ATOM     64  C   UNL     1      -7.371  14.801   8.021  1.00  0.00     0.074 A 
ATOM     65  C   UNL     1      -6.440  14.564   9.102  1.00  0.00     0.031 C 
ATOM     66  C   UNL     1      -5.341  10.742   3.471  1.00  0.00     0.029 A 
ATOM     67  C   UNL     1      -6.517  11.610   3.430  1.00  0.00     0.049 A 
ATOM     68  H   UNL     1      -7.103  13.005   4.863  1.00  0.00     0.167 HD
ATOM     69  C   UNL     1      -8.401  15.678   8.083  1.00  0.00     0.034 A 
ATOM     70  C   UNL     1      -7.423  11.664   2.433  1.00  0.00     0.034 A 
ATOM     71  C   UNL     1      -9.320  15.916   7.004  1.00  0.00     0.049 A 
ATOM     72  C   UNL     1      -8.586  12.617   2.543  1.00  0.00     0.074 A 
ATOM     73  C   UNL     1     -10.357  16.830   6.944  1.00  0.00     0.029 A 
ATOM     74  N   UNL     1      -9.335  15.215   5.808  1.00  0.00    -0.354 N 
ATOM     75  N   UNL     1      -8.864  13.479   3.492  1.00  0.00    -0.248 NA
ATOM     76  C   UNL     1      -9.547  12.625   1.429  1.00  0.00     0.031 C 
ATOM     77  C   UNL     1     -11.031  16.645   5.732  1.00  0.00     0.029 A 
ATOM     78  C   UNL     1     -10.381  15.653   5.014  1.00  0.00     0.049 A 
ATOM     79  H   UNL     1      -8.694  14.510   5.559  1.00  0.00     0.167 HD
ATOM     80  C   UNL     1     -10.006  14.156   3.074  1.00  0.00     0.074 A 
ATOM     81  C   UNL     1     -10.359  13.614   1.778  1.00  0.00     0.031 C 
ATOM     82  C   UNL     1     -10.702  15.133   3.708  1.00  0.00     0.034 A 
BRANCH  69  83
ATOM     83  C   UNL     1      -8.592  16.433   9.373  1.00  0.00     0.023 A 
ATOM     84  C   UNL     1      -7.664  17.421   9.761  1.00  0.00     0.012 A 
ATOM     85  C   UNL     1      -9.709  16.176  10.192  1.00  0.00     0.148 A 
ATOM     86  C   UNL     1      -7.818  18.106  10.966  1.00  0.00     0.002 A 
ATOM     87  C   UNL     1      -9.883  16.899  11.366  1.00  0.00     0.091 A 
ATOM     88  F   UNL     1     -10.568  15.216   9.820  1.00  0.00    -0.205 F 
ATOM     89  C   UNL     1      -8.932  17.852  11.762  1.00  0.00     0.022 A 
BRANCH  87  90
ATOM     90  S   UNL     1     -11.328  16.702  12.414  1.00  0.00     0.127 S 
ATOM     91  O   UNL     1     -10.759  16.015  13.573  1.00  0.00    -0.237 OA
ATOM     92  O   UNL     1     -11.720  18.090  12.661  1.00  0.00    -0.237 OA
ATOM     93  O   UNL     1     -12.287  15.930  11.636  1.00  0.00    -0.744 OA
ENDBRANCH  87  90
ENDBRANCH  69  83
BRANCH  70  94
ATOM     94  C   UNL     1      -7.246  10.816   1.220  1.00  0.00     0.023 A 
ATOM     95  C   UNL     1      -6.925  11.428  -0.008  1.00  0.00     0.012 A 
ATOM     96  C   UNL     1      -7.369   9.414   1.278  1.00  0.00     0.148 A 
ATOM     97  C   UNL     1      -6.754  10.661  -1.161  1.00  0.00     0.002 A 
ATOM     98  C   UNL     1      -7.144   8.652   0.137  1.00  0.00     0.091 A 
ATOM     99  F   UNL     1      -7.686   8.853   2.453  1.00  0.00    -0.205 F 
ATOM    100  C   UNL     1      -6.853   9.274  -1.087  1.00  0.00     0.022 A 
BRANCH  98 101
ATOM    101  S   UNL     1      -7.132   6.856   0.156  1.00  0.00     0.127 S 
ATOM    102  O   UNL     1      -8.255   6.539  -0.723  1.00  0.00    -0.237 OA
ATOM    103  O   UNL     1      -5.812   6.561  -0.402  1.00  0.00    -0.237 OA
ATOM    104  O   UNL     1      -7.300   6.470   1.550  1.00  0.00    -0.744 OA
ENDBRANCH  98 101
ENDBRANCH  70  94
BRANCH  82 105
ATOM    105  C   UNL     1     -11.900  15.718   3.001  1.00  0.00     0.023 A 
ATOM    106  C   UNL     1     -13.076  14.957   2.852  1.00  0.00     0.012 A 
ATOM    107  C   UNL     1     -11.883  17.055   2.553  1.00  0.00     0.148 A 
ATOM    108  C   UNL     1     -14.203  15.505   2.238  1.00  0.00     0.002 A 
ATOM    109  C   UNL     1     -13.026  17.611   1.991  1.00  0.00     0.091 A 
ATOM    110  F   UNL     1     -10.750  17.760   2.689  1.00  0.00    -0.205 F 
ATOM    111  C   UNL     1     -14.182  16.833   1.820  1.00  0.00     0.022 A 
BRANCH 109 112
ATOM    112  S   UNL     1     -13.126  19.340   1.515  1.00  0.00     0.127 S 
ATOM    113  O   UNL     1     -13.190  19.245   0.057  1.00  0.00    -0.237 OA
ATOM    114  O   UNL     1     -14.373  19.765   2.153  1.00  0.00    -0.237 OA
ATOM    115  O   UNL     1     -11.927  19.976   2.045  1.00  0.00    -0.744 OA
ENDBRANCH 109 112
ENDBRANCH  82 105
ENDBRANCH  56  57
ENDBRANCH  49  51
ENDBRANCH  48  49
ENDBRANCH  47  48
ENDBRANCH  46  47
ENDBRANCH  45  46
ENDBRANCH  44  45
ENDBRANCH  43  44
ENDBRANCH   1  43
TORSDOF 30
