REMARK SMILES C[C@H]([NH3+])C(=O)N1CCC[C@H]1C(=O)OCCOCCOCCOCCOC(=O)c1ccc(-c2c3nc(c(-c4cccc(S(=O)(=O)[O-])c4F)c4ccc([nH]4)c(-c4cccc(S(=O)(=O)[O-])c4F)c4nc(c(-c5cccc(S(=O)(=O)[O-])c5F)c5ccc2[nH]5)C=C4)C=C3)cc1
REMARK SMILES IDX 19 1 18 2 17 3 16 4 15 5 14 6 13 7 11 8 12 9 10 10 6 11 7 12
REMARK SMILES IDX 8 13 9 14 4 15 5 16 2 17 1 18 3 19 20 23 21 24 22 25 23 26
REMARK SMILES IDX 24 27 25 28 26 29 27 30 28 31 29 32 90 33 30 34 89 35 31 36
REMARK SMILES IDX 32 37 33 38 83 39 34 40 88 41 82 42 84 43 35 44 87 45 81 46
REMARK SMILES IDX 80 47 36 49 68 50 48 51 67 52 49 53 52 54 66 55 85 56 50 57
REMARK SMILES IDX 51 58 65 60 86 61 53 62 37 63 38 64 46 65 39 66 41 67 47 68
REMARK SMILES IDX 40 69 42 70 43 71 44 72 45 73 69 74 70 75 78 76 71 77 73 78
REMARK SMILES IDX 79 79 72 80 74 81 75 82 76 83 77 84 54 85 55 86 63 87 56 88
REMARK SMILES IDX 58 89 64 90 57 91 59 92 60 93 61 94 62 95
REMARK H PARENT 3 20 3 21 3 22 84 48 52 59
REMARK Flexibility Score: inf
ROOT
ATOM      1  O   UNL     1      -6.108   0.479  -1.694  1.00  0.00    -0.377 OA
ENDROOT
BRANCH   1   2
ATOM      2  C   UNL     1      -4.861  -0.163  -1.531  1.00  0.00     0.188 C 
BRANCH   2   3
ATOM      3  C   UNL     1      -4.533  -0.565  -0.082  1.00  0.00     0.188 C 
BRANCH   3   4
ATOM      4  O   UNL     1      -5.545  -0.528   0.913  1.00  0.00    -0.376 OA
BRANCH   4   5
ATOM      5  C   UNL     1      -6.396   0.605   1.035  1.00  0.00     0.202 C 
BRANCH   5   6
ATOM      6  C   UNL     1      -5.911   2.054   0.809  1.00  0.00     0.261 C 
BRANCH   6   7
ATOM      7  O   UNL     1      -4.797   2.214  -0.080  1.00  0.00    -0.462 OA
BRANCH   7   8
ATOM      8  C   UNL     1      -3.653   2.720   0.440  1.00  0.00     0.328 C 
ATOM      9  O   UNL     1      -3.538   3.108   1.597  1.00  0.00    -0.250 OA
BRANCH   8  10
ATOM     10  C   UNL     1      -2.471   2.681  -0.563  1.00  0.00     0.195 C 
ATOM     11  N   UNL     1      -1.544   1.541  -0.451  1.00  0.00    -0.324 N 
ATOM     12  C   UNL     1      -1.352   0.859  -1.712  1.00  0.00     0.121 C 
ATOM     13  C   UNL     1      -1.842   1.825  -2.771  1.00  0.00     0.024 C 
ATOM     14  C   UNL     1      -2.821   2.762  -2.059  1.00  0.00     0.039 C 
BRANCH  11  15
ATOM     15  C   UNL     1      -0.834   1.332   0.709  1.00  0.00     0.281 C 
ATOM     16  O   UNL     1      -1.394   1.276   1.803  1.00  0.00    -0.268 OA
BRANCH  15  17
ATOM     17  C   UNL     1       0.702   1.225   0.634  1.00  0.00     0.268 C 
ATOM     18  C   UNL     1       1.304   2.307  -0.257  1.00  0.00     0.086 C 
BRANCH  17  19
ATOM     19  N   UNL     1       1.165  -0.129   0.290  1.00  0.00    -0.348 N 
ATOM     20  H   UNL     1       0.845  -0.369  -0.648  1.00  0.00     0.345 HD
ATOM     21  H   UNL     1       0.786  -0.798   0.960  1.00  0.00     0.345 HD
ATOM     22  H   UNL     1       2.184  -0.158   0.320  1.00  0.00     0.345 HD
ENDBRANCH  17  19
ENDBRANCH  15  17
ENDBRANCH  11  15
ENDBRANCH   8  10
ENDBRANCH   7   8
ENDBRANCH   6   7
ENDBRANCH   5   6
ENDBRANCH   4   5
ENDBRANCH   3   4
ENDBRANCH   2   3
ENDBRANCH   1   2
BRANCH   1  23
ATOM     23  C   UNL     1      -7.181  -0.330  -2.148  1.00  0.00     0.188 C 
BRANCH  23  24
ATOM     24  C   UNL     1      -7.260  -1.779  -1.627  1.00  0.00     0.188 C 
BRANCH  24  25
ATOM     25  O   UNL     1      -6.054  -2.522  -1.780  1.00  0.00    -0.376 OA
BRANCH  25  26
ATOM     26  C   UNL     1      -5.912  -3.375  -2.906  1.00  0.00     0.202 C 
BRANCH  26  27
ATOM     27  C   UNL     1      -5.815  -2.728  -4.299  1.00  0.00     0.261 C 
BRANCH  27  28
ATOM     28  O   UNL     1      -6.912  -1.900  -4.710  1.00  0.00    -0.460 OA
BRANCH  28  29
ATOM     29  C   UNL     1      -8.151  -2.442  -4.718  1.00  0.00     0.338 C 
ATOM     30  O   UNL     1      -8.445  -3.591  -4.473  1.00  0.00    -0.246 OA
BRANCH  29  31
ATOM     31  C   UNL     1      -9.120  -1.332  -4.876  1.00  0.00     0.060 A 
ATOM     32  C   UNL     1     -10.088  -1.133  -3.882  1.00  0.00     0.016 A 
ATOM     33  C   UNL     1      -9.063  -0.486  -5.985  1.00  0.00     0.016 A 
ATOM     34  C   UNL     1     -11.029  -0.110  -4.015  1.00  0.00     0.010 A 
ATOM     35  C   UNL     1     -10.021   0.522  -6.129  1.00  0.00     0.010 A 
ATOM     36  C   UNL     1     -11.030   0.690  -5.164  1.00  0.00    -0.014 A 
BRANCH  36  37
ATOM     37  C   UNL     1     -12.203   1.546  -5.469  1.00  0.00     0.031 A 
ATOM     38  C   UNL     1     -13.233   1.013  -6.431  1.00  0.00     0.074 A 
ATOM     39  C   UNL     1     -12.356   2.764  -4.918  1.00  0.00     0.049 A 
ATOM     40  N   UNL     1     -14.293   1.598  -6.921  1.00  0.00    -0.248 NA
ATOM     41  C   UNL     1     -13.035  -0.369  -6.904  1.00  0.00     0.031 C 
ATOM     42  C   UNL     1     -11.446   3.379  -3.954  1.00  0.00     0.029 A 
ATOM     43  N   UNL     1     -13.327   3.714  -5.120  1.00  0.00    -0.354 N 
ATOM     44  C   UNL     1     -14.872   0.671  -7.780  1.00  0.00     0.074 A 
ATOM     45  C   UNL     1     -14.039  -0.511  -7.756  1.00  0.00     0.031 C 
ATOM     46  C   UNL     1     -11.884   4.620  -3.674  1.00  0.00     0.029 A 
ATOM     47  C   UNL     1     -13.084   4.897  -4.462  1.00  0.00     0.049 A 
ATOM     48  H   UNL     1     -14.121   3.562  -5.682  1.00  0.00     0.167 HD
ATOM     49  C   UNL     1     -16.004   0.785  -8.512  1.00  0.00     0.034 A 
ATOM     50  C   UNL     1     -13.739   6.075  -4.519  1.00  0.00     0.034 A 
ATOM     51  C   UNL     1     -16.835   1.956  -8.529  1.00  0.00     0.049 A 
ATOM     52  C   UNL     1     -14.965   6.195  -5.393  1.00  0.00     0.074 A 
ATOM     53  C   UNL     1     -18.013   2.164  -9.224  1.00  0.00     0.029 A 
ATOM     54  N   UNL     1     -16.573   3.122  -7.827  1.00  0.00    -0.354 N 
ATOM     55  N   UNL     1     -15.549   5.282  -6.131  1.00  0.00    -0.248 NA
ATOM     56  C   UNL     1     -15.639   7.503  -5.418  1.00  0.00     0.031 C 
ATOM     57  C   UNL     1     -18.446   3.468  -8.968  1.00  0.00     0.029 A 
ATOM     58  C   UNL     1     -17.562   4.055  -8.077  1.00  0.00     0.049 A 
ATOM     59  H   UNL     1     -15.797   3.264  -7.238  1.00  0.00     0.167 HD
ATOM     60  C   UNL     1     -16.683   5.889  -6.664  1.00  0.00     0.074 A 
ATOM     61  C   UNL     1     -16.712   7.242  -6.153  1.00  0.00     0.031 C 
ATOM     62  C   UNL     1     -17.613   5.376  -7.507  1.00  0.00     0.034 A 
BRANCH  49  63
ATOM     63  C   UNL     1     -16.424  -0.397  -9.345  1.00  0.00     0.023 A 
ATOM     64  C   UNL     1     -16.935  -1.549  -8.714  1.00  0.00     0.012 A 
ATOM     65  C   UNL     1     -16.377  -0.341 -10.751  1.00  0.00     0.148 A 
ATOM     66  C   UNL     1     -17.368  -2.638  -9.469  1.00  0.00     0.002 A 
ATOM     67  C   UNL     1     -16.855  -1.410 -11.498  1.00  0.00     0.091 A 
ATOM     68  F   UNL     1     -15.868   0.757 -11.330  1.00  0.00    -0.205 F 
ATOM     69  C   UNL     1     -17.340  -2.563 -10.860  1.00  0.00     0.022 A 
BRANCH  67  70
ATOM     70  S   UNL     1     -16.934  -1.383 -13.292  1.00  0.00     0.127 S 
ATOM     71  O   UNL     1     -15.973  -2.428 -13.645  1.00  0.00    -0.237 OA
ATOM     72  O   UNL     1     -18.333  -1.733 -13.540  1.00  0.00    -0.237 OA
ATOM     73  O   UNL     1     -16.559  -0.035 -13.694  1.00  0.00    -0.744 OA
ENDBRANCH  67  70
ENDBRANCH  49  63
BRANCH  50  74
ATOM     74  C   UNL     1     -13.267   7.248  -3.725  1.00  0.00     0.023 A 
ATOM     75  C   UNL     1     -14.075   7.760  -2.691  1.00  0.00     0.012 A 
ATOM     76  C   UNL     1     -12.043   7.882  -4.014  1.00  0.00     0.148 A 
ATOM     77  C   UNL     1     -13.698   8.909  -1.994  1.00  0.00     0.002 A 
ATOM     78  C   UNL     1     -11.646   8.992  -3.277  1.00  0.00     0.091 A 
ATOM     79  F   UNL     1     -11.295   7.394  -5.013  1.00  0.00    -0.205 F 
ATOM     80  C   UNL     1     -12.482   9.520  -2.281  1.00  0.00     0.022 A 
BRANCH  78  81
ATOM     81  S   UNL     1     -10.043   9.771  -3.499  1.00  0.00     0.127 S 
ATOM     82  O   UNL     1     -10.411  11.044  -4.112  1.00  0.00    -0.237 OA
ATOM     83  O   UNL     1      -9.562   9.866  -2.120  1.00  0.00    -0.237 OA
ATOM     84  O   UNL     1      -9.277   8.861  -4.340  1.00  0.00    -0.744 OA
ENDBRANCH  78  81
ENDBRANCH  50  74
BRANCH  62  85
ATOM     85  C   UNL     1     -18.786   6.246  -7.880  1.00  0.00     0.023 A 
ATOM     86  C   UNL     1     -18.612   7.344  -8.745  1.00  0.00     0.012 A 
ATOM     87  C   UNL     1     -20.083   5.916  -7.435  1.00  0.00     0.148 A 
ATOM     88  C   UNL     1     -19.704   8.120  -9.133  1.00  0.00     0.002 A 
ATOM     89  C   UNL     1     -21.172   6.660  -7.870  1.00  0.00     0.091 A 
ATOM     90  F   UNL     1     -20.226   4.875  -6.602  1.00  0.00    -0.205 F 
ATOM     91  C   UNL     1     -20.983   7.771  -8.707  1.00  0.00     0.022 A 
BRANCH  89  92
ATOM     92  S   UNL     1     -22.866   6.225  -7.457  1.00  0.00     0.127 S 
ATOM     93  O   UNL     1     -23.248   7.325  -6.573  1.00  0.00    -0.237 OA
ATOM     94  O   UNL     1     -23.516   6.241  -8.768  1.00  0.00    -0.237 OA
ATOM     95  O   UNL     1     -22.804   4.913  -6.826  1.00  0.00    -0.744 OA
ENDBRANCH  89  92
ENDBRANCH  62  85
ENDBRANCH  36  37
ENDBRANCH  29  31
ENDBRANCH  28  29
ENDBRANCH  27  28
ENDBRANCH  26  27
ENDBRANCH  25  26
ENDBRANCH  24  25
ENDBRANCH  23  24
ENDBRANCH   1  23
TORSDOF 26
