REMARK SMILES C[C@@H](C(=O)OCCOCCOCCOCCOC(=O)c1ccc(-c2c3nc(c(-c4cccc(S(=O)(=O)[O-])c4F)c4ccc([nH]4)c(-c4cccc(S(=O)(=O)[O-])c4F)c4nc(c(-c5cccc(S(=O)(=O)[O-])c5F)c5ccc2[nH]5)C=C4)C=C3)cc1)n1ccc(C(=O)N2CC[NH+](Cc3cccc(F)c3)CC2)n1
REMARK SMILES IDX 10 1 9 2 8 3 7 4 6 5 5 6 3 7 4 8 2 9 1 10 83 11 84 12 103 13
REMARK SMILES IDX 85 14 86 15 87 16 88 17 89 18 90 19 102 20 91 21 101 22
REMARK SMILES IDX 92 23 93 25 94 26 95 27 100 28 96 29 98 30 97 31 99 32 11 33
REMARK SMILES IDX 12 34 13 35 14 36 15 37 16 38 17 39 18 40 19 41 20 42 21 43
REMARK SMILES IDX 82 44 22 45 81 46 23 47 24 48 25 49 75 50 26 51 80 52 74 53
REMARK SMILES IDX 76 54 27 55 79 56 73 57 72 58 28 60 60 61 40 62 59 63 41 64
REMARK SMILES IDX 44 65 58 66 77 67 42 68 43 69 57 71 78 72 45 73 29 74 30 75
REMARK SMILES IDX 38 76 31 77 33 78 39 79 32 80 34 81 35 82 36 83 37 84 61 85
REMARK SMILES IDX 62 86 70 87 63 88 65 89 71 90 64 91 66 92 67 93 68 94 69 95
REMARK SMILES IDX 46 96 47 97 55 98 48 99 50 100 56 101 49 102 51 103 52 104
REMARK SMILES IDX 53 105 54 106
REMARK H PARENT 92 24 76 59 44 70
REMARK Flexibility Score: inf
ROOT
ATOM      1  C   UNL     1       0.685   1.394  -2.323  1.00  0.00     0.188 C 
ENDROOT
BRANCH   1   2
ATOM      2  C   UNL     1      -0.054   2.740  -2.262  1.00  0.00     0.188 C 
BRANCH   2   3
ATOM      3  O   UNL     1       0.578   3.933  -2.701  1.00  0.00    -0.376 OA
BRANCH   3   4
ATOM      4  C   UNL     1       1.818   4.345  -2.133  1.00  0.00     0.202 C 
BRANCH   4   5
ATOM      5  C   UNL     1       2.213   4.071  -0.667  1.00  0.00     0.261 C 
BRANCH   5   6
ATOM      6  O   UNL     1       1.757   2.822  -0.132  1.00  0.00    -0.462 OA
BRANCH   6   7
ATOM      7  C   UNL     1       1.114   2.847   1.063  1.00  0.00     0.330 C 
ATOM      8  O   UNL     1       0.969   3.862   1.738  1.00  0.00    -0.250 OA
BRANCH   7   9
ATOM      9  C   UNL     1       0.547   1.479   1.451  1.00  0.00     0.213 C 
ATOM     10  C   UNL     1       1.450   0.297   1.083  1.00  0.00     0.046 C 
BRANCH   9  11
ATOM     11  N   UNL     1      -0.851   1.347   1.032  1.00  0.00    -0.258 N 
ATOM     12  C   UNL     1      -1.568   0.220   0.730  1.00  0.00     0.110 A 
ATOM     13  N   UNL     1      -1.622   2.443   1.042  1.00  0.00    -0.167 NA
ATOM     14  C   UNL     1      -2.877   0.623   0.567  1.00  0.00     0.056 A 
ATOM     15  C   UNL     1      -2.869   2.022   0.788  1.00  0.00     0.150 A 
BRANCH  15  16
ATOM     16  C   UNL     1      -4.019   2.937   0.891  1.00  0.00     0.274 C 
ATOM     17  O   UNL     1      -5.143   2.518   1.173  1.00  0.00    -0.267 OA
ATOM     18  N   UNL     1      -3.744   4.304   0.757  1.00  0.00    -0.326 N 
ATOM     19  C   UNL     1      -4.621   5.226   1.454  1.00  0.00     0.181 C 
ATOM     20  C   UNL     1      -3.035   4.793  -0.427  1.00  0.00     0.181 C 
ATOM     21  C   UNL     1      -4.171   6.699   1.424  1.00  0.00     0.284 C 
ATOM     22  C   UNL     1      -2.615   6.271  -0.362  1.00  0.00     0.284 C 
ATOM     23  N   UNL     1      -3.627   7.201   0.157  1.00  0.00    -0.328 N 
ATOM     24  H   UNL     1      -3.148   8.075   0.374  1.00  0.00     0.348 HD
BRANCH  23  25
ATOM     25  C   UNL     1      -4.588   7.728  -0.817  1.00  0.00     0.299 C 
BRANCH  25  26
ATOM     26  C   UNL     1      -5.582   6.758  -1.413  1.00  0.00     0.009 A 
ATOM     27  C   UNL     1      -5.329   6.130  -2.643  1.00  0.00     0.010 A 
ATOM     28  C   UNL     1      -6.750   6.419  -0.717  1.00  0.00     0.048 A 
ATOM     29  C   UNL     1      -6.158   5.102  -3.103  1.00  0.00     0.004 A 
ATOM     30  C   UNL     1      -7.553   5.377  -1.167  1.00  0.00     0.123 A 
ATOM     31  C   UNL     1      -7.256   4.703  -2.344  1.00  0.00     0.039 A 
ATOM     32  F   UNL     1      -8.604   4.993  -0.430  1.00  0.00    -0.207 F 
ENDBRANCH  25  26
ENDBRANCH  23  25
ENDBRANCH  15  16
ENDBRANCH   9  11
ENDBRANCH   7   9
ENDBRANCH   6   7
ENDBRANCH   5   6
ENDBRANCH   4   5
ENDBRANCH   3   4
ENDBRANCH   2   3
ENDBRANCH   1   2
BRANCH   1  33
ATOM     33  O   UNL     1       2.094   1.492  -2.352  1.00  0.00    -0.377 OA
BRANCH  33  34
ATOM     34  C   UNL     1       2.735   1.502  -3.621  1.00  0.00     0.188 C 
BRANCH  34  35
ATOM     35  C   UNL     1       1.970   2.028  -4.853  1.00  0.00     0.188 C 
BRANCH  35  36
ATOM     36  O   UNL     1       0.649   1.520  -4.996  1.00  0.00    -0.376 OA
BRANCH  36  37
ATOM     37  C   UNL     1       0.444   0.397  -5.842  1.00  0.00     0.202 C 
BRANCH  37  38
ATOM     38  C   UNL     1       1.093  -0.935  -5.430  1.00  0.00     0.261 C 
BRANCH  38  39
ATOM     39  O   UNL     1       2.527  -0.951  -5.356  1.00  0.00    -0.460 OA
BRANCH  39  40
ATOM     40  C   UNL     1       3.221  -0.585  -6.458  1.00  0.00     0.338 C 
ATOM     41  O   UNL     1       2.771  -0.311  -7.547  1.00  0.00    -0.246 OA
BRANCH  40  42
ATOM     42  C   UNL     1       4.629  -0.372  -6.049  1.00  0.00     0.060 A 
ATOM     43  C   UNL     1       5.206   0.887  -6.258  1.00  0.00     0.016 A 
ATOM     44  C   UNL     1       5.370  -1.404  -5.470  1.00  0.00     0.016 A 
ATOM     45  C   UNL     1       6.545   1.104  -5.932  1.00  0.00     0.010 A 
ATOM     46  C   UNL     1       6.717  -1.191  -5.162  1.00  0.00     0.010 A 
ATOM     47  C   UNL     1       7.320   0.052  -5.429  1.00  0.00    -0.014 A 
BRANCH  47  48
ATOM     48  C   UNL     1       8.796   0.188  -5.375  1.00  0.00     0.031 A 
ATOM     49  C   UNL     1       9.609  -0.418  -6.488  1.00  0.00     0.074 A 
ATOM     50  C   UNL     1       9.406   0.837  -4.368  1.00  0.00     0.049 A 
ATOM     51  N   UNL     1      10.907  -0.470  -6.634  1.00  0.00    -0.248 NA
ATOM     52  C   UNL     1       8.854  -1.053  -7.582  1.00  0.00     0.031 C 
ATOM     53  C   UNL     1       8.731   1.478  -3.242  1.00  0.00     0.029 A 
ATOM     54  N   UNL     1      10.742   1.038  -4.121  1.00  0.00    -0.354 N 
ATOM     55  C   UNL     1      11.126  -1.167  -7.816  1.00  0.00     0.074 A 
ATOM     56  C   UNL     1       9.828  -1.531  -8.341  1.00  0.00     0.031 C 
ATOM     57  C   UNL     1       9.659   1.971  -2.403  1.00  0.00     0.029 A 
ATOM     58  C   UNL     1      10.990   1.655  -2.918  1.00  0.00     0.049 A 
ATOM     59  H   UNL     1      11.453   0.766  -4.745  1.00  0.00     0.167 HD
ATOM     60  C   UNL     1      12.300  -1.468  -8.419  1.00  0.00     0.034 A 
ATOM     61  C   UNL     1      12.158   1.907  -2.291  1.00  0.00     0.034 A 
ATOM     62  C   UNL     1      13.588  -1.100  -7.900  1.00  0.00     0.049 A 
ATOM     63  C   UNL     1      13.454   1.526  -2.963  1.00  0.00     0.074 A 
ATOM     64  C   UNL     1      14.835  -1.327  -8.455  1.00  0.00     0.029 A 
ATOM     65  N   UNL     1      13.799  -0.444  -6.698  1.00  0.00    -0.354 N 
ATOM     66  N   UNL     1      13.645   0.959  -4.130  1.00  0.00    -0.248 NA
ATOM     67  C   UNL     1      14.696   1.851  -2.246  1.00  0.00     0.031 C 
ATOM     68  C   UNL     1      15.802  -0.843  -7.569  1.00  0.00     0.029 A 
ATOM     69  C   UNL     1      15.156  -0.271  -6.485  1.00  0.00     0.049 A 
ATOM     70  H   UNL     1      13.089  -0.146  -6.085  1.00  0.00     0.167 HD
ATOM     71  C   UNL     1      15.025   0.895  -4.303  1.00  0.00     0.074 A 
ATOM     72  C   UNL     1      15.620   1.499  -3.129  1.00  0.00     0.031 C 
ATOM     73  C   UNL     1      15.735   0.376  -5.335  1.00  0.00     0.034 A 
BRANCH  60  74
ATOM     74  C   UNL     1      12.242  -2.228  -9.719  1.00  0.00     0.023 A 
ATOM     75  C   UNL     1      11.773  -1.589 -10.885  1.00  0.00     0.012 A 
ATOM     76  C   UNL     1      12.697  -3.558  -9.794  1.00  0.00     0.148 A 
ATOM     77  C   UNL     1      11.725  -2.275 -12.099  1.00  0.00     0.002 A 
ATOM     78  C   UNL     1      12.691  -4.219 -11.016  1.00  0.00     0.091 A 
ATOM     79  F   UNL     1      13.117  -4.155  -8.670  1.00  0.00    -0.205 F 
ATOM     80  C   UNL     1      12.194  -3.584 -12.166  1.00  0.00     0.022 A 
BRANCH  78  81
ATOM     81  S   UNL     1      13.347  -5.878 -11.225  1.00  0.00     0.127 S 
ATOM     82  O   UNL     1      12.132  -6.641 -11.505  1.00  0.00    -0.237 OA
ATOM     83  O   UNL     1      14.241  -5.711 -12.370  1.00  0.00    -0.237 OA
ATOM     84  O   UNL     1      14.014  -6.208  -9.973  1.00  0.00    -0.744 OA
ENDBRANCH  78  81
ENDBRANCH  60  74
BRANCH  61  85
ATOM     85  C   UNL     1      12.161   2.561  -0.951  1.00  0.00     0.023 A 
ATOM     86  C   UNL     1      12.678   3.863  -0.807  1.00  0.00     0.012 A 
ATOM     87  C   UNL     1      11.653   1.895   0.181  1.00  0.00     0.148 A 
ATOM     88  C   UNL     1      12.721   4.476   0.447  1.00  0.00     0.002 A 
ATOM     89  C   UNL     1      11.644   2.533   1.415  1.00  0.00     0.091 A 
ATOM     90  F   UNL     1      11.181   0.650   0.026  1.00  0.00    -0.205 F 
ATOM     91  C   UNL     1      12.195   3.816   1.555  1.00  0.00     0.022 A 
BRANCH  89  92
ATOM     92  S   UNL     1      10.873   1.813   2.868  1.00  0.00     0.127 S 
ATOM     93  O   UNL     1      12.027   1.558   3.725  1.00  0.00    -0.237 OA
ATOM     94  O   UNL     1      10.000   2.900   3.313  1.00  0.00    -0.237 OA
ATOM     95  O   UNL     1      10.166   0.630   2.394  1.00  0.00    -0.744 OA
ENDBRANCH  89  92
ENDBRANCH  61  85
BRANCH  73  96
ATOM     96  C   UNL     1      17.239   0.480  -5.280  1.00  0.00     0.023 A 
ATOM     97  C   UNL     1      17.971  -0.308  -4.370  1.00  0.00     0.012 A 
ATOM     98  C   UNL     1      17.930   1.307  -6.189  1.00  0.00     0.148 A 
ATOM     99  C   UNL     1      19.364  -0.247  -4.341  1.00  0.00     0.002 A 
ATOM    100  C   UNL     1      19.319   1.321  -6.191  1.00  0.00     0.091 A 
ATOM    101  F   UNL     1      17.215   2.060  -7.038  1.00  0.00    -0.205 F 
ATOM    102  C   UNL     1      20.038   0.557  -5.258  1.00  0.00     0.022 A 
BRANCH 100 103
ATOM    103  S   UNL     1      20.273   2.248  -7.399  1.00  0.00     0.127 S 
ATOM    104  O   UNL     1      20.852   3.306  -6.572  1.00  0.00    -0.237 OA
ATOM    105  O   UNL     1      21.231   1.247  -7.868  1.00  0.00    -0.237 OA
ATOM    106  O   UNL     1      19.322   2.695  -8.407  1.00  0.00    -0.744 OA
ENDBRANCH 100 103
ENDBRANCH  73  96
ENDBRANCH  47  48
ENDBRANCH  40  42
ENDBRANCH  39  40
ENDBRANCH  38  39
ENDBRANCH  37  38
ENDBRANCH  36  37
ENDBRANCH  35  36
ENDBRANCH  34  35
ENDBRANCH  33  34
ENDBRANCH   1  33
TORSDOF 27
