REMARK SMILES Cc1ccc([C@@]23C[C@@H]4C[C@@H](C[C@@](C(=O)N5CCC(C(=O)OCCOCCOCCOCCOC(=O)c6ccc(-c7c8nc(c(-c9cccc(S(=O)(=O)[O-])c9F)c9ccc([nH]9)c(-c9cccc(S(=O)(=O)[O-])c9F)c9nc(c(-c%10cccc(S(=O)(=O)[O-])c%10F)c%10ccc7[nH]%10)C=C9)C=C8)cc6)CC5)(C4)C2)C3)cc1
REMARK SMILES IDX 28 1 27 2 26 3 25 4 24 5 23 6 22 7 21 8 19 9 20 10 18 11
REMARK SMILES IDX 13 12 14 13 15 14 16 15 100 16 17 17 99 18 12 19 6 20 7 21
REMARK SMILES IDX 102 22 103 23 8 24 10 25 9 26 101 27 11 28 5 29 1 30 2 31
REMARK SMILES IDX 3 32 105 33 4 34 104 35 29 36 30 37 31 38 32 39 33 40 34 41
REMARK SMILES IDX 35 42 36 43 37 44 98 45 38 46 97 47 39 48 40 49 41 50 91 51
REMARK SMILES IDX 42 52 96 53 90 54 92 55 43 56 95 57 89 58 88 59 44 61 76 62
REMARK SMILES IDX 56 63 75 64 57 65 60 66 74 67 93 68 58 69 59 70 73 72 94 73
REMARK SMILES IDX 61 74 45 75 46 76 54 77 47 78 49 79 55 80 48 81 50 82 51 83
REMARK SMILES IDX 52 84 53 85 77 86 78 87 86 88 79 89 81 90 87 91 80 92 82 93
REMARK SMILES IDX 83 94 84 95 85 96 62 97 63 98 71 99 64 100 66 101 72 102
REMARK SMILES IDX 65 103 67 104 68 105 69 106 70 107
REMARK H PARENT 92 60 60 71
REMARK Flexibility Score: inf
ROOT
ATOM      1  C   UNL     1      -7.051  -1.744  -6.266  1.00  0.00     0.188 C 
ENDROOT
BRANCH   1   2
ATOM      2  O   UNL     1      -5.927  -2.179  -5.490  1.00  0.00    -0.377 OA
BRANCH   2   3
ATOM      3  C   UNL     1      -4.720  -2.489  -6.174  1.00  0.00     0.188 C 
BRANCH   3   4
ATOM      4  C   UNL     1      -4.316  -3.955  -6.444  1.00  0.00     0.188 C 
BRANCH   4   5
ATOM      5  O   UNL     1      -5.085  -4.753  -7.320  1.00  0.00    -0.376 OA
BRANCH   5   6
ATOM      6  C   UNL     1      -6.255  -5.324  -6.758  1.00  0.00     0.202 C 
BRANCH   6   7
ATOM      7  C   UNL     1      -6.120  -6.390  -5.686  1.00  0.00     0.261 C 
BRANCH   7   8
ATOM      8  O   UNL     1      -5.951  -5.803  -4.399  1.00  0.00    -0.463 OA
BRANCH   8   9
ATOM      9  C   UNL     1      -4.805  -6.108  -3.766  1.00  0.00     0.309 C 
ATOM     10  O   UNL     1      -3.932  -6.854  -4.152  1.00  0.00    -0.252 OA
BRANCH   9  11
ATOM     11  C   UNL     1      -4.652  -5.228  -2.564  1.00  0.00     0.103 C 
ATOM     12  C   UNL     1      -5.777  -2.355   0.241  1.00  0.00     0.228 C 
ATOM     13  O   UNL     1      -6.607  -2.731   1.072  1.00  0.00    -0.274 OA
ATOM     14  N   UNL     1      -5.086  -3.261  -0.565  1.00  0.00    -0.342 N 
ATOM     15  C   UNL     1      -5.065  -4.684  -0.202  1.00  0.00     0.120 C 
ATOM     16  C   UNL     1      -4.346  -2.945  -1.790  1.00  0.00     0.120 C 
ATOM     17  C   UNL     1      -5.529  -5.563  -1.364  1.00  0.00     0.037 C 
ATOM     18  C   UNL     1      -4.872  -3.765  -2.925  1.00  0.00     0.037 C 
BRANCH  12  19
ATOM     19  C   UNL     1      -5.368  -0.867   0.176  1.00  0.00     0.051 C 
ATOM     20  C   UNL     1      -3.199   0.532   0.203  1.00  0.00    -0.003 C 
ATOM     21  C   UNL     1      -3.712   1.153  -1.130  1.00  0.00     0.015 C 
ATOM     22  C   UNL     1      -3.837  -0.849   0.332  1.00  0.00     0.028 C 
ATOM     23  C   UNL     1      -3.753   1.342   1.401  1.00  0.00     0.015 C 
ATOM     24  C   UNL     1      -5.251   1.269  -1.152  1.00  0.00    -0.009 C 
ATOM     25  C   UNL     1      -5.300   1.384   1.357  1.00  0.00    -0.009 C 
ATOM     26  C   UNL     1      -5.724   2.087   0.057  1.00  0.00     0.007 C 
ATOM     27  C   UNL     1      -5.891  -0.125  -1.073  1.00  0.00     0.020 C 
ATOM     28  C   UNL     1      -5.894  -0.049   1.387  1.00  0.00     0.020 C 
BRANCH  20  29
ATOM     29  C   UNL     1      -1.659   0.409   0.192  1.00  0.00    -0.042 A 
ATOM     30  C   UNL     1       2.669   0.070  -0.031  1.00  0.00     0.044 C 
ATOM     31  C   UNL     1       1.179   0.206   0.047  1.00  0.00    -0.051 A 
ATOM     32  C   UNL     1       0.396  -0.941   0.106  1.00  0.00     0.004 A 
ATOM     33  C   UNL     1       0.546   1.452   0.060  1.00  0.00     0.004 A 
ATOM     34  C   UNL     1      -0.993  -0.838   0.189  1.00  0.00     0.004 A 
ATOM     35  C   UNL     1      -0.853   1.552   0.129  1.00  0.00     0.004 A 
ENDBRANCH  20  29
ENDBRANCH  12  19
ENDBRANCH   9  11
ENDBRANCH   8   9
ENDBRANCH   7   8
ENDBRANCH   6   7
ENDBRANCH   5   6
ENDBRANCH   4   5
ENDBRANCH   3   4
ENDBRANCH   2   3
ENDBRANCH   1   2
BRANCH   1  36
ATOM     36  C   UNL     1      -6.777  -0.811  -7.438  1.00  0.00     0.188 C 
BRANCH  36  37
ATOM     37  O   UNL     1      -6.179  -1.596  -8.466  1.00  0.00    -0.376 OA
BRANCH  37  38
ATOM     38  C   UNL     1      -5.378  -0.914  -9.412  1.00  0.00     0.202 C 
BRANCH  38  39
ATOM     39  C   UNL     1      -6.147   0.158 -10.175  1.00  0.00     0.261 C 
BRANCH  39  40
ATOM     40  O   UNL     1      -6.980  -0.475 -11.178  1.00  0.00    -0.460 OA
BRANCH  40  41
ATOM     41  C   UNL     1      -8.329  -0.474 -10.980  1.00  0.00     0.338 C 
ATOM     42  O   UNL     1      -9.048   0.443 -11.345  1.00  0.00    -0.246 OA
BRANCH  41  43
ATOM     43  C   UNL     1      -8.830  -1.723 -10.328  1.00  0.00     0.060 A 
ATOM     44  C   UNL     1     -10.128  -1.791  -9.811  1.00  0.00     0.016 A 
ATOM     45  C   UNL     1      -7.986  -2.797 -10.104  1.00  0.00     0.016 A 
ATOM     46  C   UNL     1     -10.489  -2.797  -8.893  1.00  0.00     0.010 A 
ATOM     47  C   UNL     1      -8.314  -3.722  -9.119  1.00  0.00     0.010 A 
ATOM     48  C   UNL     1      -9.541  -3.692  -8.433  1.00  0.00    -0.014 A 
BRANCH  48  49
ATOM     49  C   UNL     1      -9.694  -4.589  -7.256  1.00  0.00     0.031 A 
ATOM     50  C   UNL     1      -9.484  -6.063  -7.483  1.00  0.00     0.074 A 
ATOM     51  C   UNL     1      -9.556  -4.049  -6.012  1.00  0.00     0.049 A 
ATOM     52  N   UNL     1      -9.340  -6.972  -6.575  1.00  0.00    -0.248 NA
ATOM     53  C   UNL     1      -9.399  -6.627  -8.833  1.00  0.00     0.031 C 
ATOM     54  C   UNL     1      -8.828  -4.656  -4.894  1.00  0.00     0.029 A 
ATOM     55  N   UNL     1      -9.892  -2.800  -5.478  1.00  0.00    -0.354 N 
ATOM     56  C   UNL     1      -8.821  -8.112  -7.183  1.00  0.00     0.074 A 
ATOM     57  C   UNL     1      -8.989  -7.877  -8.592  1.00  0.00     0.031 C 
ATOM     58  C   UNL     1      -8.759  -3.821  -3.852  1.00  0.00     0.029 A 
ATOM     59  C   UNL     1      -9.799  -2.867  -4.074  1.00  0.00     0.049 A 
ATOM     60  H   UNL     1     -10.152  -2.006  -5.998  1.00  0.00     0.167 HD
ATOM     61  C   UNL     1      -8.162  -9.053  -6.435  1.00  0.00     0.034 A 
ATOM     62  C   UNL     1     -10.856  -2.818  -3.208  1.00  0.00     0.034 A 
ATOM     63  C   UNL     1      -8.343  -8.816  -4.966  1.00  0.00     0.049 A 
ATOM     64  C   UNL     1     -11.212  -4.204  -2.606  1.00  0.00     0.074 A 
ATOM     65  C   UNL     1      -7.500  -8.777  -3.863  1.00  0.00     0.029 A 
ATOM     66  N   UNL     1      -9.586  -8.390  -4.477  1.00  0.00    -0.354 N 
ATOM     67  N   UNL     1     -10.534  -5.321  -2.793  1.00  0.00    -0.248 NA
ATOM     68  C   UNL     1     -12.346  -4.434  -1.722  1.00  0.00     0.031 C 
ATOM     69  C   UNL     1      -8.215  -8.201  -2.763  1.00  0.00     0.029 A 
ATOM     70  C   UNL     1      -9.528  -7.979  -3.153  1.00  0.00     0.049 A 
ATOM     71  H   UNL     1     -10.411  -8.384  -5.014  1.00  0.00     0.167 HD
ATOM     72  C   UNL     1     -11.161  -6.404  -2.217  1.00  0.00     0.074 A 
ATOM     73  C   UNL     1     -12.246  -5.757  -1.486  1.00  0.00     0.031 C 
ATOM     74  C   UNL     1     -10.776  -7.721  -2.417  1.00  0.00     0.034 A 
BRANCH  61  75
ATOM     75  C   UNL     1      -7.156 -10.106  -6.997  1.00  0.00     0.023 A 
ATOM     76  C   UNL     1      -6.653 -11.065  -6.084  1.00  0.00     0.012 A 
ATOM     77  C   UNL     1      -6.583 -10.181  -8.305  1.00  0.00     0.148 A 
ATOM     78  C   UNL     1      -5.643 -11.989  -6.407  1.00  0.00     0.002 A 
ATOM     79  C   UNL     1      -5.634 -11.167  -8.654  1.00  0.00     0.091 A 
ATOM     80  F   UNL     1      -6.882  -9.257  -9.222  1.00  0.00    -0.205 F 
ATOM     81  C   UNL     1      -5.141 -12.052  -7.695  1.00  0.00     0.022 A 
BRANCH  79  82
ATOM     82  S   UNL     1      -4.996 -11.411 -10.334  1.00  0.00     0.127 S 
ATOM     83  O   UNL     1      -3.564 -11.158 -10.170  1.00  0.00    -0.237 OA
ATOM     84  O   UNL     1      -5.332 -12.812 -10.595  1.00  0.00    -0.237 OA
ATOM     85  O   UNL     1      -5.698 -10.454 -11.181  1.00  0.00    -0.744 OA
ENDBRANCH  79  82
ENDBRANCH  61  75
BRANCH  62  86
ATOM     86  C   UNL     1     -11.662  -1.571  -3.429  1.00  0.00     0.023 A 
ATOM     87  C   UNL     1     -10.894  -0.388  -3.224  1.00  0.00     0.012 A 
ATOM     88  C   UNL     1     -12.590  -1.584  -4.476  1.00  0.00     0.148 A 
ATOM     89  C   UNL     1     -10.765   0.553  -4.251  1.00  0.00     0.002 A 
ATOM     90  C   UNL     1     -12.461  -0.640  -5.498  1.00  0.00     0.091 A 
ATOM     91  F   UNL     1     -13.438  -2.617  -4.562  1.00  0.00    -0.205 F 
ATOM     92  C   UNL     1     -11.498   0.384  -5.420  1.00  0.00     0.022 A 
BRANCH  90  93
ATOM     93  S   UNL     1     -13.261  -0.933  -7.080  1.00  0.00     0.127 S 
ATOM     94  O   UNL     1     -14.532  -0.240  -6.919  1.00  0.00    -0.237 OA
ATOM     95  O   UNL     1     -12.331  -0.311  -8.021  1.00  0.00    -0.237 OA
ATOM     96  O   UNL     1     -13.318  -2.385  -7.175  1.00  0.00    -0.744 OA
ENDBRANCH  90  93
ENDBRANCH  62  86
BRANCH  74  97
ATOM     97  C   UNL     1     -11.560  -8.995  -1.999  1.00  0.00     0.023 A 
ATOM     98  C   UNL     1     -12.784  -8.952  -1.316  1.00  0.00     0.012 A 
ATOM     99  C   UNL     1     -11.122 -10.310  -2.369  1.00  0.00     0.148 A 
ATOM    100  C   UNL     1     -13.557 -10.094  -1.064  1.00  0.00     0.002 A 
ATOM    101  C   UNL     1     -11.918 -11.439  -2.172  1.00  0.00     0.091 A 
ATOM    102  F   UNL     1      -9.903 -10.502  -2.884  1.00  0.00    -0.205 F 
ATOM    103  C   UNL     1     -13.143 -11.331  -1.522  1.00  0.00     0.022 A 
BRANCH 101 104
ATOM    104  S   UNL     1     -11.464 -13.074  -2.778  1.00  0.00     0.127 S 
ATOM    105  O   UNL     1     -11.193 -13.785  -1.529  1.00  0.00    -0.237 OA
ATOM    106  O   UNL     1     -12.689 -13.492  -3.462  1.00  0.00    -0.237 OA
ATOM    107  O   UNL     1     -10.316 -12.886  -3.653  1.00  0.00    -0.744 OA
ENDBRANCH 101 104
ENDBRANCH  74  97
ENDBRANCH  48  49
ENDBRANCH  41  43
ENDBRANCH  40  41
ENDBRANCH  39  40
ENDBRANCH  38  39
ENDBRANCH  37  38
ENDBRANCH  36  37
ENDBRANCH   1  36
TORSDOF 25
