REMARK SMILES CC[C@H](NC(=O)N1CCO[C@@H](CC(=O)OCCOCCOCCOCCOC(=O)c2ccc(-c3c4nc(c(-c5cccc(S(=O)(=O)[O-])c5F)c5ccc([nH]5)c(-c5cccc(S(=O)(=O)[O-])c5F)c5nc(c(-c6cccc(S(=O)(=O)[O-])c6F)c6ccc3[nH]6)C=C5)C=C4)cc2)C1)c1cccs1
REMARK SMILES IDX 20 1 19 2 18 3 17 4 16 5 15 6 13 7 14 8 12 9 11 10 7 11 8 12
REMARK SMILES IDX 93 13 9 14 10 15 5 16 4 17 6 19 3 20 2 21 1 22 94 23 95 24
REMARK SMILES IDX 98 25 96 26 97 27 21 28 22 29 23 30 24 31 25 32 26 33 27 34
REMARK SMILES IDX 28 35 29 36 30 37 31 38 92 39 32 40 91 41 33 42 34 43 35 44
REMARK SMILES IDX 85 45 36 46 90 47 84 48 86 49 37 50 89 51 83 52 82 53 38 55
REMARK SMILES IDX 70 56 50 57 69 58 51 59 54 60 68 61 87 62 52 63 53 64 67 66
REMARK SMILES IDX 88 67 55 68 39 69 40 70 48 71 41 72 43 73 49 74 42 75 44 76
REMARK SMILES IDX 45 77 46 78 47 79 71 80 72 81 80 82 73 83 75 84 81 85 74 86
REMARK SMILES IDX 76 87 77 88 78 89 79 90 56 91 57 92 65 93 58 94 60 95 66 96
REMARK SMILES IDX 59 97 61 98 62 99 63 100 64 101
REMARK H PARENT 4 18 86 54 54 65
REMARK Flexibility Score: inf
ROOT
ATOM      1  C   UNL     1       0.994   6.641  -0.007  1.00  0.00     0.188 C 
ENDROOT
BRANCH   1   2
ATOM      2  C   UNL     1       0.752   8.031   0.591  1.00  0.00     0.188 C 
BRANCH   2   3
ATOM      3  O   UNL     1       0.863   8.204   1.988  1.00  0.00    -0.376 OA
BRANCH   3   4
ATOM      4  C   UNL     1      -0.150   7.759   2.880  1.00  0.00     0.202 C 
BRANCH   4   5
ATOM      5  C   UNL     1      -1.590   7.365   2.501  1.00  0.00     0.261 C 
BRANCH   5   6
ATOM      6  O   UNL     1      -1.814   6.810   1.203  1.00  0.00    -0.463 OA
BRANCH   6   7
ATOM      7  C   UNL     1      -2.550   7.560   0.361  1.00  0.00     0.308 C 
ATOM      8  O   UNL     1      -2.916   8.709   0.601  1.00  0.00    -0.252 OA
BRANCH   7   9
ATOM      9  C   UNL     1      -2.900   6.897  -0.942  1.00  0.00     0.156 C 
BRANCH   9  10
ATOM     10  C   UNL     1      -2.275   5.587  -1.404  1.00  0.00     0.149 C 
ATOM     11  N   UNL     1      -1.643   3.234  -1.151  1.00  0.00    -0.320 N 
ATOM     12  C   UNL     1      -2.246   2.922  -2.438  1.00  0.00     0.150 C 
ATOM     13  C   UNL     1      -2.315   4.363  -0.470  1.00  0.00     0.154 C 
ATOM     14  C   UNL     1      -2.392   4.169  -3.313  1.00  0.00     0.182 C 
ATOM     15  O   UNL     1      -3.008   5.259  -2.623  1.00  0.00    -0.374 OA
BRANCH  11  16
ATOM     16  C   UNL     1      -0.761   2.478  -0.447  1.00  0.00     0.318 C 
ATOM     17  N   UNL     1       0.176   1.700  -1.012  1.00  0.00    -0.330 N 
ATOM     18  H   UNL     1       0.613   1.152  -0.322  1.00  0.00     0.166 HD
ATOM     19  O   UNL     1      -0.719   2.502   0.788  1.00  0.00    -0.249 OA
BRANCH  17  20
ATOM     20  C   UNL     1       0.757   1.403  -2.318  1.00  0.00     0.124 C 
BRANCH  20  21
ATOM     21  C   UNL     1       0.332   0.045  -2.920  1.00  0.00     0.027 C 
ATOM     22  C   UNL     1      -1.010  -0.523  -2.480  1.00  0.00     0.006 C 
ENDBRANCH  20  21
BRANCH  20  23
ATOM     23  C   UNL     1       0.866   2.580  -3.267  1.00  0.00     0.027 A 
ATOM     24  C   UNL     1       0.469   2.712  -4.590  1.00  0.00     0.017 A 
ATOM     25  S   UNL     1       1.682   4.008  -2.752  1.00  0.00    -0.147 S 
ATOM     26  C   UNL     1       0.779   3.992  -5.143  1.00  0.00     0.012 A 
ATOM     27  C   UNL     1       1.427   4.799  -4.238  1.00  0.00     0.065 A 
ENDBRANCH  20  23
ENDBRANCH  17  20
ENDBRANCH  11  16
ENDBRANCH   9  10
ENDBRANCH   7   9
ENDBRANCH   6   7
ENDBRANCH   5   6
ENDBRANCH   4   5
ENDBRANCH   3   4
ENDBRANCH   2   3
ENDBRANCH   1   2
BRANCH   1  28
ATOM     28  O   UNL     1       0.502   5.565   0.753  1.00  0.00    -0.377 OA
BRANCH  28  29
ATOM     29  C   UNL     1       1.286   5.002   1.800  1.00  0.00     0.188 C 
BRANCH  29  30
ATOM     30  C   UNL     1       2.599   5.664   2.269  1.00  0.00     0.188 C 
BRANCH  30  31
ATOM     31  O   UNL     1       3.377   6.237   1.230  1.00  0.00    -0.376 OA
BRANCH  31  32
ATOM     32  C   UNL     1       4.515   5.525   0.777  1.00  0.00     0.202 C 
BRANCH  32  33
ATOM     33  C   UNL     1       4.293   4.148   0.138  1.00  0.00     0.261 C 
BRANCH  33  34
ATOM     34  O   UNL     1       3.576   3.188   0.926  1.00  0.00    -0.460 OA
BRANCH  34  35
ATOM     35  C   UNL     1       4.193   2.708   2.022  1.00  0.00     0.338 C 
ATOM     36  O   UNL     1       5.327   2.978   2.400  1.00  0.00    -0.246 OA
BRANCH  35  37
ATOM     37  C   UNL     1       3.212   1.930   2.802  1.00  0.00     0.060 A 
ATOM     38  C   UNL     1       2.842   2.392   4.072  1.00  0.00     0.016 A 
ATOM     39  C   UNL     1       2.664   0.750   2.292  1.00  0.00     0.016 A 
ATOM     40  C   UNL     1       1.939   1.663   4.846  1.00  0.00     0.010 A 
ATOM     41  C   UNL     1       1.773   0.011   3.078  1.00  0.00     0.010 A 
ATOM     42  C   UNL     1       1.426   0.451   4.368  1.00  0.00    -0.014 A 
BRANCH  42  43
ATOM     43  C   UNL     1       0.631  -0.425   5.263  1.00  0.00     0.031 A 
ATOM     44  C   UNL     1       1.309  -1.581   5.942  1.00  0.00     0.074 A 
ATOM     45  C   UNL     1      -0.681  -0.205   5.458  1.00  0.00     0.049 A 
ATOM     46  N   UNL     1       0.802  -2.506   6.714  1.00  0.00    -0.248 NA
ATOM     47  C   UNL     1       2.757  -1.712   5.716  1.00  0.00     0.031 C 
ATOM     48  C   UNL     1      -1.447   0.895   4.875  1.00  0.00     0.029 A 
ATOM     49  N   UNL     1      -1.605  -0.916   6.183  1.00  0.00    -0.354 N 
ATOM     50  C   UNL     1       1.857  -3.352   7.035  1.00  0.00     0.074 A 
ATOM     51  C   UNL     1       3.033  -2.829   6.372  1.00  0.00     0.031 C 
ATOM     52  C   UNL     1      -2.732   0.774   5.250  1.00  0.00     0.029 A 
ATOM     53  C   UNL     1      -2.886  -0.433   6.061  1.00  0.00     0.049 A 
ATOM     54  H   UNL     1      -1.372  -1.697   6.736  1.00  0.00     0.167 HD
ATOM     55  C   UNL     1       1.849  -4.461   7.814  1.00  0.00     0.034 A 
ATOM     56  C   UNL     1      -4.052  -0.927   6.522  1.00  0.00     0.034 A 
ATOM     57  C   UNL     1       0.678  -4.974   8.472  1.00  0.00     0.049 A 
ATOM     58  C   UNL     1      -4.048  -2.202   7.327  1.00  0.00     0.074 A 
ATOM     59  C   UNL     1       0.577  -6.056   9.329  1.00  0.00     0.029 A 
ATOM     60  N   UNL     1      -0.603  -4.463   8.323  1.00  0.00    -0.354 N 
ATOM     61  N   UNL     1      -3.029  -2.927   7.724  1.00  0.00    -0.248 NA
ATOM     62  C   UNL     1      -5.355  -2.720   7.760  1.00  0.00     0.031 C 
ATOM     63  C   UNL     1      -0.773  -6.229   9.656  1.00  0.00     0.029 A 
ATOM     64  C   UNL     1      -1.508  -5.230   9.037  1.00  0.00     0.049 A 
ATOM     65  H   UNL     1      -0.835  -3.670   7.787  1.00  0.00     0.167 HD
ATOM     66  C   UNL     1      -3.568  -3.971   8.470  1.00  0.00     0.074 A 
ATOM     67  C   UNL     1      -5.003  -3.771   8.489  1.00  0.00     0.031 C 
ATOM     68  C   UNL     1      -2.933  -5.008   9.073  1.00  0.00     0.034 A 
BRANCH  55  69
ATOM     69  C   UNL     1       3.154  -5.198   7.979  1.00  0.00     0.023 A 
ATOM     70  C   UNL     1       4.202  -4.622   8.726  1.00  0.00     0.012 A 
ATOM     71  C   UNL     1       3.337  -6.471   7.403  1.00  0.00     0.148 A 
ATOM     72  C   UNL     1       5.428  -5.276   8.852  1.00  0.00     0.002 A 
ATOM     73  C   UNL     1       4.545  -7.137   7.574  1.00  0.00     0.091 A 
ATOM     74  F   UNL     1       2.340  -6.995   6.677  1.00  0.00    -0.205 F 
ATOM     75  C   UNL     1       5.596  -6.535   8.284  1.00  0.00     0.022 A 
BRANCH  73  76
ATOM     76  S   UNL     1       4.829  -8.795   6.944  1.00  0.00     0.127 S 
ATOM     77  O   UNL     1       5.720  -8.533   5.814  1.00  0.00    -0.237 OA
ATOM     78  O   UNL     1       5.469  -9.453   8.084  1.00  0.00    -0.237 OA
ATOM     79  O   UNL     1       3.517  -9.322   6.599  1.00  0.00    -0.744 OA
ENDBRANCH  73  76
ENDBRANCH  55  69
BRANCH  56  80
ATOM     80  C   UNL     1      -5.323  -0.196   6.253  1.00  0.00     0.023 A 
ATOM     81  C   UNL     1      -5.989   0.439   7.319  1.00  0.00     0.012 A 
ATOM     82  C   UNL     1      -5.852  -0.093   4.951  1.00  0.00     0.148 A 
ATOM     83  C   UNL     1      -7.167   1.153   7.096  1.00  0.00     0.002 A 
ATOM     84  C   UNL     1      -6.996   0.663   4.728  1.00  0.00     0.091 A 
ATOM     85  F   UNL     1      -5.210  -0.719   3.955  1.00  0.00    -0.205 F 
ATOM     86  C   UNL     1      -7.663   1.275   5.801  1.00  0.00     0.022 A 
BRANCH  84  87
ATOM     87  S   UNL     1      -7.652   0.973   3.084  1.00  0.00     0.127 S 
ATOM     88  O   UNL     1      -8.977   0.361   3.170  1.00  0.00    -0.237 OA
ATOM     89  O   UNL     1      -7.652   2.435   3.035  1.00  0.00    -0.237 OA
ATOM     90  O   UNL     1      -6.730   0.332   2.157  1.00  0.00    -0.744 OA
ENDBRANCH  84  87
ENDBRANCH  56  80
BRANCH  68  91
ATOM     91  C   UNL     1      -3.777  -6.014   9.817  1.00  0.00     0.023 A 
ATOM     92  C   UNL     1      -4.582  -6.919   9.097  1.00  0.00     0.012 A 
ATOM     93  C   UNL     1      -3.708  -6.120  11.221  1.00  0.00     0.148 A 
ATOM     94  C   UNL     1      -5.324  -7.895   9.762  1.00  0.00     0.002 A 
ATOM     95  C   UNL     1      -4.411  -7.127  11.873  1.00  0.00     0.091 A 
ATOM     96  F   UNL     1      -2.946  -5.243  11.890  1.00  0.00    -0.205 F 
ATOM     97  C   UNL     1      -5.229  -8.007  11.147  1.00  0.00     0.022 A 
BRANCH  95  98
ATOM     98  S   UNL     1      -4.281  -7.412  13.643  1.00  0.00     0.127 S 
ATOM     99  O   UNL     1      -5.630  -7.078  14.099  1.00  0.00    -0.237 OA
ATOM    100  O   UNL     1      -3.954  -8.837  13.701  1.00  0.00    -0.237 OA
ATOM    101  O   UNL     1      -3.229  -6.526  14.120  1.00  0.00    -0.744 OA
ENDBRANCH  95  98
ENDBRANCH  68  91
ENDBRANCH  42  43
ENDBRANCH  35  37
ENDBRANCH  34  35
ENDBRANCH  33  34
ENDBRANCH  32  33
ENDBRANCH  31  32
ENDBRANCH  30  31
ENDBRANCH  29  30
ENDBRANCH  28  29
ENDBRANCH   1  28
TORSDOF 28
