REMARK SMILES Cn1c(SCC(=O)Nc2ccc(C(=O)OCCOCCOCCOCCOC(=O)c3ccc(-c4c5nc(c(-c6cccc(S(=O)(=O)[O-])c6F)c6ccc([nH]6)c(-c6cccc(S(=O)(=O)[O-])c6F)c6nc(c(-c7cccc(S(=O)(=O)[O-])c7F)c7ccc4[nH]7)C=C6)C=C5)cc3)cc2)nc2ccccc2c1=O
REMARK SMILES IDX 20 1 19 2 18 3 17 4 16 5 15 6 13 7 14 8 12 9 9 10 10 11
REMARK SMILES IDX 94 12 11 13 93 14 8 15 6 16 7 17 5 19 4 20 3 21 1 22 2 23
REMARK SMILES IDX 102 24 95 25 101 26 103 27 96 28 100 29 97 30 99 31 98 32
REMARK SMILES IDX 21 33 22 34 23 35 24 36 25 37 26 38 27 39 28 40 29 41 30 42
REMARK SMILES IDX 31 43 92 44 32 45 91 46 33 47 34 48 35 49 85 50 36 51 90 52
REMARK SMILES IDX 84 53 86 54 37 55 89 56 83 57 82 58 38 60 70 61 50 62 69 63
REMARK SMILES IDX 51 64 54 65 68 66 87 67 52 68 53 69 67 71 88 72 55 73 39 74
REMARK SMILES IDX 40 75 48 76 41 77 43 78 49 79 42 80 44 81 45 82 46 83 47 84
REMARK SMILES IDX 71 85 72 86 80 87 73 88 75 89 81 90 74 91 76 92 77 93 78 94
REMARK SMILES IDX 79 95 56 96 57 97 65 98 58 99 60 100 66 101 59 102 61 103
REMARK SMILES IDX 62 104 63 105 64 106
REMARK H PARENT 8 18 86 59 54 70
REMARK Flexibility Score: inf
ROOT
ATOM      1  C   UNL     1       3.953   3.523   6.572  1.00  0.00     0.188 C 
ENDROOT
BRANCH   1   2
ATOM      2  C   UNL     1       4.024   4.987   6.106  1.00  0.00     0.188 C 
BRANCH   2   3
ATOM      3  O   UNL     1       4.311   5.908   7.150  1.00  0.00    -0.376 OA
BRANCH   3   4
ATOM      4  C   UNL     1       3.275   6.810   7.518  1.00  0.00     0.202 C 
BRANCH   4   5
ATOM      5  C   UNL     1       2.071   6.206   8.258  1.00  0.00     0.261 C 
BRANCH   5   6
ATOM      6  O   UNL     1       1.438   5.113   7.579  1.00  0.00    -0.460 OA
BRANCH   6   7
ATOM      7  C   UNL     1       0.725   5.403   6.470  1.00  0.00     0.338 C 
ATOM      8  O   UNL     1       0.499   6.509   6.010  1.00  0.00    -0.246 OA
BRANCH   7   9
ATOM      9  C   UNL     1       0.489   4.129   5.748  1.00  0.00     0.060 A 
ATOM     10  C   UNL     1       0.386   1.719   4.327  1.00  0.00     0.041 A 
ATOM     11  C   UNL     1       0.658   2.913   3.661  1.00  0.00     0.027 A 
ATOM     12  C   UNL     1       0.115   1.738   5.700  1.00  0.00     0.027 A 
ATOM     13  C   UNL     1       0.694   4.118   4.365  1.00  0.00     0.018 A 
ATOM     14  C   UNL     1       0.194   2.937   6.418  1.00  0.00     0.018 A 
BRANCH  10  15
ATOM     15  N   UNL     1       0.285   0.498   3.653  1.00  0.00    -0.325 N 
ATOM     16  C   UNL     1       0.942   0.044   2.542  1.00  0.00     0.234 C 
ATOM     17  O   UNL     1       0.482  -0.945   1.966  1.00  0.00    -0.274 OA
ATOM     18  H   UNL     1      -0.361  -0.136   4.039  1.00  0.00     0.169 HD
BRANCH  16  19
ATOM     19  C   UNL     1       2.329   0.555   2.225  1.00  0.00     0.178 C 
BRANCH  19  20
ATOM     20  S   UNL     1       2.662   1.577   0.802  1.00  0.00    -0.078 SA
BRANCH  20  21
ATOM     21  C   UNL     1       1.228   1.845  -0.150  1.00  0.00     0.171 A 
ATOM     22  C   UNL     1       1.022  -0.576  -0.824  1.00  0.00     0.156 C 
ATOM     23  N   UNL     1       0.632   0.824  -0.864  1.00  0.00    -0.290 N 
ATOM     24  C   UNL     1      -0.422   1.097  -1.738  1.00  0.00     0.261 A 
ATOM     25  N   UNL     1       0.909   3.096  -0.278  1.00  0.00    -0.224 NA
ATOM     26  C   UNL     1      -0.695   2.513  -2.023  1.00  0.00     0.066 A 
ATOM     27  O   UNL     1      -1.085   0.236  -2.313  1.00  0.00    -0.269 OA
ATOM     28  C   UNL     1      -0.013   3.459  -1.268  1.00  0.00     0.079 A 
ATOM     29  C   UNL     1      -1.534   2.888  -3.082  1.00  0.00     0.016 A 
ATOM     30  C   UNL     1      -0.175   4.811  -1.595  1.00  0.00     0.029 A 
ATOM     31  C   UNL     1      -1.676   4.236  -3.406  1.00  0.00     0.001 A 
ATOM     32  C   UNL     1      -0.996   5.198  -2.662  1.00  0.00     0.002 A 
ENDBRANCH  20  21
ENDBRANCH  19  20
ENDBRANCH  16  19
ENDBRANCH  10  15
ENDBRANCH   7   9
ENDBRANCH   6   7
ENDBRANCH   5   6
ENDBRANCH   4   5
ENDBRANCH   3   4
ENDBRANCH   2   3
ENDBRANCH   1   2
BRANCH   1  33
ATOM     33  O   UNL     1       3.827   3.300   7.965  1.00  0.00    -0.377 OA
BRANCH  33  34
ATOM     34  C   UNL     1       4.861   3.748   8.841  1.00  0.00     0.188 C 
BRANCH  34  35
ATOM     35  C   UNL     1       6.237   4.242   8.335  1.00  0.00     0.188 C 
BRANCH  35  36
ATOM     36  O   UNL     1       6.619   3.755   7.054  1.00  0.00    -0.376 OA
BRANCH  36  37
ATOM     37  C   UNL     1       7.711   2.848   7.028  1.00  0.00     0.202 C 
BRANCH  37  38
ATOM     38  C   UNL     1       7.348   1.432   7.486  1.00  0.00     0.261 C 
BRANCH  38  39
ATOM     39  O   UNL     1       6.883   1.329   8.840  1.00  0.00    -0.460 OA
BRANCH  39  40
ATOM     40  C   UNL     1       7.732   1.703   9.825  1.00  0.00     0.338 C 
ATOM     41  O   UNL     1       8.878   2.098   9.695  1.00  0.00    -0.246 OA
BRANCH  40  42
ATOM     42  C   UNL     1       6.954   1.729  11.081  1.00  0.00     0.060 A 
ATOM     43  C   UNL     1       6.193   0.617  11.451  1.00  0.00     0.016 A 
ATOM     44  C   UNL     1       6.941   2.891  11.862  1.00  0.00     0.016 A 
ATOM     45  C   UNL     1       5.434   0.661  12.620  1.00  0.00     0.010 A 
ATOM     46  C   UNL     1       6.175   2.935  13.031  1.00  0.00     0.010 A 
ATOM     47  C   UNL     1       5.433   1.812  13.428  1.00  0.00    -0.014 A 
BRANCH  47  48
ATOM     48  C   UNL     1       4.821   1.747  14.777  1.00  0.00     0.031 A 
ATOM     49  C   UNL     1       3.485   2.346  15.089  1.00  0.00     0.074 A 
ATOM     50  C   UNL     1       5.521   1.119  15.742  1.00  0.00     0.049 A 
ATOM     51  N   UNL     1       2.792   2.255  16.195  1.00  0.00    -0.248 NA
ATOM     52  C   UNL     1       2.842   3.153  14.041  1.00  0.00     0.031 C 
ATOM     53  C   UNL     1       6.860   0.552  15.568  1.00  0.00     0.029 A 
ATOM     54  N   UNL     1       5.211   0.852  17.050  1.00  0.00    -0.354 N 
ATOM     55  C   UNL     1       1.635   2.992  15.987  1.00  0.00     0.074 A 
ATOM     56  C   UNL     1       1.725   3.540  14.649  1.00  0.00     0.031 C 
ATOM     57  C   UNL     1       7.252  -0.007  16.722  1.00  0.00     0.029 A 
ATOM     58  C   UNL     1       6.199   0.169  17.717  1.00  0.00     0.049 A 
ATOM     59  H   UNL     1       4.363   1.124  17.471  1.00  0.00     0.167 HD
ATOM     60  C   UNL     1       0.590   3.173  16.830  1.00  0.00     0.034 A 
ATOM     61  C   UNL     1       6.253  -0.280  18.985  1.00  0.00     0.034 A 
ATOM     62  C   UNL     1       0.502   2.611  18.153  1.00  0.00     0.049 A 
ATOM     63  C   UNL     1       5.072  -0.085  19.889  1.00  0.00     0.074 A 
ATOM     64  C   UNL     1      -0.558   2.677  19.042  1.00  0.00     0.029 A 
ATOM     65  N   UNL     1       1.509   1.901  18.787  1.00  0.00    -0.354 N 
ATOM     66  N   UNL     1       3.920   0.477  19.618  1.00  0.00    -0.248 NA
ATOM     67  C   UNL     1       5.182  -0.609  21.257  1.00  0.00     0.031 C 
ATOM     68  C   UNL     1      -0.185   2.023  20.220  1.00  0.00     0.029 A 
ATOM     69  C   UNL     1       1.102   1.536  20.059  1.00  0.00     0.049 A 
ATOM     70  H   UNL     1       2.385   1.687  18.391  1.00  0.00     0.167 HD
ATOM     71  C   UNL     1       3.160   0.361  20.775  1.00  0.00     0.074 A 
ATOM     72  C   UNL     1       3.977  -0.339  21.745  1.00  0.00     0.031 C 
ATOM     73  C   UNL     1       1.903   0.807  21.008  1.00  0.00     0.034 A 
BRANCH  60  74
ATOM     74  C   UNL     1      -0.595   3.959  16.340  1.00  0.00     0.023 A 
ATOM     75  C   UNL     1      -1.529   3.326  15.496  1.00  0.00     0.012 A 
ATOM     76  C   UNL     1      -0.862   5.255  16.824  1.00  0.00     0.148 A 
ATOM     77  C   UNL     1      -2.711   3.973  15.136  1.00  0.00     0.002 A 
ATOM     78  C   UNL     1      -2.054   5.884  16.481  1.00  0.00     0.091 A 
ATOM     79  F   UNL     1       0.044   5.837  17.622  1.00  0.00    -0.205 F 
ATOM     80  C   UNL     1      -2.977   5.245  15.636  1.00  0.00     0.022 A 
BRANCH  78  81
ATOM     81  S   UNL     1      -2.523   7.499  17.113  1.00  0.00     0.127 S 
ATOM     82  O   UNL     1      -2.524   8.302  15.890  1.00  0.00    -0.237 OA
ATOM     83  O   UNL     1      -3.849   7.237  17.671  1.00  0.00    -0.237 OA
ATOM     84  O   UNL     1      -1.506   7.862  18.090  1.00  0.00    -0.744 OA
ENDBRANCH  78  81
ENDBRANCH  60  74
BRANCH  61  85
ATOM     85  C   UNL     1       7.456  -1.030  19.428  1.00  0.00     0.023 A 
ATOM     86  C   UNL     1       7.394  -2.433  19.525  1.00  0.00     0.012 A 
ATOM     87  C   UNL     1       8.680  -0.371  19.651  1.00  0.00     0.148 A 
ATOM     88  C   UNL     1       8.535  -3.169  19.843  1.00  0.00     0.002 A 
ATOM     89  C   UNL     1       9.820  -1.113  19.929  1.00  0.00     0.091 A 
ATOM     90  F   UNL     1       8.706   0.965  19.546  1.00  0.00    -0.205 F 
ATOM     91  C   UNL     1       9.748  -2.511  20.034  1.00  0.00     0.022 A 
BRANCH  89  92
ATOM     92  S   UNL     1      11.447  -0.369  20.085  1.00  0.00     0.127 S 
ATOM     93  O   UNL     1      11.785  -0.681  21.471  1.00  0.00    -0.237 OA
ATOM     94  O   UNL     1      12.210  -1.110  19.081  1.00  0.00    -0.237 OA
ATOM     95  O   UNL     1      11.267   1.046  19.790  1.00  0.00    -0.744 OA
ENDBRANCH  89  92
ENDBRANCH  61  85
BRANCH  73  96
ATOM     96  C   UNL     1       1.306   0.565  22.367  1.00  0.00     0.023 A 
ATOM     97  C   UNL     1       1.679   1.396  23.441  1.00  0.00     0.012 A 
ATOM     98  C   UNL     1       0.288  -0.391  22.547  1.00  0.00     0.148 A 
ATOM     99  C   UNL     1       1.048   1.276  24.679  1.00  0.00     0.002 A 
ATOM    100  C   UNL     1      -0.360  -0.482  23.773  1.00  0.00     0.091 A 
ATOM    101  F   UNL     1      -0.042  -1.174  21.510  1.00  0.00    -0.205 F 
ATOM    102  C   UNL     1       0.022   0.348  24.841  1.00  0.00     0.022 A 
BRANCH 100 103
ATOM    103  S   UNL     1      -1.741  -1.594  24.062  1.00  0.00     0.127 S 
ATOM    104  O   UNL     1      -1.189  -2.500  25.068  1.00  0.00    -0.237 OA
ATOM    105  O   UNL     1      -2.771  -0.682  24.562  1.00  0.00    -0.237 OA
ATOM    106  O   UNL     1      -2.042  -2.209  22.777  1.00  0.00    -0.744 OA
ENDBRANCH 100 103
ENDBRANCH  73  96
ENDBRANCH  47  48
ENDBRANCH  40  42
ENDBRANCH  39  40
ENDBRANCH  38  39
ENDBRANCH  37  38
ENDBRANCH  36  37
ENDBRANCH  35  36
ENDBRANCH  34  35
ENDBRANCH  33  34
ENDBRANCH   1  33
TORSDOF 27
