REMARK SMILES O=C(C[C@H](NC(=O)[C@]12C[C@H]3C[C@H](C[C@H](C3)C1)C2)c1ccc(Cl)cc1Cl)OCCOCCOCCOCCOC(=O)c1ccc(-c2c3nc(c(-c4cccc(S(=O)(=O)[O-])c4F)c4ccc([nH]4)c(-c4cccc(S(=O)(=O)[O-])c4F)c4nc(c(-c5cccc(S(=O)(=O)[O-])c5F)c5ccc2[nH]5)C=C4)C=C3)cc1
REMARK SMILES IDX 32 1 31 2 30 3 29 4 28 5 27 6 26 7 2 8 1 9 3 10 4 11 18 12
REMARK SMILES IDX 19 13 24 14 20 15 23 16 25 17 21 18 22 19 5 20 6 21 7 23
REMARK SMILES IDX 8 24 9 25 16 26 17 27 10 28 14 29 12 30 11 31 15 32 13 33
REMARK SMILES IDX 33 34 34 35 35 36 36 37 37 38 38 39 39 40 40 41 41 42 42 43
REMARK SMILES IDX 103 44 43 45 102 46 44 47 45 48 46 49 96 50 47 51 101 52
REMARK SMILES IDX 95 53 97 54 48 55 100 56 94 57 93 58 49 60 81 61 61 62 80 63
REMARK SMILES IDX 62 64 65 65 79 66 98 67 63 68 64 69 78 71 99 72 66 73 50 74
REMARK SMILES IDX 51 75 59 76 52 77 54 78 60 79 53 80 55 81 56 82 57 83 58 84
REMARK SMILES IDX 82 85 83 86 91 87 84 88 86 89 92 90 85 91 87 92 88 93 89 94
REMARK SMILES IDX 90 95 67 96 68 97 76 98 69 99 71 100 77 101 70 102 72 103
REMARK SMILES IDX 73 104 74 105 75 106
REMARK H PARENT 5 22 97 59 65 70
REMARK Flexibility Score: inf
ROOT
ATOM      1  O   UNL     1       5.895  -2.138  -5.088  1.00  0.00    -0.377 OA
ENDROOT
BRANCH   1   2
ATOM      2  C   UNL     1       5.470  -1.407  -3.961  1.00  0.00     0.188 C 
BRANCH   2   3
ATOM      3  C   UNL     1       5.517  -1.973  -2.527  1.00  0.00     0.188 C 
BRANCH   3   4
ATOM      4  O   UNL     1       5.304  -3.304  -2.095  1.00  0.00    -0.376 OA
BRANCH   4   5
ATOM      5  C   UNL     1       4.135  -4.088  -2.191  1.00  0.00     0.202 C 
BRANCH   5   6
ATOM      6  C   UNL     1       2.721  -3.508  -2.228  1.00  0.00     0.261 C 
BRANCH   6   7
ATOM      7  O   UNL     1       2.606  -2.086  -2.261  1.00  0.00    -0.463 OA
BRANCH   7   8
ATOM      8  C   UNL     1       2.387  -1.445  -1.080  1.00  0.00     0.308 C 
ATOM      9  O   UNL     1       1.512  -0.600  -0.958  1.00  0.00    -0.252 OA
BRANCH   8  10
ATOM     10  C   UNL     1       3.444  -1.704  -0.038  1.00  0.00     0.152 C 
BRANCH  10  11
ATOM     11  C   UNL     1       3.018  -1.410   1.375  1.00  0.00     0.125 C 
BRANCH  11  12
ATOM     12  C   UNL     1       3.892  -2.276   2.295  1.00  0.00    -0.006 A 
ATOM     13  C   UNL     1       4.990  -1.731   2.974  1.00  0.00     0.009 A 
ATOM     14  C   UNL     1       3.732  -3.685   2.335  1.00  0.00     0.047 A 
ATOM     15  C   UNL     1       5.932  -2.554   3.599  1.00  0.00     0.021 A 
ATOM     16  C   UNL     1       4.683  -4.509   2.944  1.00  0.00     0.041 A 
ATOM     17  Cl  UNL     1       2.382  -4.486   1.599  1.00  0.00    -0.084 Cl
ATOM     18  C   UNL     1       5.786  -3.937   3.562  1.00  0.00     0.042 A 
ATOM     19  Cl  UNL     1       6.979  -4.946   4.282  1.00  0.00    -0.084 Cl
ENDBRANCH  11  12
BRANCH  11  20
ATOM     20  N   UNL     1       2.951   0.018   1.744  1.00  0.00    -0.348 N 
ATOM     21  C   UNL     1       3.478   1.237   1.491  1.00  0.00     0.226 C 
ATOM     22  H   UNL     1       2.260   0.122   2.438  1.00  0.00     0.164 HD
ATOM     23  O   UNL     1       2.949   2.112   2.200  1.00  0.00    -0.274 OA
BRANCH  21  24
ATOM     24  C   UNL     1       4.621   1.662   0.513  1.00  0.00     0.050 C 
ATOM     25  C   UNL     1       5.959   0.953   0.815  1.00  0.00     0.020 C 
ATOM     26  C   UNL     1       4.872   3.200   0.752  1.00  0.00     0.020 C 
ATOM     27  C   UNL     1       4.279   1.557  -0.992  1.00  0.00     0.020 C 
ATOM     28  C   UNL     1       7.104   1.504  -0.058  1.00  0.00    -0.010 C 
ATOM     29  C   UNL     1       6.010   3.757  -0.120  1.00  0.00    -0.010 C 
ATOM     30  C   UNL     1       5.444   2.066  -1.874  1.00  0.00    -0.010 C 
ATOM     31  C   UNL     1       6.747   1.324  -1.537  1.00  0.00     0.007 C 
ATOM     32  C   UNL     1       7.301   2.999   0.216  1.00  0.00     0.007 C 
ATOM     33  C   UNL     1       5.663   3.558  -1.603  1.00  0.00     0.007 C 
ENDBRANCH  21  24
ENDBRANCH  11  20
ENDBRANCH  10  11
ENDBRANCH   8  10
ENDBRANCH   7   8
ENDBRANCH   6   7
ENDBRANCH   5   6
ENDBRANCH   4   5
ENDBRANCH   3   4
ENDBRANCH   2   3
ENDBRANCH   1   2
BRANCH   1  34
ATOM     34  C   UNL     1       5.785  -3.532  -4.951  1.00  0.00     0.188 C 
BRANCH  34  35
ATOM     35  C   UNL     1       7.019  -4.150  -4.270  1.00  0.00     0.188 C 
BRANCH  35  36
ATOM     36  O   UNL     1       7.807  -3.176  -3.583  1.00  0.00    -0.376 OA
BRANCH  36  37
ATOM     37  C   UNL     1       9.067  -2.857  -4.160  1.00  0.00     0.202 C 
BRANCH  37  38
ATOM     38  C   UNL     1       9.085  -2.085  -5.490  1.00  0.00     0.261 C 
BRANCH  38  39
ATOM     39  O   UNL     1       8.263  -2.594  -6.547  1.00  0.00    -0.460 OA
BRANCH  39  40
ATOM     40  C   UNL     1       8.542  -3.800  -7.082  1.00  0.00     0.338 C 
ATOM     41  O   UNL     1       9.485  -4.523  -6.809  1.00  0.00    -0.246 OA
BRANCH  40  42
ATOM     42  C   UNL     1       7.337  -4.199  -7.851  1.00  0.00     0.060 A 
ATOM     43  C   UNL     1       6.727  -5.432  -7.561  1.00  0.00     0.016 A 
ATOM     44  C   UNL     1       6.721  -3.294  -8.722  1.00  0.00     0.016 A 
ATOM     45  C   UNL     1       5.482  -5.743  -8.116  1.00  0.00     0.010 A 
ATOM     46  C   UNL     1       5.509  -3.632  -9.324  1.00  0.00     0.010 A 
ATOM     47  C   UNL     1       4.896  -4.864  -9.038  1.00  0.00    -0.014 A 
BRANCH  47  48
ATOM     48  C   UNL     1       3.857  -5.361  -9.968  1.00  0.00     0.031 A 
ATOM     49  C   UNL     1       4.358  -6.084 -11.187  1.00  0.00     0.074 A 
ATOM     50  C   UNL     1       2.549  -5.098  -9.810  1.00  0.00     0.049 A 
ATOM     51  N   UNL     1       3.704  -6.505 -12.233  1.00  0.00    -0.248 NA
ATOM     52  C   UNL     1       5.808  -6.351 -11.233  1.00  0.00     0.031 C 
ATOM     53  C   UNL     1       1.953  -4.396  -8.676  1.00  0.00     0.029 A 
ATOM     54  N   UNL     1       1.490  -5.351 -10.648  1.00  0.00    -0.354 N 
ATOM     55  C   UNL     1       4.666  -7.047 -13.075  1.00  0.00     0.074 A 
ATOM     56  C   UNL     1       5.944  -6.913 -12.419  1.00  0.00     0.031 C 
ATOM     57  C   UNL     1       0.639  -4.223  -8.916  1.00  0.00     0.029 A 
ATOM     58  C   UNL     1       0.314  -4.772 -10.233  1.00  0.00     0.049 A 
ATOM     59  H   UNL     1       1.566  -5.895 -11.465  1.00  0.00     0.167 HD
ATOM     60  C   UNL     1       4.506  -7.601 -14.297  1.00  0.00     0.034 A 
ATOM     61  C   UNL     1      -0.871  -4.660 -10.869  1.00  0.00     0.034 A 
ATOM     62  C   UNL     1       3.242  -7.704 -14.960  1.00  0.00     0.049 A 
ATOM     63  C   UNL     1      -1.031  -5.267 -12.241  1.00  0.00     0.074 A 
ATOM     64  C   UNL     1       2.955  -8.288 -16.178  1.00  0.00     0.029 A 
ATOM     65  N   UNL     1       2.056  -7.176 -14.472  1.00  0.00    -0.354 N 
ATOM     66  N   UNL     1      -0.144  -5.904 -12.970  1.00  0.00    -0.248 NA
ATOM     67  C   UNL     1      -2.357  -5.167 -12.869  1.00  0.00     0.031 C 
ATOM     68  C   UNL     1       1.598  -8.082 -16.444  1.00  0.00     0.029 A 
ATOM     69  C   UNL     1       1.034  -7.406 -15.372  1.00  0.00     0.049 A 
ATOM     70  H   UNL     1       1.958  -6.707 -13.612  1.00  0.00     0.167 HD
ATOM     71  C   UNL     1      -0.811  -6.309 -14.122  1.00  0.00     0.074 A 
ATOM     72  C   UNL     1      -2.180  -5.853 -13.992  1.00  0.00     0.031 C 
ATOM     73  C   UNL     1      -0.335  -6.991 -15.194  1.00  0.00     0.034 A 
BRANCH  60  74
ATOM     74  C   UNL     1       5.745  -8.110 -14.980  1.00  0.00     0.023 A 
ATOM     75  C   UNL     1       6.396  -9.260 -14.487  1.00  0.00     0.012 A 
ATOM     76  C   UNL     1       6.277  -7.435 -16.093  1.00  0.00     0.148 A 
ATOM     77  C   UNL     1       7.585  -9.702 -15.064  1.00  0.00     0.002 A 
ATOM     78  C   UNL     1       7.435  -7.912 -16.694  1.00  0.00     0.091 A 
ATOM     79  F   UNL     1       5.667  -6.320 -16.520  1.00  0.00    -0.205 F 
ATOM     80  C   UNL     1       8.098  -9.034 -16.173  1.00  0.00     0.022 A 
BRANCH  78  81
ATOM     81  S   UNL     1       8.124  -7.162 -18.172  1.00  0.00     0.127 S 
ATOM     82  O   UNL     1       9.278  -6.446 -17.630  1.00  0.00    -0.237 OA
ATOM     83  O   UNL     1       8.460  -8.333 -18.984  1.00  0.00    -0.237 OA
ATOM     84  O   UNL     1       7.067  -6.328 -18.725  1.00  0.00    -0.744 OA
ENDBRANCH  78  81
ENDBRANCH  60  74
BRANCH  61  85
ATOM     85  C   UNL     1      -2.000  -3.945 -10.208  1.00  0.00     0.023 A 
ATOM     86  C   UNL     1      -3.109  -4.673  -9.736  1.00  0.00     0.012 A 
ATOM     87  C   UNL     1      -1.960  -2.550 -10.007  1.00  0.00     0.148 A 
ATOM     88  C   UNL     1      -4.164  -4.025  -9.090  1.00  0.00     0.002 A 
ATOM     89  C   UNL     1      -2.988  -1.919  -9.317  1.00  0.00     0.091 A 
ATOM     90  F   UNL     1      -0.903  -1.874 -10.478  1.00  0.00    -0.205 F 
ATOM     91  C   UNL     1      -4.098  -2.652  -8.870  1.00  0.00     0.022 A 
BRANCH  89  92
ATOM     92  S   UNL     1      -2.936  -0.177  -8.879  1.00  0.00     0.127 S 
ATOM     93  O   UNL     1      -4.067   0.356  -9.635  1.00  0.00    -0.237 OA
ATOM     94  O   UNL     1      -3.132  -0.231  -7.431  1.00  0.00    -0.237 OA
ATOM     95  O   UNL     1      -1.624   0.297  -9.296  1.00  0.00    -0.744 OA
ENDBRANCH  89  92
ENDBRANCH  61  85
BRANCH  73  96
ATOM     96  C   UNL     1      -1.295  -7.346 -16.298  1.00  0.00     0.023 A 
ATOM     97  C   UNL     1      -1.729  -6.358 -17.202  1.00  0.00     0.012 A 
ATOM     98  C   UNL     1      -1.655  -8.692 -16.515  1.00  0.00     0.148 A 
ATOM     99  C   UNL     1      -2.521  -6.703 -18.297  1.00  0.00     0.002 A 
ATOM    100  C   UNL     1      -2.400  -9.035 -17.635  1.00  0.00     0.091 A 
ATOM    101  F   UNL     1      -1.240  -9.613 -15.632  1.00  0.00    -0.205 F 
ATOM    102  C   UNL     1      -2.843  -8.041 -18.522  1.00  0.00     0.022 A 
BRANCH 100 103
ATOM    103  S   UNL     1      -2.768 -10.741 -18.061  1.00  0.00     0.127 S 
ATOM    104  O   UNL     1      -4.207 -10.806 -17.813  1.00  0.00    -0.237 OA
ATOM    105  O   UNL     1      -2.389 -10.796 -19.473  1.00  0.00    -0.237 OA
ATOM    106  O   UNL     1      -1.947 -11.563 -17.182  1.00  0.00    -0.744 OA
ENDBRANCH 100 103
ENDBRANCH  73  96
ENDBRANCH  47  48
ENDBRANCH  40  42
ENDBRANCH  39  40
ENDBRANCH  38  39
ENDBRANCH  37  38
ENDBRANCH  36  37
ENDBRANCH  35  36
ENDBRANCH  34  35
ENDBRANCH   1  34
TORSDOF 27
