REMARK SMILES Cc1ccc(-c2cc3cccnc3n2CCC(=O)OCCOCCOCCOCCOC(=O)c2ccc(-c3c4nc(c(-c5cccc(S(=O)(=O)[O-])c5F)c5ccc([nH]5)c(-c5cccc(S(=O)(=O)[O-])c5F)c5nc(c(-c6cccc(S(=O)(=O)[O-])c6F)c6ccc3[nH]6)C=C5)C=C4)cc2)cn1
REMARK SMILES IDX 25 1 24 2 23 3 22 4 21 5 20 6 19 7 17 8 18 9 16 10 15 11
REMARK SMILES IDX 14 12 6 13 7 14 8 15 13 16 9 17 12 18 10 19 11 20 5 21 1 22
REMARK SMILES IDX 2 23 3 24 98 25 4 26 97 27 26 28 27 29 28 30 29 31 30 32
REMARK SMILES IDX 31 33 32 34 33 35 34 36 35 37 96 38 36 39 95 40 37 41 38 42
REMARK SMILES IDX 39 43 89 44 40 45 94 46 88 47 90 48 41 49 93 50 87 51 86 52
REMARK SMILES IDX 42 54 74 55 54 56 73 57 55 58 58 59 72 60 91 61 56 62 57 63
REMARK SMILES IDX 71 65 92 66 59 67 43 68 44 69 52 70 45 71 47 72 53 73 46 74
REMARK SMILES IDX 48 75 49 76 50 77 51 78 75 79 76 80 84 81 77 82 79 83 85 84
REMARK SMILES IDX 78 85 80 86 81 87 82 88 83 89 60 90 61 91 69 92 62 93 64 94
REMARK SMILES IDX 70 95 63 96 65 97 66 98 67 99 68 100
REMARK H PARENT 90 53 58 64
REMARK Flexibility Score: inf
ROOT
ATOM      1  O   UNL     1      -0.620   2.087   1.844  1.00  0.00    -0.377 OA
ENDROOT
BRANCH   1   2
ATOM      2  C   UNL     1      -1.078   0.786   2.171  1.00  0.00     0.188 C 
BRANCH   2   3
ATOM      3  C   UNL     1      -0.228  -0.376   1.661  1.00  0.00     0.188 C 
BRANCH   3   4
ATOM      4  O   UNL     1      -0.203  -0.366   0.107  1.00  0.00    -0.376 OA
BRANCH   4   5
ATOM      5  C   UNL     1      -0.531  -1.364  -1.589  1.00  0.00     0.202 C 
BRANCH   5   6
ATOM      6  C   UNL     1      -1.780  -2.502  -2.060  1.00  0.00     0.261 C 
BRANCH   6   7
ATOM      7  O   UNL     1      -3.049  -2.634  -1.351  1.00  0.00    -0.463 OA
BRANCH   7   8
ATOM      8  C   UNL     1      -3.247  -3.690  -0.524  1.00  0.00     0.307 C 
ATOM      9  O   UNL     1      -2.678  -4.770  -0.658  1.00  0.00    -0.252 OA
BRANCH   8  10
ATOM     10  C   UNL     1      -4.145  -3.403   0.689  1.00  0.00     0.144 C 
BRANCH  10  11
ATOM     11  C   UNL     1      -4.238  -2.007   1.326  1.00  0.00     0.136 C 
BRANCH  11  12
ATOM     12  N   UNL     1      -4.477  -0.910   0.421  1.00  0.00    -0.325 N 
ATOM     13  C   UNL     1      -3.508  -0.257  -0.306  1.00  0.00     0.052 A 
ATOM     14  C   UNL     1      -4.178   0.622  -1.146  1.00  0.00     0.039 A 
ATOM     15  C   UNL     1      -5.549   0.596  -0.831  1.00  0.00     0.020 A 
ATOM     16  C   UNL     1      -5.707  -0.334   0.190  1.00  0.00     0.140 A 
ATOM     17  C   UNL     1      -6.680   1.275  -1.304  1.00  0.00     0.013 A 
ATOM     18  N   UNL     1      -6.859  -0.635   0.824  1.00  0.00    -0.238 NA
ATOM     19  C   UNL     1      -7.886   1.022  -0.662  1.00  0.00     0.021 A 
ATOM     20  C   UNL     1      -7.910   0.101   0.379  1.00  0.00     0.113 A 
BRANCH  13  21
ATOM     21  C   UNL     1      -2.063  -0.523  -0.319  1.00  0.00     0.017 A 
ATOM     22  C   UNL     1       2.936  -0.546  -0.515  1.00  0.00     0.066 C 
ATOM     23  C   UNL     1       1.470  -0.770  -0.726  1.00  0.00     0.037 A 
ATOM     24  C   UNL     1       0.630  -2.132   0.086  1.00  0.00     0.024 A 
ATOM     25  N   UNL     1       0.622   0.609  -1.361  1.00  0.00    -0.261 NA
ATOM     26  C   UNL     1      -1.173  -2.015   0.295  1.00  0.00     0.014 A 
ATOM     27  C   UNL     1      -1.101   0.744  -1.128  1.00  0.00     0.121 A 
ENDBRANCH  13  21
ENDBRANCH  11  12
ENDBRANCH  10  11
ENDBRANCH   8  10
ENDBRANCH   7   8
ENDBRANCH   6   7
ENDBRANCH   5   6
ENDBRANCH   4   5
ENDBRANCH   3   4
ENDBRANCH   2   3
ENDBRANCH   1   2
BRANCH   1  28
ATOM     28  C   UNL     1       0.689   2.255   1.327  1.00  0.00     0.188 C 
BRANCH  28  29
ATOM     29  C   UNL     1       1.734   2.897   2.241  1.00  0.00     0.188 C 
BRANCH  29  30
ATOM     30  O   UNL     1       1.899   2.491   3.593  1.00  0.00    -0.376 OA
BRANCH  30  31
ATOM     31  C   UNL     1       0.798   2.322   4.475  1.00  0.00     0.202 C 
BRANCH  31  32
ATOM     32  C   UNL     1      -0.204   3.448   4.766  1.00  0.00     0.261 C 
BRANCH  32  33
ATOM     33  O   UNL     1      -0.945   3.836   3.621  1.00  0.00    -0.460 OA
BRANCH  33  34
ATOM     34  C   UNL     1      -0.381   4.852   2.937  1.00  0.00     0.338 C 
ATOM     35  O   UNL     1       0.554   5.542   3.318  1.00  0.00    -0.246 OA
BRANCH  34  36
ATOM     36  C   UNL     1      -1.047   4.994   1.596  1.00  0.00     0.060 A 
ATOM     37  C   UNL     1      -0.359   5.937   0.831  1.00  0.00     0.016 A 
ATOM     38  C   UNL     1      -2.427   5.096   1.765  1.00  0.00     0.016 A 
ATOM     39  C   UNL     1      -0.827   7.221   0.926  1.00  0.00     0.010 A 
ATOM     40  C   UNL     1      -2.905   6.371   1.905  1.00  0.00     0.010 A 
ATOM     41  C   UNL     1      -2.035   7.418   1.605  1.00  0.00    -0.014 A 
BRANCH  41  42
ATOM     42  C   UNL     1      -2.407   8.773   1.904  1.00  0.00     0.031 A 
ATOM     43  C   UNL     1      -2.966   9.433   0.714  1.00  0.00     0.074 A 
ATOM     44  C   UNL     1      -2.277   9.316   3.127  1.00  0.00     0.049 A 
ATOM     45  N   UNL     1      -2.379  10.298  -0.042  1.00  0.00    -0.248 NA
ATOM     46  C   UNL     1      -4.213   8.879   0.162  1.00  0.00     0.031 C 
ATOM     47  C   UNL     1      -1.980   8.658   4.401  1.00  0.00     0.029 A 
ATOM     48  N   UNL     1      -2.520  10.599   3.497  1.00  0.00    -0.354 N 
ATOM     49  C   UNL     1      -3.311  10.580  -1.029  1.00  0.00     0.074 A 
ATOM     50  C   UNL     1      -4.286   9.522  -1.001  1.00  0.00     0.031 C 
ATOM     51  C   UNL     1      -2.324   9.490   5.415  1.00  0.00     0.029 A 
ATOM     52  C   UNL     1      -2.736  10.769   4.860  1.00  0.00     0.049 A 
ATOM     53  H   UNL     1      -2.541  11.345   2.856  1.00  0.00     0.167 HD
ATOM     54  C   UNL     1      -3.398  11.820  -1.573  1.00  0.00     0.034 A 
ATOM     55  C   UNL     1      -3.317  11.856   5.430  1.00  0.00     0.034 A 
ATOM     56  C   UNL     1      -2.229  12.613  -1.313  1.00  0.00     0.049 A 
ATOM     57  C   UNL     1      -3.193  12.963   4.445  1.00  0.00     0.074 A 
ATOM     58  C   UNL     1      -0.885  12.485  -1.599  1.00  0.00     0.029 A 
ATOM     59  N   UNL     1      -2.322  13.525  -0.290  1.00  0.00    -0.354 N 
ATOM     60  N   UNL     1      -2.057  13.489   4.082  1.00  0.00    -0.248 NA
ATOM     61  C   UNL     1      -4.307  13.190   3.535  1.00  0.00     0.031 C 
ATOM     62  C   UNL     1      -0.213  12.983  -0.446  1.00  0.00     0.029 A 
ATOM     63  C   UNL     1      -1.178  13.433   0.458  1.00  0.00     0.049 A 
ATOM     64  H   UNL     1      -3.075  14.136  -0.125  1.00  0.00     0.167 HD
ATOM     65  C   UNL     1      -2.199  13.717   2.719  1.00  0.00     0.074 A 
ATOM     66  C   UNL     1      -3.634  13.611   2.461  1.00  0.00     0.031 C 
ATOM     67  C   UNL     1      -1.123  13.674   1.883  1.00  0.00     0.034 A 
BRANCH  54  68
ATOM     68  C   UNL     1      -4.708  12.425  -1.981  1.00  0.00     0.023 A 
ATOM     69  C   UNL     1      -4.683  13.540  -2.836  1.00  0.00     0.012 A 
ATOM     70  C   UNL     1      -5.942  12.098  -1.370  1.00  0.00     0.148 A 
ATOM     71  C   UNL     1      -5.838  14.290  -3.077  1.00  0.00     0.002 A 
ATOM     72  C   UNL     1      -7.104  12.783  -1.687  1.00  0.00     0.091 A 
ATOM     73  F   UNL     1      -5.978  11.213  -0.366  1.00  0.00    -0.205 F 
ATOM     74  C   UNL     1      -7.053  13.898  -2.522  1.00  0.00     0.022 A 
BRANCH  72  75
ATOM     75  S   UNL     1      -8.695  12.268  -1.035  1.00  0.00     0.127 S 
ATOM     76  O   UNL     1      -8.930  13.275  -0.006  1.00  0.00    -0.237 OA
ATOM     77  O   UNL     1      -9.551  12.373  -2.217  1.00  0.00    -0.237 OA
ATOM     78  O   UNL     1      -8.496  10.901  -0.567  1.00  0.00    -0.744 OA
ENDBRANCH  72  75
ENDBRANCH  54  68
BRANCH  55  79
ATOM     79  C   UNL     1      -4.261  11.952   6.577  1.00  0.00     0.023 A 
ATOM     80  C   UNL     1      -4.613  13.233   7.058  1.00  0.00     0.012 A 
ATOM     81  C   UNL     1      -5.050  10.857   6.995  1.00  0.00     0.148 A 
ATOM     82  C   UNL     1      -5.746  13.427   7.859  1.00  0.00     0.002 A 
ATOM     83  C   UNL     1      -6.169  11.053   7.803  1.00  0.00     0.091 A 
ATOM     84  F   UNL     1      -4.771   9.635   6.527  1.00  0.00    -0.205 F 
ATOM     85  C   UNL     1      -6.533  12.339   8.219  1.00  0.00     0.022 A 
BRANCH  83  86
ATOM     86  S   UNL     1      -7.236   9.692   8.303  1.00  0.00     0.127 S 
ATOM     87  O   UNL     1      -7.466   9.986   9.718  1.00  0.00    -0.237 OA
ATOM     88  O   UNL     1      -8.399   9.885   7.442  1.00  0.00    -0.237 OA
ATOM     89  O   UNL     1      -6.465   8.478   8.066  1.00  0.00    -0.744 OA
ENDBRANCH  83  86
ENDBRANCH  55  79
BRANCH  67  90
ATOM     90  C   UNL     1       0.251  13.629   2.500  1.00  0.00     0.023 A 
ATOM     91  C   UNL     1       0.742  12.483   3.163  1.00  0.00     0.012 A 
ATOM     92  C   UNL     1       1.130  14.684   2.214  1.00  0.00     0.148 A 
ATOM     93  C   UNL     1       2.089  12.396   3.528  1.00  0.00     0.002 A 
ATOM     94  C   UNL     1       2.474  14.578   2.543  1.00  0.00     0.091 A 
ATOM     95  F   UNL     1       0.638  15.755   1.573  1.00  0.00    -0.205 F 
ATOM     96  C   UNL     1       2.958  13.437   3.204  1.00  0.00     0.022 A 
BRANCH  94  97
ATOM     97  S   UNL     1       3.666  15.826   2.055  1.00  0.00     0.127 S 
ATOM     98  O   UNL     1       4.076  16.380   3.344  1.00  0.00    -0.237 OA
ATOM     99  O   UNL     1       4.690  15.030   1.377  1.00  0.00    -0.237 OA
ATOM    100  O   UNL     1       2.953  16.752   1.183  1.00  0.00    -0.744 OA
ENDBRANCH  94  97
ENDBRANCH  67  90
ENDBRANCH  41  42
ENDBRANCH  34  36
ENDBRANCH  33  34
ENDBRANCH  32  33
ENDBRANCH  31  32
ENDBRANCH  30  31
ENDBRANCH  29  30
ENDBRANCH  28  29
ENDBRANCH   1  28
TORSDOF 26
