REMARK SMILES O=C(OCCOCCOCCOCCOC(=O)c1cc(-c2ccc[nH]c2=O)ccc1Cl)c1ccc(-c2c3nc(c(-c4cccc(S(=O)(=O)[O-])c4F)c4ccc([nH]4)c(-c4cccc(S(=O)(=O)[O-])c4F)c4nc(c(-c5cccc(S(=O)(=O)[O-])c5F)c5ccc2[nH]5)C=C4)C=C3)cc1
REMARK SMILES IDX 8 1 7 2 6 3 5 4 4 5 3 6 2 7 1 8 32 9 33 10 94 11 34 12 93 13
REMARK SMILES IDX 35 14 36 15 37 16 87 17 38 18 92 19 86 20 88 21 39 22 91 23
REMARK SMILES IDX 85 24 84 25 40 27 72 28 52 29 71 30 53 31 56 32 70 33 89 34
REMARK SMILES IDX 54 35 55 36 69 38 90 39 57 40 41 41 42 42 50 43 43 44 45 45
REMARK SMILES IDX 51 46 44 47 46 48 47 49 48 50 49 51 73 52 74 53 82 54 75 55
REMARK SMILES IDX 77 56 83 57 76 58 78 59 79 60 80 61 81 62 58 63 59 64 67 65
REMARK SMILES IDX 60 66 62 67 68 68 61 69 63 70 64 71 65 72 66 73 9 74 10 75
REMARK SMILES IDX 11 76 12 77 13 78 14 79 15 80 16 81 17 82 18 83 19 84 30 85
REMARK SMILES IDX 20 86 29 87 31 88 28 89 21 90 22 91 26 92 23 93 25 94 27 95
REMARK SMILES IDX 24 96
REMARK H PARENT 88 26 56 37 25 97
REMARK Flexibility Score: inf
ROOT
ATOM      1  C   UNL     1       1.783   0.436  -2.695  1.00  0.00     0.188 C 
ENDROOT
BRANCH   1   2
ATOM      2  C   UNL     1       2.254  -0.420  -1.522  1.00  0.00     0.188 C 
BRANCH   2   3
ATOM      3  O   UNL     1       3.591  -0.090  -1.159  1.00  0.00    -0.376 OA
BRANCH   3   4
ATOM      4  C   UNL     1       4.395  -1.104  -0.570  1.00  0.00     0.202 C 
BRANCH   4   5
ATOM      5  C   UNL     1       3.898  -1.718   0.744  1.00  0.00     0.261 C 
BRANCH   5   6
ATOM      6  O   UNL     1       2.507  -1.496   1.027  1.00  0.00    -0.460 OA
BRANCH   6   7
ATOM      7  C   UNL     1       1.935  -0.496   1.745  1.00  0.00     0.338 C 
ATOM      8  O   UNL     1       0.746  -0.593   2.040  1.00  0.00    -0.246 OA
BRANCH   7   9
ATOM      9  C   UNL     1       2.678   0.714   2.198  1.00  0.00     0.060 A 
ATOM     10  C   UNL     1       3.734   1.302   1.507  1.00  0.00     0.016 A 
ATOM     11  C   UNL     1       2.232   1.349   3.365  1.00  0.00     0.016 A 
ATOM     12  C   UNL     1       4.458   2.358   2.032  1.00  0.00     0.010 A 
ATOM     13  C   UNL     1       2.906   2.466   3.870  1.00  0.00     0.010 A 
ATOM     14  C   UNL     1       4.074   2.918   3.242  1.00  0.00    -0.014 A 
BRANCH  14  15
ATOM     15  C   UNL     1       5.043   3.792   3.932  1.00  0.00     0.031 A 
ATOM     16  C   UNL     1       5.715   3.239   5.158  1.00  0.00     0.074 A 
ATOM     17  C   UNL     1       5.414   4.969   3.397  1.00  0.00     0.049 A 
ATOM     18  N   UNL     1       6.539   3.818   5.984  1.00  0.00    -0.248 NA
ATOM     19  C   UNL     1       5.414   1.835   5.500  1.00  0.00     0.031 C 
ATOM     20  C   UNL     1       4.906   5.526   2.141  1.00  0.00     0.029 A 
ATOM     21  N   UNL     1       6.323   5.897   3.828  1.00  0.00    -0.354 N 
ATOM     22  C   UNL     1       6.776   2.886   6.987  1.00  0.00     0.074 A 
ATOM     23  C   UNL     1       6.032   1.694   6.659  1.00  0.00     0.031 C 
ATOM     24  C   UNL     1       5.530   6.689   1.891  1.00  0.00     0.029 A 
ATOM     25  C   UNL     1       6.422   6.993   3.004  1.00  0.00     0.049 A 
ATOM     26  H   UNL     1       6.856   5.789   4.649  1.00  0.00     0.167 HD
ATOM     27  C   UNL     1       7.547   3.020   8.089  1.00  0.00     0.034 A 
ATOM     28  C   UNL     1       7.134   8.126   3.159  1.00  0.00     0.034 A 
ATOM     29  C   UNL     1       8.322   4.196   8.356  1.00  0.00     0.049 A 
ATOM     30  C   UNL     1       7.978   8.256   4.400  1.00  0.00     0.074 A 
ATOM     31  C   UNL     1       9.118   4.479   9.447  1.00  0.00     0.029 A 
ATOM     32  N   UNL     1       8.401   5.287   7.500  1.00  0.00    -0.354 N 
ATOM     33  N   UNL     1       8.177   7.380   5.358  1.00  0.00    -0.248 NA
ATOM     34  C   UNL     1       8.701   9.520   4.581  1.00  0.00     0.031 C 
ATOM     35  C   UNL     1       9.668   5.752   9.257  1.00  0.00     0.029 A 
ATOM     36  C   UNL     1       9.236   6.246   8.033  1.00  0.00     0.049 A 
ATOM     37  H   UNL     1       7.930   5.364   6.639  1.00  0.00     0.167 HD
ATOM     38  C   UNL     1       9.070   7.973   6.240  1.00  0.00     0.074 A 
ATOM     39  C   UNL     1       9.390   9.277   5.688  1.00  0.00     0.031 C 
ATOM     40  C   UNL     1       9.569   7.503   7.410  1.00  0.00     0.034 A 
BRANCH  27  41
ATOM     41  C   UNL     1       7.535   1.887   9.078  1.00  0.00     0.023 A 
ATOM     42  C   UNL     1       8.193   0.676   8.786  1.00  0.00     0.012 A 
ATOM     43  C   UNL     1       6.826   2.015  10.289  1.00  0.00     0.148 A 
ATOM     44  C   UNL     1       8.110  -0.406   9.665  1.00  0.00     0.002 A 
ATOM     45  C   UNL     1       6.783   0.948  11.178  1.00  0.00     0.091 A 
ATOM     46  F   UNL     1       6.178   3.163  10.531  1.00  0.00    -0.205 F 
ATOM     47  C   UNL     1       7.412  -0.267  10.862  1.00  0.00     0.022 A 
BRANCH  45  48
ATOM     48  S   UNL     1       5.956   1.050  12.768  1.00  0.00     0.127 S 
ATOM     49  O   UNL     1       4.803   0.175  12.557  1.00  0.00    -0.237 OA
ATOM     50  O   UNL     1       6.971   0.513  13.675  1.00  0.00    -0.237 OA
ATOM     51  O   UNL     1       5.644   2.457  12.971  1.00  0.00    -0.744 OA
ENDBRANCH  45  48
ENDBRANCH  27  41
BRANCH  28  52
ATOM     52  C   UNL     1       7.085   9.203   2.127  1.00  0.00     0.023 A 
ATOM     53  C   UNL     1       8.245   9.520   1.393  1.00  0.00     0.012 A 
ATOM     54  C   UNL     1       5.892   9.900   1.848  1.00  0.00     0.148 A 
ATOM     55  C   UNL     1       8.225  10.525   0.423  1.00  0.00     0.002 A 
ATOM     56  C   UNL     1       5.864  10.859   0.841  1.00  0.00     0.091 A 
ATOM     57  F   UNL     1       4.801   9.608   2.571  1.00  0.00    -0.205 F 
ATOM     58  C   UNL     1       7.032  11.185   0.138  1.00  0.00     0.022 A 
BRANCH  56  59
ATOM     59  S   UNL     1       4.340  11.658   0.323  1.00  0.00     0.127 S 
ATOM     60  O   UNL     1       4.496  12.996   0.888  1.00  0.00    -0.237 OA
ATOM     61  O   UNL     1       4.439  11.590  -1.136  1.00  0.00    -0.237 OA
ATOM     62  O   UNL     1       3.266  10.851   0.886  1.00  0.00    -0.744 OA
ENDBRANCH  56  59
ENDBRANCH  28  52
BRANCH  40  63
ATOM     63  C   UNL     1      10.550   8.376   8.138  1.00  0.00     0.023 A 
ATOM     64  C   UNL     1      10.097   9.510   8.837  1.00  0.00     0.012 A 
ATOM     65  C   UNL     1      11.908   8.010   8.204  1.00  0.00     0.148 A 
ATOM     66  C   UNL     1      10.991  10.288   9.569  1.00  0.00     0.002 A 
ATOM     67  C   UNL     1      12.782   8.759   8.978  1.00  0.00     0.091 A 
ATOM     68  F   UNL     1      12.318   6.938   7.510  1.00  0.00    -0.205 F 
ATOM     69  C   UNL     1      12.328   9.905   9.652  1.00  0.00     0.022 A 
BRANCH  67  70
ATOM     70  S   UNL     1      14.490   8.265   9.223  1.00  0.00     0.127 S 
ATOM     71  O   UNL     1      15.195   9.168   8.316  1.00  0.00    -0.237 OA
ATOM     72  O   UNL     1      14.696   8.544  10.645  1.00  0.00    -0.237 OA
ATOM     73  O   UNL     1      14.546   6.851   8.876  1.00  0.00    -0.744 OA
ENDBRANCH  67  70
ENDBRANCH  40  63
ENDBRANCH  14  15
ENDBRANCH   7   9
ENDBRANCH   6   7
ENDBRANCH   5   6
ENDBRANCH   4   5
ENDBRANCH   3   4
ENDBRANCH   2   3
ENDBRANCH   1   2
BRANCH   1  74
ATOM     74  O   UNL     1       2.448   0.170  -3.925  1.00  0.00    -0.377 OA
BRANCH  74  75
ATOM     75  C   UNL     1       3.869   0.145  -3.872  1.00  0.00     0.188 C 
BRANCH  75  76
ATOM     76  C   UNL     1       4.629   1.399  -3.382  1.00  0.00     0.188 C 
BRANCH  76  77
ATOM     77  O   UNL     1       3.784   2.485  -3.041  1.00  0.00    -0.376 OA
BRANCH  77  78
ATOM     78  C   UNL     1       3.847   3.605  -3.916  1.00  0.00     0.202 C 
BRANCH  78  79
ATOM     79  C   UNL     1       3.257   3.379  -5.314  1.00  0.00     0.261 C 
BRANCH  79  80
ATOM     80  O   UNL     1       3.747   2.215  -6.008  1.00  0.00    -0.460 OA
BRANCH  80  81
ATOM     81  C   UNL     1       4.958   2.243  -6.609  1.00  0.00     0.339 C 
ATOM     82  O   UNL     1       5.755   3.163  -6.626  1.00  0.00    -0.246 OA
BRANCH  81  83
ATOM     83  C   UNL     1       5.242   0.852  -7.042  1.00  0.00     0.079 A 
ATOM     84  C   UNL     1       6.257   0.142  -6.362  1.00  0.00     0.026 A 
ATOM     85  C   UNL     1       4.391   0.179  -7.926  1.00  0.00     0.055 A 
ATOM     86  C   UNL     1       6.351  -1.254  -6.492  1.00  0.00    -0.012 A 
ATOM     87  C   UNL     1       4.529  -1.200  -8.102  1.00  0.00     0.022 A 
ATOM     88  Cl  UNL     1       3.144   0.980  -8.813  1.00  0.00    -0.083 Cl
ATOM     89  C   UNL     1       5.488  -1.914  -7.377  1.00  0.00     0.010 A 
BRANCH  86  90
ATOM     90  C   UNL     1       7.228  -2.062  -5.626  1.00  0.00     0.047 A 
ATOM     91  C   UNL     1       6.803  -2.448  -4.405  1.00  0.00     0.016 A 
ATOM     92  C   UNL     1       8.550  -2.586  -6.110  1.00  0.00     0.255 A 
ATOM     93  C   UNL     1       7.595  -3.314  -3.561  1.00  0.00     0.019 A 
ATOM     94  N   UNL     1       9.228  -3.414  -5.241  1.00  0.00    -0.329 N 
ATOM     95  O   UNL     1       8.998  -2.316  -7.220  1.00  0.00    -0.269 OA
ATOM     96  C   UNL     1       8.771  -3.773  -4.000  1.00  0.00     0.086 A 
ATOM     97  H   UNL     1      10.098  -3.771  -5.531  1.00  0.00     0.169 HD
ENDBRANCH  86  90
ENDBRANCH  81  83
ENDBRANCH  80  81
ENDBRANCH  79  80
ENDBRANCH  78  79
ENDBRANCH  77  78
ENDBRANCH  76  77
ENDBRANCH  75  76
ENDBRANCH  74  75
ENDBRANCH   1  74
TORSDOF 24
