REMARK SMILES C[C@H]1OCC[C@@H]1C(=O)Nc1sc2c(c1C(=O)OCCOCCOCCOCCOC(=O)c1ccc(-c3c4nc(c(-c5cccc(S(=O)(=O)[O-])c5F)c5ccc([nH]5)c(-c5cccc(S(=O)(=O)[O-])c5F)c5nc(c(-c6cccc(S(=O)(=O)[O-])c6F)c6ccc3[nH]6)C=C5)C=C4)cc1)CCC2
REMARK SMILES IDX 24 1 23 2 22 3 21 4 20 5 19 6 18 7 17 8 15 9 16 10 14 11
REMARK SMILES IDX 10 12 11 13 12 14 13 15 97 16 95 17 96 18 9 19 7 20 8 21
REMARK SMILES IDX 6 23 1 24 2 25 3 26 4 27 5 28 25 29 26 30 27 31 28 32 29 33
REMARK SMILES IDX 30 34 31 35 32 36 33 37 94 38 34 39 93 40 35 41 36 42 37 43
REMARK SMILES IDX 87 44 38 45 92 46 86 47 88 48 39 49 91 50 85 51 84 52 40 54
REMARK SMILES IDX 72 55 52 56 71 57 53 58 56 59 70 60 89 61 54 62 55 63 69 65
REMARK SMILES IDX 90 66 57 67 41 68 42 69 50 70 43 71 45 72 51 73 44 74 46 75
REMARK SMILES IDX 47 76 48 77 49 78 73 79 74 80 82 81 75 82 77 83 83 84 76 85
REMARK SMILES IDX 78 86 79 87 80 88 81 89 58 90 59 91 67 92 60 93 62 94 68 95
REMARK SMILES IDX 61 96 63 97 64 98 65 99 66 100
REMARK H PARENT 9 22 88 53 56 64
REMARK Flexibility Score: inf
ROOT
ATOM      1  C   UNL     1      -1.597   1.347  -3.075  1.00  0.00     0.188 C 
ENDROOT
BRANCH   1   2
ATOM      2  O   UNL     1      -1.654   0.317  -2.091  1.00  0.00    -0.377 OA
BRANCH   2   3
ATOM      3  C   UNL     1      -1.754  -1.014  -2.584  1.00  0.00     0.188 C 
BRANCH   3   4
ATOM      4  C   UNL     1      -2.775  -1.798  -1.774  1.00  0.00     0.188 C 
BRANCH   4   5
ATOM      5  O   UNL     1      -4.111  -1.398  -2.071  1.00  0.00    -0.376 OA
BRANCH   5   6
ATOM      6  C   UNL     1      -4.566  -0.231  -1.370  1.00  0.00     0.202 C 
BRANCH   6   7
ATOM      7  C   UNL     1      -4.903  -0.502   0.105  1.00  0.00     0.261 C 
BRANCH   7   8
ATOM      8  O   UNL     1      -3.854  -0.106   1.026  1.00  0.00    -0.460 OA
BRANCH   8   9
ATOM      9  C   UNL     1      -3.665  -0.939   2.104  1.00  0.00     0.341 C 
ATOM     10  O   UNL     1      -4.217  -2.022   2.235  1.00  0.00    -0.246 OA
BRANCH   9  11
ATOM     11  C   UNL     1      -2.730  -0.420   3.109  1.00  0.00     0.098 A 
ATOM     12  C   UNL     1      -1.651  -1.141   3.619  1.00  0.00     0.110 A 
ATOM     13  S   UNL     1      -0.898  -0.414   4.980  1.00  0.00    -0.122 S 
ATOM     14  C   UNL     1      -1.729   0.993   4.672  1.00  0.00     0.011 A 
ATOM     15  C   UNL     1      -2.667   0.891   3.677  1.00  0.00    -0.017 A 
ATOM     16  C   UNL     1      -1.555   2.350   5.232  1.00  0.00     0.047 C 
ATOM     17  C   UNL     1      -3.288   2.220   3.426  1.00  0.00     0.038 C 
ATOM     18  C   UNL     1      -2.292   3.190   4.150  1.00  0.00     0.010 C 
BRANCH  12  19
ATOM     19  N   UNL     1      -1.080  -2.345   3.260  1.00  0.00    -0.317 N 
ATOM     20  C   UNL     1       0.175  -2.384   2.691  1.00  0.00     0.230 C 
ATOM     21  O   UNL     1       0.977  -3.211   3.146  1.00  0.00    -0.274 OA
ATOM     22  H   UNL     1      -1.573  -3.184   3.412  1.00  0.00     0.170 HD
BRANCH  20  23
ATOM     23  C   UNL     1       0.577  -1.556   1.466  1.00  0.00     0.110 C 
ATOM     24  C   UNL     1       2.760  -0.551   0.694  1.00  0.00     0.039 C 
ATOM     25  C   UNL     1       1.609  -0.457   1.694  1.00  0.00     0.127 C 
ATOM     26  O   UNL     1       0.987   0.814   1.427  1.00  0.00    -0.378 OA
ATOM     27  C   UNL     1      -0.348   0.605   0.988  1.00  0.00     0.161 C 
ATOM     28  C   UNL     1      -0.487  -0.863   0.674  1.00  0.00     0.044 C 
ENDBRANCH  20  23
ENDBRANCH  12  19
ENDBRANCH   9  11
ENDBRANCH   8   9
ENDBRANCH   7   8
ENDBRANCH   6   7
ENDBRANCH   5   6
ENDBRANCH   4   5
ENDBRANCH   3   4
ENDBRANCH   2   3
ENDBRANCH   1   2
BRANCH   1  29
ATOM     29  C   UNL     1      -0.959   0.993  -4.425  1.00  0.00     0.188 C 
BRANCH  29  30
ATOM     30  O   UNL     1       0.272   0.261  -4.447  1.00  0.00    -0.376 OA
BRANCH  30  31
ATOM     31  C   UNL     1       1.210   0.353  -3.372  1.00  0.00     0.202 C 
BRANCH  31  32
ATOM     32  C   UNL     1       2.167   1.535  -3.386  1.00  0.00     0.261 C 
BRANCH  32  33
ATOM     33  O   UNL     1       1.408   2.711  -3.195  1.00  0.00    -0.460 OA
BRANCH  33  34
ATOM     34  C   UNL     1       0.972   3.238  -4.359  1.00  0.00     0.338 C 
ATOM     35  O   UNL     1       1.246   2.865  -5.484  1.00  0.00    -0.246 OA
BRANCH  34  36
ATOM     36  C   UNL     1       0.073   4.379  -4.046  1.00  0.00     0.060 A 
ATOM     37  C   UNL     1      -0.213   5.064  -5.221  1.00  0.00     0.016 A 
ATOM     38  C   UNL     1       0.418   5.043  -2.861  1.00  0.00     0.016 A 
ATOM     39  C   UNL     1       0.455   6.246  -5.374  1.00  0.00     0.010 A 
ATOM     40  C   UNL     1       1.093   6.224  -3.003  1.00  0.00     0.010 A 
ATOM     41  C   UNL     1       1.189   6.748  -4.287  1.00  0.00    -0.014 A 
BRANCH  41  42
ATOM     42  C   UNL     1       1.849   8.003  -4.512  1.00  0.00     0.031 A 
ATOM     43  C   UNL     1       0.844   9.069  -4.671  1.00  0.00     0.074 A 
ATOM     44  C   UNL     1       3.178   8.170  -4.537  1.00  0.00     0.049 A 
ATOM     45  N   UNL     1       0.505   9.665  -5.764  1.00  0.00    -0.248 NA
ATOM     46  C   UNL     1      -0.085   9.270  -3.547  1.00  0.00     0.031 C 
ATOM     47  C   UNL     1       4.229   7.256  -4.095  1.00  0.00     0.029 A 
ATOM     48  N   UNL     1       3.851   9.304  -4.848  1.00  0.00    -0.354 N 
ATOM     49  C   UNL     1      -0.543  10.496  -5.394  1.00  0.00     0.074 A 
ATOM     50  C   UNL     1      -1.020  10.017  -4.127  1.00  0.00     0.031 C 
ATOM     51  C   UNL     1       5.368   7.968  -3.917  1.00  0.00     0.029 A 
ATOM     52  C   UNL     1       5.141   9.339  -4.348  1.00  0.00     0.049 A 
ATOM     53  H   UNL     1       3.459  10.034  -5.380  1.00  0.00     0.167 HD
ATOM     54  C   UNL     1      -0.723  11.694  -6.005  1.00  0.00     0.034 A 
ATOM     55  C   UNL     1       5.887  10.461  -4.201  1.00  0.00     0.034 A 
ATOM     56  C   UNL     1      -0.071  11.724  -7.292  1.00  0.00     0.049 A 
ATOM     57  C   UNL     1       5.278  11.515  -5.056  1.00  0.00     0.074 A 
ATOM     58  C   UNL     1      -0.168  10.969  -8.445  1.00  0.00     0.029 A 
ATOM     59  N   UNL     1       1.128  12.391  -7.373  1.00  0.00    -0.354 N 
ATOM     60  N   UNL     1       5.284  11.490  -6.359  1.00  0.00    -0.248 NA
ATOM     61  C   UNL     1       4.288  12.399  -4.457  1.00  0.00     0.031 C 
ATOM     62  C   UNL     1       1.164  10.879  -8.946  1.00  0.00     0.029 A 
ATOM     63  C   UNL     1       1.994  11.618  -8.100  1.00  0.00     0.049 A 
ATOM     64  H   UNL     1       1.329  13.270  -6.978  1.00  0.00     0.167 HD
ATOM     65  C   UNL     1       4.042  11.992  -6.729  1.00  0.00     0.074 A 
ATOM     66  C   UNL     1       3.526  12.644  -5.527  1.00  0.00     0.031 C 
ATOM     67  C   UNL     1       3.425  11.580  -7.877  1.00  0.00     0.034 A 
BRANCH  54  68
ATOM     68  C   UNL     1      -1.119  12.949  -5.261  1.00  0.00     0.023 A 
ATOM     69  C   UNL     1      -1.304  14.112  -6.037  1.00  0.00     0.012 A 
ATOM     70  C   UNL     1      -1.054  13.126  -3.856  1.00  0.00     0.148 A 
ATOM     71  C   UNL     1      -1.341  15.382  -5.454  1.00  0.00     0.002 A 
ATOM     72  C   UNL     1      -1.174  14.380  -3.275  1.00  0.00     0.091 A 
ATOM     73  F   UNL     1      -0.741  12.111  -3.050  1.00  0.00    -0.205 F 
ATOM     74  C   UNL     1      -1.279  15.518  -4.072  1.00  0.00     0.022 A 
BRANCH  72  75
ATOM     75  S   UNL     1      -1.150  14.587  -1.488  1.00  0.00     0.127 S 
ATOM     76  O   UNL     1       0.186  15.135  -1.276  1.00  0.00    -0.237 OA
ATOM     77  O   UNL     1      -2.250  15.530  -1.283  1.00  0.00    -0.237 OA
ATOM     78  O   UNL     1      -1.395  13.261  -0.933  1.00  0.00    -0.744 OA
ENDBRANCH  72  75
ENDBRANCH  54  68
BRANCH  55  79
ATOM     79  C   UNL     1       6.905  10.789  -3.179  1.00  0.00     0.023 A 
ATOM     80  C   UNL     1       7.782  11.867  -3.414  1.00  0.00     0.012 A 
ATOM     81  C   UNL     1       6.847  10.250  -1.874  1.00  0.00     0.148 A 
ATOM     82  C   UNL     1       8.544  12.416  -2.378  1.00  0.00     0.002 A 
ATOM     83  C   UNL     1       7.617  10.792  -0.850  1.00  0.00     0.091 A 
ATOM     84  F   UNL     1       5.966   9.277  -1.610  1.00  0.00    -0.205 F 
ATOM     85  C   UNL     1       8.457  11.885  -1.095  1.00  0.00     0.022 A 
BRANCH  83  86
ATOM     86  S   UNL     1       7.538  10.164   0.833  1.00  0.00     0.127 S 
ATOM     87  O   UNL     1       8.950  10.138   1.218  1.00  0.00    -0.237 OA
ATOM     88  O   UNL     1       6.739  11.188   1.500  1.00  0.00    -0.237 OA
ATOM     89  O   UNL     1       6.925   8.845   0.732  1.00  0.00    -0.744 OA
ENDBRANCH  83  86
ENDBRANCH  55  79
BRANCH  67  90
ATOM     90  C   UNL     1       4.237  10.782  -8.869  1.00  0.00     0.023 A 
ATOM     91  C   UNL     1       4.811   9.536  -8.543  1.00  0.00     0.012 A 
ATOM     92  C   UNL     1       4.284  11.220 -10.204  1.00  0.00     0.148 A 
ATOM     93  C   UNL     1       5.447   8.761  -9.518  1.00  0.00     0.002 A 
ATOM     94  C   UNL     1       4.872  10.423 -11.180  1.00  0.00     0.091 A 
ATOM     95  F   UNL     1       3.732  12.405 -10.506  1.00  0.00    -0.205 F 
ATOM     96  C   UNL     1       5.465   9.198 -10.839  1.00  0.00     0.022 A 
BRANCH  94  97
ATOM     97  S   UNL     1       4.804  10.875 -12.916  1.00  0.00     0.127 S 
ATOM     98  O   UNL     1       6.134  11.439 -13.139  1.00  0.00    -0.237 OA
ATOM     99  O   UNL     1       4.568   9.588 -13.572  1.00  0.00    -0.237 OA
ATOM    100  O   UNL     1       3.692  11.811 -13.037  1.00  0.00    -0.744 OA
ENDBRANCH  94  97
ENDBRANCH  67  90
ENDBRANCH  41  42
ENDBRANCH  34  36
ENDBRANCH  33  34
ENDBRANCH  32  33
ENDBRANCH  31  32
ENDBRANCH  30  31
ENDBRANCH  29  30
ENDBRANCH   1  29
TORSDOF 25
