REMARK SMILES O=C(Cc1ccc(S(=O)(=O)CC[NH+]2CCCC2)cc1)OCCOCCOCCOCCOC(=O)c1ccc(-c2c3nc(c(-c4cccc(S(=O)(=O)[O-])c4F)c4ccc([nH]4)c(-c4cccc(S(=O)(=O)[O-])c4F)c4nc(c(-c5cccc(S(=O)(=O)[O-])c5F)c5ccc2[nH]5)C=C4)C=C3)cc1
REMARK SMILES IDX 25 1 24 2 23 3 22 4 21 5 20 6 2 7 1 8 3 9 4 10 5 11 19 12
REMARK SMILES IDX 6 13 18 14 7 15 8 16 9 17 10 18 11 19 12 20 13 21 14 22
REMARK SMILES IDX 17 23 15 25 16 26 26 27 27 28 28 29 29 30 30 31 31 32 32 33
REMARK SMILES IDX 33 34 34 35 35 36 36 37 97 38 37 39 96 40 38 41 39 42 40 43
REMARK SMILES IDX 90 44 41 45 95 46 89 47 91 48 42 49 94 50 88 51 87 52 43 54
REMARK SMILES IDX 75 55 55 56 74 57 56 58 59 59 73 60 92 61 57 62 58 63 72 65
REMARK SMILES IDX 93 66 60 67 44 68 45 69 53 70 46 71 48 72 54 73 47 74 49 75
REMARK SMILES IDX 50 76 51 77 52 78 76 79 77 80 85 81 78 82 80 83 86 84 79 85
REMARK SMILES IDX 81 86 82 87 83 88 84 89 61 90 62 91 70 92 63 93 65 94 71 95
REMARK SMILES IDX 64 96 66 97 67 98 68 99 69 100
REMARK H PARENT 13 24 91 53 59 64
REMARK Flexibility Score: inf
ROOT
ATOM      1  C   UNL     1       1.941  -1.134   2.559  1.00  0.00     0.188 C 
ENDROOT
BRANCH   1   2
ATOM      2  C   UNL     1       2.447  -1.781   1.272  1.00  0.00     0.188 C 
BRANCH   2   3
ATOM      3  O   UNL     1       3.800  -1.603   0.875  1.00  0.00    -0.376 OA
BRANCH   3   4
ATOM      4  C   UNL     1       4.452  -0.354   0.773  1.00  0.00     0.202 C 
BRANCH   4   5
ATOM      5  C   UNL     1       3.639   0.923   0.730  1.00  0.00     0.261 C 
BRANCH   5   6
ATOM      6  O   UNL     1       2.538   1.006  -0.202  1.00  0.00    -0.463 OA
BRANCH   6   7
ATOM      7  C   UNL     1       2.206   0.314  -1.305  1.00  0.00     0.310 C 
ATOM      8  O   UNL     1       1.064   0.456  -1.750  1.00  0.00    -0.252 OA
BRANCH   7   9
ATOM      9  C   UNL     1       3.148  -0.660  -1.978  1.00  0.00     0.158 C 
BRANCH   9  10
ATOM     10  C   UNL     1       4.436  -0.155  -2.586  1.00  0.00    -0.037 A 
ATOM     11  C   UNL     1       4.966  -0.837  -3.691  1.00  0.00     0.005 A 
ATOM     12  C   UNL     1       5.104   0.990  -2.147  1.00  0.00     0.005 A 
ATOM     13  C   UNL     1       5.939  -0.226  -4.484  1.00  0.00     0.020 A 
ATOM     14  C   UNL     1       6.154   1.543  -2.857  1.00  0.00     0.020 A 
ATOM     15  C   UNL     1       6.434   1.022  -4.106  1.00  0.00     0.067 A 
BRANCH  15  16
ATOM     16  S   UNL     1       7.127   2.124  -5.314  1.00  0.00     0.183 S 
ATOM     17  O   UNL     1       8.514   2.298  -4.928  1.00  0.00    -0.223 OA
ATOM     18  O   UNL     1       6.790   1.592  -6.622  1.00  0.00    -0.223 OA
BRANCH  16  19
ATOM     19  C   UNL     1       6.263   3.693  -5.072  1.00  0.00     0.203 C 
BRANCH  19  20
ATOM     20  C   UNL     1       5.028   3.922  -5.958  1.00  0.00     0.279 C 
BRANCH  20  21
ATOM     21  N   UNL     1       3.698   4.307  -5.430  1.00  0.00    -0.334 N 
ATOM     22  C   UNL     1       3.621   4.882  -4.086  1.00  0.00     0.262 C 
ATOM     23  C   UNL     1       2.724   3.209  -5.416  1.00  0.00     0.262 C 
ATOM     24  H   UNL     1       3.482   5.037  -6.109  1.00  0.00     0.348 HD
ATOM     25  C   UNL     1       3.339   3.716  -3.150  1.00  0.00     0.067 C 
ATOM     26  C   UNL     1       2.916   2.574  -4.062  1.00  0.00     0.067 C 
ENDBRANCH  20  21
ENDBRANCH  19  20
ENDBRANCH  16  19
ENDBRANCH  15  16
ENDBRANCH   9  10
ENDBRANCH   7   9
ENDBRANCH   6   7
ENDBRANCH   5   6
ENDBRANCH   4   5
ENDBRANCH   3   4
ENDBRANCH   2   3
ENDBRANCH   1   2
BRANCH   1  27
ATOM     27  O   UNL     1       2.594  -1.514   3.758  1.00  0.00    -0.377 OA
BRANCH  27  28
ATOM     28  C   UNL     1       3.982  -1.222   3.829  1.00  0.00     0.188 C 
BRANCH  28  29
ATOM     29  C   UNL     1       4.891  -2.405   3.428  1.00  0.00     0.188 C 
BRANCH  29  30
ATOM     30  O   UNL     1       4.180  -3.518   2.895  1.00  0.00    -0.376 OA
BRANCH  30  31
ATOM     31  C   UNL     1       3.901  -4.574   3.807  1.00  0.00     0.202 C 
BRANCH  31  32
ATOM     32  C   UNL     1       2.908  -4.250   4.936  1.00  0.00     0.261 C 
BRANCH  32  33
ATOM     33  O   UNL     1       3.334  -3.243   5.872  1.00  0.00    -0.460 OA
BRANCH  33  34
ATOM     34  C   UNL     1       4.521  -3.417   6.494  1.00  0.00     0.338 C 
ATOM     35  O   UNL     1       5.219  -4.411   6.472  1.00  0.00    -0.246 OA
BRANCH  34  36
ATOM     36  C   UNL     1       4.965  -2.095   7.002  1.00  0.00     0.060 A 
ATOM     37  C   UNL     1       6.280  -1.692   6.725  1.00  0.00     0.016 A 
ATOM     38  C   UNL     1       4.093  -1.235   7.679  1.00  0.00     0.016 A 
ATOM     39  C   UNL     1       6.751  -0.469   7.196  1.00  0.00     0.010 A 
ATOM     40  C   UNL     1       4.570  -0.017   8.172  1.00  0.00     0.010 A 
ATOM     41  C   UNL     1       5.920   0.333   7.989  1.00  0.00    -0.014 A 
BRANCH  41  42
ATOM     42  C   UNL     1       6.568   1.293   8.915  1.00  0.00     0.031 A 
ATOM     43  C   UNL     1       6.969   0.758  10.267  1.00  0.00     0.074 A 
ATOM     44  C   UNL     1       6.846   2.562   8.574  1.00  0.00     0.049 A 
ATOM     45  N   UNL     1       7.631   1.341  11.230  1.00  0.00    -0.248 NA
ATOM     46  C   UNL     1       6.571  -0.630  10.569  1.00  0.00     0.031 C 
ATOM     47  C   UNL     1       6.513   3.196   7.301  1.00  0.00     0.029 A 
ATOM     48  N   UNL     1       7.476   3.551   9.289  1.00  0.00    -0.354 N 
ATOM     49  C   UNL     1       7.713   0.399  12.250  1.00  0.00     0.074 A 
ATOM     50  C   UNL     1       7.018  -0.784  11.803  1.00  0.00     0.031 C 
ATOM     51  C   UNL     1       6.929   4.477   7.331  1.00  0.00     0.029 A 
ATOM     52  C   UNL     1       7.554   4.752   8.625  1.00  0.00     0.049 A 
ATOM     53  H   UNL     1       7.839   3.412  10.193  1.00  0.00     0.167 HD
ATOM     54  C   UNL     1       8.332   0.496  13.448  1.00  0.00     0.034 A 
ATOM     55  C   UNL     1       8.074   5.931   9.023  1.00  0.00     0.034 A 
ATOM     56  C   UNL     1       9.030   1.666  13.893  1.00  0.00     0.049 A 
ATOM     57  C   UNL     1       8.746   6.020  10.373  1.00  0.00     0.074 A 
ATOM     58  C   UNL     1       9.717   1.859  15.076  1.00  0.00     0.029 A 
ATOM     59  N   UNL     1       9.116   2.848  13.176  1.00  0.00    -0.354 N 
ATOM     60  N   UNL     1       8.933   5.080  11.269  1.00  0.00    -0.248 NA
ATOM     61  C   UNL     1       9.318   7.322  10.746  1.00  0.00     0.031 C 
ATOM     62  C   UNL     1      10.201   3.171  15.084  1.00  0.00     0.029 A 
ATOM     63  C   UNL     1       9.841   3.781  13.892  1.00  0.00     0.049 A 
ATOM     64  H   UNL     1       8.720   3.000  12.287  1.00  0.00     0.167 HD
ATOM     65  C   UNL     1       9.687   5.662  12.284  1.00  0.00     0.074 A 
ATOM     66  C   UNL     1       9.931   7.033  11.887  1.00  0.00     0.031 C 
ATOM     67  C   UNL     1      10.130   5.119  13.446  1.00  0.00     0.034 A 
BRANCH  54  68
ATOM     68  C   UNL     1       8.284  -0.708  14.347  1.00  0.00     0.023 A 
ATOM     69  C   UNL     1       9.053  -1.848  14.032  1.00  0.00     0.012 A 
ATOM     70  C   UNL     1       7.491  -0.707  15.509  1.00  0.00     0.148 A 
ATOM     71  C   UNL     1       9.009  -2.979  14.845  1.00  0.00     0.002 A 
ATOM     72  C   UNL     1       7.487  -1.821  16.338  1.00  0.00     0.091 A 
ATOM     73  F   UNL     1       6.740   0.373  15.769  1.00  0.00    -0.205 F 
ATOM     74  C   UNL     1       8.235  -2.962  16.002  1.00  0.00     0.022 A 
BRANCH  72  75
ATOM     75  S   UNL     1       6.581  -1.866  17.887  1.00  0.00     0.127 S 
ATOM     76  O   UNL     1       5.495  -2.790  17.567  1.00  0.00    -0.237 OA
ATOM     77  O   UNL     1       7.582  -2.398  18.813  1.00  0.00    -0.237 OA
ATOM     78  O   UNL     1       6.177  -0.493  18.155  1.00  0.00    -0.744 OA
ENDBRANCH  72  75
ENDBRANCH  54  68
BRANCH  55  79
ATOM     79  C   UNL     1       8.040   7.114   8.115  1.00  0.00     0.023 A 
ATOM     80  C   UNL     1       9.243   7.612   7.574  1.00  0.00     0.012 A 
ATOM     81  C   UNL     1       6.828   7.753   7.790  1.00  0.00     0.148 A 
ATOM     82  C   UNL     1       9.243   8.745   6.758  1.00  0.00     0.002 A 
ATOM     83  C   UNL     1       6.829   8.847   6.932  1.00  0.00     0.091 A 
ATOM     84  F   UNL     1       5.696   7.277   8.328  1.00  0.00    -0.205 F 
ATOM     85  C   UNL     1       8.037   9.357   6.430  1.00  0.00     0.022 A 
BRANCH  83  86
ATOM     86  S   UNL     1       5.314   9.620   6.354  1.00  0.00     0.127 S 
ATOM     87  O   UNL     1       5.355  10.910   7.037  1.00  0.00    -0.237 OA
ATOM     88  O   UNL     1       5.540   9.679   4.909  1.00  0.00    -0.237 OA
ATOM     89  O   UNL     1       4.239   8.723   6.755  1.00  0.00    -0.744 OA
ENDBRANCH  83  86
ENDBRANCH  55  79
BRANCH  67  90
ATOM     90  C   UNL     1      10.976   5.978  14.349  1.00  0.00     0.023 A 
ATOM     91  C   UNL     1      10.388   7.030  15.077  1.00  0.00     0.012 A 
ATOM     92  C   UNL     1      12.341   5.683  14.539  1.00  0.00     0.148 A 
ATOM     93  C   UNL     1      11.154   7.801  15.951  1.00  0.00     0.002 A 
ATOM     94  C   UNL     1      13.086   6.422  15.450  1.00  0.00     0.091 A 
ATOM     95  F   UNL     1      12.888   4.689  13.824  1.00  0.00    -0.205 F 
ATOM     96  C   UNL     1      12.498   7.489  16.147  1.00  0.00     0.022 A 
BRANCH  94  97
ATOM     97  S   UNL     1      14.793   6.016  15.835  1.00  0.00     0.127 S 
ATOM     98  O   UNL     1      15.520   7.026  15.069  1.00  0.00    -0.237 OA
ATOM     99  O   UNL     1      14.840   6.200  17.286  1.00  0.00    -0.237 OA
ATOM    100  O   UNL     1      14.980   4.638  15.400  1.00  0.00    -0.744 OA
ENDBRANCH  94  97
ENDBRANCH  67  90
ENDBRANCH  41  42
ENDBRANCH  34  36
ENDBRANCH  33  34
ENDBRANCH  32  33
ENDBRANCH  31  32
ENDBRANCH  30  31
ENDBRANCH  29  30
ENDBRANCH  28  29
ENDBRANCH  27  28
ENDBRANCH   1  27
TORSDOF 28
