REMARK SMILES C[C@H](NS(=O)(=O)c1ccc(-c2cc(-c3ccccc3)c3cc([N+](=O)[O-])ccc3n2)cc1)C(=O)OCCOCCOCCOCCOC(=O)c1ccc(-c2c3nc(c(-c4cccc(S(=O)(=O)[O-])c4F)c4ccc([nH]4)c(-c4cccc(S(=O)(=O)[O-])c4F)c4nc(c(-c5cccc(S(=O)(=O)[O-])c5F)c5ccc2[nH]5)C=C4)C=C3)cc1
REMARK SMILES IDX 39 1 38 2 37 3 36 4 35 5 34 6 32 7 33 8 2 9 1 10 3 11 4 13
REMARK SMILES IDX 5 14 6 15 7 16 8 17 31 18 9 19 30 20 10 21 11 22 12 23 29 24
REMARK SMILES IDX 13 25 28 26 20 27 27 28 21 29 26 30 22 31 14 32 15 33 19 34
REMARK SMILES IDX 16 35 18 36 17 37 23 38 24 39 25 40 40 41 41 42 42 43 43 44
REMARK SMILES IDX 44 45 45 46 46 47 47 48 48 49 49 50 50 51 111 52 51 53
REMARK SMILES IDX 110 54 52 55 53 56 54 57 104 58 55 59 109 60 103 61 105 62
REMARK SMILES IDX 56 63 108 64 102 65 101 66 57 68 89 69 69 70 88 71 70 72
REMARK SMILES IDX 73 73 87 74 106 75 71 76 72 77 86 79 107 80 74 81 58 82
REMARK SMILES IDX 59 83 67 84 60 85 62 86 68 87 61 88 63 89 64 90 65 91 66 92
REMARK SMILES IDX 90 93 91 94 99 95 92 96 94 97 100 98 93 99 95 100 96 101
REMARK SMILES IDX 97 102 98 103 75 104 76 105 84 106 77 107 79 108 85 109
REMARK SMILES IDX 78 110 80 111 81 112 82 113 83 114
REMARK H PARENT 3 12 105 67 73 78
REMARK Flexibility Score: inf
ROOT
ATOM      1  C   UNL     1      -1.415  -0.998   0.881  1.00  0.00     0.188 C 
ENDROOT
BRANCH   1   2
ATOM      2  C   UNL     1      -2.093  -0.504   2.171  1.00  0.00     0.188 C 
BRANCH   2   3
ATOM      3  O   UNL     1      -3.456  -0.090   2.216  1.00  0.00    -0.376 OA
BRANCH   3   4
ATOM      4  C   UNL     1      -4.062   0.666   1.175  1.00  0.00     0.202 C 
BRANCH   4   5
ATOM      5  C   UNL     1      -3.516   2.035   0.771  1.00  0.00     0.261 C 
BRANCH   5   6
ATOM      6  O   UNL     1      -2.114   2.058   0.510  1.00  0.00    -0.462 OA
BRANCH   6   7
ATOM      7  C   UNL     1      -1.363   2.581   1.511  1.00  0.00     0.323 C 
ATOM      8  O   UNL     1      -1.791   2.980   2.589  1.00  0.00    -0.250 OA
BRANCH   7   9
ATOM      9  C   UNL     1       0.104   2.625   1.143  1.00  0.00     0.176 C 
ATOM     10  C   UNL     1       0.484   4.080   0.938  1.00  0.00     0.038 C 
BRANCH   9  11
ATOM     11  N   UNL     1       0.478   1.651   0.079  1.00  0.00    -0.197 NA
ATOM     12  H   UNL     1      -0.396   1.409  -0.389  1.00  0.00     0.142 HD
BRANCH  11  13
ATOM     13  S   UNL     1       1.578   1.959  -1.153  1.00  0.00     0.241 S 
ATOM     14  O   UNL     1       2.023   0.676  -1.631  1.00  0.00    -0.207 OA
ATOM     15  O   UNL     1       0.944   2.931  -2.020  1.00  0.00    -0.207 OA
BRANCH  13  16
ATOM     16  C   UNL     1       2.967   2.729  -0.377  1.00  0.00     0.082 A 
ATOM     17  C   UNL     1       3.741   3.641  -1.097  1.00  0.00     0.022 A 
ATOM     18  C   UNL     1       3.302   2.390   0.932  1.00  0.00     0.022 A 
ATOM     19  C   UNL     1       4.972   4.051  -0.573  1.00  0.00     0.012 A 
ATOM     20  C   UNL     1       4.452   2.920   1.503  1.00  0.00     0.012 A 
ATOM     21  C   UNL     1       5.405   3.563   0.676  1.00  0.00     0.000 A 
BRANCH  21  22
ATOM     22  C   UNL     1       6.822   3.043   0.788  1.00  0.00     0.072 A 
ATOM     23  C   UNL     1       7.406   2.881   2.037  1.00  0.00     0.038 A 
ATOM     24  N   UNL     1       6.911   2.003  -0.077  1.00  0.00    -0.248 NA
ATOM     25  C   UNL     1       7.486   1.574   2.543  1.00  0.00    -0.007 A 
ATOM     26  C   UNL     1       6.586   0.822   0.442  1.00  0.00     0.072 A 
ATOM     27  C   UNL     1       6.782   0.580   1.810  1.00  0.00     0.015 A 
ATOM     28  C   UNL     1       5.851  -0.073  -0.326  1.00  0.00     0.036 A 
ATOM     29  C   UNL     1       6.124  -0.520   2.408  1.00  0.00     0.096 A 
ATOM     30  C   UNL     1       5.149  -1.125   0.271  1.00  0.00     0.088 A 
ATOM     31  C   UNL     1       5.255  -1.315   1.649  1.00  0.00     0.270 A 
BRANCH  25  32
ATOM     32  C   UNL     1       8.200   1.236   3.793  1.00  0.00    -0.018 A 
ATOM     33  C   UNL     1       8.971   0.054   3.829  1.00  0.00     0.009 A 
ATOM     34  C   UNL     1       8.183   2.033   4.945  1.00  0.00     0.009 A 
ATOM     35  C   UNL     1       9.655  -0.346   4.975  1.00  0.00     0.001 A 
ATOM     36  C   UNL     1       8.884   1.641   6.094  1.00  0.00     0.001 A 
ATOM     37  C   UNL     1       9.608   0.449   6.112  1.00  0.00     0.000 A 
ENDBRANCH  25  32
BRANCH  31  38
ATOM     38  N   UNL     1       4.358  -2.258   2.330  1.00  0.00     0.062 N 
ATOM     39  O   UNL     1       4.406  -2.302   3.569  1.00  0.00    -0.258 OA
ATOM     40  O   UNL     1       3.587  -2.932   1.636  1.00  0.00    -0.258 OA
ENDBRANCH  31  38
ENDBRANCH  21  22
ENDBRANCH  13  16
ENDBRANCH  11  13
ENDBRANCH   9  11
ENDBRANCH   7   9
ENDBRANCH   6   7
ENDBRANCH   5   6
ENDBRANCH   4   5
ENDBRANCH   3   4
ENDBRANCH   2   3
ENDBRANCH   1   2
BRANCH   1  41
ATOM     41  O   UNL     1      -2.095  -0.629  -0.302  1.00  0.00    -0.377 OA
BRANCH  41  42
ATOM     42  C   UNL     1      -2.753  -1.707  -0.975  1.00  0.00     0.188 C 
BRANCH  42  43
ATOM     43  C   UNL     1      -3.639  -2.621  -0.099  1.00  0.00     0.188 C 
BRANCH  43  44
ATOM     44  O   UNL     1      -2.879  -3.430   0.799  1.00  0.00    -0.376 OA
BRANCH  44  45
ATOM     45  C   UNL     1      -2.699  -4.790   0.411  1.00  0.00     0.202 C 
BRANCH  45  46
ATOM     46  C   UNL     1      -1.732  -5.003  -0.762  1.00  0.00     0.261 C 
BRANCH  46  47
ATOM     47  O   UNL     1      -2.171  -4.490  -2.033  1.00  0.00    -0.460 OA
BRANCH  47  48
ATOM     48  C   UNL     1      -3.365  -4.898  -2.515  1.00  0.00     0.338 C 
ATOM     49  O   UNL     1      -4.112  -5.726  -2.028  1.00  0.00    -0.246 OA
BRANCH  48  50
ATOM     50  C   UNL     1      -3.719  -4.008  -3.640  1.00  0.00     0.060 A 
ATOM     51  C   UNL     1      -4.933  -3.310  -3.599  1.00  0.00     0.016 A 
ATOM     52  C   UNL     1      -2.854  -3.864  -4.727  1.00  0.00     0.016 A 
ATOM     53  C   UNL     1      -5.301  -2.487  -4.665  1.00  0.00     0.010 A 
ATOM     54  C   UNL     1      -3.233  -3.057  -5.800  1.00  0.00     0.010 A 
ATOM     55  C   UNL     1      -4.470  -2.389  -5.788  1.00  0.00    -0.014 A 
BRANCH  55  56
ATOM     56  C   UNL     1      -4.949  -1.738  -7.030  1.00  0.00     0.031 A 
ATOM     57  C   UNL     1      -5.533  -2.606  -8.111  1.00  0.00     0.074 A 
ATOM     58  C   UNL     1      -4.803  -0.415  -7.226  1.00  0.00     0.049 A 
ATOM     59  N   UNL     1      -5.916  -2.282  -9.317  1.00  0.00    -0.248 NA
ATOM     60  C   UNL     1      -5.699  -4.034  -7.788  1.00  0.00     0.031 C 
ATOM     61  C   UNL     1      -4.244   0.528  -6.260  1.00  0.00     0.029 A 
ATOM     62  N   UNL     1      -5.074   0.354  -8.332  1.00  0.00    -0.354 N 
ATOM     63  C   UNL     1      -6.328  -3.468  -9.912  1.00  0.00     0.074 A 
ATOM     64  C   UNL     1      -6.157  -4.519  -8.934  1.00  0.00     0.031 C 
ATOM     65  C   UNL     1      -4.168   1.742  -6.832  1.00  0.00     0.029 A 
ATOM     66  C   UNL     1      -4.646   1.656  -8.211  1.00  0.00     0.049 A 
ATOM     67  H   UNL     1      -5.531   0.007  -9.132  1.00  0.00     0.167 HD
ATOM     68  C   UNL     1      -6.812  -3.663 -11.160  1.00  0.00     0.034 A 
ATOM     69  C   UNL     1      -4.610   2.649  -9.123  1.00  0.00     0.034 A 
ATOM     70  C   UNL     1      -7.004  -2.616 -12.124  1.00  0.00     0.049 A 
ATOM     71  C   UNL     1      -5.133   2.396 -10.515  1.00  0.00     0.074 A 
ATOM     72  C   UNL     1      -7.569  -2.703 -13.384  1.00  0.00     0.029 A 
ATOM     73  N   UNL     1      -6.616  -1.299 -11.947  1.00  0.00    -0.354 N 
ATOM     74  N   UNL     1      -5.672   1.309 -11.012  1.00  0.00    -0.248 NA
ATOM     75  C   UNL     1      -5.064   3.516 -11.468  1.00  0.00     0.031 C 
ATOM     76  C   UNL     1      -7.493  -1.442 -13.982  1.00  0.00     0.029 A 
ATOM     77  C   UNL     1      -6.903  -0.566 -13.085  1.00  0.00     0.049 A 
ATOM     78  H   UNL     1      -6.197  -0.938 -11.133  1.00  0.00     0.167 HD
ATOM     79  C   UNL     1      -6.031   1.621 -12.320  1.00  0.00     0.074 A 
ATOM     80  C   UNL     1      -5.669   3.007 -12.533  1.00  0.00     0.031 C 
ATOM     81  C   UNL     1      -6.592   0.828 -13.266  1.00  0.00     0.034 A 
BRANCH  68  82
ATOM     82  C   UNL     1      -7.191  -5.064 -11.554  1.00  0.00     0.023 A 
ATOM     83  C   UNL     1      -8.379  -5.632 -11.053  1.00  0.00     0.012 A 
ATOM     84  C   UNL     1      -6.408  -5.788 -12.474  1.00  0.00     0.148 A 
ATOM     85  C   UNL     1      -8.773  -6.910 -11.446  1.00  0.00     0.002 A 
ATOM     86  C   UNL     1      -6.827  -7.045 -12.891  1.00  0.00     0.091 A 
ATOM     87  F   UNL     1      -5.268  -5.238 -12.916  1.00  0.00    -0.205 F 
ATOM     88  C   UNL     1      -8.004  -7.610 -12.373  1.00  0.00     0.022 A 
BRANCH  86  89
ATOM     89  S   UNL     1      -5.945  -7.996 -14.133  1.00  0.00     0.127 S 
ATOM     90  O   UNL     1      -5.383  -9.080 -13.330  1.00  0.00    -0.237 OA
ATOM     91  O   UNL     1      -7.025  -8.401 -15.034  1.00  0.00    -0.237 OA
ATOM     92  O   UNL     1      -4.973  -7.085 -14.722  1.00  0.00    -0.744 OA
ENDBRANCH  86  89
ENDBRANCH  68  82
BRANCH  69  93
ATOM     93  C   UNL     1      -4.066   3.987  -8.752  1.00  0.00     0.023 A 
ATOM     94  C   UNL     1      -4.937   5.092  -8.673  1.00  0.00     0.012 A 
ATOM     95  C   UNL     1      -2.695   4.174  -8.487  1.00  0.00     0.148 A 
ATOM     96  C   UNL     1      -4.448   6.362  -8.367  1.00  0.00     0.002 A 
ATOM     97  C   UNL     1      -2.223   5.432  -8.133  1.00  0.00     0.091 A 
ATOM     98  F   UNL     1      -1.879   3.116  -8.592  1.00  0.00    -0.205 F 
ATOM     99  C   UNL     1      -3.095   6.531  -8.087  1.00  0.00     0.022 A 
BRANCH  97 100
ATOM    100  S   UNL     1      -0.517   5.720  -7.650  1.00  0.00     0.127 S 
ATOM    101  O   UNL     1       0.004   6.441  -8.809  1.00  0.00    -0.237 OA
ATOM    102  O   UNL     1      -0.677   6.531  -6.442  1.00  0.00    -0.237 OA
ATOM    103  O   UNL     1       0.050   4.399  -7.418  1.00  0.00    -0.744 OA
ENDBRANCH  97 100
ENDBRANCH  69  93
BRANCH  81 104
ATOM    104  C   UNL     1      -6.880   1.429 -14.617  1.00  0.00     0.023 A 
ATOM    105  C   UNL     1      -5.820   1.678 -15.509  1.00  0.00     0.012 A 
ATOM    106  C   UNL     1      -8.207   1.647 -15.040  1.00  0.00     0.148 A 
ATOM    107  C   UNL     1      -6.073   2.154 -16.795  1.00  0.00     0.002 A 
ATOM    108  C   UNL     1      -8.454   2.077 -16.339  1.00  0.00     0.091 A 
ATOM    109  F   UNL     1      -9.201   1.417 -14.171  1.00  0.00    -0.205 F 
ATOM    110  C   UNL     1      -7.388   2.340 -17.214  1.00  0.00     0.022 A 
BRANCH 108 111
ATOM    111  S   UNL     1     -10.116   2.251 -16.999  1.00  0.00     0.127 S 
ATOM    112  O   UNL     1     -10.239   3.704 -17.117  1.00  0.00    -0.237 OA
ATOM    113  O   UNL     1     -10.020   1.542 -18.275  1.00  0.00    -0.237 OA
ATOM    114  O   UNL     1     -11.004   1.628 -16.026  1.00  0.00    -0.744 OA
ENDBRANCH 108 111
ENDBRANCH  81 104
ENDBRANCH  55  56
ENDBRANCH  48  50
ENDBRANCH  47  48
ENDBRANCH  46  47
ENDBRANCH  45  46
ENDBRANCH  44  45
ENDBRANCH  43  44
ENDBRANCH  42  43
ENDBRANCH  41  42
ENDBRANCH   1  41
TORSDOF 29
