REMARK SMILES C[C@H](C(=O)OCCOCCOCCOCCOC(=O)c1ccc(-c2c3nc(c(-c4cccc(S(=O)(=O)[O-])c4F)c4ccc([nH]4)c(-c4cccc(S(=O)(=O)[O-])c4F)c4nc(c(-c5cccc(S(=O)(=O)[O-])c5F)c5ccc2[nH]5)C=C4)C=C3)cc1)c1ccc2c(c1)OCCO2
REMARK SMILES IDX 12 1 11 2 10 3 9 4 8 5 7 6 6 7 5 8 3 9 4 10 2 11 1 12 83 13
REMARK SMILES IDX 84 14 88 15 85 16 87 17 86 18 89 19 92 20 90 21 91 22 13 23
REMARK SMILES IDX 14 24 15 25 16 26 17 27 18 28 19 29 20 30 21 31 82 32 22 33
REMARK SMILES IDX 81 34 23 35 24 36 25 37 75 38 26 39 80 40 74 41 76 42 27 43
REMARK SMILES IDX 79 44 73 45 72 46 28 48 60 49 40 50 59 51 41 52 44 53 58 54
REMARK SMILES IDX 77 55 42 56 43 57 57 59 78 60 45 61 29 62 30 63 38 64 31 65
REMARK SMILES IDX 33 66 39 67 32 68 34 69 35 70 36 71 37 72 61 73 62 74 70 75
REMARK SMILES IDX 63 76 65 77 71 78 64 79 66 80 67 81 68 82 69 83 46 84 47 85
REMARK SMILES IDX 55 86 48 87 50 88 56 89 49 90 51 91 52 92 53 93 54 94
REMARK H PARENT 76 47 44 58
REMARK Flexibility Score: inf
ROOT
ATOM      1  C   UNL     1      -1.500   1.062   2.709  1.00  0.00     0.188 C 
ENDROOT
BRANCH   1   2
ATOM      2  O   UNL     1      -0.646   0.698   1.640  1.00  0.00    -0.377 OA
BRANCH   2   3
ATOM      3  C   UNL     1       0.082  -0.502   1.760  1.00  0.00     0.188 C 
BRANCH   3   4
ATOM      4  C   UNL     1       1.550  -0.352   2.171  1.00  0.00     0.188 C 
BRANCH   4   5
ATOM      5  O   UNL     1       2.051   0.907   2.597  1.00  0.00    -0.376 OA
BRANCH   5   6
ATOM      6  C   UNL     1       1.677   2.088   1.890  1.00  0.00     0.202 C 
BRANCH   6   7
ATOM      7  C   UNL     1       1.761   2.136   0.351  1.00  0.00     0.261 C 
BRANCH   7   8
ATOM      8  O   UNL     1       1.008   1.118  -0.341  1.00  0.00    -0.463 OA
BRANCH   8   9
ATOM      9  C   UNL     1       1.661   0.407  -1.287  1.00  0.00     0.313 C 
ATOM     10  O   UNL     1       2.820   0.639  -1.628  1.00  0.00    -0.252 OA
BRANCH   9  11
ATOM     11  C   UNL     1       0.905  -0.789  -1.860  1.00  0.00     0.126 C 
ATOM     12  C   UNL     1       1.797  -2.025  -1.610  1.00  0.00     0.025 C 
BRANCH  11  13
ATOM     13  C   UNL     1      -0.571  -1.038  -1.521  1.00  0.00    -0.030 A 
ATOM     14  C   UNL     1      -1.575  -0.187  -2.018  1.00  0.00     0.009 A 
ATOM     15  C   UNL     1      -0.979  -2.226  -0.878  1.00  0.00     0.055 A 
ATOM     16  C   UNL     1      -2.915  -0.601  -2.045  1.00  0.00     0.051 A 
ATOM     17  C   UNL     1      -2.294  -2.652  -0.931  1.00  0.00     0.161 A 
ATOM     18  C   UNL     1      -3.237  -1.877  -1.597  1.00  0.00     0.161 A 
ATOM     19  O   UNL     1      -2.546  -3.912  -0.460  1.00  0.00    -0.486 OA
ATOM     20  O   UNL     1      -4.427  -2.444  -1.994  1.00  0.00    -0.486 OA
ATOM     21  C   UNL     1      -3.600  -4.567  -1.179  1.00  0.00     0.271 C 
ATOM     22  C   UNL     1      -4.093  -3.785  -2.393  1.00  0.00     0.271 C 
ENDBRANCH  11  13
ENDBRANCH   9  11
ENDBRANCH   8   9
ENDBRANCH   7   8
ENDBRANCH   6   7
ENDBRANCH   5   6
ENDBRANCH   4   5
ENDBRANCH   3   4
ENDBRANCH   2   3
ENDBRANCH   1   2
BRANCH   1  23
ATOM     23  C   UNL     1      -1.049   0.668   4.123  1.00  0.00     0.188 C 
BRANCH  23  24
ATOM     24  O   UNL     1      -0.781  -0.721   4.276  1.00  0.00    -0.376 OA
BRANCH  24  25
ATOM     25  C   UNL     1      -1.828  -1.577   4.715  1.00  0.00     0.202 C 
BRANCH  25  26
ATOM     26  C   UNL     1      -3.086  -1.735   3.841  1.00  0.00     0.261 C 
BRANCH  26  27
ATOM     27  O   UNL     1      -3.864  -0.556   3.578  1.00  0.00    -0.460 OA
BRANCH  27  28
ATOM     28  C   UNL     1      -4.268   0.207   4.612  1.00  0.00     0.338 C 
ATOM     29  O   UNL     1      -4.122  -0.029   5.801  1.00  0.00    -0.246 OA
BRANCH  28  30
ATOM     30  C   UNL     1      -4.737   1.498   4.061  1.00  0.00     0.060 A 
ATOM     31  C   UNL     1      -4.105   2.679   4.473  1.00  0.00     0.016 A 
ATOM     32  C   UNL     1      -5.788   1.545   3.142  1.00  0.00     0.016 A 
ATOM     33  C   UNL     1      -4.549   3.914   3.999  1.00  0.00     0.010 A 
ATOM     34  C   UNL     1      -6.249   2.785   2.688  1.00  0.00     0.010 A 
ATOM     35  C   UNL     1      -5.657   3.976   3.145  1.00  0.00    -0.014 A 
BRANCH  35  36
ATOM     36  C   UNL     1      -6.319   5.280   2.898  1.00  0.00     0.031 A 
ATOM     37  C   UNL     1      -7.541   5.622   3.708  1.00  0.00     0.074 A 
ATOM     38  C   UNL     1      -5.850   6.147   1.983  1.00  0.00     0.049 A 
ATOM     39  N   UNL     1      -8.311   6.676   3.644  1.00  0.00    -0.248 NA
ATOM     40  C   UNL     1      -7.949   4.639   4.726  1.00  0.00     0.031 C 
ATOM     41  C   UNL     1      -4.668   5.941   1.150  1.00  0.00     0.029 A 
ATOM     42  N   UNL     1      -6.335   7.369   1.587  1.00  0.00    -0.354 N 
ATOM     43  C   UNL     1      -9.312   6.469   4.586  1.00  0.00     0.074 A 
ATOM     44  C   UNL     1      -9.058   5.185   5.202  1.00  0.00     0.031 C 
ATOM     45  C   UNL     1      -4.537   6.988   0.316  1.00  0.00     0.029 A 
ATOM     46  C   UNL     1      -5.641   7.921   0.537  1.00  0.00     0.049 A 
ATOM     47  H   UNL     1      -7.106   7.808   2.014  1.00  0.00     0.167 HD
ATOM     48  C   UNL     1     -10.346   7.278   4.918  1.00  0.00     0.034 A 
ATOM     49  C   UNL     1      -5.888   9.036  -0.182  1.00  0.00     0.034 A 
ATOM     50  C   UNL     1     -10.593   8.557   4.311  1.00  0.00     0.049 A 
ATOM     51  C   UNL     1      -7.070   9.901   0.179  1.00  0.00     0.074 A 
ATOM     52  C   UNL     1     -11.588   9.471   4.608  1.00  0.00     0.029 A 
ATOM     53  N   UNL     1      -9.852   9.096   3.272  1.00  0.00    -0.354 N 
ATOM     54  N   UNL     1      -7.945   9.746   1.143  1.00  0.00    -0.248 NA
ATOM     55  C   UNL     1      -7.279  11.113  -0.628  1.00  0.00     0.031 C 
ATOM     56  C   UNL     1     -11.475  10.543   3.718  1.00  0.00     0.029 A 
ATOM     57  C   UNL     1     -10.378  10.321   2.901  1.00  0.00     0.049 A 
ATOM     58  H   UNL     1      -9.066   8.670   2.857  1.00  0.00     0.167 HD
ATOM     59  C   UNL     1      -8.781  10.857   1.085  1.00  0.00     0.074 A 
ATOM     60  C   UNL     1      -8.296  11.686   0.001  1.00  0.00     0.031 C 
ATOM     61  C   UNL     1      -9.857  11.161   1.853  1.00  0.00     0.034 A 
BRANCH  48  62
ATOM     62  C   UNL     1     -11.289   6.802   5.991  1.00  0.00     0.023 A 
ATOM     63  C   UNL     1     -10.863   6.753   7.334  1.00  0.00     0.012 A 
ATOM     64  C   UNL     1     -12.616   6.448   5.674  1.00  0.00     0.148 A 
ATOM     65  C   UNL     1     -11.730   6.326   8.339  1.00  0.00     0.002 A 
ATOM     66  C   UNL     1     -13.488   6.072   6.687  1.00  0.00     0.091 A 
ATOM     67  F   UNL     1     -12.995   6.480   4.389  1.00  0.00    -0.205 F 
ATOM     68  C   UNL     1     -13.044   5.997   8.017  1.00  0.00     0.022 A 
BRANCH  66  69
ATOM     69  S   UNL     1     -15.221   5.708   6.387  1.00  0.00     0.127 S 
ATOM     70  O   UNL     1     -15.270   4.270   6.652  1.00  0.00    -0.237 OA
ATOM     71  O   UNL     1     -15.886   6.536   7.394  1.00  0.00    -0.237 OA
ATOM     72  O   UNL     1     -15.483   6.096   5.009  1.00  0.00    -0.744 OA
ENDBRANCH  66  69
ENDBRANCH  48  62
BRANCH  49  73
ATOM     73  C   UNL     1      -4.990   9.412  -1.311  1.00  0.00     0.023 A 
ATOM     74  C   UNL     1      -4.189  10.566  -1.213  1.00  0.00     0.012 A 
ATOM     75  C   UNL     1      -4.928   8.632  -2.483  1.00  0.00     0.148 A 
ATOM     76  C   UNL     1      -3.368  10.955  -2.273  1.00  0.00     0.002 A 
ATOM     77  C   UNL     1      -4.066   8.993  -3.511  1.00  0.00     0.091 A 
ATOM     78  F   UNL     1      -5.711   7.547  -2.564  1.00  0.00    -0.205 F 
ATOM     79  C   UNL     1      -3.300  10.165  -3.417  1.00  0.00     0.022 A 
BRANCH  77  80
ATOM     80  S   UNL     1      -3.820   7.972  -4.968  1.00  0.00     0.127 S 
ATOM     81  O   UNL     1      -4.380   8.814  -6.022  1.00  0.00    -0.237 OA
ATOM     82  O   UNL     1      -2.363   7.837  -4.995  1.00  0.00    -0.237 OA
ATOM     83  O   UNL     1      -4.535   6.730  -4.708  1.00  0.00    -0.744 OA
ENDBRANCH  77  80
ENDBRANCH  49  73
BRANCH  61  84
ATOM     84  C   UNL     1     -10.562  12.469   1.594  1.00  0.00     0.023 A 
ATOM     85  C   UNL     1     -11.333  12.642   0.428  1.00  0.00     0.012 A 
ATOM     86  C   UNL     1     -10.521  13.502   2.553  1.00  0.00     0.148 A 
ATOM     87  C   UNL     1     -12.021  13.835   0.203  1.00  0.00     0.002 A 
ATOM     88  C   UNL     1     -11.252  14.666   2.348  1.00  0.00     0.091 A 
ATOM     89  F   UNL     1      -9.770  13.326   3.651  1.00  0.00    -0.205 F 
ATOM     90  C   UNL     1     -11.990  14.840   1.166  1.00  0.00     0.022 A 
BRANCH  88  91
ATOM     91  S   UNL     1     -11.354  15.972   3.577  1.00  0.00     0.127 S 
ATOM     92  O   UNL     1     -10.592  17.043   2.937  1.00  0.00    -0.237 OA
ATOM     93  O   UNL     1     -12.795  16.211   3.655  1.00  0.00    -0.237 OA
ATOM     94  O   UNL     1     -10.763  15.429   4.793  1.00  0.00    -0.744 OA
ENDBRANCH  88  91
ENDBRANCH  61  84
ENDBRANCH  35  36
ENDBRANCH  28  30
ENDBRANCH  27  28
ENDBRANCH  26  27
ENDBRANCH  25  26
ENDBRANCH  24  25
ENDBRANCH  23  24
ENDBRANCH   1  23
TORSDOF 24
