REMARK SMILES C[C@@H](C(=O)OCCOCCOCCOCCOC(=O)c1ccc(-c2c3nc(c(-c4cccc(S(=O)(=O)[O-])c4F)c4ccc([nH]4)c(-c4cccc(S(=O)(=O)[O-])c4F)c4nc(c(-c5cccc(S(=O)(=O)[O-])c5F)c5ccc2[nH]5)C=C4)C=C3)cc1)c1ccc(C[C@@H]2CCC[C@@H]2O)cc1Br
REMARK SMILES IDX 10 1 9 2 8 3 7 4 6 5 5 6 3 7 4 8 2 9 1 10 83 11 84 12 95 13
REMARK SMILES IDX 85 14 94 15 96 16 86 17 87 18 88 19 89 20 92 21 90 22 91 23
REMARK SMILES IDX 93 24 11 26 12 27 13 28 14 29 15 30 16 31 17 32 18 33 19 34
REMARK SMILES IDX 20 35 21 36 82 37 22 38 81 39 23 40 24 41 25 42 75 43 26 44
REMARK SMILES IDX 80 45 74 46 76 47 27 48 79 49 73 50 72 51 28 53 60 54 40 55
REMARK SMILES IDX 59 56 41 57 44 58 58 59 77 60 42 61 43 62 57 64 78 65 45 66
REMARK SMILES IDX 29 67 30 68 38 69 31 70 33 71 39 72 32 73 34 74 35 75 36 76
REMARK SMILES IDX 37 77 61 78 62 79 70 80 63 81 65 82 71 83 64 84 66 85 67 86
REMARK SMILES IDX 68 87 69 88 46 89 47 90 55 91 48 92 50 93 56 94 49 95 51 96
REMARK SMILES IDX 52 97 53 98 54 99
REMARK H PARENT 93 25 76 52 44 63
REMARK Flexibility Score: inf
ROOT
ATOM      1  C   UNL     1     -11.431   5.576   3.924  1.00  0.00     0.188 C 
ENDROOT
BRANCH   1   2
ATOM      2  C   UNL     1     -12.084   4.522   3.004  1.00  0.00     0.188 C 
BRANCH   2   3
ATOM      3  O   UNL     1     -13.424   4.105   3.233  1.00  0.00    -0.376 OA
BRANCH   3   4
ATOM      4  C   UNL     1     -13.913   4.034   4.564  1.00  0.00     0.202 C 
BRANCH   4   5
ATOM      5  C   UNL     1     -13.123   3.274   5.651  1.00  0.00     0.261 C 
BRANCH   5   6
ATOM      6  O   UNL     1     -11.690   3.448   5.678  1.00  0.00    -0.463 OA
BRANCH   6   7
ATOM      7  C   UNL     1     -10.939   2.435   5.176  1.00  0.00     0.313 C 
ATOM      8  O   UNL     1     -11.419   1.386   4.752  1.00  0.00    -0.252 OA
BRANCH   7   9
ATOM      9  C   UNL     1      -9.411   2.694   5.194  1.00  0.00     0.127 C 
ATOM     10  C   UNL     1      -8.865   3.969   5.843  1.00  0.00     0.025 C 
BRANCH   9  11
ATOM     11  C   UNL     1      -8.779   2.251   3.864  1.00  0.00    -0.020 A 
ATOM     12  C   UNL     1      -8.406   0.888   3.802  1.00  0.00     0.006 A 
ATOM     13  C   UNL     1      -8.658   2.984   2.670  1.00  0.00     0.022 A 
ATOM     14  C   UNL     1      -7.917   0.300   2.632  1.00  0.00     0.004 A 
ATOM     15  C   UNL     1      -8.321   2.348   1.469  1.00  0.00     0.019 A 
ATOM     16  Br  UNL     1      -8.591   4.873   2.483  1.00  0.00    -0.050 Br
ATOM     17  C   UNL     1      -7.853   1.038   1.456  1.00  0.00    -0.047 A 
BRANCH  17  18
ATOM     18  C   UNL     1      -7.156   0.530   0.224  1.00  0.00     0.041 C 
BRANCH  18  19
ATOM     19  C   UNL     1      -5.647   0.870   0.124  1.00  0.00     0.022 C 
ATOM     20  C   UNL     1      -4.794   0.290   1.260  1.00  0.00     0.007 C 
ATOM     21  C   UNL     1      -5.222   2.347   0.120  1.00  0.00     0.117 C 
ATOM     22  C   UNL     1      -4.538   1.427   2.254  1.00  0.00     0.003 C 
ATOM     23  C   UNL     1      -4.996   2.715   1.582  1.00  0.00     0.032 C 
BRANCH  21  24
ATOM     24  O   UNL     1      -6.134   3.199  -0.540  1.00  0.00    -0.393 OA
ATOM     25  H   UNL     1      -6.996   3.156  -0.098  1.00  0.00     0.210 HD
ENDBRANCH  21  24
ENDBRANCH  18  19
ENDBRANCH  17  18
ENDBRANCH   9  11
ENDBRANCH   7   9
ENDBRANCH   6   7
ENDBRANCH   5   6
ENDBRANCH   4   5
ENDBRANCH   3   4
ENDBRANCH   2   3
ENDBRANCH   1   2
BRANCH   1  26
ATOM     26  O   UNL     1     -12.284   6.137   4.893  1.00  0.00    -0.377 OA
BRANCH  26  27
ATOM     27  C   UNL     1     -12.818   7.406   4.562  1.00  0.00     0.188 C 
BRANCH  27  28
ATOM     28  C   UNL     1     -13.319   7.591   3.117  1.00  0.00     0.188 C 
BRANCH  28  29
ATOM     29  O   UNL     1     -12.350   7.304   2.110  1.00  0.00    -0.376 OA
BRANCH  29  30
ATOM     30  C   UNL     1     -11.623   8.378   1.529  1.00  0.00     0.202 C 
BRANCH  30  31
ATOM     31  C   UNL     1     -10.545   9.045   2.399  1.00  0.00     0.261 C 
BRANCH  31  32
ATOM     32  O   UNL     1     -11.007   9.661   3.609  1.00  0.00    -0.460 OA
BRANCH  32  33
ATOM     33  C   UNL     1     -11.964  10.607   3.506  1.00  0.00     0.338 C 
ATOM     34  O   UNL     1     -12.429  11.074   2.479  1.00  0.00    -0.246 OA
BRANCH  33  35
ATOM     35  C   UNL     1     -12.522  10.824   4.855  1.00  0.00     0.060 A 
ATOM     36  C   UNL     1     -13.888  10.586   5.061  1.00  0.00     0.016 A 
ATOM     37  C   UNL     1     -11.701  11.216   5.914  1.00  0.00     0.016 A 
ATOM     38  C   UNL     1     -14.443  10.765   6.326  1.00  0.00     0.010 A 
ATOM     39  C   UNL     1     -12.265  11.428   7.173  1.00  0.00     0.010 A 
ATOM     40  C   UNL     1     -13.644  11.236   7.373  1.00  0.00    -0.014 A 
BRANCH  40  41
ATOM     41  C   UNL     1     -14.293  11.747   8.601  1.00  0.00     0.031 A 
ATOM     42  C   UNL     1     -14.553  13.225   8.693  1.00  0.00     0.074 A 
ATOM     43  C   UNL     1     -14.653  10.925   9.602  1.00  0.00     0.049 A 
ATOM     44  N   UNL     1     -15.079  13.917   9.667  1.00  0.00    -0.248 NA
ATOM     45  C   UNL     1     -14.163  14.033   7.523  1.00  0.00     0.031 C 
ATOM     46  C   UNL     1     -14.473   9.475   9.614  1.00  0.00     0.029 A 
ATOM     47  N   UNL     1     -15.228  11.206  10.816  1.00  0.00    -0.354 N 
ATOM     48  C   UNL     1     -15.053  15.240   9.245  1.00  0.00     0.074 A 
ATOM     49  C   UNL     1     -14.453  15.258   7.930  1.00  0.00     0.031 C 
ATOM     50  C   UNL     1     -14.904   8.995  10.794  1.00  0.00     0.029 A 
ATOM     51  C   UNL     1     -15.362  10.105  11.628  1.00  0.00     0.049 A 
ATOM     52  H   UNL     1     -15.518  12.110  11.079  1.00  0.00     0.167 HD
ATOM     53  C   UNL     1     -15.494  16.343   9.893  1.00  0.00     0.034 A 
ATOM     54  C   UNL     1     -15.782  10.015  12.906  1.00  0.00     0.034 A 
ATOM     55  C   UNL     1     -16.097  16.317  11.197  1.00  0.00     0.049 A 
ATOM     56  C   UNL     1     -16.231  11.265  13.620  1.00  0.00     0.074 A 
ATOM     57  C   UNL     1     -16.619  17.372  11.922  1.00  0.00     0.029 A 
ATOM     58  N   UNL     1     -16.237  15.182  11.980  1.00  0.00    -0.354 N 
ATOM     59  N   UNL     1     -16.303  12.495  13.171  1.00  0.00    -0.248 NA
ATOM     60  C   UNL     1     -16.686  11.110  15.010  1.00  0.00     0.031 C 
ATOM     61  C   UNL     1     -17.035  16.882  13.164  1.00  0.00     0.029 A 
ATOM     62  C   UNL     1     -16.818  15.513  13.191  1.00  0.00     0.049 A 
ATOM     63  H   UNL     1     -15.963  14.275  11.714  1.00  0.00     0.167 HD
ATOM     64  C   UNL     1     -16.850  13.250  14.204  1.00  0.00     0.074 A 
ATOM     65  C   UNL     1     -17.104  12.335  15.297  1.00  0.00     0.031 C 
ATOM     66  C   UNL     1     -17.111  14.581  14.249  1.00  0.00     0.034 A 
BRANCH  53  67
ATOM     67  C   UNL     1     -15.335  17.670   9.200  1.00  0.00     0.023 A 
ATOM     68  C   UNL     1     -16.132  17.983   8.080  1.00  0.00     0.012 A 
ATOM     69  C   UNL     1     -14.422  18.624   9.688  1.00  0.00     0.148 A 
ATOM     70  C   UNL     1     -15.998  19.212   7.436  1.00  0.00     0.002 A 
ATOM     71  C   UNL     1     -14.330  19.866   9.072  1.00  0.00     0.091 A 
ATOM     72  F   UNL     1     -13.655  18.296  10.738  1.00  0.00    -0.205 F 
ATOM     73  C   UNL     1     -15.107  20.157   7.939  1.00  0.00     0.022 A 
BRANCH  71  74
ATOM     74  S   UNL     1     -13.271  21.177   9.692  1.00  0.00     0.127 S 
ATOM     75  O   UNL     1     -12.262  21.264   8.638  1.00  0.00    -0.237 OA
ATOM     76  O   UNL     1     -14.193  22.311   9.750  1.00  0.00    -0.237 OA
ATOM     77  O   UNL     1     -12.782  20.723  10.986  1.00  0.00    -0.744 OA
ENDBRANCH  71  74
ENDBRANCH  53  67
BRANCH  54  78
ATOM     78  C   UNL     1     -15.820   8.692  13.592  1.00  0.00     0.023 A 
ATOM     79  C   UNL     1     -17.060   8.123  13.943  1.00  0.00     0.012 A 
ATOM     80  C   UNL     1     -14.634   7.997  13.902  1.00  0.00     0.148 A 
ATOM     81  C   UNL     1     -17.118   6.904  14.620  1.00  0.00     0.002 A 
ATOM     82  C   UNL     1     -14.701   6.756  14.525  1.00  0.00     0.091 A 
ATOM     83  F   UNL     1     -13.464   8.562  13.574  1.00  0.00    -0.205 F 
ATOM     84  C   UNL     1     -15.941   6.217  14.902  1.00  0.00     0.022 A 
BRANCH  82  85
ATOM     85  S   UNL     1     -13.247   5.744  14.821  1.00  0.00     0.127 S 
ATOM     86  O   UNL     1     -13.170   5.750  16.280  1.00  0.00    -0.237 OA
ATOM     87  O   UNL     1     -13.647   4.467  14.229  1.00  0.00    -0.237 OA
ATOM     88  O   UNL     1     -12.153   6.412  14.130  1.00  0.00    -0.744 OA
ENDBRANCH  82  85
ENDBRANCH  54  78
BRANCH  66  89
ATOM     89  C   UNL     1     -17.753  15.130  15.498  1.00  0.00     0.023 A 
ATOM     90  C   UNL     1     -17.012  15.227  16.692  1.00  0.00     0.012 A 
ATOM     91  C   UNL     1     -19.071  15.627  15.460  1.00  0.00     0.148 A 
ATOM     92  C   UNL     1     -17.587  15.775  17.839  1.00  0.00     0.002 A 
ATOM     93  C   UNL     1     -19.617  16.222  16.590  1.00  0.00     0.091 A 
ATOM     94  F   UNL     1     -19.764  15.514  14.318  1.00  0.00    -0.205 F 
ATOM     95  C   UNL     1     -18.883  16.283  17.785  1.00  0.00     0.022 A 
BRANCH  93  96
ATOM     96  S   UNL     1     -21.239  16.996  16.585  1.00  0.00     0.127 S 
ATOM     97  O   UNL     1     -22.011  16.074  17.416  1.00  0.00    -0.237 OA
ATOM     98  O   UNL     1     -20.964  18.292  17.205  1.00  0.00    -0.237 OA
ATOM     99  O   UNL     1     -21.647  17.067  15.188  1.00  0.00    -0.744 OA
ENDBRANCH  93  96
ENDBRANCH  66  89
ENDBRANCH  40  41
ENDBRANCH  33  35
ENDBRANCH  32  33
ENDBRANCH  31  32
ENDBRANCH  30  31
ENDBRANCH  29  30
ENDBRANCH  28  29
ENDBRANCH  27  28
ENDBRANCH  26  27
ENDBRANCH   1  26
TORSDOF 27
