REMARK SMILES O=C(C[NH+]1CCOCC1)Nc1nnc(SCC(=O)OCCOCCOCCOCCOC(=O)c2ccc(-c3c4nc(c(-c5cccc(S(=O)(=O)[O-])c5F)c5ccc([nH]5)c(-c5cccc(S(=O)(=O)[O-])c5F)c5nc(c(-c6cccc(S(=O)(=O)[O-])c6F)c6ccc3[nH]6)C=C5)C=C4)cc2)s1
REMARK SMILES IDX 24 1 23 2 22 3 21 4 20 5 19 6 17 7 18 8 16 9 15 10 14 11
REMARK SMILES IDX 11 12 12 13 97 14 13 15 10 16 1 17 2 18 3 20 4 21 5 22 9 23
REMARK SMILES IDX 6 25 8 26 7 27 25 28 26 29 27 30 28 31 29 32 30 33 31 34
REMARK SMILES IDX 32 35 33 36 34 37 35 38 96 39 36 40 95 41 37 42 38 43 39 44
REMARK SMILES IDX 89 45 40 46 94 47 88 48 90 49 41 50 93 51 87 52 86 53 42 55
REMARK SMILES IDX 74 56 54 57 73 58 55 59 58 60 72 61 91 62 56 63 57 64 71 66
REMARK SMILES IDX 92 67 59 68 43 69 44 70 52 71 45 72 47 73 53 74 46 75 48 76
REMARK SMILES IDX 49 77 50 78 51 79 75 80 76 81 84 82 77 83 79 84 85 85 78 86
REMARK SMILES IDX 80 87 81 88 82 89 83 90 60 91 61 92 69 93 62 94 64 95 70 96
REMARK SMILES IDX 63 97 65 98 66 99 67 100 68 101
REMARK H PARENT 10 19 4 24 90 54 58 65
REMARK Flexibility Score: inf
ROOT
ATOM      1  C   UNL     1      -1.121  -1.267  -2.447  1.00  0.00     0.188 C 
ENDROOT
BRANCH   1   2
ATOM      2  C   UNL     1      -1.773   0.028  -1.959  1.00  0.00     0.188 C 
BRANCH   2   3
ATOM      3  O   UNL     1      -3.158   0.091  -1.688  1.00  0.00    -0.376 OA
BRANCH   3   4
ATOM      4  C   UNL     1      -4.021  -0.863  -2.280  1.00  0.00     0.202 C 
BRANCH   4   5
ATOM      5  C   UNL     1      -4.149  -0.898  -3.817  1.00  0.00     0.261 C 
BRANCH   5   6
ATOM      6  O   UNL     1      -2.931  -0.984  -4.606  1.00  0.00    -0.463 OA
BRANCH   6   7
ATOM      7  C   UNL     1      -2.498   0.156  -5.205  1.00  0.00     0.316 C 
ATOM      8  O   UNL     1      -3.079   1.235  -5.093  1.00  0.00    -0.251 OA
BRANCH   7   9
ATOM      9  C   UNL     1      -1.290   0.042  -6.128  1.00  0.00     0.200 C 
BRANCH   9  10
ATOM     10  S   UNL     1      -0.073  -1.269  -5.929  1.00  0.00    -0.082 SA
BRANCH  10  11
ATOM     11  C   UNL     1       1.243  -0.696  -4.897  1.00  0.00     0.176 A 
ATOM     12  C   UNL     1       2.628  -0.029  -3.064  1.00  0.00     0.213 A 
ATOM     13  N   UNL     1       3.152  -1.029  -3.737  1.00  0.00    -0.119 NA
ATOM     14  S   UNL     1       1.284   0.680  -3.860  1.00  0.00    -0.068 S 
ATOM     15  N   UNL     1       2.326  -1.443  -4.772  1.00  0.00    -0.130 NA
BRANCH  12  16
ATOM     16  N   UNL     1       3.099   0.331  -1.811  1.00  0.00    -0.296 N 
ATOM     17  O   UNL     1       1.381   1.660  -1.089  1.00  0.00    -0.268 OA
ATOM     18  C   UNL     1       2.408   1.020  -0.850  1.00  0.00     0.281 C 
ATOM     19  H   UNL     1       4.021   0.066  -1.590  1.00  0.00     0.172 HD
BRANCH  18  20
ATOM     20  C   UNL     1       2.898   0.954   0.622  1.00  0.00     0.364 C 
BRANCH  20  21
ATOM     21  N   UNL     1       4.046   0.147   1.011  1.00  0.00    -0.323 N 
ATOM     22  C   UNL     1       5.389   0.681   1.065  1.00  0.00     0.291 C 
ATOM     23  C   UNL     1       4.032  -1.299   1.044  1.00  0.00     0.291 C 
ATOM     24  H   UNL     1       3.526   0.455   1.833  1.00  0.00     0.348 HD
ATOM     25  C   UNL     1       6.172   0.181  -0.144  1.00  0.00     0.221 C 
ATOM     26  C   UNL     1       4.922  -1.899  -0.063  1.00  0.00     0.221 C 
ATOM     27  O   UNL     1       6.195  -1.252  -0.215  1.00  0.00    -0.370 OA
ENDBRANCH  20  21
ENDBRANCH  18  20
ENDBRANCH  12  16
ENDBRANCH  10  11
ENDBRANCH   9  10
ENDBRANCH   7   9
ENDBRANCH   6   7
ENDBRANCH   5   6
ENDBRANCH   4   5
ENDBRANCH   3   4
ENDBRANCH   2   3
ENDBRANCH   1   2
BRANCH   1  28
ATOM     28  O   UNL     1      -1.795  -2.494  -2.317  1.00  0.00    -0.377 OA
BRANCH  28  29
ATOM     29  C   UNL     1      -1.586  -3.313  -1.179  1.00  0.00     0.188 C 
BRANCH  29  30
ATOM     30  C   UNL     1      -1.089  -2.613   0.082  1.00  0.00     0.188 C 
BRANCH  30  31
ATOM     31  O   UNL     1       0.319  -2.406   0.255  1.00  0.00    -0.376 OA
BRANCH  31  32
ATOM     32  C   UNL     1       1.224  -2.673  -0.809  1.00  0.00     0.202 C 
BRANCH  32  33
ATOM     33  C   UNL     1       2.233  -3.766  -0.503  1.00  0.00     0.261 C 
BRANCH  33  34
ATOM     34  O   UNL     1       1.565  -5.011  -0.483  1.00  0.00    -0.460 OA
BRANCH  34  35
ATOM     35  C   UNL     1       0.984  -5.292   0.703  1.00  0.00     0.338 C 
ATOM     36  O   UNL     1       1.159  -4.750   1.781  1.00  0.00    -0.246 OA
BRANCH  35  37
ATOM     37  C   UNL     1      -0.065  -6.263   0.406  1.00  0.00     0.060 A 
ATOM     38  C   UNL     1      -1.278  -6.148   1.090  1.00  0.00     0.016 A 
ATOM     39  C   UNL     1       0.153  -7.248  -0.565  1.00  0.00     0.016 A 
ATOM     40  C   UNL     1      -2.268  -7.080   0.851  1.00  0.00     0.010 A 
ATOM     41  C   UNL     1      -0.834  -8.182  -0.802  1.00  0.00     0.010 A 
ATOM     42  C   UNL     1      -2.009  -8.125  -0.043  1.00  0.00    -0.014 A 
BRANCH  42  43
ATOM     43  C   UNL     1      -2.847  -9.322   0.025  1.00  0.00     0.031 A 
ATOM     44  C   UNL     1      -2.368 -10.437   0.902  1.00  0.00     0.074 A 
ATOM     45  C   UNL     1      -3.981  -9.373  -0.683  1.00  0.00     0.049 A 
ATOM     46  N   UNL     1      -2.910 -11.600   1.123  1.00  0.00    -0.248 NA
ATOM     47  C   UNL     1      -1.100 -10.214   1.625  1.00  0.00     0.031 C 
ATOM     48  C   UNL     1      -4.485  -8.307  -1.548  1.00  0.00     0.029 A 
ATOM     49  N   UNL     1      -4.898 -10.375  -0.798  1.00  0.00    -0.354 N 
ATOM     50  C   UNL     1      -2.042 -12.254   1.988  1.00  0.00     0.074 A 
ATOM     51  C   UNL     1      -0.927 -11.373   2.237  1.00  0.00     0.031 C 
ATOM     52  C   UNL     1      -5.623  -8.724  -2.126  1.00  0.00     0.029 A 
ATOM     53  C   UNL     1      -5.899 -10.089  -1.690  1.00  0.00     0.049 A 
ATOM     54  H   UNL     1      -4.847 -11.217  -0.291  1.00  0.00     0.167 HD
ATOM     55  C   UNL     1      -2.181 -13.482   2.532  1.00  0.00     0.034 A 
ATOM     56  C   UNL     1      -6.908 -10.872  -2.110  1.00  0.00     0.034 A 
ATOM     57  C   UNL     1      -3.303 -14.330   2.248  1.00  0.00     0.049 A 
ATOM     58  C   UNL     1      -7.022 -12.248  -1.514  1.00  0.00     0.074 A 
ATOM     59  C   UNL     1      -3.586 -15.585   2.748  1.00  0.00     0.029 A 
ATOM     60  N   UNL     1      -4.322 -14.006   1.361  1.00  0.00    -0.354 N 
ATOM     61  N   UNL     1      -6.256 -12.827  -0.618  1.00  0.00    -0.248 NA
ATOM     62  C   UNL     1      -8.154 -13.067  -1.959  1.00  0.00     0.031 C 
ATOM     63  C   UNL     1      -4.758 -16.037   2.131  1.00  0.00     0.029 A 
ATOM     64  C   UNL     1      -5.230 -15.044   1.284  1.00  0.00     0.049 A 
ATOM     65  H   UNL     1      -4.388 -13.161   0.861  1.00  0.00     0.167 HD
ATOM     66  C   UNL     1      -6.832 -14.064  -0.362  1.00  0.00     0.074 A 
ATOM     67  C   UNL     1      -8.022 -14.140  -1.190  1.00  0.00     0.031 C 
ATOM     68  C   UNL     1      -6.420 -15.055   0.469  1.00  0.00     0.034 A 
BRANCH  55  69
ATOM     69  C   UNL     1      -1.097 -13.957   3.462  1.00  0.00     0.023 A 
ATOM     70  C   UNL     1      -0.928 -13.345   4.722  1.00  0.00     0.012 A 
ATOM     71  C   UNL     1      -0.240 -15.008   3.086  1.00  0.00     0.148 A 
ATOM     72  C   UNL     1       0.102 -13.743   5.574  1.00  0.00     0.002 A 
ATOM     73  C   UNL     1       0.752 -15.433   3.962  1.00  0.00     0.091 A 
ATOM     74  F   UNL     1      -0.392 -15.554   1.871  1.00  0.00    -0.205 F 
ATOM     75  C   UNL     1       0.934 -14.793   5.199  1.00  0.00     0.022 A 
BRANCH  73  76
ATOM     76  S   UNL     1       1.828 -16.825   3.602  1.00  0.00     0.127 S 
ATOM     77  O   UNL     1       3.119 -16.162   3.424  1.00  0.00    -0.237 OA
ATOM     78  O   UNL     1       1.714 -17.622   4.823  1.00  0.00    -0.237 OA
ATOM     79  O   UNL     1       1.282 -17.458   2.409  1.00  0.00    -0.744 OA
ENDBRANCH  73  76
ENDBRANCH  55  69
BRANCH  56  80
ATOM     80  C   UNL     1      -7.887 -10.350  -3.099  1.00  0.00     0.023 A 
ATOM     81  C   UNL     1      -9.208 -10.083  -2.693  1.00  0.00     0.012 A 
ATOM     82  C   UNL     1      -7.502 -10.063  -4.423  1.00  0.00     0.148 A 
ATOM     83  C   UNL     1     -10.137  -9.567  -3.597  1.00  0.00     0.002 A 
ATOM     84  C   UNL     1      -8.417  -9.501  -5.304  1.00  0.00     0.091 A 
ATOM     85  F   UNL     1      -6.239 -10.327  -4.787  1.00  0.00    -0.205 F 
ATOM     86  C   UNL     1      -9.740  -9.267  -4.898  1.00  0.00     0.022 A 
BRANCH  84  87
ATOM     87  S   UNL     1      -7.963  -8.964  -6.957  1.00  0.00     0.127 S 
ATOM     88  O   UNL     1      -8.717  -9.897  -7.790  1.00  0.00    -0.237 OA
ATOM     89  O   UNL     1      -8.456  -7.587  -6.971  1.00  0.00    -0.237 OA
ATOM     90  O   UNL     1      -6.513  -9.086  -7.029  1.00  0.00    -0.744 OA
ENDBRANCH  84  87
ENDBRANCH  56  80
BRANCH  68  91
ATOM     91  C   UNL     1      -7.285 -16.282   0.550  1.00  0.00     0.023 A 
ATOM     92  C   UNL     1      -7.324 -17.189  -0.527  1.00  0.00     0.012 A 
ATOM     93  C   UNL     1      -7.997 -16.570   1.731  1.00  0.00     0.148 A 
ATOM     94  C   UNL     1      -8.092 -18.349  -0.443  1.00  0.00     0.002 A 
ATOM     95  C   UNL     1      -8.711 -17.755   1.829  1.00  0.00     0.091 A 
ATOM     96  F   UNL     1      -7.954 -15.684   2.736  1.00  0.00    -0.205 F 
ATOM     97  C   UNL     1      -8.774 -18.638   0.738  1.00  0.00     0.022 A 
BRANCH  95  98
ATOM     98  S   UNL     1      -9.527 -18.261   3.345  1.00  0.00     0.127 S 
ATOM     99  O   UNL     1     -10.937 -18.122   2.983  1.00  0.00    -0.237 OA
ATOM    100  O   UNL     1      -9.068 -19.642   3.495  1.00  0.00    -0.237 OA
ATOM    101  O   UNL     1      -9.057 -17.351   4.380  1.00  0.00    -0.744 OA
ENDBRANCH  95  98
ENDBRANCH  68  91
ENDBRANCH  42  43
ENDBRANCH  35  37
ENDBRANCH  34  35
ENDBRANCH  33  34
ENDBRANCH  32  33
ENDBRANCH  31  32
ENDBRANCH  30  31
ENDBRANCH  29  30
ENDBRANCH  28  29
ENDBRANCH   1  28
TORSDOF 28
