REMARK SMILES Cc1ccc(C(=O)OCCOCCOCCOCCOC(=O)c2ccc(-c3c4nc(c(-c5cccc(S(=O)(=O)[O-])c5F)c5ccc([nH]5)c(-c5cccc(S(=O)(=O)[O-])c5F)c5nc(c(-c6cccc(S(=O)(=O)[O-])c6F)c6ccc3[nH]6)C=C5)C=C4)cc2)c2c1N[C@H](c1ccccc1F)[C@H]1CC=C[C@@H]21
REMARK SMILES IDX 15 1 14 2 13 3 12 4 11 5 10 6 9 7 8 8 6 9 7 10 5 11 1 12
REMARK SMILES IDX 2 13 3 14 87 15 4 16 86 17 88 18 101 19 89 20 97 22 100 23
REMARK SMILES IDX 98 24 99 25 90 26 91 27 95 28 92 29 94 30 96 31 93 32 16 33
REMARK SMILES IDX 17 34 18 35 19 36 20 37 21 38 22 39 23 40 24 41 85 42 25 43
REMARK SMILES IDX 84 44 26 45 27 46 28 47 78 48 29 49 83 50 77 51 79 52 30 53
REMARK SMILES IDX 82 54 76 55 75 56 31 58 63 59 43 60 62 61 44 62 47 63 61 64
REMARK SMILES IDX 80 65 45 66 46 67 60 69 81 70 48 71 32 72 33 73 41 74 34 75
REMARK SMILES IDX 36 76 42 77 35 78 37 79 38 80 39 81 40 82 64 83 65 84 73 85
REMARK SMILES IDX 66 86 68 87 74 88 67 89 69 90 70 91 71 92 72 93 49 94 50 95
REMARK SMILES IDX 58 96 51 97 53 98 59 99 52 100 54 101 55 102 56 103 57 104
REMARK H PARENT 88 21 79 57 47 68
REMARK Flexibility Score: inf
ROOT
ATOM      1  C   UNL     1      -2.286   5.888   5.166  1.00  0.00     0.188 C 
ENDROOT
BRANCH   1   2
ATOM      2  O   UNL     1      -1.730   4.932   4.275  1.00  0.00    -0.377 OA
BRANCH   2   3
ATOM      3  C   UNL     1      -0.456   5.174   3.709  1.00  0.00     0.188 C 
BRANCH   3   4
ATOM      4  C   UNL     1      -0.111   6.596   3.231  1.00  0.00     0.188 C 
BRANCH   4   5
ATOM      5  O   UNL     1      -1.190   7.525   3.201  1.00  0.00    -0.376 OA
BRANCH   5   6
ATOM      6  C   UNL     1      -1.670   7.841   1.897  1.00  0.00     0.202 C 
BRANCH   6   7
ATOM      7  C   UNL     1      -2.572   6.755   1.308  1.00  0.00     0.261 C 
BRANCH   7   8
ATOM      8  O   UNL     1      -1.901   5.499   1.115  1.00  0.00    -0.460 OA
BRANCH   8   9
ATOM      9  C   UNL     1      -0.984   5.431   0.122  1.00  0.00     0.338 C 
ATOM     10  O   UNL     1      -0.690   6.333  -0.641  1.00  0.00    -0.246 OA
BRANCH   9  11
ATOM     11  C   UNL     1      -0.377   4.071   0.146  1.00  0.00     0.065 A 
ATOM     12  C   UNL     1       0.950  -0.034   0.201  1.00  0.00     0.046 C 
ATOM     13  C   UNL     1       0.557   1.421   0.224  1.00  0.00    -0.028 A 
ATOM     14  C   UNL     1      -0.818   1.693   0.191  1.00  0.00     0.006 A 
ATOM     15  C   UNL     1       1.485   2.487   0.259  1.00  0.00     0.042 A 
ATOM     16  C   UNL     1      -1.281   3.001   0.144  1.00  0.00     0.016 A 
ATOM     17  C   UNL     1       1.020   3.830   0.224  1.00  0.00    -0.003 A 
ATOM     18  N   UNL     1       2.850   2.225   0.274  1.00  0.00    -0.377 N 
ATOM     19  C   UNL     1       2.019   4.946   0.478  1.00  0.00     0.050 C 
ATOM     20  C   UNL     1       3.798   3.276  -0.056  1.00  0.00     0.117 C 
ATOM     21  H   UNL     1       3.176   1.326   0.508  1.00  0.00     0.161 HD
ATOM     22  C   UNL     1       3.466   4.497   0.814  1.00  0.00     0.031 C 
ATOM     23  C   UNL     1       2.271   5.939  -0.621  1.00  0.00    -0.023 C 
ATOM     24  C   UNL     1       4.318   5.737   0.489  1.00  0.00     0.034 C 
ATOM     25  C   UNL     1       3.526   6.404  -0.585  1.00  0.00    -0.030 C 
BRANCH  20  26
ATOM     26  C   UNL     1       5.202   2.703  -0.015  1.00  0.00     0.010 A 
ATOM     27  C   UNL     1       5.602   1.869  -1.079  1.00  0.00     0.009 A 
ATOM     28  C   UNL     1       6.138   2.964   0.989  1.00  0.00     0.128 A 
ATOM     29  C   UNL     1       6.900   1.360  -1.153  1.00  0.00     0.001 A 
ATOM     30  C   UNL     1       7.439   2.466   0.917  1.00  0.00     0.039 A 
ATOM     31  F   UNL     1       5.824   3.727   2.045  1.00  0.00    -0.207 F 
ATOM     32  C   UNL     1       7.824   1.670  -0.159  1.00  0.00     0.003 A 
ENDBRANCH  20  26
ENDBRANCH   9  11
ENDBRANCH   8   9
ENDBRANCH   7   8
ENDBRANCH   6   7
ENDBRANCH   5   6
ENDBRANCH   4   5
ENDBRANCH   3   4
ENDBRANCH   2   3
ENDBRANCH   1   2
BRANCH   1  33
ATOM     33  C   UNL     1      -1.355   6.726   6.065  1.00  0.00     0.188 C 
BRANCH  33  34
ATOM     34  O   UNL     1      -0.054   6.177   6.249  1.00  0.00    -0.376 OA
BRANCH  34  35
ATOM     35  C   UNL     1       0.203   5.602   7.523  1.00  0.00     0.202 C 
BRANCH  35  36
ATOM     36  C   UNL     1      -0.449   4.231   7.733  1.00  0.00     0.261 C 
BRANCH  36  37
ATOM     37  O   UNL     1      -1.884   4.230   7.747  1.00  0.00    -0.460 OA
BRANCH  37  38
ATOM     38  C   UNL     1      -2.506   4.997   8.667  1.00  0.00     0.338 C 
ATOM     39  O   UNL     1      -1.995   5.682   9.533  1.00  0.00    -0.246 OA
BRANCH  38  40
ATOM     40  C   UNL     1      -3.938   5.011   8.317  1.00  0.00     0.060 A 
ATOM     41  C   UNL     1      -4.540   6.222   7.953  1.00  0.00     0.016 A 
ATOM     42  C   UNL     1      -4.666   3.820   8.317  1.00  0.00     0.016 A 
ATOM     43  C   UNL     1      -5.888   6.245   7.600  1.00  0.00     0.010 A 
ATOM     44  C   UNL     1      -6.024   3.850   8.004  1.00  0.00     0.010 A 
ATOM     45  C   UNL     1      -6.644   5.066   7.674  1.00  0.00    -0.014 A 
BRANCH  45  46
ATOM     46  C   UNL     1      -8.120   5.143   7.659  1.00  0.00     0.031 A 
ATOM     47  C   UNL     1      -8.812   5.436   8.961  1.00  0.00     0.074 A 
ATOM     48  C   UNL     1      -8.830   4.928   6.537  1.00  0.00     0.049 A 
ATOM     49  N   UNL     1     -10.089   5.525   9.216  1.00  0.00    -0.248 NA
ATOM     50  C   UNL     1      -7.947   5.663  10.134  1.00  0.00     0.031 C 
ATOM     51  C   UNL     1      -8.270   4.646   5.217  1.00  0.00     0.029 A 
ATOM     52  N   UNL     1     -10.188   4.896   6.343  1.00  0.00    -0.354 N 
ATOM     53  C   UNL     1     -10.181   5.808  10.572  1.00  0.00     0.074 A 
ATOM     54  C   UNL     1      -8.835   5.878  11.092  1.00  0.00     0.031 C 
ATOM     55  C   UNL     1      -9.280   4.446   4.351  1.00  0.00     0.029 A 
ATOM     56  C   UNL     1     -10.554   4.569   5.059  1.00  0.00     0.049 A 
ATOM     57  H   UNL     1     -10.839   5.088   7.056  1.00  0.00     0.167 HD
ATOM     58  C   UNL     1     -11.289   6.003  11.318  1.00  0.00     0.034 A 
ATOM     59  C   UNL     1     -11.778   4.382   4.526  1.00  0.00     0.034 A 
ATOM     60  C   UNL     1     -12.626   5.932  10.807  1.00  0.00     0.049 A 
ATOM     61  C   UNL     1     -12.998   4.556   5.394  1.00  0.00     0.074 A 
ATOM     62  C   UNL     1     -13.812   6.141  11.484  1.00  0.00     0.029 A 
ATOM     63  N   UNL     1     -12.953   5.613   9.500  1.00  0.00    -0.354 N 
ATOM     64  N   UNL     1     -13.070   4.927   6.649  1.00  0.00    -0.248 NA
ATOM     65  C   UNL     1     -14.307   4.306   4.769  1.00  0.00     0.031 C 
ATOM     66  C   UNL     1     -14.863   5.938  10.586  1.00  0.00     0.029 A 
ATOM     67  C   UNL     1     -14.326   5.611   9.351  1.00  0.00     0.049 A 
ATOM     68  H   UNL     1     -12.305   5.417   8.786  1.00  0.00     0.167 HD
ATOM     69  C   UNL     1     -14.426   4.982   6.955  1.00  0.00     0.074 A 
ATOM     70  C   UNL     1     -15.143   4.614   5.753  1.00  0.00     0.031 C 
ATOM     71  C   UNL     1     -15.021   5.297   8.131  1.00  0.00     0.034 A 
BRANCH  58  72
ATOM     72  C   UNL     1     -11.107   6.352  12.764  1.00  0.00     0.023 A 
ATOM     73  C   UNL     1     -10.817   7.685  13.113  1.00  0.00     0.012 A 
ATOM     74  C   UNL     1     -11.309   5.391  13.772  1.00  0.00     0.148 A 
ATOM     75  C   UNL     1     -10.731   8.060  14.452  1.00  0.00     0.002 A 
ATOM     76  C   UNL     1     -11.248   5.778  15.104  1.00  0.00     0.091 A 
ATOM     77  F   UNL     1     -11.563   4.127  13.405  1.00  0.00    -0.205 F 
ATOM     78  C   UNL     1     -10.957   7.110  15.446  1.00  0.00     0.022 A 
BRANCH  76  79
ATOM     79  S   UNL     1     -11.567   4.646  16.461  1.00  0.00     0.127 S 
ATOM     80  O   UNL     1     -10.288   4.667  17.169  1.00  0.00    -0.237 OA
ATOM     81  O   UNL     1     -12.664   5.314  17.161  1.00  0.00    -0.237 OA
ATOM     82  O   UNL     1     -11.911   3.369  15.851  1.00  0.00    -0.744 OA
ENDBRANCH  76  79
ENDBRANCH  58  72
BRANCH  59  83
ATOM     83  C   UNL     1     -11.918   4.053   3.081  1.00  0.00     0.023 A 
ATOM     84  C   UNL     1     -12.384   5.043   2.195  1.00  0.00     0.012 A 
ATOM     85  C   UNL     1     -11.575   2.784   2.578  1.00  0.00     0.148 A 
ATOM     86  C   UNL     1     -12.521   4.771   0.834  1.00  0.00     0.002 A 
ATOM     87  C   UNL     1     -11.680   2.530   1.215  1.00  0.00     0.091 A 
ATOM     88  F   UNL     1     -11.146   1.854   3.443  1.00  0.00    -0.205 F 
ATOM     89  C   UNL     1     -12.162   3.519   0.343  1.00  0.00     0.022 A 
BRANCH  87  90
ATOM     90  S   UNL     1     -11.164   0.977   0.472  1.00  0.00     0.127 S 
ATOM     91  O   UNL     1     -12.432   0.451  -0.030  1.00  0.00    -0.237 OA
ATOM     92  O   UNL     1     -10.235   1.435  -0.561  1.00  0.00    -0.237 OA
ATOM     93  O   UNL     1     -10.549   0.209   1.545  1.00  0.00    -0.744 OA
ENDBRANCH  87  90
ENDBRANCH  59  83
BRANCH  71  94
ATOM     94  C   UNL     1     -16.523   5.284   8.200  1.00  0.00     0.023 A 
ATOM     95  C   UNL     1     -17.193   4.058   8.362  1.00  0.00     0.012 A 
ATOM     96  C   UNL     1     -17.246   6.491   8.270  1.00  0.00     0.148 A 
ATOM     97  C   UNL     1     -18.568   4.032   8.591  1.00  0.00     0.002 A 
ATOM     98  C   UNL     1     -18.610   6.459   8.533  1.00  0.00     0.091 A 
ATOM     99  F   UNL     1     -16.581   7.644   8.109  1.00  0.00    -0.205 F 
ATOM    100  C   UNL     1     -19.273   5.230   8.690  1.00  0.00     0.022 A 
BRANCH  98 101
ATOM    101  S   UNL     1     -19.587   7.948   8.764  1.00  0.00     0.127 S 
ATOM    102  O   UNL     1     -20.465   7.912   7.595  1.00  0.00    -0.237 OA
ATOM    103  O   UNL     1     -20.256   7.685  10.038  1.00  0.00    -0.237 OA
ATOM    104  O   UNL     1     -18.640   9.054   8.792  1.00  0.00    -0.744 OA
ENDBRANCH  98 101
ENDBRANCH  71  94
ENDBRANCH  45  46
ENDBRANCH  38  40
ENDBRANCH  37  38
ENDBRANCH  36  37
ENDBRANCH  35  36
ENDBRANCH  34  35
ENDBRANCH  33  34
ENDBRANCH   1  33
TORSDOF 24
