REMARK SMILES C[C@@H]1CN(C(=O)NC(=O)CCCCC(=O)OCCOCCOCCOCCOC(=O)c2ccc(-c3c4nc(c(-c5cccc(S(=O)(=O)[O-])c5F)c5ccc([nH]5)c(-c5cccc(S(=O)(=O)[O-])c5F)c5nc(c(-c6cccc(S(=O)(=O)[O-])c6F)c6ccc3[nH]6)C=C5)C=C4)cc2)CCO1
REMARK SMILES IDX 21 1 20 2 19 3 18 4 17 5 16 6 14 7 15 8 13 9 12 10 11 11
REMARK SMILES IDX 10 12 8 13 5 14 6 15 7 16 9 18 4 19 1 20 2 21 3 22 96 23
REMARK SMILES IDX 95 24 94 25 22 26 23 27 24 28 25 29 26 30 27 31 28 32 29 33
REMARK SMILES IDX 30 34 31 35 32 36 93 37 33 38 92 39 34 40 35 41 36 42 86 43
REMARK SMILES IDX 37 44 91 45 85 46 87 47 38 48 90 49 84 50 83 51 39 53 71 54
REMARK SMILES IDX 51 55 70 56 52 57 55 58 69 59 88 60 53 61 54 62 68 64 89 65
REMARK SMILES IDX 56 66 40 67 41 68 49 69 42 70 44 71 50 72 43 73 45 74 46 75
REMARK SMILES IDX 47 76 48 77 72 78 73 79 81 80 74 81 76 82 82 83 75 84 77 85
REMARK SMILES IDX 78 86 79 87 80 88 57 89 58 90 66 91 59 92 61 93 67 94 60 95
REMARK SMILES IDX 62 96 63 97 64 98 65 99
REMARK H PARENT 7 17 87 52 55 63
REMARK Flexibility Score: inf
ROOT
ATOM      1  C   UNL     1      -1.268   0.370  -3.859  1.00  0.00     0.188 C 
ENDROOT
BRANCH   1   2
ATOM      2  C   UNL     1      -1.222   1.865  -3.519  1.00  0.00     0.188 C 
BRANCH   2   3
ATOM      3  O   UNL     1      -0.028   2.576  -3.759  1.00  0.00    -0.376 OA
BRANCH   3   4
ATOM      4  C   UNL     1       1.109   2.475  -2.914  1.00  0.00     0.202 C 
BRANCH   4   5
ATOM      5  C   UNL     1       1.186   1.723  -1.569  1.00  0.00     0.261 C 
BRANCH   5   6
ATOM      6  O   UNL     1       0.638   0.391  -1.506  1.00  0.00    -0.463 OA
BRANCH   6   7
ATOM      7  C   UNL     1      -0.565   0.311  -0.897  1.00  0.00     0.305 C 
ATOM      8  O   UNL     1      -1.161   1.288  -0.441  1.00  0.00    -0.252 OA
BRANCH   7   9
ATOM      9  C   UNL     1      -1.239  -1.048  -0.843  1.00  0.00     0.123 C 
BRANCH   9  10
ATOM     10  C   UNL     1      -0.758  -2.345  -1.464  1.00  0.00     0.012 C 
BRANCH  10  11
ATOM     11  C   UNL     1       0.578  -2.947  -1.047  1.00  0.00     0.010 C 
BRANCH  11  12
ATOM     12  C   UNL     1       0.806  -3.480   0.375  1.00  0.00     0.100 C 
BRANCH  12  13
ATOM     13  C   UNL     1      -0.358  -4.040   1.169  1.00  0.00     0.227 C 
ATOM     14  C   UNL     1      -1.740  -2.081   2.388  1.00  0.00     0.324 C 
ATOM     15  O   UNL     1      -2.955  -2.028   2.616  1.00  0.00    -0.248 OA
ATOM     16  N   UNL     1      -1.257  -3.310   1.946  1.00  0.00    -0.278 N 
ATOM     17  H   UNL     1      -1.815  -3.984   2.397  1.00  0.00     0.174 HD
ATOM     18  O   UNL     1      -0.576  -5.260   1.124  1.00  0.00    -0.275 OA
BRANCH  14  19
ATOM     19  N   UNL     1      -0.945  -0.965   2.486  1.00  0.00    -0.320 N 
ATOM     20  C   UNL     1       2.554   0.245   1.620  1.00  0.00     0.040 C 
ATOM     21  C   UNL     1       1.252   0.330   2.419  1.00  0.00     0.134 C 
ATOM     22  C   UNL     1       0.474  -0.967   2.211  1.00  0.00     0.153 C 
ATOM     23  O   UNL     1       0.507   1.445   1.925  1.00  0.00    -0.375 OA
ATOM     24  C   UNL     1      -0.735   1.566   2.624  1.00  0.00     0.182 C 
ATOM     25  C   UNL     1      -1.634   0.335   2.471  1.00  0.00     0.150 C 
ENDBRANCH  14  19
ENDBRANCH  12  13
ENDBRANCH  11  12
ENDBRANCH  10  11
ENDBRANCH   9  10
ENDBRANCH   7   9
ENDBRANCH   6   7
ENDBRANCH   5   6
ENDBRANCH   4   5
ENDBRANCH   3   4
ENDBRANCH   2   3
ENDBRANCH   1   2
BRANCH   1  26
ATOM     26  O   UNL     1      -0.055  -0.348  -3.897  1.00  0.00    -0.377 OA
BRANCH  26  27
ATOM     27  C   UNL     1       0.902  -0.084  -4.911  1.00  0.00     0.188 C 
BRANCH  27  28
ATOM     28  C   UNL     1       0.537   0.804  -6.115  1.00  0.00     0.188 C 
BRANCH  28  29
ATOM     29  O   UNL     1      -0.843   0.893  -6.419  1.00  0.00    -0.376 OA
BRANCH  29  30
ATOM     30  C   UNL     1      -1.419  -0.056  -7.307  1.00  0.00     0.202 C 
BRANCH  30  31
ATOM     31  C   UNL     1      -1.287  -1.560  -7.000  1.00  0.00     0.261 C 
BRANCH  31  32
ATOM     32  O   UNL     1       0.043  -2.087  -6.899  1.00  0.00    -0.460 OA
BRANCH  32  33
ATOM     33  C   UNL     1       0.886  -1.883  -7.929  1.00  0.00     0.338 C 
ATOM     34  O   UNL     1       0.626  -1.354  -9.001  1.00  0.00    -0.246 OA
BRANCH  33  35
ATOM     35  C   UNL     1       2.249  -2.203  -7.465  1.00  0.00     0.060 A 
ATOM     36  C   UNL     1       3.216  -1.187  -7.463  1.00  0.00     0.016 A 
ATOM     37  C   UNL     1       2.570  -3.489  -7.025  1.00  0.00     0.016 A 
ATOM     38  C   UNL     1       4.519  -1.464  -7.066  1.00  0.00     0.010 A 
ATOM     39  C   UNL     1       3.888  -3.777  -6.667  1.00  0.00     0.010 A 
ATOM     40  C   UNL     1       4.874  -2.775  -6.734  1.00  0.00    -0.014 A 
BRANCH  40  41
ATOM     41  C   UNL     1       6.306  -3.144  -6.749  1.00  0.00     0.031 A 
ATOM     42  C   UNL     1       6.866  -3.691  -8.035  1.00  0.00     0.074 A 
ATOM     43  C   UNL     1       7.095  -2.973  -5.675  1.00  0.00     0.049 A 
ATOM     44  N   UNL     1       8.069  -4.121  -8.300  1.00  0.00    -0.248 NA
ATOM     45  C   UNL     1       5.938  -3.759  -9.181  1.00  0.00     0.031 C 
ATOM     46  C   UNL     1       6.672  -2.415  -4.392  1.00  0.00     0.029 A 
ATOM     47  N   UNL     1       8.420  -3.277  -5.493  1.00  0.00    -0.354 N 
ATOM     48  C   UNL     1       8.035  -4.543  -9.623  1.00  0.00     0.074 A 
ATOM     49  C   UNL     1       6.695  -4.318 -10.112  1.00  0.00     0.031 C 
ATOM     50  C   UNL     1       7.712  -2.453  -3.539  1.00  0.00     0.029 A 
ATOM     51  C   UNL     1       8.860  -3.064  -4.208  1.00  0.00     0.049 A 
ATOM     52  H   UNL     1       9.000  -3.615  -6.213  1.00  0.00     0.167 HD
ATOM     53  C   UNL     1       9.034  -5.065 -10.369  1.00  0.00     0.034 A 
ATOM     54  C   UNL     1      10.044  -3.363  -3.637  1.00  0.00     0.034 A 
ATOM     55  C   UNL     1      10.369  -5.274  -9.883  1.00  0.00     0.049 A 
ATOM     56  C   UNL     1      11.127  -3.990  -4.481  1.00  0.00     0.074 A 
ATOM     57  C   UNL     1      11.465  -5.763 -10.569  1.00  0.00     0.029 A 
ATOM     58  N   UNL     1      10.784  -5.023  -8.585  1.00  0.00    -0.354 N 
ATOM     59  N   UNL     1      11.113  -4.289  -5.758  1.00  0.00    -0.248 NA
ATOM     60  C   UNL     1      12.401  -4.292  -3.811  1.00  0.00     0.031 C 
ATOM     61  C   UNL     1      12.535  -5.847  -9.674  1.00  0.00     0.029 A 
ATOM     62  C   UNL     1      12.117  -5.363  -8.444  1.00  0.00     0.049 A 
ATOM     63  H   UNL     1      10.215  -4.657  -7.870  1.00  0.00     0.167 HD
ATOM     64  C   UNL     1      12.385  -4.771  -6.052  1.00  0.00     0.074 A 
ATOM     65  C   UNL     1      13.149  -4.706  -4.824  1.00  0.00     0.031 C 
ATOM     66  C   UNL     1      12.877  -5.235  -7.228  1.00  0.00     0.034 A 
BRANCH  53  67
ATOM     67  C   UNL     1       8.725  -5.453 -11.788  1.00  0.00     0.023 A 
ATOM     68  C   UNL     1       8.535  -4.457 -12.767  1.00  0.00     0.012 A 
ATOM     69  C   UNL     1       8.690  -6.810 -12.163  1.00  0.00     0.148 A 
ATOM     70  C   UNL     1       8.294  -4.807 -14.095  1.00  0.00     0.002 A 
ATOM     71  C   UNL     1       8.497  -7.150 -13.496  1.00  0.00     0.091 A 
ATOM     72  F   UNL     1       8.845  -7.739 -11.210  1.00  0.00    -0.205 F 
ATOM     73  C   UNL     1       8.289  -6.151 -14.461  1.00  0.00     0.022 A 
BRANCH  71  74
ATOM     74  S   UNL     1       8.556  -8.846 -14.081  1.00  0.00     0.127 S 
ATOM     75  O   UNL     1       7.175  -9.055 -14.516  1.00  0.00    -0.237 OA
ATOM     76  O   UNL     1       9.532  -8.760 -15.167  1.00  0.00    -0.237 OA
ATOM     77  O   UNL     1       8.975  -9.652 -12.944  1.00  0.00    -0.744 OA
ENDBRANCH  71  74
ENDBRANCH  53  67
BRANCH  54  78
ATOM     78  C   UNL     1      10.280  -3.078  -2.192  1.00  0.00     0.023 A 
ATOM     79  C   UNL     1      11.243  -2.121  -1.815  1.00  0.00     0.012 A 
ATOM     80  C   UNL     1       9.571  -3.767  -1.189  1.00  0.00     0.148 A 
ATOM     81  C   UNL     1      11.529  -1.892  -0.468  1.00  0.00     0.002 A 
ATOM     82  C   UNL     1       9.816  -3.489   0.150  1.00  0.00     0.091 A 
ATOM     83  F   UNL     1       8.671  -4.687  -1.565  1.00  0.00    -0.205 F 
ATOM     84  C   UNL     1      10.811  -2.569   0.514  1.00  0.00     0.022 A 
BRANCH  82  85
ATOM     85  S   UNL     1       8.847  -4.216   1.476  1.00  0.00     0.127 S 
ATOM     86  O   UNL     1       9.814  -5.120   2.094  1.00  0.00    -0.237 OA
ATOM     87  O   UNL     1       8.502  -3.040   2.276  1.00  0.00    -0.237 OA
ATOM     88  O   UNL     1       7.708  -4.852   0.828  1.00  0.00    -0.744 OA
ENDBRANCH  82  85
ENDBRANCH  54  78
BRANCH  66  89
ATOM     89  C   UNL     1      14.324  -5.654  -7.271  1.00  0.00     0.023 A 
ATOM     90  C   UNL     1      14.739  -6.835  -6.625  1.00  0.00     0.012 A 
ATOM     91  C   UNL     1      15.255  -4.912  -8.025  1.00  0.00     0.148 A 
ATOM     92  C   UNL     1      16.069  -7.250  -6.699  1.00  0.00     0.002 A 
ATOM     93  C   UNL     1      16.564  -5.363  -8.140  1.00  0.00     0.091 A 
ATOM     94  F   UNL     1      14.842  -3.784  -8.621  1.00  0.00    -0.205 F 
ATOM     95  C   UNL     1      16.977  -6.523  -7.465  1.00  0.00     0.022 A 
BRANCH  93  96
ATOM     96  S   UNL     1      17.775  -4.548  -9.188  1.00  0.00     0.127 S 
ATOM     97  O   UNL     1      18.679  -3.964  -8.198  1.00  0.00    -0.237 OA
ATOM     98  O   UNL     1      18.336  -5.670  -9.940  1.00  0.00    -0.237 OA
ATOM     99  O   UNL     1      17.031  -3.590  -9.994  1.00  0.00    -0.744 OA
ENDBRANCH  93  96
ENDBRANCH  66  89
ENDBRANCH  40  41
ENDBRANCH  33  35
ENDBRANCH  32  33
ENDBRANCH  31  32
ENDBRANCH  30  31
ENDBRANCH  29  30
ENDBRANCH  28  29
ENDBRANCH  27  28
ENDBRANCH  26  27
ENDBRANCH   1  26
TORSDOF 28
