REMARK SMILES O=C(OCCOCCOCCOCCOC(=O)c1cc(N2C(=O)[C@H]3[C@@H]4C=C[C@@H]([C@@H]5C[C@H]45)[C@@H]3C2=O)ccc1Cl)c1ccc(-c2c3nc(c(-c4cccc(S(=O)(=O)[O-])c4F)c4ccc([nH]4)c(-c4cccc(S(=O)(=O)[O-])c4F)c4nc(c(-c5cccc(S(=O)(=O)[O-])c5F)c5ccc2[nH]5)C=C4)C=C3)cc1
REMARK SMILES IDX 8 1 7 2 6 3 5 4 4 5 3 6 2 7 1 8 39 9 40 10 101 11 41 12
REMARK SMILES IDX 100 13 42 14 43 15 44 16 94 17 45 18 99 19 93 20 95 21 46 22
REMARK SMILES IDX 98 23 92 24 91 25 47 27 79 28 59 29 78 30 60 31 63 32 77 33
REMARK SMILES IDX 96 34 61 35 62 36 76 38 97 39 64 40 48 41 49 42 57 43 50 44
REMARK SMILES IDX 52 45 58 46 51 47 53 48 54 49 55 50 56 51 80 52 81 53 89 54
REMARK SMILES IDX 82 55 84 56 90 57 83 58 85 59 86 60 87 61 88 62 65 63 66 64
REMARK SMILES IDX 74 65 67 66 69 67 75 68 68 69 70 70 71 71 72 72 73 73 9 74
REMARK SMILES IDX 10 75 11 76 12 77 13 78 14 79 15 80 16 81 17 82 18 83 19 84
REMARK SMILES IDX 37 85 20 86 36 87 38 88 35 89 21 90 22 91 33 92 23 93 24 94
REMARK SMILES IDX 32 95 34 96 25 97 28 98 26 99 31 100 27 101 29 102 30 103
REMARK H PARENT 95 26 63 37
REMARK Flexibility Score: inf
ROOT
ATOM      1  C   UNL     1       1.839  -2.770  -0.446  1.00  0.00     0.188 C 
ENDROOT
BRANCH   1   2
ATOM      2  C   UNL     1       2.341  -1.526   0.291  1.00  0.00     0.188 C 
BRANCH   2   3
ATOM      3  O   UNL     1       3.671  -1.178  -0.083  1.00  0.00    -0.376 OA
BRANCH   3   4
ATOM      4  C   UNL     1       4.581  -0.786   0.940  1.00  0.00     0.202 C 
BRANCH   4   5
ATOM      5  C   UNL     1       4.273   0.527   1.653  1.00  0.00     0.261 C 
BRANCH   5   6
ATOM      6  O   UNL     1       2.907   0.949   1.563  1.00  0.00    -0.460 OA
BRANCH   6   7
ATOM      7  C   UNL     1       2.270   1.611   0.569  1.00  0.00     0.338 C 
ATOM      8  O   UNL     1       1.082   1.886   0.741  1.00  0.00    -0.246 OA
BRANCH   7   9
ATOM      9  C   UNL     1       2.893   2.018  -0.728  1.00  0.00     0.060 A 
ATOM     10  C   UNL     1       3.973   1.392  -1.354  1.00  0.00     0.016 A 
ATOM     11  C   UNL     1       2.264   3.068  -1.416  1.00  0.00     0.016 A 
ATOM     12  C   UNL     1       4.445   1.792  -2.591  1.00  0.00     0.010 A 
ATOM     13  C   UNL     1       2.732   3.492  -2.660  1.00  0.00     0.010 A 
ATOM     14  C   UNL     1       3.846   2.865  -3.228  1.00  0.00    -0.014 A 
BRANCH  14  15
ATOM     15  C   UNL     1       4.570   3.465  -4.351  1.00  0.00     0.031 A 
ATOM     16  C   UNL     1       5.339   4.711  -4.061  1.00  0.00     0.074 A 
ATOM     17  C   UNL     1       4.610   2.849  -5.541  1.00  0.00     0.049 A 
ATOM     18  N   UNL     1       5.922   5.534  -4.881  1.00  0.00    -0.248 NA
ATOM     19  C   UNL     1       5.467   5.081  -2.637  1.00  0.00     0.031 C 
ATOM     20  C   UNL     1       4.007   1.548  -5.837  1.00  0.00     0.029 A 
ATOM     21  N   UNL     1       5.166   3.245  -6.724  1.00  0.00    -0.354 N 
ATOM     22  C   UNL     1       6.403   6.565  -4.085  1.00  0.00     0.074 A 
ATOM     23  C   UNL     1       6.082   6.248  -2.715  1.00  0.00     0.031 C 
ATOM     24  C   UNL     1       4.184   1.274  -7.139  1.00  0.00     0.029 A 
ATOM     25  C   UNL     1       4.835   2.417  -7.769  1.00  0.00     0.049 A 
ATOM     26  H   UNL     1       5.742   4.037  -6.818  1.00  0.00     0.167 HD
ATOM     27  C   UNL     1       7.030   7.691  -4.488  1.00  0.00     0.034 A 
ATOM     28  C   UNL     1       4.970   2.619  -9.092  1.00  0.00     0.034 A 
ATOM     29  C   UNL     1       7.316   7.951  -5.868  1.00  0.00     0.049 A 
ATOM     30  C   UNL     1       5.610   3.906  -9.533  1.00  0.00     0.074 A 
ATOM     31  C   UNL     1       7.925   9.051  -6.435  1.00  0.00     0.029 A 
ATOM     32  N   UNL     1       6.981   7.088  -6.906  1.00  0.00    -0.354 N 
ATOM     33  N   UNL     1       6.060   4.893  -8.791  1.00  0.00    -0.248 NA
ATOM     34  C   UNL     1       5.777   4.111 -10.975  1.00  0.00     0.031 C 
ATOM     35  C   UNL     1       7.912   8.873  -7.823  1.00  0.00     0.029 A 
ATOM     36  C   UNL     1       7.353   7.635  -8.116  1.00  0.00     0.049 A 
ATOM     37  H   UNL     1       6.542   6.213  -6.794  1.00  0.00     0.167 HD
ATOM     38  C   UNL     1       6.596   5.822  -9.671  1.00  0.00     0.074 A 
ATOM     39  C   UNL     1       6.414   5.275 -11.004  1.00  0.00     0.031 C 
ATOM     40  C   UNL     1       7.185   7.016  -9.410  1.00  0.00     0.034 A 
BRANCH  27  41
ATOM     41  C   UNL     1       7.333   8.718  -3.433  1.00  0.00     0.023 A 
ATOM     42  C   UNL     1       8.293   8.465  -2.431  1.00  0.00     0.012 A 
ATOM     43  C   UNL     1       6.598   9.919  -3.394  1.00  0.00     0.148 A 
ATOM     44  C   UNL     1       8.470   9.360  -1.375  1.00  0.00     0.002 A 
ATOM     45  C   UNL     1       6.819  10.831  -2.370  1.00  0.00     0.091 A 
ATOM     46  F   UNL     1       5.664  10.128  -4.333  1.00  0.00    -0.205 F 
ATOM     47  C   UNL     1       7.738  10.544  -1.348  1.00  0.00     0.022 A 
BRANCH  45  48
ATOM     48  S   UNL     1       5.976  12.413  -2.291  1.00  0.00     0.127 S 
ATOM     49  O   UNL     1       5.088  12.219  -1.145  1.00  0.00    -0.237 OA
ATOM     50  O   UNL     1       7.085  13.337  -2.052  1.00  0.00    -0.237 OA
ATOM     51  O   UNL     1       5.312  12.581  -3.576  1.00  0.00    -0.744 OA
ENDBRANCH  45  48
ENDBRANCH  27  41
BRANCH  28  52
ATOM     52  C   UNL     1       4.444   1.607 -10.049  1.00  0.00     0.023 A 
ATOM     53  C   UNL     1       5.334   0.831 -10.813  1.00  0.00     0.012 A 
ATOM     54  C   UNL     1       3.059   1.353 -10.139  1.00  0.00     0.148 A 
ATOM     55  C   UNL     1       4.853  -0.173 -11.658  1.00  0.00     0.002 A 
ATOM     56  C   UNL     1       2.591   0.317 -10.939  1.00  0.00     0.091 A 
ATOM     57  F   UNL     1       2.227   2.108  -9.407  1.00  0.00    -0.205 F 
ATOM     58  C   UNL     1       3.486  -0.438 -11.711  1.00  0.00     0.022 A 
BRANCH  56  59
ATOM     59  S   UNL     1       0.865  -0.181 -10.970  1.00  0.00     0.127 S 
ATOM     60  O   UNL     1       0.492   0.123 -12.349  1.00  0.00    -0.237 OA
ATOM     61  O   UNL     1       0.961  -1.607 -10.657  1.00  0.00    -0.237 OA
ATOM     62  O   UNL     1       0.201   0.619  -9.950  1.00  0.00    -0.744 OA
ENDBRANCH  56  59
ENDBRANCH  28  52
BRANCH  40  63
ATOM     63  C   UNL     1       7.741   7.782 -10.575  1.00  0.00     0.023 A 
ATOM     64  C   UNL     1       6.882   8.490 -11.434  1.00  0.00     0.012 A 
ATOM     65  C   UNL     1       9.137   7.916 -10.707  1.00  0.00     0.148 A 
ATOM     66  C   UNL     1       7.409   9.320 -12.420  1.00  0.00     0.002 A 
ATOM     67  C   UNL     1       9.652   8.790 -11.650  1.00  0.00     0.091 A 
ATOM     68  F   UNL     1       9.926   7.213  -9.882  1.00  0.00    -0.205 F 
ATOM     69  C   UNL     1       8.791   9.485 -12.515  1.00  0.00     0.022 A 
BRANCH  67  70
ATOM     70  S   UNL     1      11.405   9.158 -11.757  1.00  0.00     0.127 S 
ATOM     71  O   UNL     1      11.749   8.592 -13.060  1.00  0.00    -0.237 OA
ATOM     72  O   UNL     1      11.415  10.620 -11.703  1.00  0.00    -0.237 OA
ATOM     73  O   UNL     1      12.029   8.504 -10.614  1.00  0.00    -0.744 OA
ENDBRANCH  67  70
ENDBRANCH  40  63
ENDBRANCH  14  15
ENDBRANCH   7   9
ENDBRANCH   6   7
ENDBRANCH   5   6
ENDBRANCH   4   5
ENDBRANCH   3   4
ENDBRANCH   2   3
ENDBRANCH   1   2
BRANCH   1  74
ATOM     74  O   UNL     1       2.538  -3.982  -0.170  1.00  0.00    -0.377 OA
BRANCH  74  75
ATOM     75  C   UNL     1       3.959  -3.897  -0.148  1.00  0.00     0.188 C 
BRANCH  75  76
ATOM     76  C   UNL     1       4.702  -3.406  -1.417  1.00  0.00     0.188 C 
BRANCH  76  77
ATOM     77  O   UNL     1       3.853  -2.848  -2.400  1.00  0.00    -0.376 OA
BRANCH  77  78
ATOM     78  C   UNL     1       3.543  -3.656  -3.528  1.00  0.00     0.202 C 
BRANCH  78  79
ATOM     79  C   UNL     1       3.026  -5.097  -3.325  1.00  0.00     0.261 C 
BRANCH  79  80
ATOM     80  O   UNL     1       3.602  -5.845  -2.236  1.00  0.00    -0.460 OA
BRANCH  80  81
ATOM     81  C   UNL     1       4.754  -6.527  -2.414  1.00  0.00     0.339 C 
ATOM     82  O   UNL     1       5.414  -6.607  -3.438  1.00  0.00    -0.246 OA
BRANCH  81  83
ATOM     83  C   UNL     1       5.241  -6.946  -1.075  1.00  0.00     0.080 A 
ATOM     84  C   UNL     1       6.428  -6.343  -0.593  1.00  0.00     0.044 A 
ATOM     85  C   UNL     1       4.484  -7.771  -0.234  1.00  0.00     0.055 A 
ATOM     86  C   UNL     1       6.807  -6.517   0.741  1.00  0.00     0.053 A 
ATOM     87  C   UNL     1       4.905  -7.988   1.083  1.00  0.00     0.023 A 
ATOM     88  Cl  UNL     1       3.025  -8.541  -0.740  1.00  0.00    -0.083 Cl
ATOM     89  C   UNL     1       6.052  -7.356   1.571  1.00  0.00     0.028 A 
BRANCH  86  90
ATOM     90  N   UNL     1       7.884  -5.793   1.301  1.00  0.00    -0.250 N 
ATOM     91  C   UNL     1       7.665  -4.714   2.186  1.00  0.00     0.238 C 
ATOM     92  C   UNL     1       9.113  -6.431   1.568  1.00  0.00     0.238 C 
ATOM     93  O   UNL     1       6.635  -4.117   2.445  1.00  0.00    -0.274 OA
ATOM     94  C   UNL     1       9.019  -4.448   2.768  1.00  0.00     0.100 C 
ATOM     95  C   UNL     1       9.459  -5.905   2.923  1.00  0.00     0.100 C 
ATOM     96  O   UNL     1       9.645  -7.363   0.993  1.00  0.00    -0.274 OA
ATOM     97  C   UNL     1       9.443  -3.647   4.015  1.00  0.00     0.028 C 
ATOM     98  C   UNL     1      10.650  -5.975   3.871  1.00  0.00     0.028 C 
ATOM     99  C   UNL     1      10.973  -3.564   3.782  1.00  0.00    -0.026 C 
ATOM    100  C   UNL     1       9.314  -4.388   5.357  1.00  0.00     0.001 C 
ATOM    101  C   UNL     1      11.576  -4.769   3.653  1.00  0.00    -0.026 C 
ATOM    102  C   UNL     1      10.016  -5.754   5.297  1.00  0.00     0.001 C 
ATOM    103  C   UNL     1       8.530  -5.632   5.648  1.00  0.00     0.009 C 
ENDBRANCH  86  90
ENDBRANCH  81  83
ENDBRANCH  80  81
ENDBRANCH  79  80
ENDBRANCH  78  79
ENDBRANCH  77  78
ENDBRANCH  76  77
ENDBRANCH  75  76
ENDBRANCH  74  75
ENDBRANCH   1  74
TORSDOF 24
