REMARK SMILES O=C(COc1ccccc1C[N@@H+]1C[C@@H]2[C@H]3CC[C@H](C3)[C@@H]2C1)OCCOCCOCCOCCOC(=O)c1ccc(-c2c3nc(c(-c4cccc(S(=O)(=O)[O-])c4F)c4ccc([nH]4)c(-c4cccc(S(=O)(=O)[O-])c4F)c4nc(c(-c5cccc(S(=O)(=O)[O-])c5F)c5ccc2[nH]5)C=C4)C=C3)cc1
REMARK SMILES IDX 27 1 26 2 25 3 24 4 23 5 22 6 2 7 1 8 3 9 4 10 5 11 6 12
REMARK SMILES IDX 10 13 7 14 9 15 8 16 11 17 12 18 13 19 21 20 14 22 20 23
REMARK SMILES IDX 15 24 18 25 16 26 19 27 17 28 28 29 29 30 30 31 31 32 32 33
REMARK SMILES IDX 33 34 34 35 35 36 36 37 37 38 38 39 99 40 39 41 98 42 40 43
REMARK SMILES IDX 41 44 42 45 92 46 43 47 97 48 91 49 93 50 44 51 96 52 90 53
REMARK SMILES IDX 89 54 45 56 77 57 57 58 76 59 58 60 61 61 75 62 94 63 59 64
REMARK SMILES IDX 60 65 74 67 95 68 62 69 46 70 47 71 55 72 48 73 50 74 56 75
REMARK SMILES IDX 49 76 51 77 52 78 53 79 54 80 78 81 79 82 87 83 80 84 82 85
REMARK SMILES IDX 88 86 81 87 83 88 84 89 85 90 86 91 63 92 64 93 72 94 65 95
REMARK SMILES IDX 67 96 73 97 66 98 68 99 69 100 70 101 71 102
REMARK H PARENT 12 21 93 55 61 66
REMARK Flexibility Score: inf
ROOT
ATOM      1  C   UNL     1       2.460   1.783   2.227  1.00  0.00     0.188 C 
ENDROOT
BRANCH   1   2
ATOM      2  C   UNL     1       3.314   0.588   2.735  1.00  0.00     0.188 C 
BRANCH   2   3
ATOM      3  O   UNL     1       4.651   0.424   2.284  1.00  0.00    -0.376 OA
BRANCH   3   4
ATOM      4  C   UNL     1       5.069  -0.007   1.007  1.00  0.00     0.202 C 
BRANCH   4   5
ATOM      5  C   UNL     1       4.165   0.063  -0.210  1.00  0.00     0.261 C 
BRANCH   5   6
ATOM      6  O   UNL     1       2.763   0.047   0.076  1.00  0.00    -0.461 OA
BRANCH   6   7
ATOM      7  C   UNL     1       2.027  -0.984   0.552  1.00  0.00     0.344 C 
ATOM      8  O   UNL     1       0.863  -0.803   0.905  1.00  0.00    -0.248 OA
BRANCH   7   9
ATOM      9  C   UNL     1       2.691  -2.326   0.660  1.00  0.00     0.351 C 
BRANCH   9  10
ATOM     10  O   UNL     1       3.427  -2.648  -0.509  1.00  0.00    -0.481 OA
BRANCH  10  11
ATOM     11  C   UNL     1       2.673  -3.393  -1.370  1.00  0.00     0.129 A 
ATOM     12  C   UNL     1       2.999  -4.755  -1.377  1.00  0.00     0.047 A 
ATOM     13  C   UNL     1       1.713  -2.852  -2.250  1.00  0.00     0.048 A 
ATOM     14  C   UNL     1       2.324  -5.625  -2.219  1.00  0.00     0.004 A 
ATOM     15  C   UNL     1       1.001  -3.769  -3.040  1.00  0.00     0.013 A 
ATOM     16  C   UNL     1       1.309  -5.135  -3.033  1.00  0.00     0.001 A 
BRANCH  13  17
ATOM     17  C   UNL     1       1.445  -1.367  -2.451  1.00  0.00     0.302 C 
BRANCH  17  18
ATOM     18  N   UNL     1       1.982  -0.729  -3.622  1.00  0.00    -0.331 N 
ATOM     19  C   UNL     1       1.360  -0.822  -4.903  1.00  0.00     0.266 C 
ATOM     20  C   UNL     1       3.314  -0.173  -3.725  1.00  0.00     0.266 C 
ATOM     21  H   UNL     1       1.483  -0.169  -2.930  1.00  0.00     0.348 HD
ATOM     22  C   UNL     1       2.533  -1.187  -5.794  1.00  0.00     0.056 C 
ATOM     23  C   UNL     1       3.783  -0.553  -5.143  1.00  0.00     0.056 C 
ATOM     24  C   UNL     1       2.917  -2.692  -5.821  1.00  0.00    -0.002 C 
ATOM     25  C   UNL     1       4.811  -1.715  -5.176  1.00  0.00    -0.002 C 
ATOM     26  C   UNL     1       3.817  -2.880  -7.048  1.00  0.00     0.004 C 
ATOM     27  C   UNL     1       3.967  -2.890  -4.721  1.00  0.00     0.008 C 
ATOM     28  C   UNL     1       5.107  -2.150  -6.623  1.00  0.00     0.004 C 
ENDBRANCH  17  18
ENDBRANCH  13  17
ENDBRANCH  10  11
ENDBRANCH   9  10
ENDBRANCH   7   9
ENDBRANCH   6   7
ENDBRANCH   5   6
ENDBRANCH   4   5
ENDBRANCH   3   4
ENDBRANCH   2   3
ENDBRANCH   1   2
BRANCH   1  29
ATOM     29  O   UNL     1       3.015   3.087   2.196  1.00  0.00    -0.377 OA
BRANCH  29  30
ATOM     30  C   UNL     1       4.334   3.198   1.703  1.00  0.00     0.188 C 
BRANCH  30  31
ATOM     31  C   UNL     1       5.378   3.093   2.823  1.00  0.00     0.188 C 
BRANCH  31  32
ATOM     32  O   UNL     1       4.957   2.555   4.062  1.00  0.00    -0.376 OA
BRANCH  32  33
ATOM     33  C   UNL     1       4.009   3.182   4.911  1.00  0.00     0.202 C 
BRANCH  33  34
ATOM     34  C   UNL     1       3.213   4.477   4.660  1.00  0.00     0.261 C 
BRANCH  34  35
ATOM     35  O   UNL     1       3.596   5.338   3.599  1.00  0.00    -0.460 OA
BRANCH  35  36
ATOM     36  C   UNL     1       4.740   6.027   3.734  1.00  0.00     0.338 C 
ATOM     37  O   UNL     1       5.516   6.009   4.675  1.00  0.00    -0.246 OA
BRANCH  36  38
ATOM     38  C   UNL     1       4.982   6.639   2.415  1.00  0.00     0.060 A 
ATOM     39  C   UNL     1       6.171   6.345   1.730  1.00  0.00     0.016 A 
ATOM     40  C   UNL     1       3.997   7.441   1.834  1.00  0.00     0.016 A 
ATOM     41  C   UNL     1       6.394   6.879   0.467  1.00  0.00     0.010 A 
ATOM     42  C   UNL     1       4.239   8.016   0.593  1.00  0.00     0.010 A 
ATOM     43  C   UNL     1       5.457   7.769  -0.066  1.00  0.00    -0.014 A 
BRANCH  43  44
ATOM     44  C   UNL     1       5.867   8.704  -1.128  1.00  0.00     0.031 A 
ATOM     45  C   UNL     1       6.398  10.034  -0.683  1.00  0.00     0.074 A 
ATOM     46  C   UNL     1       5.686   8.415  -2.424  1.00  0.00     0.049 A 
ATOM     47  N   UNL     1       6.645  11.104  -1.384  1.00  0.00    -0.248 NA
ATOM     48  C   UNL     1       6.661  10.179   0.760  1.00  0.00     0.031 C 
ATOM     49  C   UNL     1       5.190   7.146  -2.948  1.00  0.00     0.029 A 
ATOM     50  N   UNL     1       5.848   9.208  -3.530  1.00  0.00    -0.354 N 
ATOM     51  C   UNL     1       7.036  12.066  -0.462  1.00  0.00     0.074 A 
ATOM     52  C   UNL     1       7.001  11.453   0.846  1.00  0.00     0.031 C 
ATOM     53  C   UNL     1       5.026   7.265  -4.277  1.00  0.00     0.029 A 
ATOM     54  C   UNL     1       5.365   8.630  -4.678  1.00  0.00     0.049 A 
ATOM     55  H   UNL     1       6.267  10.098  -3.505  1.00  0.00     0.167 HD
ATOM     56  C   UNL     1       7.384  13.352  -0.686  1.00  0.00     0.034 A 
ATOM     57  C   UNL     1       5.167   9.169  -5.897  1.00  0.00     0.034 A 
ATOM     58  C   UNL     1       7.401  13.946  -1.992  1.00  0.00     0.049 A 
ATOM     59  C   UNL     1       5.541  10.609  -6.129  1.00  0.00     0.074 A 
ATOM     60  C   UNL     1       7.789  15.222  -2.352  1.00  0.00     0.029 A 
ATOM     61  N   UNL     1       6.979  13.308  -3.149  1.00  0.00    -0.354 N 
ATOM     62  N   UNL     1       6.015  11.486  -5.276  1.00  0.00    -0.248 NA
ATOM     63  C   UNL     1       5.380  11.128  -7.494  1.00  0.00     0.031 C 
ATOM     64  C   UNL     1       7.558  15.371  -3.723  1.00  0.00     0.029 A 
ATOM     65  C   UNL     1       7.080  14.169  -4.225  1.00  0.00     0.049 A 
ATOM     66  H   UNL     1       6.656  12.380  -3.197  1.00  0.00     0.167 HD
ATOM     67  C   UNL     1       6.249  12.647  -6.007  1.00  0.00     0.074 A 
ATOM     68  C   UNL     1       5.865  12.358  -7.374  1.00  0.00     0.031 C 
ATOM     69  C   UNL     1       6.737  13.841  -5.587  1.00  0.00     0.034 A 
BRANCH  56  70
ATOM     70  C   UNL     1       7.741  14.189   0.512  1.00  0.00     0.023 A 
ATOM     71  C   UNL     1       8.916  13.919   1.243  1.00  0.00     0.012 A 
ATOM     72  C   UNL     1       6.900  15.241   0.922  1.00  0.00     0.148 A 
ATOM     73  C   UNL     1       9.221  14.647   2.392  1.00  0.00     0.002 A 
ATOM     74  C   UNL     1       7.239  15.999   2.035  1.00  0.00     0.091 A 
ATOM     75  F   UNL     1       5.769  15.463   0.236  1.00  0.00    -0.205 F 
ATOM     76  C   UNL     1       8.388  15.693   2.782  1.00  0.00     0.022 A 
BRANCH  74  77
ATOM     77  S   UNL     1       6.275  17.419   2.561  1.00  0.00     0.127 S 
ATOM     78  O   UNL     1       5.627  16.906   3.767  1.00  0.00    -0.237 OA
ATOM     79  O   UNL     1       7.313  18.421   2.806  1.00  0.00    -0.237 OA
ATOM     80  O   UNL     1       5.383  17.730   1.453  1.00  0.00    -0.744 OA
ENDBRANCH  74  77
ENDBRANCH  56  70
BRANCH  57  81
ATOM     81  C   UNL     1       4.593   8.327  -6.981  1.00  0.00     0.023 A 
ATOM     82  C   UNL     1       5.416   7.902  -8.041  1.00  0.00     0.012 A 
ATOM     83  C   UNL     1       3.254   7.891  -6.929  1.00  0.00     0.148 A 
ATOM     84  C   UNL     1       4.910   7.070  -9.040  1.00  0.00     0.002 A 
ATOM     85  C   UNL     1       2.773   7.019  -7.897  1.00  0.00     0.091 A 
ATOM     86  F   UNL     1       2.490   8.313  -5.912  1.00  0.00    -0.205 F 
ATOM     87  C   UNL     1       3.595   6.619  -8.962  1.00  0.00     0.022 A 
BRANCH  85  88
ATOM     88  S   UNL     1       1.138   6.280  -7.812  1.00  0.00     0.127 S 
ATOM     89  O   UNL     1       0.511   6.801  -9.024  1.00  0.00    -0.237 OA
ATOM     90  O   UNL     1       1.456   4.853  -7.847  1.00  0.00    -0.237 OA
ATOM     91  O   UNL     1       0.557   6.743  -6.559  1.00  0.00    -0.744 OA
ENDBRANCH  85  88
ENDBRANCH  57  81
BRANCH  69  92
ATOM     92  C   UNL     1       6.955  14.918  -6.617  1.00  0.00     0.023 A 
ATOM     93  C   UNL     1       5.860  15.609  -7.170  1.00  0.00     0.012 A 
ATOM     94  C   UNL     1       8.267  15.322  -6.942  1.00  0.00     0.148 A 
ATOM     95  C   UNL     1       6.068  16.672  -8.048  1.00  0.00     0.002 A 
ATOM     96  C   UNL     1       8.465  16.415  -7.774  1.00  0.00     0.091 A 
ATOM     97  F   UNL     1       9.293  14.639  -6.415  1.00  0.00    -0.205 F 
ATOM     98  C   UNL     1       7.367  17.085  -8.337  1.00  0.00     0.022 A 
BRANCH  96  99
ATOM     99  S   UNL     1      10.098  17.083  -8.113  1.00  0.00     0.127 S 
ATOM    100  O   UNL     1      10.260  16.763  -9.531  1.00  0.00    -0.237 OA
ATOM    101  O   UNL     1       9.915  18.506  -7.825  1.00  0.00    -0.237 OA
ATOM    102  O   UNL     1      11.013  16.394  -7.213  1.00  0.00    -0.744 OA
ENDBRANCH  96  99
ENDBRANCH  69  92
ENDBRANCH  43  44
ENDBRANCH  36  38
ENDBRANCH  35  36
ENDBRANCH  34  35
ENDBRANCH  33  34
ENDBRANCH  32  33
ENDBRANCH  31  32
ENDBRANCH  30  31
ENDBRANCH  29  30
ENDBRANCH   1  29
TORSDOF 27
