REMARK SMILES CCCCCCNC(=O)Oc1cccc(-c2ccc([C@@H](C)C(=O)OCCOCCOCCOCCOC(=O)c3ccc(-c4c5nc(c(-c6cccc(S(=O)(=O)[O-])c6F)c6ccc([nH]6)c(-c6cccc(S(=O)(=O)[O-])c6F)c6nc(c(-c7cccc(S(=O)(=O)[O-])c7F)c7ccc4[nH]7)C=C6)C=C5)cc3)cc2)c1
REMARK SMILES IDX 27 1 26 2 25 3 24 4 22 5 23 6 20 7 21 8 19 9 16 10 17 11
REMARK SMILES IDX 103 12 18 13 102 14 15 15 11 16 12 17 104 18 13 19 14 20
REMARK SMILES IDX 10 21 8 22 7 23 9 25 6 26 5 27 4 28 3 29 2 30 1 31 28 32
REMARK SMILES IDX 29 33 30 34 31 35 32 36 33 37 34 38 35 39 36 40 37 41 38 42
REMARK SMILES IDX 39 43 40 44 101 45 41 46 100 47 42 48 43 49 44 50 94 51
REMARK SMILES IDX 45 52 99 53 93 54 95 55 46 56 98 57 92 58 91 59 47 61 79 62
REMARK SMILES IDX 59 63 78 64 60 65 63 66 77 67 96 68 61 69 62 70 76 72 97 73
REMARK SMILES IDX 64 74 48 75 49 76 57 77 50 78 52 79 58 80 51 81 53 82 54 83
REMARK SMILES IDX 55 84 56 85 80 86 81 87 89 88 82 89 84 90 90 91 83 92 85 93
REMARK SMILES IDX 86 94 87 95 88 96 65 97 66 98 74 99 67 100 69 101 75 102
REMARK SMILES IDX 68 103 70 104 71 105 72 106 73 107
REMARK H PARENT 7 24 95 60 63 71
REMARK Flexibility Score: inf
ROOT
ATOM      1  O   UNL     1      -0.861 -14.933  -1.517  1.00  0.00    -0.376 OA
ENDROOT
BRANCH   1   2
ATOM      2  C   UNL     1      -1.333 -15.509  -2.728  1.00  0.00     0.202 C 
BRANCH   2   3
ATOM      3  C   UNL     1      -2.825 -15.845  -2.912  1.00  0.00     0.261 C 
BRANCH   3   4
ATOM      4  O   UNL     1      -3.772 -14.798  -2.615  1.00  0.00    -0.463 OA
BRANCH   4   5
ATOM      5  C   UNL     1      -4.459 -14.918  -1.457  1.00  0.00     0.313 C 
ATOM      6  O   UNL     1      -4.314 -15.859  -0.676  1.00  0.00    -0.252 OA
BRANCH   5   7
ATOM      7  C   UNL     1      -5.473 -13.814  -1.160  1.00  0.00     0.126 C 
ATOM      8  C   UNL     1      -6.876 -14.382  -1.341  1.00  0.00     0.025 C 
BRANCH   7   9
ATOM      9  C   UNL     1      -5.354 -12.426  -1.789  1.00  0.00    -0.034 A 
ATOM     10  C   UNL     1      -5.159  -9.765  -2.846  1.00  0.00    -0.018 A 
ATOM     11  C   UNL     1      -5.277 -10.888  -3.685  1.00  0.00     0.009 A 
ATOM     12  C   UNL     1      -5.123 -10.000  -1.466  1.00  0.00     0.009 A 
ATOM     13  C   UNL     1      -5.377 -12.195  -3.169  1.00  0.00     0.005 A 
ATOM     14  C   UNL     1      -5.230 -11.300  -0.947  1.00  0.00     0.005 A 
BRANCH  10  15
ATOM     15  C   UNL     1      -5.154  -8.387  -3.382  1.00  0.00    -0.015 A 
ATOM     16  C   UNL     1      -4.228  -6.140  -3.540  1.00  0.00     0.133 A 
ATOM     17  C   UNL     1      -5.291  -5.725  -4.339  1.00  0.00     0.047 A 
ATOM     18  C   UNL     1      -4.155  -7.451  -3.052  1.00  0.00     0.056 A 
ATOM     19  C   UNL     1      -6.282  -6.639  -4.680  1.00  0.00     0.004 A 
ATOM     20  C   UNL     1      -6.212  -7.954  -4.206  1.00  0.00     0.009 A 
BRANCH  16  21
ATOM     21  O   UNL     1      -3.315  -5.141  -3.150  1.00  0.00    -0.410 OA
BRANCH  21  22
ATOM     22  C   UNL     1      -1.971  -5.328  -3.434  1.00  0.00     0.412 C 
ATOM     23  N   UNL     1      -1.188  -4.256  -3.094  1.00  0.00    -0.321 N 
ATOM     24  H   UNL     1      -0.224  -4.349  -3.266  1.00  0.00     0.167 HD
ATOM     25  O   UNL     1      -1.472  -6.328  -3.937  1.00  0.00    -0.224 OA
BRANCH  23  26
ATOM     26  C   UNL     1      -1.618  -2.999  -2.511  1.00  0.00     0.119 C 
BRANCH  26  27
ATOM     27  C   UNL     1      -1.015  -2.776  -1.122  1.00  0.00     0.021 C 
BRANCH  27  28
ATOM     28  C   UNL     1       0.515  -2.652  -1.092  1.00  0.00     0.002 C 
BRANCH  28  29
ATOM     29  C   UNL     1       1.102  -1.481  -1.888  1.00  0.00    -0.000 C 
BRANCH  29  30
ATOM     30  C   UNL     1       0.640  -0.088  -1.450  1.00  0.00    -0.003 C 
ATOM     31  C   UNL     1       1.045   0.263  -0.026  1.00  0.00     0.004 C 
ENDBRANCH  29  30
ENDBRANCH  28  29
ENDBRANCH  27  28
ENDBRANCH  26  27
ENDBRANCH  23  26
ENDBRANCH  21  22
ENDBRANCH  16  21
ENDBRANCH  10  15
ENDBRANCH   7   9
ENDBRANCH   5   7
ENDBRANCH   4   5
ENDBRANCH   3   4
ENDBRANCH   2   3
ENDBRANCH   1   2
BRANCH   1  32
ATOM     32  C   UNL     1      -1.442 -13.739  -1.008  1.00  0.00     0.188 C 
BRANCH  32  33
ATOM     33  C   UNL     1      -1.959 -12.636  -1.944  1.00  0.00     0.188 C 
BRANCH  33  34
ATOM     34  O   UNL     1      -1.942 -12.963  -3.316  1.00  0.00    -0.377 OA
BRANCH  34  35
ATOM     35  C   UNL     1      -0.917 -12.369  -4.095  1.00  0.00     0.188 C 
BRANCH  35  36
ATOM     36  C   UNL     1       0.487 -12.333  -3.466  1.00  0.00     0.188 C 
BRANCH  36  37
ATOM     37  O   UNL     1       0.537 -11.692  -2.194  1.00  0.00    -0.376 OA
BRANCH  37  38
ATOM     38  C   UNL     1       0.880 -10.312  -2.147  1.00  0.00     0.202 C 
BRANCH  38  39
ATOM     39  C   UNL     1      -0.081  -9.295  -2.788  1.00  0.00     0.261 C 
BRANCH  39  40
ATOM     40  O   UNL     1      -0.343  -9.448  -4.189  1.00  0.00    -0.460 OA
BRANCH  40  41
ATOM     41  C   UNL     1       0.701  -9.449  -5.046  1.00  0.00     0.338 C 
ATOM     42  O   UNL     1       1.871  -9.290  -4.778  1.00  0.00    -0.246 OA
BRANCH  41  43
ATOM     43  C   UNL     1       0.188  -9.919  -6.356  1.00  0.00     0.060 A 
ATOM     44  C   UNL     1       0.741 -11.078  -6.919  1.00  0.00     0.016 A 
ATOM     45  C   UNL     1      -0.835  -9.233  -7.013  1.00  0.00     0.016 A 
ATOM     46  C   UNL     1       0.301 -11.531  -8.163  1.00  0.00     0.010 A 
ATOM     47  C   UNL     1      -1.256  -9.674  -8.272  1.00  0.00     0.010 A 
ATOM     48  C   UNL     1      -0.664 -10.803  -8.869  1.00  0.00    -0.014 A 
BRANCH  48  49
ATOM     49  C   UNL     1      -0.904 -11.097 -10.303  1.00  0.00     0.031 A 
ATOM     50  C   UNL     1      -0.206 -10.245 -11.329  1.00  0.00     0.074 A 
ATOM     51  C   UNL     1      -1.723 -12.089 -10.695  1.00  0.00     0.049 A 
ATOM     52  N   UNL     1      -0.301 -10.268 -12.632  1.00  0.00    -0.248 NA
ATOM     53  C   UNL     1       0.725  -9.227 -10.812  1.00  0.00     0.031 C 
ATOM     54  C   UNL     1      -2.442 -12.996  -9.803  1.00  0.00     0.029 A 
ATOM     55  N   UNL     1      -2.109 -12.478 -11.956  1.00  0.00    -0.354 N 
ATOM     56  C   UNL     1       0.525  -9.247 -13.089  1.00  0.00     0.074 A 
ATOM     57  C   UNL     1       1.111  -8.622 -11.925  1.00  0.00     0.031 C 
ATOM     58  C   UNL     1      -3.213 -13.812 -10.543  1.00  0.00     0.029 A 
ATOM     59  C   UNL     1      -3.066 -13.465 -11.956  1.00  0.00     0.049 A 
ATOM     60  H   UNL     1      -1.736 -12.087 -12.779  1.00  0.00     0.167 HD
ATOM     61  C   UNL     1       0.778  -8.867 -14.363  1.00  0.00     0.034 A 
ATOM     62  C   UNL     1      -3.766 -14.001 -12.977  1.00  0.00     0.034 A 
ATOM     63  C   UNL     1       0.203  -9.496 -15.520  1.00  0.00     0.049 A 
ATOM     64  C   UNL     1      -3.494 -13.535 -14.386  1.00  0.00     0.074 A 
ATOM     65  C   UNL     1       0.436  -9.215 -16.855  1.00  0.00     0.029 A 
ATOM     66  N   UNL     1      -0.734 -10.516 -15.483  1.00  0.00    -0.354 N 
ATOM     67  N   UNL     1      -2.628 -12.646 -14.812  1.00  0.00    -0.248 NA
ATOM     68  C   UNL     1      -4.274 -14.168 -15.461  1.00  0.00     0.031 C 
ATOM     69  C   UNL     1      -0.394 -10.036 -17.624  1.00  0.00     0.029 A 
ATOM     70  C   UNL     1      -1.106 -10.863 -16.770  1.00  0.00     0.049 A 
ATOM     71  H   UNL     1      -1.083 -10.933 -14.662  1.00  0.00     0.167 HD
ATOM     72  C   UNL     1      -2.731 -12.642 -16.200  1.00  0.00     0.074 A 
ATOM     73  C   UNL     1      -3.732 -13.630 -16.545  1.00  0.00     0.031 C 
ATOM     74  C   UNL     1      -2.065 -11.884 -17.105  1.00  0.00     0.034 A 
BRANCH  61  75
ATOM     75  C   UNL     1       1.723  -7.714 -14.575  1.00  0.00     0.023 A 
ATOM     76  C   UNL     1       3.102  -7.878 -14.332  1.00  0.00     0.012 A 
ATOM     77  C   UNL     1       1.248  -6.481 -15.065  1.00  0.00     0.148 A 
ATOM     78  C   UNL     1       3.989  -6.823 -14.543  1.00  0.00     0.002 A 
ATOM     79  C   UNL     1       2.144  -5.451 -15.319  1.00  0.00     0.091 A 
ATOM     80  F   UNL     1      -0.070  -6.338 -15.267  1.00  0.00    -0.205 F 
ATOM     81  C   UNL     1       3.512  -5.615 -15.047  1.00  0.00     0.022 A 
BRANCH  79  82
ATOM     82  S   UNL     1       1.641  -3.886 -16.043  1.00  0.00     0.127 S 
ATOM     83  O   UNL     1       1.848  -2.964 -14.926  1.00  0.00    -0.237 OA
ATOM     84  O   UNL     1       2.596  -3.736 -17.141  1.00  0.00    -0.237 OA
ATOM     85  O   UNL     1       0.257  -4.060 -16.459  1.00  0.00    -0.744 OA
ENDBRANCH  79  82
ENDBRANCH  61  75
BRANCH  62  86
ATOM     86  C   UNL     1      -4.793 -15.049 -12.712  1.00  0.00     0.023 A 
ATOM     87  C   UNL     1      -4.583 -16.366 -13.166  1.00  0.00     0.012 A 
ATOM     88  C   UNL     1      -5.979 -14.745 -12.015  1.00  0.00     0.148 A 
ATOM     89  C   UNL     1      -5.549 -17.352 -12.961  1.00  0.00     0.002 A 
ATOM     90  C   UNL     1      -6.911 -15.745 -11.764  1.00  0.00     0.091 A 
ATOM     91  F   UNL     1      -6.170 -13.483 -11.607  1.00  0.00    -0.205 F 
ATOM     92  C   UNL     1      -6.708 -17.044 -12.253  1.00  0.00     0.022 A 
BRANCH  90  93
ATOM     93  S   UNL     1      -8.372 -15.472 -10.756  1.00  0.00     0.127 S 
ATOM     94  O   UNL     1      -9.444 -15.608 -11.739  1.00  0.00    -0.237 OA
ATOM     95  O   UNL     1      -8.278 -16.567  -9.790  1.00  0.00    -0.237 OA
ATOM     96  O   UNL     1      -8.212 -14.144 -10.178  1.00  0.00    -0.744 OA
ENDBRANCH  90  93
ENDBRANCH  62  86
BRANCH  74  97
ATOM     97  C   UNL     1      -2.345 -12.119 -18.569  1.00  0.00     0.023 A 
ATOM     98  C   UNL     1      -3.572 -11.712 -19.130  1.00  0.00     0.012 A 
ATOM     99  C   UNL     1      -1.352 -12.668 -19.405  1.00  0.00     0.148 A 
ATOM    100  C   UNL     1      -3.818 -11.879 -20.493  1.00  0.00     0.002 A 
ATOM    101  C   UNL     1      -1.583 -12.781 -20.770  1.00  0.00     0.091 A 
ATOM    102  F   UNL     1      -0.197 -13.063 -18.851  1.00  0.00    -0.205 F 
ATOM    103  C   UNL     1      -2.821 -12.400 -21.314  1.00  0.00     0.022 A 
BRANCH 101 104
ATOM    104  S   UNL     1      -0.324 -13.347 -21.920  1.00  0.00     0.127 S 
ATOM    105  O   UNL     1      -0.857 -14.645 -22.331  1.00  0.00    -0.237 OA
ATOM    106  O   UNL     1      -0.366 -12.315 -22.956  1.00  0.00    -0.237 OA
ATOM    107  O   UNL     1       0.920 -13.396 -21.164  1.00  0.00    -0.744 OA
ENDBRANCH 101 104
ENDBRANCH  74  97
ENDBRANCH  48  49
ENDBRANCH  41  43
ENDBRANCH  40  41
ENDBRANCH  39  40
ENDBRANCH  38  39
ENDBRANCH  37  38
ENDBRANCH  36  37
ENDBRANCH  35  36
ENDBRANCH  34  35
ENDBRANCH  33  34
ENDBRANCH  32  33
ENDBRANCH   1  32
TORSDOF 32
