REMARK SMILES Cc1cc(=O)cc(C)n1C[C@H]1CCCC[C@@H]1C(=O)OCCOCCOCCOCCOC(=O)c1ccc(-c2c3nc(c(-c4cccc(S(=O)(=O)[O-])c4F)c4ccc([nH]4)c(-c4cccc(S(=O)(=O)[O-])c4F)c4nc(c(-c5cccc(S(=O)(=O)[O-])c5F)c5ccc2[nH]5)C=C4)C=C3)cc1
REMARK SMILES IDX 26 1 25 2 24 3 23 4 22 5 21 6 20 7 19 8 17 9 18 10 16 11
REMARK SMILES IDX 11 12 12 13 13 14 15 15 14 16 10 17 9 18 1 19 2 20 3 21 4 22
REMARK SMILES IDX 7 23 5 24 6 25 8 26 27 27 28 28 29 29 30 30 31 31 32 32
REMARK SMILES IDX 33 33 34 34 35 35 96 36 36 37 95 38 37 39 38 40 39 41 89 42
REMARK SMILES IDX 40 43 94 44 88 45 90 46 41 47 93 48 87 49 86 50 42 52 74 53
REMARK SMILES IDX 54 54 73 55 55 56 58 57 72 58 91 59 56 60 57 61 71 63 92 64
REMARK SMILES IDX 59 65 43 66 44 67 52 68 45 69 47 70 53 71 46 72 48 73 49 74
REMARK SMILES IDX 50 75 51 76 75 77 76 78 84 79 77 80 79 81 85 82 78 83 80 84
REMARK SMILES IDX 81 85 82 86 83 87 60 88 61 89 69 90 62 91 64 92 70 93 63 94
REMARK SMILES IDX 65 95 66 96 67 97 68 98
REMARK H PARENT 90 51 58 62
REMARK Flexibility Score: inf
ROOT
ATOM      1  C   UNL     1      -1.249  -4.949   1.511  1.00  0.00     0.188 C 
ENDROOT
BRANCH   1   2
ATOM      2  O   UNL     1      -1.643  -4.084   0.458  1.00  0.00    -0.377 OA
BRANCH   2   3
ATOM      3  C   UNL     1      -2.718  -4.438  -0.395  1.00  0.00     0.188 C 
BRANCH   3   4
ATOM      4  C   UNL     1      -2.566  -3.767  -1.762  1.00  0.00     0.188 C 
BRANCH   4   5
ATOM      5  O   UNL     1      -1.309  -3.972  -2.403  1.00  0.00    -0.376 OA
BRANCH   5   6
ATOM      6  C   UNL     1      -0.147  -3.510  -1.703  1.00  0.00     0.202 C 
BRANCH   6   7
ATOM      7  C   UNL     1      -0.097  -2.018  -1.294  1.00  0.00     0.261 C 
BRANCH   7   8
ATOM      8  O   UNL     1      -1.091  -1.557  -0.328  1.00  0.00    -0.463 OA
BRANCH   8   9
ATOM      9  C   UNL     1      -1.903  -0.552  -0.742  1.00  0.00     0.309 C 
ATOM     10  O   UNL     1      -1.889  -0.103  -1.888  1.00  0.00    -0.252 OA
BRANCH   9  11
ATOM     11  C   UNL     1      -2.925  -0.001   0.276  1.00  0.00     0.104 C 
ATOM     12  C   UNL     1      -2.812  -0.285   1.809  1.00  0.00     0.023 C 
ATOM     13  C   UNL     1      -3.350  -1.686   2.082  1.00  0.00     0.006 C 
ATOM     14  C   UNL     1      -4.807  -1.869   1.659  1.00  0.00     0.000 C 
ATOM     15  C   UNL     1      -4.356  -0.233  -0.264  1.00  0.00     0.016 C 
ATOM     16  C   UNL     1      -5.057  -1.506   0.205  1.00  0.00     0.001 C 
BRANCH  12  17
ATOM     17  C   UNL     1      -3.602   0.803   2.625  1.00  0.00     0.126 C 
BRANCH  17  18
ATOM     18  N   UNL     1      -3.273   0.926   4.086  1.00  0.00    -0.349 N 
ATOM     19  C   UNL     1      -2.182   3.207   3.668  1.00  0.00     0.064 C 
ATOM     20  C   UNL     1      -2.484   2.021   4.554  1.00  0.00     0.018 A 
ATOM     21  C   UNL     1      -2.042   2.111   5.824  1.00  0.00     0.073 A 
ATOM     22  C   UNL     1      -2.394   1.074   6.801  1.00  0.00     0.182 A 
ATOM     23  C   UNL     1      -3.790   0.044   5.084  1.00  0.00     0.018 A 
ATOM     24  O   UNL     1      -2.005   1.114   7.962  1.00  0.00    -0.290 OA
ATOM     25  C   UNL     1      -3.352   0.055   6.358  1.00  0.00     0.073 A 
ATOM     26  C   UNL     1      -4.978  -0.852   4.848  1.00  0.00     0.064 C 
ENDBRANCH  17  18
ENDBRANCH  12  17
ENDBRANCH   9  11
ENDBRANCH   8   9
ENDBRANCH   7   8
ENDBRANCH   6   7
ENDBRANCH   5   6
ENDBRANCH   4   5
ENDBRANCH   3   4
ENDBRANCH   2   3
ENDBRANCH   1   2
BRANCH   1  27
ATOM     27  C   UNL     1      -1.827  -6.362   1.478  1.00  0.00     0.188 C 
BRANCH  27  28
ATOM     28  O   UNL     1      -3.240  -6.470   1.680  1.00  0.00    -0.376 OA
BRANCH  28  29
ATOM     29  C   UNL     1      -3.851  -5.598   2.630  1.00  0.00     0.202 C 
BRANCH  29  30
ATOM     30  C   UNL     1      -3.664  -5.972   4.099  1.00  0.00     0.261 C 
BRANCH  30  31
ATOM     31  O   UNL     1      -2.327  -5.704   4.545  1.00  0.00    -0.460 OA
BRANCH  31  32
ATOM     32  C   UNL     1      -1.514  -6.780   4.640  1.00  0.00     0.338 C 
ATOM     33  O   UNL     1      -1.799  -7.948   4.421  1.00  0.00    -0.246 OA
BRANCH  32  34
ATOM     34  C   UNL     1      -0.143  -6.304   4.872  1.00  0.00     0.060 A 
ATOM     35  C   UNL     1       0.869  -6.689   3.982  1.00  0.00     0.016 A 
ATOM     36  C   UNL     1       0.145  -5.520   5.990  1.00  0.00     0.016 A 
ATOM     37  C   UNL     1       2.184  -6.310   4.224  1.00  0.00     0.010 A 
ATOM     38  C   UNL     1       1.466  -5.161   6.244  1.00  0.00     0.010 A 
ATOM     39  C   UNL     1       2.490  -5.584   5.380  1.00  0.00    -0.014 A 
BRANCH  39  40
ATOM     40  C   UNL     1       3.902  -5.428   5.784  1.00  0.00     0.031 A 
ATOM     41  C   UNL     1       4.458  -6.381   6.802  1.00  0.00     0.074 A 
ATOM     42  C   UNL     1       4.664  -4.465   5.239  1.00  0.00     0.049 A 
ATOM     43  N   UNL     1       5.651  -6.419   7.330  1.00  0.00    -0.248 NA
ATOM     44  C   UNL     1       3.548  -7.433   7.292  1.00  0.00     0.031 C 
ATOM     45  C   UNL     1       4.220  -3.511   4.224  1.00  0.00     0.029 A 
ATOM     46  N   UNL     1       5.970  -4.123   5.477  1.00  0.00    -0.354 N 
ATOM     47  C   UNL     1       5.632  -7.484   8.223  1.00  0.00     0.074 A 
ATOM     48  C   UNL     1       4.305  -8.054   8.185  1.00  0.00     0.031 C 
ATOM     49  C   UNL     1       5.235  -2.678   3.937  1.00  0.00     0.029 A 
ATOM     50  C   UNL     1       6.387  -3.022   4.768  1.00  0.00     0.049 A 
ATOM     51  H   UNL     1       6.553  -4.619   6.097  1.00  0.00     0.167 HD
ATOM     52  C   UNL     1       6.643  -7.956   8.987  1.00  0.00     0.034 A 
ATOM     53  C   UNL     1       7.562  -2.363   4.804  1.00  0.00     0.034 A 
ATOM     54  C   UNL     1       7.960  -7.384   9.003  1.00  0.00     0.049 A 
ATOM     55  C   UNL     1       8.653  -2.878   5.708  1.00  0.00     0.074 A 
ATOM     56  C   UNL     1       9.063  -7.793   9.729  1.00  0.00     0.029 A 
ATOM     57  N   UNL     1       8.351  -6.278   8.264  1.00  0.00    -0.354 N 
ATOM     58  N   UNL     1       8.652  -3.937   6.483  1.00  0.00    -0.248 NA
ATOM     59  C   UNL     1       9.917  -2.128   5.724  1.00  0.00     0.031 C 
ATOM     60  C   UNL     1      10.112  -6.914   9.454  1.00  0.00     0.029 A 
ATOM     61  C   UNL     1       9.677  -5.984   8.522  1.00  0.00     0.049 A 
ATOM     62  H   UNL     1       7.771  -5.776   7.647  1.00  0.00     0.167 HD
ATOM     63  C   UNL     1       9.923  -4.004   7.044  1.00  0.00     0.074 A 
ATOM     64  C   UNL     1      10.672  -2.886   6.509  1.00  0.00     0.031 C 
ATOM     65  C   UNL     1      10.421  -4.901   7.930  1.00  0.00     0.034 A 
BRANCH  52  66
ATOM     66  C   UNL     1       6.384  -9.170   9.838  1.00  0.00     0.023 A 
ATOM     67  C   UNL     1       6.245 -10.431   9.224  1.00  0.00     0.012 A 
ATOM     68  C   UNL     1       6.378  -9.081  11.244  1.00  0.00     0.148 A 
ATOM     69  C   UNL     1       6.089 -11.583   9.993  1.00  0.00     0.002 A 
ATOM     70  C   UNL     1       6.271 -10.239  12.005  1.00  0.00     0.091 A 
ATOM     71  F   UNL     1       6.489  -7.870  11.808  1.00  0.00    -0.205 F 
ATOM     72  C   UNL     1       6.117 -11.489  11.382  1.00  0.00     0.022 A 
BRANCH  70  73
ATOM     73  S   UNL     1       6.385 -10.239  13.798  1.00  0.00     0.127 S 
ATOM     74  O   UNL     1       5.048 -10.694  14.178  1.00  0.00    -0.237 OA
ATOM     75  O   UNL     1       7.450 -11.213  14.035  1.00  0.00    -0.237 OA
ATOM     76  O   UNL     1       6.707  -8.873  14.184  1.00  0.00    -0.744 OA
ENDBRANCH  70  73
ENDBRANCH  52  66
BRANCH  53  77
ATOM     77  C   UNL     1       7.785  -1.186   3.915  1.00  0.00     0.023 A 
ATOM     78  C   UNL     1       8.720  -1.280   2.867  1.00  0.00     0.012 A 
ATOM     79  C   UNL     1       7.054   0.009   4.075  1.00  0.00     0.148 A 
ATOM     80  C   UNL     1       8.945  -0.201   2.012  1.00  0.00     0.002 A 
ATOM     81  C   UNL     1       7.240   1.060   3.184  1.00  0.00     0.091 A 
ATOM     82  F   UNL     1       6.178   0.086   5.086  1.00  0.00    -0.205 F 
ATOM     83  C   UNL     1       8.198   0.964   2.163  1.00  0.00     0.022 A 
BRANCH  81  84
ATOM     84  S   UNL     1       6.228   2.544   3.213  1.00  0.00     0.127 S 
ATOM     85  O   UNL     1       7.201   3.563   3.599  1.00  0.00    -0.237 OA
ATOM     86  O   UNL     1       5.772   2.622   1.825  1.00  0.00    -0.237 OA
ATOM     87  O   UNL     1       5.170   2.285   4.179  1.00  0.00    -0.744 OA
ENDBRANCH  81  84
ENDBRANCH  53  77
BRANCH  65  88
ATOM     88  C   UNL     1      11.858  -4.755   8.362  1.00  0.00     0.023 A 
ATOM     89  C   UNL     1      12.223  -3.718   9.241  1.00  0.00     0.012 A 
ATOM     90  C   UNL     1      12.810  -5.734   8.010  1.00  0.00     0.148 A 
ATOM     91  C   UNL     1      13.519  -3.646   9.750  1.00  0.00     0.002 A 
ATOM     92  C   UNL     1      14.082  -5.688   8.566  1.00  0.00     0.091 A 
ATOM     93  F   UNL     1      12.443  -6.707   7.163  1.00  0.00    -0.205 F 
ATOM     94  C   UNL     1      14.442  -4.638   9.426  1.00  0.00     0.022 A 
BRANCH  92  95
ATOM     95  S   UNL     1      15.301  -6.982   8.304  1.00  0.00     0.127 S 
ATOM     96  O   UNL     1      16.325  -6.275   7.536  1.00  0.00    -0.237 OA
ATOM     97  O   UNL     1      15.690  -7.319   9.673  1.00  0.00    -0.237 OA
ATOM     98  O   UNL     1      14.613  -8.047   7.586  1.00  0.00    -0.744 OA
ENDBRANCH  92  95
ENDBRANCH  65  88
ENDBRANCH  39  40
ENDBRANCH  32  34
ENDBRANCH  31  32
ENDBRANCH  30  31
ENDBRANCH  29  30
ENDBRANCH  28  29
ENDBRANCH  27  28
ENDBRANCH   1  27
TORSDOF 25
