REMARK SMILES O=Cc1ccc(-c2ccc(C(=O)OCCOCCOCCOCCOC(=O)c3ccc(-c4c5nc(c(-c6cccc(S(=O)(=O)[O-])c6F)c6ccc([nH]6)c(-c6cccc(S(=O)(=O)[O-])c6F)c6nc(c(-c7cccc(S(=O)(=O)[O-])c7F)c7ccc4[nH]7)C=C6)C=C5)cc3)cn2)cc1
REMARK SMILES IDX 20 1 19 2 18 3 17 4 16 5 15 6 14 7 13 8 11 9 12 10 10 11
REMARK SMILES IDX 7 12 8 13 92 14 9 15 91 16 6 17 3 18 4 19 94 20 5 21 93 22
REMARK SMILES IDX 2 23 1 24 21 25 22 26 23 27 24 28 25 29 26 30 27 31 28 32
REMARK SMILES IDX 29 33 90 34 30 35 89 36 31 37 32 38 33 39 83 40 34 41 88 42
REMARK SMILES IDX 82 43 84 44 35 45 87 46 81 47 80 48 36 50 68 51 48 52 67 53
REMARK SMILES IDX 49 54 52 55 66 56 85 57 50 58 51 59 65 61 86 62 53 63 37 64
REMARK SMILES IDX 38 65 46 66 39 67 41 68 47 69 40 70 42 71 43 72 44 73 45 74
REMARK SMILES IDX 69 75 70 76 78 77 71 78 73 79 79 80 72 81 74 82 75 83 76 84
REMARK SMILES IDX 77 85 54 86 55 87 63 88 56 89 58 90 64 91 57 92 59 93 60 94
REMARK SMILES IDX 61 95 62 96
REMARK H PARENT 84 49 52 60
REMARK Flexibility Score: inf
ROOT
ATOM      1  C   UNL     1      10.909   9.043  -0.340  1.00  0.00     0.188 C 
ENDROOT
BRANCH   1   2
ATOM      2  O   UNL     1       9.657   8.365  -0.228  1.00  0.00    -0.377 OA
BRANCH   2   3
ATOM      3  C   UNL     1       9.101   7.740  -1.370  1.00  0.00     0.188 C 
BRANCH   3   4
ATOM      4  C   UNL     1       8.543   8.703  -2.436  1.00  0.00     0.188 C 
BRANCH   4   5
ATOM      5  O   UNL     1       9.039  10.023  -2.344  1.00  0.00    -0.376 OA
BRANCH   5   6
ATOM      6  C   UNL     1       8.377  11.024  -1.591  1.00  0.00     0.202 C 
BRANCH   6   7
ATOM      7  C   UNL     1       7.586  10.780  -0.292  1.00  0.00     0.261 C 
BRANCH   7   8
ATOM      8  O   UNL     1       7.056   9.475  -0.071  1.00  0.00    -0.460 OA
BRANCH   8   9
ATOM      9  C   UNL     1       5.907   9.162  -0.697  1.00  0.00     0.339 C 
ATOM     10  O   UNL     1       5.255   9.873  -1.442  1.00  0.00    -0.246 OA
BRANCH   9  11
ATOM     11  C   UNL     1       5.670   7.721  -0.509  1.00  0.00     0.078 A 
ATOM     12  C   UNL     1       5.130   5.037  -0.361  1.00  0.00     0.070 A 
ATOM     13  C   UNL     1       5.639   5.687   0.765  1.00  0.00     0.030 A 
ATOM     14  N   UNL     1       4.974   5.657  -1.558  1.00  0.00    -0.255 NA
ATOM     15  C   UNL     1       5.922   7.050   0.687  1.00  0.00     0.019 A 
ATOM     16  C   UNL     1       5.233   6.984  -1.600  1.00  0.00     0.127 A 
BRANCH  12  17
ATOM     17  C   UNL     1       4.513   3.712  -0.277  1.00  0.00     0.000 A 
ATOM     18  C   UNL     1       3.130   1.272  -0.215  1.00  0.00     0.014 A 
ATOM     19  C   UNL     1       4.301   1.389  -0.971  1.00  0.00     0.012 A 
ATOM     20  C   UNL     1       2.650   2.356   0.518  1.00  0.00     0.012 A 
ATOM     21  C   UNL     1       4.984   2.611  -1.008  1.00  0.00     0.011 A 
ATOM     22  C   UNL     1       3.344   3.562   0.491  1.00  0.00     0.011 A 
BRANCH  18  23
ATOM     23  C   UNL     1       2.383  -0.001  -0.209  1.00  0.00     0.260 C 
ATOM     24  O   UNL     1       1.273  -0.105   0.298  1.00  0.00    -0.298 OA
ENDBRANCH  18  23
ENDBRANCH  12  17
ENDBRANCH   9  11
ENDBRANCH   8   9
ENDBRANCH   7   8
ENDBRANCH   6   7
ENDBRANCH   5   6
ENDBRANCH   4   5
ENDBRANCH   3   4
ENDBRANCH   2   3
ENDBRANCH   1   2
BRANCH   1  25
ATOM     25  C   UNL     1      11.634   9.256  -1.693  1.00  0.00     0.188 C 
BRANCH  25  26
ATOM     26  O   UNL     1      11.350   8.287  -2.691  1.00  0.00    -0.376 OA
BRANCH  26  27
ATOM     27  C   UNL     1      12.343   7.326  -3.001  1.00  0.00     0.202 C 
BRANCH  27  28
ATOM     28  C   UNL     1      12.680   6.310  -1.901  1.00  0.00     0.261 C 
BRANCH  28  29
ATOM     29  O   UNL     1      13.075   6.868  -0.640  1.00  0.00    -0.460 OA
BRANCH  29  30
ATOM     30  C   UNL     1      14.225   7.573  -0.624  1.00  0.00     0.338 C 
ATOM     31  O   UNL     1      14.977   7.771  -1.569  1.00  0.00    -0.246 OA
BRANCH  30  32
ATOM     32  C   UNL     1      14.339   8.237   0.687  1.00  0.00     0.060 A 
ATOM     33  C   UNL     1      14.446   9.633   0.728  1.00  0.00     0.016 A 
ATOM     34  C   UNL     1      14.355   7.487   1.866  1.00  0.00     0.016 A 
ATOM     35  C   UNL     1      14.635  10.279   1.948  1.00  0.00     0.010 A 
ATOM     36  C   UNL     1      14.560   8.136   3.087  1.00  0.00     0.010 A 
ATOM     37  C   UNL     1      14.753   9.528   3.124  1.00  0.00    -0.014 A 
BRANCH  37  38
ATOM     38  C   UNL     1      15.306  10.175   4.339  1.00  0.00     0.031 A 
ATOM     39  C   UNL     1      16.767   9.976   4.647  1.00  0.00     0.074 A 
ATOM     40  C   UNL     1      14.546  10.953   5.129  1.00  0.00     0.049 A 
ATOM     41  N   UNL     1      17.478  10.447   5.637  1.00  0.00    -0.248 NA
ATOM     42  C   UNL     1      17.528   9.131   3.710  1.00  0.00     0.031 C 
ATOM     43  C   UNL     1      13.126  11.233   4.929  1.00  0.00     0.029 A 
ATOM     44  N   UNL     1      14.868  11.638   6.274  1.00  0.00    -0.354 N 
ATOM     45  C   UNL     1      18.758   9.935   5.460  1.00  0.00     0.074 A 
ATOM     46  C   UNL     1      18.723   9.102   4.279  1.00  0.00     0.031 C 
ATOM     47  C   UNL     1      12.692  12.017   5.932  1.00  0.00     0.029 A 
ATOM     48  C   UNL     1      13.797  12.273   6.855  1.00  0.00     0.049 A 
ATOM     49  H   UNL     1      15.780  11.671   6.644  1.00  0.00     0.167 HD
ATOM     50  C   UNL     1      19.870  10.150   6.202  1.00  0.00     0.034 A 
ATOM     51  C   UNL     1      13.717  12.965   8.009  1.00  0.00     0.034 A 
ATOM     52  C   UNL     1      19.906  10.986   7.370  1.00  0.00     0.049 A 
ATOM     53  C   UNL     1      14.963  13.166   8.834  1.00  0.00     0.074 A 
ATOM     54  C   UNL     1      20.989  11.295   8.173  1.00  0.00     0.029 A 
ATOM     55  N   UNL     1      18.808  11.635   7.912  1.00  0.00    -0.354 N 
ATOM     56  N   UNL     1      16.187  12.758   8.601  1.00  0.00    -0.248 NA
ATOM     57  C   UNL     1      14.823  13.960  10.064  1.00  0.00     0.031 C 
ATOM     58  C   UNL     1      20.537  12.100   9.224  1.00  0.00     0.029 A 
ATOM     59  C   UNL     1      19.183  12.336   9.044  1.00  0.00     0.049 A 
ATOM     60  H   UNL     1      17.895  11.603   7.545  1.00  0.00     0.167 HD
ATOM     61  C   UNL     1      16.969  13.285   9.624  1.00  0.00     0.074 A 
ATOM     62  C   UNL     1      16.081  14.055  10.470  1.00  0.00     0.031 C 
ATOM     63  C   UNL     1      18.299  13.141   9.848  1.00  0.00     0.034 A 
BRANCH  50  64
ATOM     64  C   UNL     1      21.142   9.471   5.766  1.00  0.00     0.023 A 
ATOM     65  C   UNL     1      21.800   9.894   4.592  1.00  0.00     0.012 A 
ATOM     66  C   UNL     1      21.709   8.442   6.543  1.00  0.00     0.148 A 
ATOM     67  C   UNL     1      22.982   9.279   4.180  1.00  0.00     0.002 A 
ATOM     68  C   UNL     1      22.913   7.870   6.153  1.00  0.00     0.091 A 
ATOM     69  F   UNL     1      21.056   8.038   7.641  1.00  0.00    -0.205 F 
ATOM     70  C   UNL     1      23.544   8.276   4.965  1.00  0.00     0.022 A 
BRANCH  68  71
ATOM     71  S   UNL     1      23.759   6.629   7.138  1.00  0.00     0.127 S 
ATOM     72  O   UNL     1      23.635   5.444   6.290  1.00  0.00    -0.237 OA
ATOM     73  O   UNL     1      25.113   7.178   7.224  1.00  0.00    -0.237 OA
ATOM     74  O   UNL     1      23.046   6.565   8.406  1.00  0.00    -0.744 OA
ENDBRANCH  68  71
ENDBRANCH  50  64
BRANCH  51  75
ATOM     75  C   UNL     1      12.416  13.549   8.446  1.00  0.00     0.023 A 
ATOM     76  C   UNL     1      12.252  14.947   8.481  1.00  0.00     0.012 A 
ATOM     77  C   UNL     1      11.344  12.722   8.833  1.00  0.00     0.148 A 
ATOM     78  C   UNL     1      11.058  15.512   8.933  1.00  0.00     0.002 A 
ATOM     79  C   UNL     1      10.138  13.289   9.226  1.00  0.00     0.091 A 
ATOM     80  F   UNL     1      11.525  11.394   8.806  1.00  0.00    -0.205 F 
ATOM     81  C   UNL     1       9.999  14.684   9.296  1.00  0.00     0.022 A 
BRANCH  79  82
ATOM     82  S   UNL     1       8.682  12.304   9.590  1.00  0.00     0.127 S 
ATOM     83  O   UNL     1       8.517  12.531  11.023  1.00  0.00    -0.237 OA
ATOM     84  O   UNL     1       7.672  12.940   8.744  1.00  0.00    -0.237 OA
ATOM     85  O   UNL     1       9.020  10.941   9.202  1.00  0.00    -0.744 OA
ENDBRANCH  79  82
ENDBRANCH  51  75
BRANCH  63  86
ATOM     86  C   UNL     1      18.898  13.887  11.014  1.00  0.00     0.023 A 
ATOM     87  C   UNL     1      18.601  13.503  12.337  1.00  0.00     0.012 A 
ATOM     88  C   UNL     1      19.805  14.943  10.791  1.00  0.00     0.148 A 
ATOM     89  C   UNL     1      19.156  14.190  13.416  1.00  0.00     0.002 A 
ATOM     90  C   UNL     1      20.399  15.585  11.870  1.00  0.00     0.091 A 
ATOM     91  F   UNL     1      20.066  15.306   9.526  1.00  0.00    -0.205 F 
ATOM     92  C   UNL     1      20.062  15.222  13.184  1.00  0.00     0.022 A 
BRANCH  90  93
ATOM     93  S   UNL     1      21.653  16.854  11.662  1.00  0.00     0.127 S 
ATOM     94  O   UNL     1      20.917  18.062  12.028  1.00  0.00    -0.237 OA
ATOM     95  O   UNL     1      22.672  16.444  12.630  1.00  0.00    -0.237 OA
ATOM     96  O   UNL     1      22.077  16.775  10.271  1.00  0.00    -0.744 OA
ENDBRANCH  90  93
ENDBRANCH  63  86
ENDBRANCH  37  38
ENDBRANCH  30  32
ENDBRANCH  29  30
ENDBRANCH  28  29
ENDBRANCH  27  28
ENDBRANCH  26  27
ENDBRANCH  25  26
ENDBRANCH   1  25
TORSDOF 25
