REMARK SMILES Cc1cc(NC(=O)c2ccc(Br)cc2N)ccc1C(=O)OCCOCCOCCOCCOC(=O)c1ccc(-c2c3nc(c(-c4cccc(S(=O)(=O)[O-])c4F)c4ccc([nH]4)c(-c4cccc(S(=O)(=O)[O-])c4F)c4nc(c(-c5cccc(S(=O)(=O)[O-])c5F)c5ccc2[nH]5)C=C4)C=C3)cc1
REMARK SMILES IDX 27 1 26 2 25 3 24 4 23 5 22 6 21 7 19 8 20 9 18 10 1 11 2 12
REMARK SMILES IDX 3 13 4 14 17 15 16 16 5 17 6 18 7 20 8 21 9 22 14 23 10 24
REMARK SMILES IDX 13 25 11 26 12 27 15 28 28 31 29 32 30 33 31 34 32 35 33 36
REMARK SMILES IDX 34 37 35 38 36 39 37 40 98 41 38 42 97 43 39 44 40 45 41 46
REMARK SMILES IDX 91 47 42 48 96 49 90 50 92 51 43 52 95 53 89 54 88 55 44 57
REMARK SMILES IDX 76 58 56 59 75 60 57 61 60 62 74 63 93 64 58 65 59 66 73 68
REMARK SMILES IDX 94 69 61 70 45 71 46 72 54 73 47 74 49 75 55 76 48 77 50 78
REMARK SMILES IDX 51 79 52 80 53 81 77 82 78 83 86 84 79 85 81 86 87 87 80 88
REMARK SMILES IDX 82 89 83 90 84 91 85 92 62 93 63 94 71 95 64 96 66 97 72 98
REMARK SMILES IDX 65 99 67 100 68 101 69 102 70 103
REMARK H PARENT 5 19 15 29 15 30 92 56 60 67
REMARK Flexibility Score: inf
ROOT
ATOM      1  O   UNL     1       0.598   2.309  -3.754  1.00  0.00    -0.377 OA
ENDROOT
BRANCH   1   2
ATOM      2  C   UNL     1      -0.116   1.894  -2.611  1.00  0.00     0.188 C 
BRANCH   2   3
ATOM      3  C   UNL     1      -1.279   2.788  -2.173  1.00  0.00     0.188 C 
BRANCH   3   4
ATOM      4  O   UNL     1      -0.957   4.081  -1.667  1.00  0.00    -0.376 OA
BRANCH   4   5
ATOM      5  C   UNL     1       0.096   4.165  -0.707  1.00  0.00     0.202 C 
BRANCH   5   6
ATOM      6  C   UNL     1      -0.284   3.686   0.664  1.00  0.00     0.261 C 
BRANCH   6   7
ATOM      7  O   UNL     1      -0.117   2.275   0.640  1.00  0.00    -0.460 OA
BRANCH   7   8
ATOM      8  C   UNL     1      -1.104   1.605   1.232  1.00  0.00     0.338 C 
ATOM      9  O   UNL     1      -1.895   1.997   2.062  1.00  0.00    -0.246 OA
BRANCH   8  10
ATOM     10  C   UNL     1      -1.282   0.360   0.464  1.00  0.00     0.063 A 
ATOM     11  C   UNL     1       1.211  -0.235   0.039  1.00  0.00     0.045 C 
ATOM     12  C   UNL     1      -0.267  -0.481  -0.030  1.00  0.00    -0.035 A 
ATOM     13  C   UNL     1      -0.651  -1.740  -0.483  1.00  0.00     0.030 A 
ATOM     14  C   UNL     1      -1.975  -2.143  -0.363  1.00  0.00     0.041 A 
ATOM     15  C   UNL     1      -2.635   0.042   0.271  1.00  0.00     0.018 A 
ATOM     16  C   UNL     1      -2.991  -1.217  -0.169  1.00  0.00     0.027 A 
BRANCH  14  17
ATOM     17  N   UNL     1      -2.305  -3.482  -0.183  1.00  0.00    -0.322 N 
ATOM     18  C   UNL     1      -1.584  -4.484   0.436  1.00  0.00     0.257 C 
ATOM     19  H   UNL     1      -3.178  -3.754  -0.548  1.00  0.00     0.170 HD
ATOM     20  O   UNL     1      -2.042  -5.629   0.370  1.00  0.00    -0.269 OA
BRANCH  18  21
ATOM     21  C   UNL     1      -0.301  -4.284   1.195  1.00  0.00     0.063 A 
ATOM     22  C   UNL     1       0.652  -5.296   0.957  1.00  0.00     0.017 A 
ATOM     23  C   UNL     1      -0.003  -3.276   2.147  1.00  0.00     0.045 A 
ATOM     24  C   UNL     1       1.864  -5.337   1.648  1.00  0.00     0.016 A 
ATOM     25  C   UNL     1       1.236  -3.329   2.821  1.00  0.00     0.042 A 
ATOM     26  C   UNL     1       2.151  -4.350   2.579  1.00  0.00     0.020 A 
ATOM     27  Br  UNL     1       3.762  -4.431   3.566  1.00  0.00    -0.051 Br
BRANCH  23  28
ATOM     28  N   UNL     1      -0.909  -2.323   2.615  1.00  0.00    -0.398 N 
ATOM     29  H   UNL     1      -1.792  -2.233   2.189  1.00  0.00     0.156 HD
ATOM     30  H   UNL     1      -0.666  -1.742   3.371  1.00  0.00     0.156 HD
ENDBRANCH  23  28
ENDBRANCH  18  21
ENDBRANCH  14  17
ENDBRANCH   8  10
ENDBRANCH   7   8
ENDBRANCH   6   7
ENDBRANCH   5   6
ENDBRANCH   4   5
ENDBRANCH   3   4
ENDBRANCH   2   3
ENDBRANCH   1   2
BRANCH   1  31
ATOM     31  C   UNL     1       0.957   3.673  -3.825  1.00  0.00     0.188 C 
BRANCH  31  32
ATOM     32  C   UNL     1       0.134   4.455  -4.862  1.00  0.00     0.188 C 
BRANCH  32  33
ATOM     33  O   UNL     1      -0.589   3.692  -5.795  1.00  0.00    -0.376 OA
BRANCH  33  34
ATOM     34  C   UNL     1       0.183   2.663  -6.381  1.00  0.00     0.202 C 
BRANCH  34  35
ATOM     35  C   UNL     1       1.751   2.714  -6.467  1.00  0.00     0.261 C 
BRANCH  35  36
ATOM     36  O   UNL     1       2.654   3.929  -6.541  1.00  0.00    -0.460 OA
BRANCH  36  37
ATOM     37  C   UNL     1       3.467   4.952  -6.161  1.00  0.00     0.338 C 
ATOM     38  O   UNL     1       4.316   5.302  -6.992  1.00  0.00    -0.246 OA
BRANCH  37  39
ATOM     39  C   UNL     1       3.514   5.691  -4.845  1.00  0.00     0.060 A 
ATOM     40  C   UNL     1       4.722   5.908  -4.184  1.00  0.00     0.016 A 
ATOM     41  C   UNL     1       2.433   6.294  -4.236  1.00  0.00     0.016 A 
ATOM     42  C   UNL     1       4.753   6.134  -2.791  1.00  0.00     0.010 A 
ATOM     43  C   UNL     1       2.416   6.394  -2.843  1.00  0.00     0.010 A 
ATOM     44  C   UNL     1       3.564   6.127  -2.093  1.00  0.00    -0.014 A 
BRANCH  44  45
ATOM     45  C   UNL     1       3.400   5.671  -0.691  1.00  0.00     0.031 A 
ATOM     46  C   UNL     1       2.540   6.492   0.258  1.00  0.00     0.074 A 
ATOM     47  C   UNL     1       3.622   4.345  -0.426  1.00  0.00     0.049 A 
ATOM     48  N   UNL     1       2.107   6.110   1.416  1.00  0.00    -0.248 NA
ATOM     49  C   UNL     1       2.034   7.825  -0.072  1.00  0.00     0.031 C 
ATOM     50  C   UNL     1       2.917   3.615   0.614  1.00  0.00     0.029 A 
ATOM     51  N   UNL     1       4.411   3.323  -0.996  1.00  0.00    -0.354 N 
ATOM     52  C   UNL     1       1.065   6.929   1.815  1.00  0.00     0.074 A 
ATOM     53  C   UNL     1       1.115   8.028   0.884  1.00  0.00     0.031 C 
ATOM     54  C   UNL     1       3.220   2.318   0.611  1.00  0.00     0.029 A 
ATOM     55  C   UNL     1       4.459   2.227  -0.104  1.00  0.00     0.049 A 
ATOM     56  H   UNL     1       4.856   3.366  -1.873  1.00  0.00     0.167 HD
ATOM     57  C   UNL     1       0.221   6.525   2.817  1.00  0.00     0.034 A 
ATOM     58  C   UNL     1       5.544   1.729   0.573  1.00  0.00     0.034 A 
ATOM     59  C   UNL     1       0.718   5.300   3.509  1.00  0.00     0.049 A 
ATOM     60  C   UNL     1       5.471   2.012   2.087  1.00  0.00     0.074 A 
ATOM     61  C   UNL     1       0.165   4.073   3.851  1.00  0.00     0.029 A 
ATOM     62  N   UNL     1       2.071   5.195   3.854  1.00  0.00    -0.354 N 
ATOM     63  N   UNL     1       4.588   2.837   2.603  1.00  0.00    -0.248 NA
ATOM     64  C   UNL     1       6.256   1.384   3.148  1.00  0.00     0.031 C 
ATOM     65  C   UNL     1       1.230   3.182   4.188  1.00  0.00     0.029 A 
ATOM     66  C   UNL     1       2.421   3.896   4.192  1.00  0.00     0.049 A 
ATOM     67  H   UNL     1       2.700   5.952   3.856  1.00  0.00     0.167 HD
ATOM     68  C   UNL     1       4.613   2.834   3.958  1.00  0.00     0.074 A 
ATOM     69  C   UNL     1       5.715   1.933   4.260  1.00  0.00     0.031 C 
ATOM     70  C   UNL     1       3.752   3.583   4.718  1.00  0.00     0.034 A 
BRANCH  57  71
ATOM     71  C   UNL     1      -1.164   7.136   3.151  1.00  0.00     0.023 A 
ATOM     72  C   UNL     1      -1.796   6.688   4.338  1.00  0.00     0.012 A 
ATOM     73  C   UNL     1      -1.933   8.044   2.369  1.00  0.00     0.148 A 
ATOM     74  C   UNL     1      -3.089   7.081   4.721  1.00  0.00     0.002 A 
ATOM     75  C   UNL     1      -3.200   8.498   2.792  1.00  0.00     0.091 A 
ATOM     76  F   UNL     1      -1.487   8.433   1.171  1.00  0.00    -0.205 F 
ATOM     77  C   UNL     1      -3.787   7.999   3.957  1.00  0.00     0.022 A 
BRANCH  75  78
ATOM     78  S   UNL     1      -4.159   9.762   1.921  1.00  0.00     0.127 S 
ATOM     79  O   UNL     1      -5.381   9.041   1.567  1.00  0.00    -0.237 OA
ATOM     80  O   UNL     1      -4.340  10.783   2.954  1.00  0.00    -0.237 OA
ATOM     81  O   UNL     1      -3.343  10.185   0.790  1.00  0.00    -0.744 OA
ENDBRANCH  75  78
ENDBRANCH  57  71
BRANCH  58  82
ATOM     82  C   UNL     1       6.678   1.335  -0.301  1.00  0.00     0.023 A 
ATOM     83  C   UNL     1       6.419   0.227  -1.155  1.00  0.00     0.012 A 
ATOM     84  C   UNL     1       7.517   2.354  -0.750  1.00  0.00     0.148 A 
ATOM     85  C   UNL     1       6.783   0.257  -2.503  1.00  0.00     0.002 A 
ATOM     86  C   UNL     1       7.763   2.436  -2.115  1.00  0.00     0.091 A 
ATOM     87  F   UNL     1       7.834   3.340   0.099  1.00  0.00    -0.205 F 
ATOM     88  C   UNL     1       7.401   1.394  -2.995  1.00  0.00     0.022 A 
BRANCH  86  89
ATOM     89  S   UNL     1       7.777   4.058  -2.883  1.00  0.00     0.127 S 
ATOM     90  O   UNL     1       8.968   4.034  -3.721  1.00  0.00    -0.237 OA
ATOM     91  O   UNL     1       6.510   3.943  -3.596  1.00  0.00    -0.237 OA
ATOM     92  O   UNL     1       7.782   5.020  -1.793  1.00  0.00    -0.744 OA
ENDBRANCH  86  89
ENDBRANCH  58  82
BRANCH  70  93
ATOM     93  C   UNL     1       4.117   4.140   6.076  1.00  0.00     0.023 A 
ATOM     94  C   UNL     1       5.466   4.284   6.448  1.00  0.00     0.012 A 
ATOM     95  C   UNL     1       3.149   4.789   6.889  1.00  0.00     0.148 A 
ATOM     96  C   UNL     1       5.840   5.005   7.583  1.00  0.00     0.002 A 
ATOM     97  C   UNL     1       3.536   5.600   7.947  1.00  0.00     0.091 A 
ATOM     98  F   UNL     1       1.841   4.628   6.641  1.00  0.00    -0.205 F 
ATOM     99  C   UNL     1       4.879   5.687   8.315  1.00  0.00     0.022 A 
BRANCH  97 100
ATOM    100  S   UNL     1       2.366   6.702   8.757  1.00  0.00     0.127 S 
ATOM    101  O   UNL     1       2.026   5.945   9.959  1.00  0.00    -0.237 OA
ATOM    102  O   UNL     1       3.180   7.896   8.997  1.00  0.00    -0.237 OA
ATOM    103  O   UNL     1       1.288   6.900   7.797  1.00  0.00    -0.744 OA
ENDBRANCH  97 100
ENDBRANCH  70  93
ENDBRANCH  44  45
ENDBRANCH  37  39
ENDBRANCH  36  37
ENDBRANCH  35  36
ENDBRANCH  34  35
ENDBRANCH  33  34
ENDBRANCH  32  33
ENDBRANCH  31  32
ENDBRANCH   1  31
TORSDOF 26
