REMARK SMILES O=C(NC(C1CC1)C1CC1)N[C@H]1CCCCC[C@H]1C(=O)OCCOCCOCCOCCOC(=O)c1ccc(-c2c3nc(c(-c4cccc(S(=O)(=O)[O-])c4F)c4ccc([nH]4)c(-c4cccc(S(=O)(=O)[O-])c4F)c4nc(c(-c5cccc(S(=O)(=O)[O-])c5F)c5ccc2[nH]5)C=C4)C=C3)cc1
REMARK SMILES IDX 26 1 25 2 24 3 23 4 22 5 21 6 19 7 20 8 18 9 12 10 11 11
REMARK SMILES IDX 1 12 2 13 3 14 4 17 5 18 6 19 7 20 8 21 9 22 10 23 13 24
REMARK SMILES IDX 14 25 17 27 16 28 15 29 27 31 28 32 29 33 30 34 31 35 32 36
REMARK SMILES IDX 33 37 34 38 35 39 36 40 37 41 98 42 38 43 97 44 39 45 40 46
REMARK SMILES IDX 41 47 91 48 42 49 96 50 90 51 92 52 43 53 95 54 89 55 88 56
REMARK SMILES IDX 44 58 76 59 56 60 75 61 57 62 60 63 74 64 93 65 58 66 59 67
REMARK SMILES IDX 73 69 94 70 61 71 45 72 46 73 54 74 47 75 49 76 55 77 48 78
REMARK SMILES IDX 50 79 51 80 52 81 53 82 77 83 78 84 86 85 79 86 81 87 87 88
REMARK SMILES IDX 80 89 82 90 83 91 84 92 85 93 62 94 63 95 71 96 64 97 66 98
REMARK SMILES IDX 72 99 65 100 67 101 68 102 69 103 70 104
REMARK H PARENT 3 15 11 16 92 57 60 68
REMARK Flexibility Score: 90.00
ROOT
ATOM      1  C   UNL     1       2.468  -2.064  -7.647  1.00  0.00     0.188 C 
ENDROOT
BRANCH   1   2
ATOM      2  C   UNL     1       3.352  -2.900  -6.726  1.00  0.00     0.188 C 
BRANCH   2   3
ATOM      3  O   UNL     1       3.208  -4.312  -6.891  1.00  0.00    -0.376 OA
BRANCH   3   4
ATOM      4  C   UNL     1       1.888  -4.846  -6.868  1.00  0.00     0.202 C 
BRANCH   4   5
ATOM      5  C   UNL     1       1.268  -5.060  -5.487  1.00  0.00     0.261 C 
BRANCH   5   6
ATOM      6  O   UNL     1       1.280  -3.890  -4.662  1.00  0.00    -0.463 OA
BRANCH   6   7
ATOM      7  C   UNL     1       2.354  -3.821  -3.834  1.00  0.00     0.311 C 
ATOM      8  O   UNL     1       3.307  -4.598  -3.865  1.00  0.00    -0.252 OA
BRANCH   7   9
ATOM      9  C   UNL     1       2.205  -2.807  -2.728  1.00  0.00     0.121 C 
BRANCH   9  10
ATOM     10  C   UNL     1       1.330  -1.532  -2.913  1.00  0.00     0.098 C 
BRANCH  10  11
ATOM     11  N   UNL     1       1.110  -0.983  -4.297  1.00  0.00    -0.335 N 
ATOM     12  O   UNL     1       2.983   0.105  -4.087  1.00  0.00    -0.249 OA
ATOM     13  C   UNL     1       1.988  -0.022  -4.793  1.00  0.00     0.315 C 
ATOM     14  N   UNL     1       1.533   0.678  -5.938  1.00  0.00    -0.335 N 
ATOM     15  H   UNL     1       0.835   0.135  -6.369  1.00  0.00     0.165 HD
ATOM     16  H   UNL     1       0.356  -1.300  -4.845  1.00  0.00     0.165 HD
BRANCH  14  17
ATOM     17  C   UNL     1       1.724   2.047  -6.817  1.00  0.00     0.090 C 
BRANCH  17  18
ATOM     18  C   UNL     1       2.006   3.601  -6.542  1.00  0.00     0.012 C 
ATOM     19  C   UNL     1       3.057   4.657  -6.092  1.00  0.00     0.006 C 
ATOM     20  C   UNL     1       3.016   4.266  -7.510  1.00  0.00     0.006 C 
ENDBRANCH  17  18
BRANCH  17  21
ATOM     21  C   UNL     1       1.635   1.843  -8.331  1.00  0.00     0.012 C 
ATOM     22  C   UNL     1       0.451   1.206  -9.014  1.00  0.00     0.006 C 
ATOM     23  C   UNL     1       0.627   2.691  -9.100  1.00  0.00     0.006 C 
ENDBRANCH  17  21
ENDBRANCH  14  17
ENDBRANCH  10  11
BRANCH  10  24
ATOM     24  C   UNL     1       0.049  -1.483  -2.075  1.00  0.00     0.026 C 
BRANCH  24  25
ATOM     25  C   UNL     1      -0.904  -2.628  -2.358  1.00  0.00     0.002 CG0
ATOM     26  G   UNL     1      -0.687  -3.833  -1.448  1.00  0.00     0.000 G0
ENDBRANCH  24  25
ENDBRANCH  10  24
ENDBRANCH   9  10
BRANCH   9  27
ATOM     27  C   UNL     1       1.914  -3.635  -1.447  1.00  0.00     0.017 C 
BRANCH  27  28
ATOM     28  C   UNL     1       0.668  -4.530  -1.516  1.00  0.00     0.001 C 
BRANCH  28  29
ATOM     29  C   UNL     1      -0.687  -3.833  -1.448  1.00  0.00     0.000 CG0
ATOM     30  G   UNL     1      -0.904  -2.628  -2.358  1.00  0.00     0.000 G0
ENDBRANCH  28  29
ENDBRANCH  27  28
ENDBRANCH   9  27
ENDBRANCH   7   9
ENDBRANCH   6   7
ENDBRANCH   5   6
ENDBRANCH   4   5
ENDBRANCH   3   4
ENDBRANCH   2   3
ENDBRANCH   1   2
BRANCH   1  31
ATOM     31  O   UNL     1       2.791  -0.683  -7.687  1.00  0.00    -0.377 OA
BRANCH  31  32
ATOM     32  C   UNL     1       4.113  -0.302  -8.051  1.00  0.00     0.188 C 
BRANCH  32  33
ATOM     33  C   UNL     1       4.729   0.833  -7.145  1.00  0.00     0.188 C 
BRANCH  33  34
ATOM     34  O   UNL     1       4.108   0.937  -5.873  1.00  0.00    -0.376 OA
BRANCH  34  35
ATOM     35  C   UNL     1       4.248   2.086  -5.002  1.00  0.00     0.202 C 
BRANCH  35  36
ATOM     36  C   UNL     1       2.972   2.640  -3.929  1.00  0.00     0.261 C 
BRANCH  36  37
ATOM     37  O   UNL     1       1.476   2.448  -4.213  1.00  0.00    -0.460 OA
BRANCH  37  38
ATOM     38  C   UNL     1       0.422   3.308  -3.999  1.00  0.00     0.338 C 
ATOM     39  O   UNL     1       0.564   4.397  -3.456  1.00  0.00    -0.246 OA
BRANCH  38  40
ATOM     40  C   UNL     1      -0.982   2.900  -4.622  1.00  0.00     0.060 A 
ATOM     41  C   UNL     1      -1.262   1.715  -5.310  1.00  0.00     0.016 A 
ATOM     42  C   UNL     1      -2.074   3.785  -4.602  1.00  0.00     0.016 A 
ATOM     43  C   UNL     1      -2.455   1.480  -6.067  1.00  0.00     0.010 A 
ATOM     44  C   UNL     1      -3.335   3.493  -5.250  1.00  0.00     0.010 A 
ATOM     45  C   UNL     1      -3.559   2.337  -6.026  1.00  0.00    -0.014 A 
BRANCH  45  46
ATOM     46  C   UNL     1      -4.902   2.022  -6.716  1.00  0.00     0.031 A 
ATOM     47  C   UNL     1      -5.690   3.089  -7.479  1.00  0.00     0.074 A 
ATOM     48  C   UNL     1      -5.503   0.801  -6.689  1.00  0.00     0.049 A 
ATOM     49  N   UNL     1      -6.959   3.107  -7.831  1.00  0.00    -0.248 NA
ATOM     50  C   UNL     1      -4.944   4.272  -7.927  1.00  0.00     0.031 C 
ATOM     51  C   UNL     1      -4.946  -0.428  -6.128  1.00  0.00     0.029 A 
ATOM     52  N   UNL     1      -6.763   0.399  -7.125  1.00  0.00    -0.354 N 
ATOM     53  C   UNL     1      -7.184   4.334  -8.455  1.00  0.00     0.074 A 
ATOM     54  C   UNL     1      -5.902   5.013  -8.474  1.00  0.00     0.031 C 
ATOM     55  C   UNL     1      -5.840  -1.423  -6.238  1.00  0.00     0.029 A 
ATOM     56  C   UNL     1      -7.091  -0.897  -6.776  1.00  0.00     0.049 A 
ATOM     57  H   UNL     1      -7.366   0.986  -7.637  1.00  0.00     0.167 HD
ATOM     58  C   UNL     1      -8.329   4.861  -8.966  1.00  0.00     0.034 A 
ATOM     59  C   UNL     1      -8.255  -1.591  -6.790  1.00  0.00     0.034 A 
ATOM     60  C   UNL     1      -9.609   4.196  -9.060  1.00  0.00     0.049 A 
ATOM     61  C   UNL     1      -9.541  -0.968  -7.272  1.00  0.00     0.074 A 
ATOM     62  C   UNL     1     -10.805   4.700  -9.559  1.00  0.00     0.029 A 
ATOM     63  N   UNL     1      -9.869   2.893  -8.682  1.00  0.00    -0.354 N 
ATOM     64  N   UNL     1      -9.739   0.206  -7.812  1.00  0.00    -0.248 NA
ATOM     65  C   UNL     1     -10.771  -1.775  -7.144  1.00  0.00     0.031 C 
ATOM     66  C   UNL     1     -11.786   3.705  -9.473  1.00  0.00     0.029 A 
ATOM     67  C   UNL     1     -11.199   2.577  -8.931  1.00  0.00     0.049 A 
ATOM     68  H   UNL     1      -9.207   2.277  -8.291  1.00  0.00     0.167 HD
ATOM     69  C   UNL     1     -11.100   0.269  -8.106  1.00  0.00     0.074 A 
ATOM     70  C   UNL     1     -11.680  -0.994  -7.714  1.00  0.00     0.031 C 
ATOM     71  C   UNL     1     -11.800   1.305  -8.627  1.00  0.00     0.034 A 
BRANCH  58  72
ATOM     72  C   UNL     1      -8.281   6.276  -9.491  1.00  0.00     0.023 A 
ATOM     73  C   UNL     1      -7.771   6.533 -10.777  1.00  0.00     0.012 A 
ATOM     74  C   UNL     1      -8.856   7.331  -8.751  1.00  0.00     0.148 A 
ATOM     75  C   UNL     1      -7.809   7.824 -11.309  1.00  0.00     0.002 A 
ATOM     76  C   UNL     1      -8.924   8.606  -9.302  1.00  0.00     0.091 A 
ATOM     77  F   UNL     1      -9.333   7.068  -7.526  1.00  0.00    -0.205 F 
ATOM     78  C   UNL     1      -8.393   8.856 -10.577  1.00  0.00     0.022 A 
BRANCH  76  79
ATOM     79  S   UNL     1      -9.735   9.973  -8.461  1.00  0.00     0.127 S 
ATOM     80  O   UNL     1      -8.591  10.712  -7.929  1.00  0.00    -0.237 OA
ATOM     81  O   UNL     1     -10.437  10.644  -9.555  1.00  0.00    -0.237 OA
ATOM     82  O   UNL     1     -10.610   9.363  -7.469  1.00  0.00    -0.744 OA
ENDBRANCH  76  79
ENDBRANCH  58  72
BRANCH  59  83
ATOM     83  C   UNL     1      -8.288  -2.993  -6.264  1.00  0.00     0.023 A 
ATOM     84  C   UNL     1      -8.556  -4.065  -7.138  1.00  0.00     0.012 A 
ATOM     85  C   UNL     1      -8.065  -3.265  -4.899  1.00  0.00     0.148 A 
ATOM     86  C   UNL     1      -8.614  -5.376  -6.660  1.00  0.00     0.002 A 
ATOM     87  C   UNL     1      -8.049  -4.577  -4.445  1.00  0.00     0.091 A 
ATOM     88  F   UNL     1      -7.862  -2.231  -4.069  1.00  0.00    -0.205 F 
ATOM     89  C   UNL     1      -8.343  -5.634  -5.318  1.00  0.00     0.022 A 
BRANCH  87  90
ATOM     90  S   UNL     1      -7.545  -5.000  -2.773  1.00  0.00     0.127 S 
ATOM     91  O   UNL     1      -8.821  -5.317  -2.143  1.00  0.00    -0.237 OA
ATOM     92  O   UNL     1      -6.663  -6.144  -3.001  1.00  0.00    -0.237 OA
ATOM     93  O   UNL     1      -6.857  -3.814  -2.268  1.00  0.00    -0.744 OA
ENDBRANCH  87  90
ENDBRANCH  59  83
BRANCH  71  94
ATOM     94  C   UNL     1     -13.283   1.131  -8.855  1.00  0.00     0.023 A 
ATOM     95  C   UNL     1     -14.163   1.151  -7.754  1.00  0.00     0.012 A 
ATOM     96  C   UNL     1     -13.817   1.009 -10.155  1.00  0.00     0.148 A 
ATOM     97  C   UNL     1     -15.542   1.029  -7.938  1.00  0.00     0.002 A 
ATOM     98  C   UNL     1     -15.196   0.922 -10.334  1.00  0.00     0.091 A 
ATOM     99  F   UNL     1     -12.970   0.967 -11.193  1.00  0.00    -0.205 F 
ATOM    100  C   UNL     1     -16.059   0.925  -9.227  1.00  0.00     0.022 A 
BRANCH  98 101
ATOM    101  S   UNL     1     -15.955   0.857 -11.964  1.00  0.00     0.127 S 
ATOM    102  O   UNL     1     -16.312  -0.556 -12.072  1.00  0.00    -0.237 OA
ATOM    103  O   UNL     1     -17.096   1.763 -11.818  1.00  0.00    -0.237 OA
ATOM    104  O   UNL     1     -14.935   1.321 -12.895  1.00  0.00    -0.744 OA
ENDBRANCH  98 101
ENDBRANCH  71  94
ENDBRANCH  45  46
ENDBRANCH  38  40
ENDBRANCH  37  38
ENDBRANCH  36  37
ENDBRANCH  35  36
ENDBRANCH  34  35
ENDBRANCH  33  34
ENDBRANCH  32  33
ENDBRANCH  31  32
ENDBRANCH   1  31
TORSDOF 27
