REMARK SMILES C[C@H]1CCc2sc3ncn4nc(/C=C\C(=O)OCCOCCOCCOCCOC(=O)c5ccc(-c6c7nc(c(-c8cccc(S(=O)(=O)[O-])c8F)c8ccc([nH]8)c(-c8cccc(S(=O)(=O)[O-])c8F)c8nc(c(-c9cccc(S(=O)(=O)[O-])c9F)c9ccc6[nH]9)C=C8)C=C7)cc5)nc4c3c2C1
REMARK SMILES IDX 24 1 23 2 22 3 21 4 20 5 19 6 18 7 17 8 15 9 16 10 14 11
REMARK SMILES IDX 13 12 12 13 1 14 2 15 3 16 99 17 4 18 98 19 5 20 97 21 6 22
REMARK SMILES IDX 7 23 96 24 8 25 10 26 95 27 9 28 11 29 25 30 26 31 27 32
REMARK SMILES IDX 28 33 29 34 30 35 31 36 32 37 33 38 94 39 34 40 93 41 35 42
REMARK SMILES IDX 36 43 37 44 87 45 38 46 92 47 86 48 88 49 39 50 91 51 85 52
REMARK SMILES IDX 84 53 40 55 72 56 52 57 71 58 53 59 56 60 70 61 89 62 54 63
REMARK SMILES IDX 55 64 69 66 90 67 57 68 41 69 42 70 50 71 43 72 45 73 51 74
REMARK SMILES IDX 44 75 46 76 47 77 48 78 49 79 73 80 74 81 82 82 75 83 77 84
REMARK SMILES IDX 83 85 76 86 78 87 79 88 80 89 81 90 58 91 59 92 67 93 60 94
REMARK SMILES IDX 62 95 68 96 61 97 63 98 64 99 65 100 66 101
REMARK H PARENT 88 54 56 65
REMARK Flexibility Score: inf
ROOT
ATOM      1  C   UNL     1       3.905  -2.967   1.735  1.00  0.00     0.188 C 
ENDROOT
BRANCH   1   2
ATOM      2  O   UNL     1       4.238  -4.342   1.735  1.00  0.00    -0.377 OA
BRANCH   2   3
ATOM      3  C   UNL     1       3.343  -5.210   1.055  1.00  0.00     0.188 C 
BRANCH   3   4
ATOM      4  C   UNL     1       2.936  -4.881  -0.401  1.00  0.00     0.188 C 
BRANCH   4   5
ATOM      5  O   UNL     1       2.770  -3.492  -0.649  1.00  0.00    -0.376 OA
BRANCH   5   6
ATOM      6  C   UNL     1       1.524  -3.082  -1.186  1.00  0.00     0.202 C 
BRANCH   6   7
ATOM      7  C   UNL     1       0.396  -3.108  -0.169  1.00  0.00     0.261 C 
BRANCH   7   8
ATOM      8  O   UNL     1       0.348  -4.279   0.639  1.00  0.00    -0.460 OA
BRANCH   8   9
ATOM      9  C   UNL     1      -0.305  -5.360   0.208  1.00  0.00     0.330 C 
ATOM     10  O   UNL     1      -0.812  -5.506  -0.895  1.00  0.00    -0.247 OA
BRANCH   9  11
ATOM     11  C   UNL     1      -0.153  -6.463   1.181  1.00  0.00     0.097 C 
ATOM     12  C   UNL     1       0.003  -6.441   2.518  1.00  0.00     0.058 C 
BRANCH  12  13
ATOM     13  C   UNL     1       0.028  -5.378   3.479  1.00  0.00     0.175 A 
ATOM     14  C   UNL     1      -1.196   0.990   1.517  1.00  0.00     0.008 C 
ATOM     15  C   UNL     1       0.271   0.661   1.805  1.00  0.00    -0.009 C 
ATOM     16  C   UNL     1       0.951   1.709   2.708  1.00  0.00     0.009 C 
ATOM     17  C   UNL     1       0.410  -0.753   2.391  1.00  0.00     0.041 C 
ATOM     18  C   UNL     1       0.443   1.698   4.164  1.00  0.00     0.047 C 
ATOM     19  C   UNL     1       0.285  -0.829   3.867  1.00  0.00    -0.020 A 
ATOM     20  C   UNL     1       0.313   0.292   4.670  1.00  0.00     0.011 A 
ATOM     21  C   UNL     1       0.164  -2.001   4.645  1.00  0.00     0.060 A 
ATOM     22  S   UNL     1       0.139  -0.088   6.327  1.00  0.00    -0.120 S 
ATOM     23  C   UNL     1       0.062  -1.772   6.008  1.00  0.00     0.129 A 
ATOM     24  C   UNL     1       0.115  -3.428   4.271  1.00  0.00     0.168 A 
ATOM     25  N   UNL     1      -0.087  -2.709   7.005  1.00  0.00    -0.225 NA
ATOM     26  N   UNL     1       0.007  -4.331   5.282  1.00  0.00    -0.201 N 
ATOM     27  N   UNL     1       0.118  -4.050   3.119  1.00  0.00    -0.207 NA
ATOM     28  C   UNL     1      -0.099  -3.964   6.624  1.00  0.00     0.227 A 
ATOM     29  N   UNL     1      -0.052  -5.590   4.807  1.00  0.00    -0.145 NA
ENDBRANCH  12  13
ENDBRANCH   9  11
ENDBRANCH   8   9
ENDBRANCH   7   8
ENDBRANCH   6   7
ENDBRANCH   5   6
ENDBRANCH   4   5
ENDBRANCH   3   4
ENDBRANCH   2   3
ENDBRANCH   1   2
BRANCH   1  30
ATOM     30  C   UNL     1       4.825  -2.106   0.844  1.00  0.00     0.188 C 
BRANCH  30  31
ATOM     31  O   UNL     1       5.579  -2.627  -0.249  1.00  0.00    -0.376 OA
BRANCH  31  32
ATOM     32  C   UNL     1       6.182  -3.912  -0.263  1.00  0.00     0.202 C 
BRANCH  32  33
ATOM     33  C   UNL     1       7.084  -4.450   0.841  1.00  0.00     0.261 C 
BRANCH  33  34
ATOM     34  O   UNL     1       6.801  -3.954   2.123  1.00  0.00    -0.460 OA
BRANCH  34  35
ATOM     35  C   UNL     1       7.354  -2.765   2.367  1.00  0.00     0.338 C 
ATOM     36  O   UNL     1       7.960  -2.039   1.573  1.00  0.00    -0.246 OA
BRANCH  35  37
ATOM     37  C   UNL     1       7.234  -2.498   3.791  1.00  0.00     0.060 A 
ATOM     38  C   UNL     1       7.664  -1.240   4.210  1.00  0.00     0.016 A 
ATOM     39  C   UNL     1       7.086  -3.587   4.667  1.00  0.00     0.016 A 
ATOM     40  C   UNL     1       8.235  -1.156   5.450  1.00  0.00     0.010 A 
ATOM     41  C   UNL     1       7.671  -3.505   5.899  1.00  0.00     0.010 A 
ATOM     42  C   UNL     1       8.330  -2.324   6.217  1.00  0.00    -0.014 A 
BRANCH  42  43
ATOM     43  C   UNL     1       9.109  -2.257   7.425  1.00  0.00     0.031 A 
ATOM     44  C   UNL     1       8.372  -1.566   8.490  1.00  0.00     0.074 A 
ATOM     45  C   UNL     1      10.330  -2.811   7.524  1.00  0.00     0.049 A 
ATOM     46  N   UNL     1       8.536  -0.346   8.876  1.00  0.00    -0.248 NA
ATOM     47  C   UNL     1       7.160  -2.213   9.016  1.00  0.00     0.031 C 
ATOM     48  C   UNL     1      10.952  -3.760   6.591  1.00  0.00     0.029 A 
ATOM     49  N   UNL     1      11.222  -2.755   8.549  1.00  0.00    -0.354 N 
ATOM     50  C   UNL     1       7.644  -0.204   9.929  1.00  0.00     0.074 A 
ATOM     51  C   UNL     1       6.657  -1.238   9.775  1.00  0.00     0.031 C 
ATOM     52  C   UNL     1      11.976  -4.384   7.218  1.00  0.00     0.029 A 
ATOM     53  C   UNL     1      12.173  -3.769   8.518  1.00  0.00     0.049 A 
ATOM     54  H   UNL     1      11.197  -2.061   9.247  1.00  0.00     0.167 HD
ATOM     55  C   UNL     1       8.024   0.475  11.043  1.00  0.00     0.034 A 
ATOM     56  C   UNL     1      12.991  -4.112   9.542  1.00  0.00     0.034 A 
ATOM     57  C   UNL     1       9.225   1.233  10.809  1.00  0.00     0.049 A 
ATOM     58  C   UNL     1      13.111  -2.928  10.423  1.00  0.00     0.074 A 
ATOM     59  C   UNL     1       9.572   2.413  10.192  1.00  0.00     0.029 A 
ATOM     60  N   UNL     1      10.368   0.491  10.950  1.00  0.00    -0.354 N 
ATOM     61  N   UNL     1      13.678  -1.813  10.053  1.00  0.00    -0.248 NA
ATOM     62  C   UNL     1      12.304  -2.851  11.637  1.00  0.00     0.031 C 
ATOM     63  C   UNL     1      10.961   2.314   9.886  1.00  0.00     0.029 A 
ATOM     64  C   UNL     1      11.440   1.091  10.347  1.00  0.00     0.049 A 
ATOM     65  H   UNL     1      10.413  -0.369  11.428  1.00  0.00     0.167 HD
ATOM     66  C   UNL     1      12.941  -0.842  10.703  1.00  0.00     0.074 A 
ATOM     67  C   UNL     1      12.262  -1.526  11.793  1.00  0.00     0.031 C 
ATOM     68  C   UNL     1      12.655   0.345  10.099  1.00  0.00     0.034 A 
BRANCH  55  69
ATOM     69  C   UNL     1       7.623   0.090  12.446  1.00  0.00     0.023 A 
ATOM     70  C   UNL     1       7.912   1.012  13.473  1.00  0.00     0.012 A 
ATOM     71  C   UNL     1       7.224  -1.208  12.846  1.00  0.00     0.148 A 
ATOM     72  C   UNL     1       7.806   0.660  14.823  1.00  0.00     0.002 A 
ATOM     73  C   UNL     1       7.024  -1.522  14.183  1.00  0.00     0.091 A 
ATOM     74  F   UNL     1       7.178  -2.200  11.953  1.00  0.00    -0.205 F 
ATOM     75  C   UNL     1       7.340  -0.600  15.179  1.00  0.00     0.022 A 
BRANCH  73  76
ATOM     76  S   UNL     1       6.359  -3.115  14.685  1.00  0.00     0.127 S 
ATOM     77  O   UNL     1       7.525  -3.743  15.296  1.00  0.00    -0.237 OA
ATOM     78  O   UNL     1       5.307  -2.714  15.621  1.00  0.00    -0.237 OA
ATOM     79  O   UNL     1       5.861  -3.733  13.462  1.00  0.00    -0.744 OA
ENDBRANCH  73  76
ENDBRANCH  55  69
BRANCH  56  80
ATOM     80  C   UNL     1      13.430  -5.450  10.004  1.00  0.00     0.023 A 
ATOM     81  C   UNL     1      14.491  -5.530  10.931  1.00  0.00     0.012 A 
ATOM     82  C   UNL     1      12.606  -6.583   9.831  1.00  0.00     0.148 A 
ATOM     83  C   UNL     1      14.672  -6.668  11.724  1.00  0.00     0.002 A 
ATOM     84  C   UNL     1      12.789  -7.711  10.626  1.00  0.00     0.091 A 
ATOM     85  F   UNL     1      11.587  -6.517   8.965  1.00  0.00    -0.205 F 
ATOM     86  C   UNL     1      13.808  -7.749  11.586  1.00  0.00     0.022 A 
BRANCH  84  87
ATOM     87  S   UNL     1      11.684  -9.128  10.547  1.00  0.00     0.127 S 
ATOM     88  O   UNL     1      12.628 -10.244  10.476  1.00  0.00    -0.237 OA
ATOM     89  O   UNL     1      10.964  -9.015  11.812  1.00  0.00    -0.237 OA
ATOM     90  O   UNL     1      10.885  -8.942   9.343  1.00  0.00    -0.744 OA
ENDBRANCH  84  87
ENDBRANCH  56  80
BRANCH  68  91
ATOM     91  C   UNL     1      13.566   0.819   9.008  1.00  0.00     0.023 A 
ATOM     92  C   UNL     1      13.663   0.191   7.751  1.00  0.00     0.012 A 
ATOM     93  C   UNL     1      14.272   2.012   9.234  1.00  0.00     0.148 A 
ATOM     94  C   UNL     1      14.457   0.746   6.742  1.00  0.00     0.002 A 
ATOM     95  C   UNL     1      15.017   2.586   8.215  1.00  0.00     0.091 A 
ATOM     96  F   UNL     1      14.183   2.578  10.447  1.00  0.00    -0.205 F 
ATOM     97  C   UNL     1      15.120   1.952   6.968  1.00  0.00     0.022 A 
BRANCH  95  98
ATOM     98  S   UNL     1      15.782   4.196   8.416  1.00  0.00     0.127 S 
ATOM     99  O   UNL     1      17.195   3.849   8.548  1.00  0.00    -0.237 OA
ATOM    100  O   UNL     1      15.429   4.869   7.165  1.00  0.00    -0.237 OA
ATOM    101  O   UNL     1      15.168   4.786   9.600  1.00  0.00    -0.744 OA
ENDBRANCH  95  98
ENDBRANCH  68  91
ENDBRANCH  42  43
ENDBRANCH  35  37
ENDBRANCH  34  35
ENDBRANCH  33  34
ENDBRANCH  32  33
ENDBRANCH  31  32
ENDBRANCH  30  31
ENDBRANCH   1  30
TORSDOF 24
