REMARK SMILES CN(C(=O)C[C@@H]1SC(=O)N(c2ccccc2)C1=O)c1ccccc1C(=O)OCCOCCOCCOCCOC(=O)c1ccc(-c2c3nc(c(-c4cccc(S(=O)(=O)[O-])c4F)c4ccc([nH]4)c(-c4cccc(S(=O)(=O)[O-])c4F)c4nc(c(-c5cccc(S(=O)(=O)[O-])c5F)c5ccc2[nH]5)C=C4)C=C3)cc1
REMARK SMILES IDX 32 1 31 2 30 3 29 4 28 5 27 6 25 7 26 8 24 9 19 10 20 11
REMARK SMILES IDX 21 12 23 13 22 14 2 15 1 16 3 17 4 18 5 19 6 20 7 21 17 22
REMARK SMILES IDX 8 23 10 24 18 25 9 26 11 27 12 28 16 29 13 30 15 31 14 32
REMARK SMILES IDX 33 33 34 34 35 35 36 36 37 37 38 38 39 39 40 40 41 41 42 42
REMARK SMILES IDX 43 43 104 44 44 45 103 46 45 47 46 48 47 49 97 50 48 51
REMARK SMILES IDX 102 52 96 53 98 54 49 55 101 56 95 57 94 58 50 60 82 61
REMARK SMILES IDX 62 62 81 63 63 64 66 65 80 66 99 67 64 68 65 69 79 71 100 72
REMARK SMILES IDX 67 73 51 74 52 75 60 76 53 77 55 78 61 79 54 80 56 81 57 82
REMARK SMILES IDX 58 83 59 84 83 85 84 86 92 87 85 88 87 89 93 90 86 91 88 92
REMARK SMILES IDX 89 93 90 94 91 95 68 96 69 97 77 98 70 99 72 100 78 101
REMARK SMILES IDX 71 102 73 103 74 104 75 105 76 106
REMARK H PARENT 98 59 66 70
REMARK Flexibility Score: inf
ROOT
ATOM      1  C   UNL     1       4.402   1.105   0.593  1.00  0.00     0.188 C 
ENDROOT
BRANCH   1   2
ATOM      2  C   UNL     1       5.354   0.554   1.633  1.00  0.00     0.188 C 
BRANCH   2   3
ATOM      3  O   UNL     1       5.585  -0.835   1.762  1.00  0.00    -0.376 OA
BRANCH   3   4
ATOM      4  C   UNL     1       4.728  -1.772   1.133  1.00  0.00     0.202 C 
BRANCH   4   5
ATOM      5  C   UNL     1       3.309  -1.933   1.681  1.00  0.00     0.261 C 
BRANCH   5   6
ATOM      6  O   UNL     1       2.486  -0.753   1.566  1.00  0.00    -0.460 OA
BRANCH   6   7
ATOM      7  C   UNL     1       2.160  -0.134   2.723  1.00  0.00     0.340 C 
ATOM      8  O   UNL     1       2.503  -0.537   3.829  1.00  0.00    -0.246 OA
BRANCH   7   9
ATOM      9  C   UNL     1       1.505   1.214   2.595  1.00  0.00     0.083 A 
ATOM     10  C   UNL     1       0.463   1.690   1.765  1.00  0.00     0.058 A 
ATOM     11  C   UNL     1      -0.160   2.893   2.195  1.00  0.00     0.027 A 
ATOM     12  C   UNL     1       0.375   3.746   3.157  1.00  0.00     0.002 A 
ATOM     13  C   UNL     1       2.073   2.125   3.535  1.00  0.00     0.018 A 
ATOM     14  C   UNL     1       1.548   3.392   3.779  1.00  0.00     0.001 A 
BRANCH  10  15
ATOM     15  N   UNL     1      -0.026   1.161   0.493  1.00  0.00    -0.315 N 
ATOM     16  C   UNL     1       0.129  -0.250   0.186  1.00  0.00     0.153 C 
BRANCH  15  17
ATOM     17  C   UNL     1      -0.475   2.081  -0.484  1.00  0.00     0.228 C 
ATOM     18  O   UNL     1      -0.363   3.307  -0.363  1.00  0.00    -0.274 OA
BRANCH  17  19
ATOM     19  C   UNL     1      -1.076   1.616  -1.792  1.00  0.00     0.125 C 
BRANCH  19  20
ATOM     20  C   UNL     1      -0.154   1.841  -2.990  1.00  0.00     0.156 C 
ATOM     21  S   UNL     1       0.614   0.279  -3.423  1.00  0.00    -0.050 SA
ATOM     22  C   UNL     1       1.010   2.816  -2.832  1.00  0.00     0.248 C 
ATOM     23  C   UNL     1       2.243   0.881  -3.253  1.00  0.00     0.293 C 
ATOM     24  N   UNL     1       2.249   2.190  -2.850  1.00  0.00    -0.240 N 
ATOM     25  O   UNL     1       0.826   4.033  -2.821  1.00  0.00    -0.273 OA
ATOM     26  O   UNL     1       3.171   0.127  -3.484  1.00  0.00    -0.261 OA
BRANCH  24  27
ATOM     27  C   UNL     1       3.447   2.948  -2.628  1.00  0.00     0.053 A 
ATOM     28  C   UNL     1       3.364   4.396  -1.569  1.00  0.00     0.027 A 
ATOM     29  C   UNL     1       5.059   2.518  -3.353  1.00  0.00     0.027 A 
ATOM     30  C   UNL     1       4.793   5.463  -1.314  1.00  0.00     0.002 A 
ATOM     31  C   UNL     1       6.506   3.602  -3.138  1.00  0.00     0.002 A 
ATOM     32  C   UNL     1       6.370   5.051  -2.062  1.00  0.00     0.000 A 
ENDBRANCH  24  27
ENDBRANCH  19  20
ENDBRANCH  17  19
ENDBRANCH  15  17
ENDBRANCH  10  15
ENDBRANCH   7   9
ENDBRANCH   6   7
ENDBRANCH   5   6
ENDBRANCH   4   5
ENDBRANCH   3   4
ENDBRANCH   2   3
ENDBRANCH   1   2
BRANCH   1  33
ATOM     33  O   UNL     1       4.309   0.495  -0.676  1.00  0.00    -0.377 OA
BRANCH  33  34
ATOM     34  C   UNL     1       5.458   0.224  -1.455  1.00  0.00     0.188 C 
BRANCH  34  35
ATOM     35  C   UNL     1       6.663   1.154  -1.429  1.00  0.00     0.188 C 
BRANCH  35  36
ATOM     36  O   UNL     1       6.542   2.556  -1.157  1.00  0.00    -0.376 OA
BRANCH  36  37
ATOM     37  C   UNL     1       5.233   3.373  -1.516  1.00  0.00     0.202 C 
BRANCH  37  38
ATOM     38  C   UNL     1       4.689   4.568  -3.256  1.00  0.00     0.261 C 
BRANCH  38  39
ATOM     39  O   UNL     1       3.940   4.074  -4.596  1.00  0.00    -0.460 OA
BRANCH  39  40
ATOM     40  C   UNL     1       4.594   3.623  -5.701  1.00  0.00     0.338 C 
ATOM     41  O   UNL     1       5.759   3.800  -6.008  1.00  0.00    -0.246 OA
BRANCH  40  42
ATOM     42  C   UNL     1       3.735   2.534  -6.234  1.00  0.00     0.060 A 
ATOM     43  C   UNL     1       4.231   1.216  -6.280  1.00  0.00     0.016 A 
ATOM     44  C   UNL     1       2.411   2.797  -6.573  1.00  0.00     0.016 A 
ATOM     45  C   UNL     1       3.413   0.161  -6.684  1.00  0.00     0.010 A 
ATOM     46  C   UNL     1       1.611   1.755  -7.036  1.00  0.00     0.010 A 
ATOM     47  C   UNL     1       2.124   0.444  -7.134  1.00  0.00    -0.014 A 
BRANCH  47  48
ATOM     48  C   UNL     1       1.431  -0.495  -8.043  1.00  0.00     0.031 A 
ATOM     49  C   UNL     1       1.602  -0.233  -9.510  1.00  0.00     0.074 A 
ATOM     50  C   UNL     1       0.609  -1.463  -7.604  1.00  0.00     0.049 A 
ATOM     51  N   UNL     1       0.929  -0.709 -10.518  1.00  0.00    -0.248 NA
ATOM     52  C   UNL     1       2.677   0.706  -9.889  1.00  0.00     0.031 C 
ATOM     53  C   UNL     1       0.447  -1.875  -6.218  1.00  0.00     0.029 A 
ATOM     54  N   UNL     1      -0.305  -2.225  -8.288  1.00  0.00    -0.354 N 
ATOM     55  C   UNL     1       1.463  -0.094 -11.641  1.00  0.00     0.074 A 
ATOM     56  C   UNL     1       2.517   0.787 -11.199  1.00  0.00     0.031 C 
ATOM     57  C   UNL     1      -0.601  -2.711  -6.125  1.00  0.00     0.029 A 
ATOM     58  C   UNL     1      -1.171  -2.898  -7.455  1.00  0.00     0.049 A 
ATOM     59  H   UNL     1      -0.339  -2.284  -9.271  1.00  0.00     0.167 HD
ATOM     60  C   UNL     1       1.098  -0.253 -12.930  1.00  0.00     0.034 A 
ATOM     61  C   UNL     1      -2.316  -3.551  -7.738  1.00  0.00     0.034 A 
ATOM     62  C   UNL     1       0.048  -1.135 -13.349  1.00  0.00     0.049 A 
ATOM     63  C   UNL     1      -2.741  -3.666  -9.179  1.00  0.00     0.074 A 
ATOM     64  C   UNL     1      -0.369  -1.417 -14.635  1.00  0.00     0.029 A 
ATOM     65  N   UNL     1      -0.768  -1.851 -12.489  1.00  0.00    -0.354 N 
ATOM     66  N   UNL     1      -2.173  -3.162 -10.248  1.00  0.00    -0.248 NA
ATOM     67  C   UNL     1      -3.934  -4.477  -9.463  1.00  0.00     0.031 C 
ATOM     68  C   UNL     1      -1.481  -2.257 -14.550  1.00  0.00     0.029 A 
ATOM     69  C   UNL     1      -1.707  -2.556 -13.215  1.00  0.00     0.049 A 
ATOM     70  H   UNL     1      -0.691  -1.856 -11.507  1.00  0.00     0.167 HD
ATOM     71  C   UNL     1      -2.897  -3.645 -11.330  1.00  0.00     0.074 A 
ATOM     72  C   UNL     1      -3.948  -4.481 -10.789  1.00  0.00     0.031 C 
ATOM     73  C   UNL     1      -2.709  -3.423 -12.654  1.00  0.00     0.034 A 
BRANCH  60  74
ATOM     74  C   UNL     1       1.815   0.552 -13.973  1.00  0.00     0.023 A 
ATOM     75  C   UNL     1       3.149   0.250 -14.314  1.00  0.00     0.012 A 
ATOM     76  C   UNL     1       1.130   1.562 -14.674  1.00  0.00     0.148 A 
ATOM     77  C   UNL     1       3.794   0.954 -15.329  1.00  0.00     0.002 A 
ATOM     78  C   UNL     1       1.760   2.221 -15.718  1.00  0.00     0.091 A 
ATOM     79  F   UNL     1      -0.127   1.851 -14.307  1.00  0.00    -0.205 F 
ATOM     80  C   UNL     1       3.095   1.927 -16.041  1.00  0.00     0.022 A 
BRANCH  78  81
ATOM     81  S   UNL     1       0.917   3.425 -16.748  1.00  0.00     0.127 S 
ATOM     82  O   UNL     1       1.679   4.641 -16.465  1.00  0.00    -0.237 OA
ATOM     83  O   UNL     1       1.123   2.874 -18.087  1.00  0.00    -0.237 OA
ATOM     84  O   UNL     1      -0.468   3.446 -16.299  1.00  0.00    -0.744 OA
ENDBRANCH  78  81
ENDBRANCH  60  74
BRANCH  61  85
ATOM     85  C   UNL     1      -3.138  -4.150  -6.649  1.00  0.00     0.023 A 
ATOM     86  C   UNL     1      -3.268  -5.549  -6.557  1.00  0.00     0.012 A 
ATOM     87  C   UNL     1      -3.812  -3.337  -5.716  1.00  0.00     0.148 A 
ATOM     88  C   UNL     1      -4.098  -6.126  -5.595  1.00  0.00     0.002 A 
ATOM     89  C   UNL     1      -4.592  -3.919  -4.724  1.00  0.00     0.091 A 
ATOM     90  F   UNL     1      -3.682  -2.006  -5.820  1.00  0.00    -0.205 F 
ATOM     91  C   UNL     1      -4.756  -5.312  -4.676  1.00  0.00     0.022 A 
BRANCH  89  92
ATOM     92  S   UNL     1      -5.374  -2.957  -3.424  1.00  0.00     0.127 S 
ATOM     93  O   UNL     1      -6.788  -3.085  -3.765  1.00  0.00    -0.237 OA
ATOM     94  O   UNL     1      -4.961  -3.682  -2.222  1.00  0.00    -0.237 OA
ATOM     95  O   UNL     1      -4.815  -1.615  -3.532  1.00  0.00    -0.744 OA
ENDBRANCH  89  92
ENDBRANCH  61  85
BRANCH  73  96
ATOM     96  C   UNL     1      -3.597  -4.151 -13.625  1.00  0.00     0.023 A 
ATOM     97  C   UNL     1      -4.948  -3.785 -13.772  1.00  0.00     0.012 A 
ATOM     98  C   UNL     1      -3.045  -5.135 -14.470  1.00  0.00     0.148 A 
ATOM     99  C   UNL     1      -5.745  -4.410 -14.730  1.00  0.00     0.002 A 
ATOM    100  C   UNL     1      -3.828  -5.708 -15.461  1.00  0.00     0.091 A 
ATOM    101  F   UNL     1      -1.759  -5.473 -14.300  1.00  0.00    -0.205 F 
ATOM    102  C   UNL     1      -5.182  -5.358 -15.583  1.00  0.00     0.022 A 
BRANCH 100 103
ATOM    103  S   UNL     1      -3.162  -6.855 -16.670  1.00  0.00     0.127 S 
ATOM    104  O   UNL     1      -3.865  -8.090 -16.325  1.00  0.00    -0.237 OA
ATOM    105  O   UNL     1      -3.581  -6.247 -17.933  1.00  0.00    -0.237 OA
ATOM    106  O   UNL     1      -1.722  -6.883 -16.456  1.00  0.00    -0.744 OA
ENDBRANCH 100 103
ENDBRANCH  73  96
ENDBRANCH  47  48
ENDBRANCH  40  42
ENDBRANCH  39  40
ENDBRANCH  38  39
ENDBRANCH  37  38
ENDBRANCH  36  37
ENDBRANCH  35  36
ENDBRANCH  34  35
ENDBRANCH  33  34
ENDBRANCH   1  33
TORSDOF 28
