REMARK SMILES C[NH2+][C@@]1(C(=O)OCCOCCOCCOCCOC(=O)c2ccc(-c3c4nc(c(-c5cccc(S(=O)(=O)[O-])c5F)c5ccc([nH]5)c(-c5cccc(S(=O)(=O)[O-])c5F)c5nc(c(-c6cccc(S(=O)(=O)[O-])c6F)c6ccc3[nH]6)C=C5)C=C4)cc2)CC[C@@H]([N@@H+](C)C2CCCCCC2)C1
REMARK SMILES IDX 11 1 10 2 9 3 8 4 7 5 6 6 4 7 5 8 3 9 84 10 96 11 85 12
REMARK SMILES IDX 86 13 2 14 1 15 87 18 88 19 89 21 90 22 91 23 92 24 95 26
REMARK SMILES IDX 94 27 93 28 12 30 13 31 14 32 15 33 16 34 17 35 18 36 19 37
REMARK SMILES IDX 20 38 21 39 22 40 83 41 23 42 82 43 24 44 25 45 26 46 76 47
REMARK SMILES IDX 27 48 81 49 75 50 77 51 28 52 80 53 74 54 73 55 29 57 61 58
REMARK SMILES IDX 41 59 60 60 42 61 45 62 59 63 78 64 43 65 44 66 58 68 79 69
REMARK SMILES IDX 46 70 30 71 31 72 39 73 32 74 34 75 40 76 33 77 35 78 36 79
REMARK SMILES IDX 37 80 38 81 62 82 63 83 71 84 64 85 66 86 72 87 65 88 67 89
REMARK SMILES IDX 68 90 69 91 70 92 47 93 48 94 56 95 49 96 51 97 57 98 50 99
REMARK SMILES IDX 52 100 53 101 54 102 55 103
REMARK H PARENT 2 16 2 17 87 20 77 56 45 67
REMARK Flexibility Score: 90.00
ROOT
ATOM      1  C   UNL     1      -1.136  -1.816   1.275  1.00  0.00     0.188 C 
ENDROOT
BRANCH   1   2
ATOM      2  C   UNL     1      -0.396  -0.939   2.292  1.00  0.00     0.188 C 
BRANCH   2   3
ATOM      3  O   UNL     1      -1.060  -0.354   3.403  1.00  0.00    -0.376 OA
BRANCH   3   4
ATOM      4  C   UNL     1      -2.370   0.188   3.300  1.00  0.00     0.202 C 
BRANCH   4   5
ATOM      5  C   UNL     1      -2.763   1.186   2.201  1.00  0.00     0.261 C 
BRANCH   5   6
ATOM      6  O   UNL     1      -2.531   0.771   0.850  1.00  0.00    -0.459 OA
BRANCH   6   7
ATOM      7  C   UNL     1      -1.456   1.325   0.242  1.00  0.00     0.368 C 
ATOM      8  O   UNL     1      -0.684   2.113   0.787  1.00  0.00    -0.245 OA
BRANCH   7   9
ATOM      9  C   UNL     1      -1.358   0.966  -1.267  1.00  0.00     0.200 C 
ATOM     10  C   UNL     1      -2.229   2.054  -1.935  1.00  0.00     0.087 C 
ATOM     11  C   UNL     1      -1.947  -0.383  -1.746  1.00  0.00     0.146 C 
ATOM     12  C   UNL     1      -3.420   1.369  -2.600  1.00  0.00     0.072 C 
ATOM     13  C   UNL     1      -3.118  -0.127  -2.700  1.00  0.00     0.191 C 
BRANCH   9  14
ATOM     14  N   UNL     1       0.071   1.112  -1.716  1.00  0.00    -0.334 N 
ATOM     15  C   UNL     1       1.039   0.286  -0.994  1.00  0.00     0.331 C 
ATOM     16  H   UNL     1       0.118   0.863  -2.704  1.00  0.00     0.347 HD
ATOM     17  H   UNL     1       0.329   2.081  -1.528  1.00  0.00     0.347 HD
ENDBRANCH   9  14
BRANCH  13  18
ATOM     18  N   UNL     1      -3.197  -0.864  -3.986  1.00  0.00    -0.332 N 
ATOM     19  C   UNL     1      -4.605  -0.917  -4.430  1.00  0.00     0.333 C 
ATOM     20  H   UNL     1      -2.786  -1.748  -3.688  1.00  0.00     0.348 HD
BRANCH  18  21
ATOM     21  C   UNL     1      -2.288  -0.623  -5.140  1.00  0.00     0.184 C 
BRANCH  21  22
ATOM     22  C   UNL     1      -2.307   0.778  -5.776  1.00  0.00     0.065 C 
BRANCH  22  23
ATOM     23  C   UNL     1      -1.351   1.754  -5.120  1.00  0.00     0.006 C 
BRANCH  23  24
ATOM     24  C   UNL     1       0.035   1.817  -5.732  1.00  0.00     0.000 CG0
ATOM     25  G   UNL     1       0.867   0.565  -5.477  1.00  0.00     0.000 G0
ENDBRANCH  23  24
ENDBRANCH  22  23
ENDBRANCH  21  22
BRANCH  21  26
ATOM     26  C   UNL     1      -0.876  -1.228  -4.948  1.00  0.00     0.065 C 
BRANCH  26  27
ATOM     27  C   UNL     1       0.212  -0.746  -5.919  1.00  0.00     0.006 C 
BRANCH  27  28
ATOM     28  C   UNL     1       0.867   0.565  -5.477  1.00  0.00     0.000 CG0
ATOM     29  G   UNL     1       0.035   1.817  -5.732  1.00  0.00     0.000 G0
ENDBRANCH  27  28
ENDBRANCH  26  27
ENDBRANCH  21  26
ENDBRANCH  18  21
ENDBRANCH  13  18
ENDBRANCH   7   9
ENDBRANCH   6   7
ENDBRANCH   5   6
ENDBRANCH   4   5
ENDBRANCH   3   4
ENDBRANCH   2   3
ENDBRANCH   1   2
BRANCH   1  30
ATOM     30  O   UNL     1      -2.539  -1.822   1.414  1.00  0.00    -0.377 OA
BRANCH  30  31
ATOM     31  C   UNL     1      -3.111  -2.902   2.139  1.00  0.00     0.188 C 
BRANCH  31  32
ATOM     32  C   UNL     1      -2.283  -3.484   3.299  1.00  0.00     0.188 C 
BRANCH  32  33
ATOM     33  O   UNL     1      -0.989  -3.932   2.912  1.00  0.00    -0.376 OA
BRANCH  33  34
ATOM     34  C   UNL     1      -0.819  -5.290   2.528  1.00  0.00     0.202 C 
BRANCH  34  35
ATOM     35  C   UNL     1      -1.586  -5.816   1.301  1.00  0.00     0.261 C 
BRANCH  35  36
ATOM     36  O   UNL     1      -3.022  -5.795   1.360  1.00  0.00    -0.460 OA
BRANCH  36  37
ATOM     37  C   UNL     1      -3.645  -6.316   2.436  1.00  0.00     0.338 C 
ATOM     38  O   UNL     1      -3.132  -6.919   3.362  1.00  0.00    -0.246 OA
BRANCH  37  39
ATOM     39  C   UNL     1      -5.042  -5.829   2.419  1.00  0.00     0.060 A 
ATOM     40  C   UNL     1      -5.516  -5.096   3.517  1.00  0.00     0.016 A 
ATOM     41  C   UNL     1      -5.874  -6.082   1.327  1.00  0.00     0.016 A 
ATOM     42  C   UNL     1      -6.836  -4.649   3.542  1.00  0.00     0.010 A 
ATOM     43  C   UNL     1      -7.206  -5.661   1.367  1.00  0.00     0.010 A 
ATOM     44  C   UNL     1      -7.701  -4.978   2.493  1.00  0.00    -0.014 A 
BRANCH  44  45
ATOM     45  C   UNL     1      -9.162  -4.820   2.680  1.00  0.00     0.031 A 
ATOM     46  C   UNL     1      -9.947  -6.021   3.132  1.00  0.00     0.074 A 
ATOM     47  C   UNL     1      -9.779  -3.645   2.467  1.00  0.00     0.049 A 
ATOM     48  N   UNL     1     -11.232  -6.149   3.325  1.00  0.00    -0.248 NA
ATOM     49  C   UNL     1      -9.174  -7.247   3.399  1.00  0.00     0.031 C 
ATOM     50  C   UNL     1      -9.124  -2.407   2.049  1.00  0.00     0.029 A 
ATOM     51  N   UNL     1     -11.109  -3.314   2.549  1.00  0.00    -0.354 N 
ATOM     52  C   UNL     1     -11.427  -7.472   3.704  1.00  0.00     0.074 A 
ATOM     53  C   UNL     1     -10.129  -8.110   3.705  1.00  0.00     0.031 C 
ATOM     54  C   UNL     1     -10.061  -1.457   1.878  1.00  0.00     0.029 A 
ATOM     55  C   UNL     1     -11.380  -2.028   2.146  1.00  0.00     0.049 A 
ATOM     56  H   UNL     1     -11.801  -3.938   2.867  1.00  0.00     0.167 HD
ATOM     57  C   UNL     1     -12.580  -8.098   4.032  1.00  0.00     0.034 A 
ATOM     58  C   UNL     1     -12.562  -1.399   1.985  1.00  0.00     0.034 A 
ATOM     59  C   UNL     1     -13.867  -7.460   4.038  1.00  0.00     0.049 A 
ATOM     60  C   UNL     1     -13.838  -2.131   2.318  1.00  0.00     0.074 A 
ATOM     61  C   UNL     1     -15.091  -7.996   4.393  1.00  0.00     0.029 A 
ATOM     62  N   UNL     1     -14.099  -6.148   3.655  1.00  0.00    -0.354 N 
ATOM     63  N   UNL     1     -13.998  -3.349   2.778  1.00  0.00    -0.248 NA
ATOM     64  C   UNL     1     -15.097  -1.390   2.141  1.00  0.00     0.031 C 
ATOM     65  C   UNL     1     -16.070  -7.020   4.188  1.00  0.00     0.029 A 
ATOM     66  C   UNL     1     -15.449  -5.861   3.748  1.00  0.00     0.049 A 
ATOM     67  H   UNL     1     -13.406  -5.514   3.360  1.00  0.00     0.167 HD
ATOM     68  C   UNL     1     -15.366  -3.505   2.982  1.00  0.00     0.074 A 
ATOM     69  C   UNL     1     -15.988  -2.251   2.612  1.00  0.00     0.031 C 
ATOM     70  C   UNL     1     -16.048  -4.591   3.426  1.00  0.00     0.034 A 
BRANCH  57  71
ATOM     71  C   UNL     1     -12.499  -9.552   4.416  1.00  0.00     0.023 A 
ATOM     72  C   UNL     1     -11.923  -9.923   5.648  1.00  0.00     0.012 A 
ATOM     73  C   UNL     1     -13.033 -10.547   3.574  1.00  0.00     0.148 A 
ATOM     74  C   UNL     1     -11.850 -11.265   6.021  1.00  0.00     0.002 A 
ATOM     75  C   UNL     1     -13.000 -11.876   3.974  1.00  0.00     0.091 A 
ATOM     76  F   UNL     1     -13.552 -10.175   2.395  1.00  0.00    -0.205 F 
ATOM     77  C   UNL     1     -12.398 -12.239   5.190  1.00  0.00     0.022 A 
BRANCH  75  78
ATOM     78  S   UNL     1     -13.749 -13.195   3.013  1.00  0.00     0.127 S 
ATOM     79  O   UNL     1     -12.572 -13.934   2.558  1.00  0.00    -0.237 OA
ATOM     80  O   UNL     1     -14.553 -13.889   4.020  1.00  0.00    -0.237 OA
ATOM     81  O   UNL     1     -14.519 -12.542   1.963  1.00  0.00    -0.744 OA
ENDBRANCH  75  78
ENDBRANCH  57  71
BRANCH  58  82
ATOM     82  C   UNL     1     -12.599   0.010   1.498  1.00  0.00     0.023 A 
ATOM     83  C   UNL     1     -13.028   1.037   2.361  1.00  0.00     0.012 A 
ATOM     84  C   UNL     1     -12.209   0.336   0.184  1.00  0.00     0.148 A 
ATOM     85  C   UNL     1     -13.102   2.357   1.915  1.00  0.00     0.002 A 
ATOM     86  C   UNL     1     -12.229   1.661  -0.236  1.00  0.00     0.091 A 
ATOM     87  F   UNL     1     -11.820  -0.657  -0.627  1.00  0.00    -0.205 F 
ATOM     88  C   UNL     1     -12.694   2.671   0.621  1.00  0.00     0.022 A 
BRANCH  86  89
ATOM     89  S   UNL     1     -11.604   2.174  -1.840  1.00  0.00     0.127 S 
ATOM     90  O   UNL     1     -12.826   2.607  -2.513  1.00  0.00    -0.237 OA
ATOM     91  O   UNL     1     -10.687   3.252  -1.472  1.00  0.00    -0.237 OA
ATOM     92  O   UNL     1     -10.955   0.999  -2.406  1.00  0.00    -0.744 OA
ENDBRANCH  86  89
ENDBRANCH  58  82
BRANCH  70  93
ATOM     93  C   UNL     1     -17.542  -4.467   3.590  1.00  0.00     0.023 A 
ATOM     94  C   UNL     1     -18.375  -4.402   2.456  1.00  0.00     0.012 A 
ATOM     95  C   UNL     1     -18.123  -4.496   4.874  1.00  0.00     0.148 A 
ATOM     96  C   UNL     1     -19.761  -4.333   2.599  1.00  0.00     0.002 A 
ATOM     97  C   UNL     1     -19.506  -4.481   5.007  1.00  0.00     0.091 A 
ATOM     98  F   UNL     1     -17.312  -4.543   5.941  1.00  0.00    -0.205 F 
ATOM     99  C   UNL     1     -20.326  -4.385   3.871  1.00  0.00     0.022 A 
BRANCH  97 100
ATOM    100  S   UNL     1     -20.324  -4.646   6.597  1.00  0.00     0.127 S 
ATOM    101  O   UNL     1     -20.870  -3.304   6.792  1.00  0.00    -0.237 OA
ATOM    102  O   UNL     1     -21.325  -5.678   6.325  1.00  0.00    -0.237 OA
ATOM    103  O   UNL     1     -19.290  -5.041   7.544  1.00  0.00    -0.744 OA
ENDBRANCH  97 100
ENDBRANCH  70  93
ENDBRANCH  44  45
ENDBRANCH  37  39
ENDBRANCH  36  37
ENDBRANCH  35  36
ENDBRANCH  34  35
ENDBRANCH  33  34
ENDBRANCH  32  33
ENDBRANCH  31  32
ENDBRANCH  30  31
ENDBRANCH   1  30
TORSDOF 26
