REMARK SMILES Cc1c(C)c2c(c(C)c1O)CC[C@@](C)(C(=O)OCCOCCOCCOCCOC(=O)c1ccc(-c3c4nc(c(-c5cccc(S(=O)(=O)[O-])c5F)c5ccc([nH]5)c(-c5cccc(S(=O)(=O)[O-])c5F)c5nc(c(-c6cccc(S(=O)(=O)[O-])c6F)c6ccc3[nH]6)C=C5)C=C4)cc1)O2
REMARK SMILES IDX 24 1 23 2 22 3 21 4 20 5 19 6 18 7 17 8 15 9 16 10 13 11
REMARK SMILES IDX 1 12 2 13 3 14 9 15 4 16 5 17 7 18 6 19 95 20 8 21 11 22
REMARK SMILES IDX 12 23 14 24 10 25 25 27 26 28 27 29 28 30 29 31 30 32 31 33
REMARK SMILES IDX 32 34 33 35 94 36 34 37 93 38 35 39 36 40 37 41 87 42 38 43
REMARK SMILES IDX 92 44 86 45 88 46 39 47 91 48 85 49 84 50 40 52 72 53 52 54
REMARK SMILES IDX 71 55 53 56 56 57 70 58 89 59 54 60 55 61 69 63 90 64 57 65
REMARK SMILES IDX 41 66 42 67 50 68 43 69 45 70 51 71 44 72 46 73 47 74 48 75
REMARK SMILES IDX 49 76 73 77 74 78 82 79 75 80 77 81 83 82 76 83 78 84 79 85
REMARK SMILES IDX 80 86 81 87 58 88 59 89 67 90 60 91 62 92 68 93 61 94 63 95
REMARK SMILES IDX 64 96 65 97 66 98
REMARK H PARENT 10 26 88 51 56 62
REMARK Flexibility Score: inf
ROOT
ATOM      1  C   UNL     1       0.920  -9.958  -2.317  1.00  0.00     0.188 C 
ENDROOT
BRANCH   1   2
ATOM      2  O   UNL     1       1.201  -8.830  -1.494  1.00  0.00    -0.377 OA
BRANCH   2   3
ATOM      3  C   UNL     1       1.595  -7.631  -2.128  1.00  0.00     0.188 C 
BRANCH   3   4
ATOM      4  C   UNL     1       3.109  -7.424  -2.238  1.00  0.00     0.188 C 
BRANCH   4   5
ATOM      5  O   UNL     1       4.016  -8.504  -2.100  1.00  0.00    -0.376 OA
BRANCH   5   6
ATOM      6  C   UNL     1       3.921  -9.444  -1.038  1.00  0.00     0.202 C 
BRANCH   6   7
ATOM      7  C   UNL     1       3.633  -9.071   0.427  1.00  0.00     0.261 C 
BRANCH   7   8
ATOM      8  O   UNL     1       2.498  -8.232   0.698  1.00  0.00    -0.460 OA
BRANCH   8   9
ATOM      9  C   UNL     1       2.796  -6.934   0.946  1.00  0.00     0.350 C 
ATOM     10  O   UNL     1       3.943  -6.487   0.896  1.00  0.00    -0.247 OA
BRANCH   9  11
ATOM     11  C   UNL     1       1.588  -6.067   1.345  1.00  0.00     0.203 C 
ATOM     12  C   UNL     1       1.032  -0.100  -0.031  1.00  0.00     0.049 C 
ATOM     13  C   UNL     1       0.538  -1.491   0.277  1.00  0.00    -0.002 A 
ATOM     14  C   UNL     1       1.393  -2.607   0.162  1.00  0.00    -0.002 A 
ATOM     15  C   UNL     1      -0.793  -1.710   0.682  1.00  0.00     0.122 A 
ATOM     16  C   UNL     1       2.802  -2.458  -0.365  1.00  0.00     0.049 C 
ATOM     17  C   UNL     1       0.933  -3.875   0.579  1.00  0.00     0.127 A 
ATOM     18  C   UNL     1      -1.276  -2.992   1.012  1.00  0.00    -0.002 A 
ATOM     19  C   UNL     1      -0.396  -4.094   0.959  1.00  0.00     0.001 A 
ATOM     20  O   UNL     1       1.871  -4.867   0.594  1.00  0.00    -0.475 OA
ATOM     21  C   UNL     1      -2.719  -3.192   1.405  1.00  0.00     0.049 C 
ATOM     22  C   UNL     1      -0.855  -5.484   1.343  1.00  0.00     0.044 C 
ATOM     23  C   UNL     1       0.180  -6.562   1.015  1.00  0.00     0.065 C 
ATOM     24  C   UNL     1       1.759  -5.834   2.853  1.00  0.00     0.069 C 
BRANCH  15  25
ATOM     25  O   UNL     1      -1.686  -0.671   0.772  1.00  0.00    -0.507 OA
ATOM     26  H   UNL     1      -1.413   0.200   0.563  1.00  0.00     0.293 HD
ENDBRANCH  15  25
ENDBRANCH   9  11
ENDBRANCH   8   9
ENDBRANCH   7   8
ENDBRANCH   6   7
ENDBRANCH   5   6
ENDBRANCH   4   5
ENDBRANCH   3   4
ENDBRANCH   2   3
ENDBRANCH   1   2
BRANCH   1  27
ATOM     27  C   UNL     1       1.617 -10.072  -3.689  1.00  0.00     0.188 C 
BRANCH  27  28
ATOM     28  O   UNL     1       1.511  -8.906  -4.494  1.00  0.00    -0.376 OA
BRANCH  28  29
ATOM     29  C   UNL     1       0.453  -8.825  -5.439  1.00  0.00     0.202 C 
BRANCH  29  30
ATOM     30  C   UNL     1      -0.996  -8.863  -4.923  1.00  0.00     0.261 C 
BRANCH  30  31
ATOM     31  O   UNL     1      -1.403 -10.038  -4.203  1.00  0.00    -0.460 OA
BRANCH  31  32
ATOM     32  C   UNL     1      -1.266 -11.245  -4.798  1.00  0.00     0.338 C 
ATOM     33  O   UNL     1      -0.916 -11.462  -5.935  1.00  0.00    -0.246 OA
BRANCH  32  34
ATOM     34  C   UNL     1      -1.401 -12.269  -3.732  1.00  0.00     0.060 A 
ATOM     35  C   UNL     1      -0.318 -13.120  -3.479  1.00  0.00     0.016 A 
ATOM     36  C   UNL     1      -2.569 -12.370  -2.971  1.00  0.00     0.016 A 
ATOM     37  C   UNL     1      -0.408 -14.091  -2.482  1.00  0.00     0.010 A 
ATOM     38  C   UNL     1      -2.670 -13.364  -1.990  1.00  0.00     0.010 A 
ATOM     39  C   UNL     1      -1.602 -14.251  -1.766  1.00  0.00    -0.014 A 
BRANCH  39  40
ATOM     40  C   UNL     1      -1.792 -15.488  -0.969  1.00  0.00     0.031 A 
ATOM     41  C   UNL     1      -2.479 -16.653  -1.627  1.00  0.00     0.074 A 
ATOM     42  C   UNL     1      -1.311 -15.608   0.281  1.00  0.00     0.049 A 
ATOM     43  N   UNL     1      -2.682 -17.861  -1.174  1.00  0.00    -0.248 NA
ATOM     44  C   UNL     1      -3.000 -16.424  -2.986  1.00  0.00     0.031 C 
ATOM     45  C   UNL     1      -0.609 -14.563   1.021  1.00  0.00     0.029 A 
ATOM     46  N   UNL     1      -1.342 -16.674   1.148  1.00  0.00    -0.354 N 
ATOM     47  C   UNL     1      -3.353 -18.535  -2.186  1.00  0.00     0.074 A 
ATOM     48  C   UNL     1      -3.560 -17.591  -3.262  1.00  0.00     0.031 C 
ATOM     49  C   UNL     1      -0.275 -15.040   2.234  1.00  0.00     0.029 A 
ATOM     50  C   UNL     1      -0.752 -16.417   2.363  1.00  0.00     0.049 A 
ATOM     51  H   UNL     1      -1.749 -17.541   0.920  1.00  0.00     0.167 HD
ATOM     52  C   UNL     1      -3.735 -19.832  -2.235  1.00  0.00     0.034 A 
ATOM     53  C   UNL     1      -0.613 -17.204   3.451  1.00  0.00     0.034 A 
ATOM     54  C   UNL     1      -3.528 -20.770  -1.168  1.00  0.00     0.049 A 
ATOM     55  C   UNL     1      -1.115 -18.626   3.406  1.00  0.00     0.074 A 
ATOM     56  C   UNL     1      -3.861 -22.111  -1.130  1.00  0.00     0.029 A 
ATOM     57  N   UNL     1      -2.951 -20.464   0.055  1.00  0.00    -0.354 N 
ATOM     58  N   UNL     1      -1.645 -19.284   2.402  1.00  0.00    -0.248 NA
ATOM     59  C   UNL     1      -0.978 -19.425   4.635  1.00  0.00     0.031 C 
ATOM     60  C   UNL     1      -3.522 -22.607   0.131  1.00  0.00     0.029 A 
ATOM     61  C   UNL     1      -2.942 -21.585   0.866  1.00  0.00     0.049 A 
ATOM     62  H   UNL     1      -2.601 -19.580   0.309  1.00  0.00     0.167 HD
ATOM     63  C   UNL     1      -1.879 -20.576   2.866  1.00  0.00     0.074 A 
ATOM     64  C   UNL     1      -1.414 -20.615   4.237  1.00  0.00     0.031 C 
ATOM     65  C   UNL     1      -2.439 -21.628   2.218  1.00  0.00     0.034 A 
BRANCH  52  66
ATOM     66  C   UNL     1      -4.387 -20.315  -3.503  1.00  0.00     0.023 A 
ATOM     67  C   UNL     1      -3.616 -20.440  -4.678  1.00  0.00     0.012 A 
ATOM     68  C   UNL     1      -5.746 -20.685  -3.527  1.00  0.00     0.148 A 
ATOM     69  C   UNL     1      -4.194 -20.885  -5.865  1.00  0.00     0.002 A 
ATOM     70  C   UNL     1      -6.303 -21.177  -4.702  1.00  0.00     0.091 A 
ATOM     71  F   UNL     1      -6.468 -20.539  -2.408  1.00  0.00    -0.205 F 
ATOM     72  C   UNL     1      -5.533 -21.264  -5.874  1.00  0.00     0.022 A 
BRANCH  70  73
ATOM     73  S   UNL     1      -7.994 -21.772  -4.798  1.00  0.00     0.127 S 
ATOM     74  O   UNL     1      -8.617 -20.752  -5.641  1.00  0.00    -0.237 OA
ATOM     75  O   UNL     1      -7.824 -23.075  -5.442  1.00  0.00    -0.237 OA
ATOM     76  O   UNL     1      -8.479 -21.829  -3.426  1.00  0.00    -0.744 OA
ENDBRANCH  70  73
ENDBRANCH  52  66
BRANCH  53  77
ATOM     77  C   UNL     1       0.095 -16.677   4.655  1.00  0.00     0.023 A 
ATOM     78  C   UNL     1       1.359 -17.195   4.996  1.00  0.00     0.012 A 
ATOM     79  C   UNL     1      -0.449 -15.631   5.427  1.00  0.00     0.148 A 
ATOM     80  C   UNL     1       2.065 -16.689   6.089  1.00  0.00     0.002 A 
ATOM     81  C   UNL     1       0.283 -15.094   6.480  1.00  0.00     0.091 A 
ATOM     82  F   UNL     1      -1.660 -15.162   5.095  1.00  0.00    -0.205 F 
ATOM     83  C   UNL     1       1.534 -15.631   6.822  1.00  0.00     0.022 A 
BRANCH  81  84
ATOM     84  S   UNL     1      -0.255 -13.648   7.400  1.00  0.00     0.127 S 
ATOM     85  O   UNL     1      -0.370 -14.179   8.756  1.00  0.00    -0.237 OA
ATOM     86  O   UNL     1       0.865 -12.730   7.189  1.00  0.00    -0.237 OA
ATOM     87  O   UNL     1      -1.508 -13.229   6.786  1.00  0.00    -0.744 OA
ENDBRANCH  81  84
ENDBRANCH  53  77
BRANCH  65  88
ATOM     88  C   UNL     1      -2.599 -22.932   2.960  1.00  0.00     0.023 A 
ATOM     89  C   UNL     1      -3.589 -23.047   3.955  1.00  0.00     0.012 A 
ATOM     90  C   UNL     1      -1.883 -24.081   2.562  1.00  0.00     0.148 A 
ATOM     91  C   UNL     1      -3.859 -24.280   4.548  1.00  0.00     0.002 A 
ATOM     92  C   UNL     1      -2.194 -25.316   3.120  1.00  0.00     0.091 A 
ATOM     93  F   UNL     1      -0.939 -23.949   1.619  1.00  0.00    -0.205 F 
ATOM     94  C   UNL     1      -3.175 -25.415   4.120  1.00  0.00     0.022 A 
BRANCH  92  95
ATOM     95  S   UNL     1      -1.451 -26.853   2.557  1.00  0.00     0.127 S 
ATOM     96  O   UNL     1      -0.717 -27.282   3.746  1.00  0.00    -0.237 OA
ATOM     97  O   UNL     1      -2.627 -27.664   2.240  1.00  0.00    -0.237 OA
ATOM     98  O   UNL     1      -0.622 -26.506   1.411  1.00  0.00    -0.744 OA
ENDBRANCH  92  95
ENDBRANCH  65  88
ENDBRANCH  39  40
ENDBRANCH  32  34
ENDBRANCH  31  32
ENDBRANCH  30  31
ENDBRANCH  29  30
ENDBRANCH  28  29
ENDBRANCH  27  28
ENDBRANCH   1  27
TORSDOF 24
