REMARK SMILES O=C(Nc1ccccc1C(=O)OCCOCCOCCOCCOC(=O)c1ccc(-c2c3nc(c(-c4cccc(S(=O)(=O)[O-])c4F)c4ccc([nH]4)c(-c4cccc(S(=O)(=O)[O-])c4F)c4nc(c(-c5cccc(S(=O)(=O)[O-])c5F)c5ccc2[nH]5)C=C4)C=C3)cc1)c1ccc(N2C(=O)[C@H]3CC=CC[C@H]3C2=O)cc1
REMARK SMILES IDX 18 1 17 2 16 3 15 4 14 5 13 6 12 7 10 8 11 9 9 10 4 11 5 12
REMARK SMILES IDX 6 13 8 14 7 15 3 16 1 17 2 18 90 20 91 21 106 22 92 23
REMARK SMILES IDX 105 24 93 25 94 26 95 27 103 28 96 29 97 30 102 31 104 32
REMARK SMILES IDX 98 33 101 34 99 35 100 36 19 37 20 38 21 39 22 40 23 41
REMARK SMILES IDX 24 42 25 43 26 44 27 45 28 46 89 47 29 48 88 49 30 50 31 51
REMARK SMILES IDX 32 52 82 53 33 54 87 55 81 56 83 57 34 58 86 59 80 60 79 61
REMARK SMILES IDX 35 63 67 64 47 65 66 66 48 67 51 68 65 69 84 70 49 71 50 72
REMARK SMILES IDX 64 74 85 75 52 76 36 77 37 78 45 79 38 80 40 81 46 82 39 83
REMARK SMILES IDX 41 84 42 85 43 86 44 87 68 88 69 89 77 90 70 91 72 92 78 93
REMARK SMILES IDX 71 94 73 95 74 96 75 97 76 98 53 99 54 100 62 101 55 102
REMARK SMILES IDX 57 103 63 104 56 105 58 106 59 107 60 108 61 109
REMARK H PARENT 3 19 83 62 51 73
REMARK Flexibility Score: inf
ROOT
ATOM      1  O   UNL     1       3.309   4.006  -1.744  1.00  0.00    -0.377 OA
ENDROOT
BRANCH   1   2
ATOM      2  C   UNL     1       4.423   3.127  -1.769  1.00  0.00     0.188 C 
BRANCH   2   3
ATOM      3  C   UNL     1       4.986   2.625  -3.121  1.00  0.00     0.188 C 
BRANCH   3   4
ATOM      4  O   UNL     1       4.024   2.351  -4.115  1.00  0.00    -0.376 OA
BRANCH   4   5
ATOM      5  C   UNL     1       3.508   1.065  -4.366  1.00  0.00     0.202 C 
BRANCH   5   6
ATOM      6  C   UNL     1       3.150   0.086  -3.253  1.00  0.00     0.261 C 
BRANCH   6   7
ATOM      7  O   UNL     1       3.656   0.334  -1.942  1.00  0.00    -0.460 OA
BRANCH   7   8
ATOM      8  C   UNL     1       4.837  -0.240  -1.625  1.00  0.00     0.340 C 
ATOM      9  O   UNL     1       5.588  -0.816  -2.397  1.00  0.00    -0.246 OA
BRANCH   8  10
ATOM     10  C   UNL     1       5.231   0.100  -0.230  1.00  0.00     0.083 A 
ATOM     11  C   UNL     1       4.385   0.229   0.892  1.00  0.00     0.056 A 
ATOM     12  C   UNL     1       4.935   0.766   2.072  1.00  0.00     0.027 A 
ATOM     13  C   UNL     1       6.289   1.101   2.168  1.00  0.00     0.002 A 
ATOM     14  C   UNL     1       6.596   0.446  -0.118  1.00  0.00     0.018 A 
ATOM     15  C   UNL     1       7.123   0.935   1.073  1.00  0.00     0.001 A 
BRANCH  11  16
ATOM     16  N   UNL     1       3.015  -0.105   1.005  1.00  0.00    -0.321 N 
ATOM     17  O   UNL     1       0.994  -0.928   0.440  1.00  0.00    -0.269 OA
ATOM     18  C   UNL     1       2.215  -1.030   0.374  1.00  0.00     0.255 C 
ATOM     19  H   UNL     1       2.534   0.436   1.673  1.00  0.00     0.170 HD
BRANCH  18  20
ATOM     20  C   UNL     1       2.801  -2.163  -0.367  1.00  0.00     0.040 A 
ATOM     21  C   UNL     1       3.966  -2.807   0.060  1.00  0.00     0.016 A 
ATOM     22  C   UNL     1       2.236  -2.475  -1.603  1.00  0.00     0.016 A 
ATOM     23  C   UNL     1       4.686  -3.592  -0.841  1.00  0.00     0.027 A 
ATOM     24  C   UNL     1       2.977  -3.220  -2.513  1.00  0.00     0.027 A 
ATOM     25  C   UNL     1       4.240  -3.716  -2.161  1.00  0.00     0.052 A 
BRANCH  25  26
ATOM     26  N   UNL     1       5.053  -4.283  -3.158  1.00  0.00    -0.250 N 
ATOM     27  C   UNL     1       5.773  -5.434  -2.999  1.00  0.00     0.238 C 
ATOM     28  C   UNL     1       5.218  -3.725  -4.404  1.00  0.00     0.238 C 
ATOM     29  O   UNL     1       5.983  -6.072  -1.976  1.00  0.00    -0.274 OA
ATOM     30  C   UNL     1       6.206  -5.905  -4.366  1.00  0.00     0.096 C 
ATOM     31  C   UNL     1       6.047  -4.662  -5.249  1.00  0.00     0.096 C 
ATOM     32  O   UNL     1       4.821  -2.643  -4.819  1.00  0.00    -0.274 OA
ATOM     33  C   UNL     1       5.328  -7.102  -4.767  1.00  0.00     0.041 C 
ATOM     34  C   UNL     1       5.301  -4.885  -6.565  1.00  0.00     0.041 C 
ATOM     35  C   UNL     1       4.059  -6.705  -5.467  1.00  0.00    -0.030 C 
ATOM     36  C   UNL     1       4.049  -5.680  -6.330  1.00  0.00    -0.030 C 
ENDBRANCH  25  26
ENDBRANCH  18  20
ENDBRANCH  11  16
ENDBRANCH   8  10
ENDBRANCH   7   8
ENDBRANCH   6   7
ENDBRANCH   5   6
ENDBRANCH   4   5
ENDBRANCH   3   4
ENDBRANCH   2   3
ENDBRANCH   1   2
BRANCH   1  37
ATOM     37  C   UNL     1       2.218   3.665  -2.585  1.00  0.00     0.188 C 
BRANCH  37  38
ATOM     38  C   UNL     1       2.269   4.403  -3.935  1.00  0.00     0.188 C 
BRANCH  38  39
ATOM     39  O   UNL     1       3.408   5.177  -4.276  1.00  0.00    -0.376 OA
BRANCH  39  40
ATOM     40  C   UNL     1       3.978   6.108  -3.372  1.00  0.00     0.202 C 
BRANCH  40  41
ATOM     41  C   UNL     1       3.227   6.838  -2.236  1.00  0.00     0.261 C 
BRANCH  41  42
ATOM     42  O   UNL     1       1.881   6.468  -1.944  1.00  0.00    -0.460 OA
BRANCH  42  43
ATOM     43  C   UNL     1       0.925   7.006  -2.727  1.00  0.00     0.338 C 
ATOM     44  O   UNL     1       1.081   7.773  -3.665  1.00  0.00    -0.246 OA
BRANCH  43  45
ATOM     45  C   UNL     1      -0.351   6.360  -2.364  1.00  0.00     0.060 A 
ATOM     46  C   UNL     1      -1.028   5.598  -3.326  1.00  0.00     0.016 A 
ATOM     47  C   UNL     1      -0.873   6.503  -1.076  1.00  0.00     0.016 A 
ATOM     48  C   UNL     1      -2.246   5.001  -3.016  1.00  0.00     0.010 A 
ATOM     49  C   UNL     1      -2.113   5.938  -0.777  1.00  0.00     0.010 A 
ATOM     50  C   UNL     1      -2.819   5.220  -1.759  1.00  0.00    -0.014 A 
BRANCH  50  51
ATOM     51  C   UNL     1      -4.252   4.916  -1.559  1.00  0.00     0.031 A 
ATOM     52  C   UNL     1      -5.235   6.043  -1.718  1.00  0.00     0.074 A 
ATOM     53  C   UNL     1      -4.671   3.676  -1.255  1.00  0.00     0.049 A 
ATOM     54  N   UNL     1      -6.526   6.053  -1.523  1.00  0.00    -0.248 NA
ATOM     55  C   UNL     1      -4.681   7.340  -2.150  1.00  0.00     0.031 C 
ATOM     56  C   UNL     1      -3.812   2.503  -1.104  1.00  0.00     0.029 A 
ATOM     57  N   UNL     1      -5.933   3.210  -0.987  1.00  0.00    -0.354 N 
ATOM     58  C   UNL     1      -6.934   7.356  -1.780  1.00  0.00     0.074 A 
ATOM     59  C   UNL     1      -5.754   8.114  -2.128  1.00  0.00     0.031 C 
ATOM     60  C   UNL     1      -4.569   1.457  -0.729  1.00  0.00     0.029 A 
ATOM     61  C   UNL     1      -5.956   1.896  -0.586  1.00  0.00     0.049 A 
ATOM     62  H   UNL     1      -6.743   3.763  -1.073  1.00  0.00     0.167 HD
ATOM     63  C   UNL     1      -8.184   7.873  -1.742  1.00  0.00     0.034 A 
ATOM     64  C   UNL     1      -6.978   1.150  -0.122  1.00  0.00     0.034 A 
ATOM     65  C   UNL     1      -9.353   7.112  -1.398  1.00  0.00     0.049 A 
ATOM     66  C   UNL     1      -8.354   1.764  -0.039  1.00  0.00     0.074 A 
ATOM     67  C   UNL     1     -10.669   7.533  -1.349  1.00  0.00     0.029 A 
ATOM     68  N   UNL     1      -9.345   5.774  -1.033  1.00  0.00    -0.354 N 
ATOM     69  N   UNL     1      -8.745   2.972  -0.370  1.00  0.00    -0.248 NA
ATOM     70  C   UNL     1      -9.438   0.900   0.454  1.00  0.00     0.031 C 
ATOM     71  C   UNL     1     -11.454   6.457  -0.920  1.00  0.00     0.029 A 
ATOM     72  C   UNL     1     -10.632   5.355  -0.747  1.00  0.00     0.049 A 
ATOM     73  H   UNL     1      -8.541   5.207  -0.984  1.00  0.00     0.167 HD
ATOM     74  C   UNL     1     -10.122   2.998  -0.168  1.00  0.00     0.074 A 
ATOM     75  C   UNL     1     -10.499   1.680   0.297  1.00  0.00     0.031 C 
ATOM     76  C   UNL     1     -10.995   4.022  -0.340  1.00  0.00     0.034 A 
BRANCH  63  77
ATOM     77  C   UNL     1      -8.348   9.328  -2.093  1.00  0.00     0.023 A 
ATOM     78  C   UNL     1      -8.177   9.749  -3.428  1.00  0.00     0.012 A 
ATOM     79  C   UNL     1      -8.714  10.270  -1.112  1.00  0.00     0.148 A 
ATOM     80  C   UNL     1      -8.333  11.090  -3.775  1.00  0.00     0.002 A 
ATOM     81  C   UNL     1      -8.916  11.596  -1.475  1.00  0.00     0.091 A 
ATOM     82  F   UNL     1      -8.849   9.854   0.155  1.00  0.00    -0.205 F 
ATOM     83  C   UNL     1      -8.714  12.010  -2.801  1.00  0.00     0.022 A 
BRANCH  81  84
ATOM     84  S   UNL     1      -9.485  12.843  -0.314  1.00  0.00     0.127 S 
ATOM     85  O   UNL     1      -8.311  13.710  -0.215  1.00  0.00    -0.237 OA
ATOM     86  O   UNL     1     -10.618  13.430  -1.028  1.00  0.00    -0.237 OA
ATOM     87  O   UNL     1      -9.835  12.130   0.906  1.00  0.00    -0.744 OA
ENDBRANCH  81  84
ENDBRANCH  63  77
BRANCH  64  88
ATOM     88  C   UNL     1      -6.752  -0.264   0.291  1.00  0.00     0.023 A 
ATOM     89  C   UNL     1      -7.337  -1.309  -0.450  1.00  0.00     0.012 A 
ATOM     90  C   UNL     1      -5.978  -0.578   1.426  1.00  0.00     0.148 A 
ATOM     91  C   UNL     1      -7.191  -2.637  -0.045  1.00  0.00     0.002 A 
ATOM     92  C   UNL     1      -5.792  -1.905   1.792  1.00  0.00     0.091 A 
ATOM     93  F   UNL     1      -5.443   0.431   2.128  1.00  0.00    -0.205 F 
ATOM     94  C   UNL     1      -6.413  -2.935   1.069  1.00  0.00     0.022 A 
BRANCH  92  95
ATOM     95  S   UNL     1      -4.724  -2.392   3.152  1.00  0.00     0.127 S 
ATOM     96  O   UNL     1      -5.692  -2.885   4.130  1.00  0.00    -0.237 OA
ATOM     97  O   UNL     1      -3.897  -3.427   2.531  1.00  0.00    -0.237 OA
ATOM     98  O   UNL     1      -3.999  -1.188   3.537  1.00  0.00    -0.744 OA
ENDBRANCH  92  95
ENDBRANCH  64  88
BRANCH  76  99
ATOM     99  C   UNL     1     -12.456   3.749  -0.085  1.00  0.00     0.023 A 
ATOM    100  C   UNL     1     -12.923   3.559   1.230  1.00  0.00     0.012 A 
ATOM    101  C   UNL     1     -13.379   3.759  -1.151  1.00  0.00     0.148 A 
ATOM    102  C   UNL     1     -14.278   3.343   1.476  1.00  0.00     0.002 A 
ATOM    103  C   UNL     1     -14.734   3.599  -0.893  1.00  0.00     0.091 A 
ATOM    104  F   UNL     1     -12.914   3.929  -2.398  1.00  0.00    -0.205 F 
ATOM    105  C   UNL     1     -15.184   3.375   0.418  1.00  0.00     0.022 A 
BRANCH 103 106
ATOM    106  S   UNL     1     -15.983   3.725  -2.177  1.00  0.00     0.127 S 
ATOM    107  O   UNL     1     -16.448   2.343  -2.278  1.00  0.00    -0.237 OA
ATOM    108  O   UNL     1     -16.947   4.650  -1.579  1.00  0.00    -0.237 OA
ATOM    109  O   UNL     1     -15.301   4.241  -3.356  1.00  0.00    -0.744 OA
ENDBRANCH 103 106
ENDBRANCH  76  99
ENDBRANCH  50  51
ENDBRANCH  43  45
ENDBRANCH  42  43
ENDBRANCH  41  42
ENDBRANCH  40  41
ENDBRANCH  39  40
ENDBRANCH  38  39
ENDBRANCH  37  38
ENDBRANCH   1  37
TORSDOF 26
