REMARK SMILES O=C(OCCOCCOCCOCCOC(=O)[C@@H](NC(=O)[C@H]1CC[C@@H]2CCCC[C@H]2[NH2+]1)C1CC1)c1ccc(-c2c3nc(c(-c4cccc(S(=O)(=O)[O-])c4F)c4ccc([nH]4)c(-c4cccc(S(=O)(=O)[O-])c4F)c4nc(c(-c5cccc(S(=O)(=O)[O-])c5F)c5ccc2[nH]5)C=C4)C=C3)cc1
REMARK SMILES IDX 8 1 7 2 6 3 5 4 4 5 3 6 2 7 1 8 35 9 36 10 97 11 37 12 96 13
REMARK SMILES IDX 38 14 39 15 40 16 90 17 41 18 95 19 89 20 91 21 42 22 94 23
REMARK SMILES IDX 88 24 87 25 43 27 75 28 55 29 74 30 56 31 59 32 73 33 92 34
REMARK SMILES IDX 57 35 58 36 72 38 93 39 60 40 44 41 45 42 53 43 46 44 48 45
REMARK SMILES IDX 54 46 47 47 49 48 50 49 51 50 52 51 76 52 77 53 85 54 78 55
REMARK SMILES IDX 80 56 86 57 79 58 81 59 82 60 83 61 84 62 61 63 62 64 70 65
REMARK SMILES IDX 63 66 65 67 71 68 64 69 66 70 67 71 68 72 69 73 9 74 10 75
REMARK SMILES IDX 11 76 12 77 13 78 14 79 15 80 16 81 17 82 18 83 19 84 20 85
REMARK SMILES IDX 21 87 22 88 23 89 31 90 24 91 30 92 25 95 29 96 26 97 28 98
REMARK SMILES IDX 27 99 32 100 33 101 34 102
REMARK H PARENT 91 26 59 37 19 86 31 93 31 94
REMARK Flexibility Score: inf
ROOT
ATOM      1  C   UNL     1       6.385  -7.637   0.395  1.00  0.00     0.188 C 
ENDROOT
BRANCH   1   2
ATOM      2  C   UNL     1       5.961  -7.963  -1.035  1.00  0.00     0.188 C 
BRANCH   2   3
ATOM      3  O   UNL     1       6.030  -6.789  -1.823  1.00  0.00    -0.376 OA
BRANCH   3   4
ATOM      4  C   UNL     1       5.076  -6.539  -2.839  1.00  0.00     0.202 C 
BRANCH   4   5
ATOM      5  C   UNL     1       4.957  -7.591  -3.926  1.00  0.00     0.261 C 
BRANCH   5   6
ATOM      6  O   UNL     1       5.767  -8.766  -3.751  1.00  0.00    -0.460 OA
BRANCH   6   7
ATOM      7  C   UNL     1       7.095  -8.975  -3.896  1.00  0.00     0.338 C 
ATOM      8  O   UNL     1       7.528 -10.111  -3.708  1.00  0.00    -0.246 OA
BRANCH   7   9
ATOM      9  C   UNL     1       8.067  -7.927  -4.305  1.00  0.00     0.060 A 
ATOM     10  C   UNL     1       8.061  -6.612  -3.855  1.00  0.00     0.016 A 
ATOM     11  C   UNL     1       9.150  -8.336  -5.095  1.00  0.00     0.016 A 
ATOM     12  C   UNL     1       8.978  -5.678  -4.282  1.00  0.00     0.010 A 
ATOM     13  C   UNL     1      10.141  -7.424  -5.467  1.00  0.00     0.010 A 
ATOM     14  C   UNL     1      10.021  -6.080  -5.094  1.00  0.00    -0.014 A 
BRANCH  14  15
ATOM     15  C   UNL     1      10.848  -5.019  -5.672  1.00  0.00     0.031 A 
ATOM     16  C   UNL     1      10.661  -4.732  -7.125  1.00  0.00     0.074 A 
ATOM     17  C   UNL     1      11.612  -4.253  -4.874  1.00  0.00     0.049 A 
ATOM     18  N   UNL     1      11.333  -3.934  -7.900  1.00  0.00    -0.248 NA
ATOM     19  C   UNL     1       9.555  -5.443  -7.796  1.00  0.00     0.031 C 
ATOM     20  C   UNL     1      11.707  -4.381  -3.416  1.00  0.00     0.029 A 
ATOM     21  N   UNL     1      12.444  -3.212  -5.173  1.00  0.00    -0.354 N 
ATOM     22  C   UNL     1      10.794  -4.114  -9.166  1.00  0.00     0.074 A 
ATOM     23  C   UNL     1       9.718  -5.069  -9.054  1.00  0.00     0.031 C 
ATOM     24  C   UNL     1      12.569  -3.464  -2.951  1.00  0.00     0.029 A 
ATOM     25  C   UNL     1      13.149  -2.757  -4.084  1.00  0.00     0.049 A 
ATOM     26  H   UNL     1      12.531  -2.827  -6.075  1.00  0.00     0.167 HD
ATOM     27  C   UNL     1      11.194  -3.539 -10.320  1.00  0.00     0.034 A 
ATOM     28  C   UNL     1      14.200  -1.920  -4.036  1.00  0.00     0.034 A 
ATOM     29  C   UNL     1      12.266  -2.588 -10.370  1.00  0.00     0.049 A 
ATOM     30  C   UNL     1      14.675  -1.343  -5.340  1.00  0.00     0.074 A 
ATOM     31  C   UNL     1      12.807  -1.950 -11.466  1.00  0.00     0.029 A 
ATOM     32  N   UNL     1      12.971  -2.153  -9.253  1.00  0.00    -0.354 N 
ATOM     33  N   UNL     1      14.183  -1.524  -6.545  1.00  0.00    -0.248 NA
ATOM     34  C   UNL     1      15.833  -0.447  -5.288  1.00  0.00     0.031 C 
ATOM     35  C   UNL     1      13.870  -1.160 -11.014  1.00  0.00     0.029 A 
ATOM     36  C   UNL     1      13.957  -1.266  -9.632  1.00  0.00     0.049 A 
ATOM     37  H   UNL     1      12.792  -2.437  -8.327  1.00  0.00     0.167 HD
ATOM     38  C   UNL     1      14.955  -0.746  -7.395  1.00  0.00     0.074 A 
ATOM     39  C   UNL     1      15.935  -0.077  -6.558  1.00  0.00     0.031 C 
ATOM     40  C   UNL     1      14.878  -0.601  -8.742  1.00  0.00     0.034 A 
BRANCH  27  41
ATOM     41  C   UNL     1      10.525  -4.008 -11.582  1.00  0.00     0.023 A 
ATOM     42  C   UNL     1       9.179  -3.683 -11.850  1.00  0.00     0.012 A 
ATOM     43  C   UNL     1      11.227  -4.838 -12.477  1.00  0.00     0.148 A 
ATOM     44  C   UNL     1       8.528  -4.221 -12.961  1.00  0.00     0.002 A 
ATOM     45  C   UNL     1      10.587  -5.329 -13.607  1.00  0.00     0.091 A 
ATOM     46  F   UNL     1      12.492  -5.168 -12.183  1.00  0.00    -0.205 F 
ATOM     47  C   UNL     1       9.234  -5.037 -13.842  1.00  0.00     0.022 A 
BRANCH  45  48
ATOM     48  S   UNL     1      11.432  -6.334 -14.831  1.00  0.00     0.127 S 
ATOM     49  O   UNL     1      10.772  -7.629 -14.655  1.00  0.00    -0.237 OA
ATOM     50  O   UNL     1      11.091  -5.643 -16.077  1.00  0.00    -0.237 OA
ATOM     51  O   UNL     1      12.841  -6.300 -14.482  1.00  0.00    -0.744 OA
ENDBRANCH  45  48
ENDBRANCH  27  41
BRANCH  28  52
ATOM     52  C   UNL     1      14.880  -1.643  -2.739  1.00  0.00     0.023 A 
ATOM     53  C   UNL     1      14.840  -0.353  -2.182  1.00  0.00     0.012 A 
ATOM     54  C   UNL     1      15.531  -2.675  -2.029  1.00  0.00     0.148 A 
ATOM     55  C   UNL     1      15.456  -0.088  -0.956  1.00  0.00     0.002 A 
ATOM     56  C   UNL     1      16.090  -2.419  -0.783  1.00  0.00     0.091 A 
ATOM     57  F   UNL     1      15.572  -3.897  -2.580  1.00  0.00    -0.205 F 
ATOM     58  C   UNL     1      16.070  -1.122  -0.252  1.00  0.00     0.022 A 
BRANCH  56  59
ATOM     59  S   UNL     1      16.781  -3.718   0.249  1.00  0.00     0.127 S 
ATOM     60  O   UNL     1      18.204  -3.376   0.245  1.00  0.00    -0.237 OA
ATOM     61  O   UNL     1      16.097  -3.484   1.523  1.00  0.00    -0.237 OA
ATOM     62  O   UNL     1      16.432  -4.970  -0.399  1.00  0.00    -0.744 OA
ENDBRANCH  56  59
ENDBRANCH  28  52
BRANCH  40  63
ATOM     63  C   UNL     1      15.847   0.352  -9.380  1.00  0.00     0.023 A 
ATOM     64  C   UNL     1      17.199  -0.009  -9.525  1.00  0.00     0.012 A 
ATOM     65  C   UNL     1      15.379   1.560  -9.930  1.00  0.00     0.148 A 
ATOM     66  C   UNL     1      18.082   0.836 -10.193  1.00  0.00     0.002 A 
ATOM     67  C   UNL     1      16.250   2.366 -10.646  1.00  0.00     0.091 A 
ATOM     68  F   UNL     1      14.089   1.884  -9.758  1.00  0.00    -0.205 F 
ATOM     69  C   UNL     1      17.604   2.013 -10.767  1.00  0.00     0.022 A 
BRANCH  67  70
ATOM     70  S   UNL     1      15.696   3.834 -11.516  1.00  0.00     0.127 S 
ATOM     71  O   UNL     1      16.305   4.898 -10.720  1.00  0.00    -0.237 OA
ATOM     72  O   UNL     1      16.287   3.647 -12.842  1.00  0.00    -0.237 OA
ATOM     73  O   UNL     1      14.240   3.793 -11.492  1.00  0.00    -0.744 OA
ENDBRANCH  67  70
ENDBRANCH  40  63
ENDBRANCH  14  15
ENDBRANCH   7   9
ENDBRANCH   6   7
ENDBRANCH   5   6
ENDBRANCH   4   5
ENDBRANCH   3   4
ENDBRANCH   2   3
ENDBRANCH   1   2
BRANCH   1  74
ATOM     74  O   UNL     1       5.588  -6.646   1.049  1.00  0.00    -0.377 OA
BRANCH  74  75
ATOM     75  C   UNL     1       5.332  -5.447   0.310  1.00  0.00     0.188 C 
BRANCH  75  76
ATOM     76  C   UNL     1       6.498  -4.537  -0.129  1.00  0.00     0.188 C 
BRANCH  76  77
ATOM     77  O   UNL     1       7.748  -5.188  -0.132  1.00  0.00    -0.376 OA
BRANCH  77  78
ATOM     78  C   UNL     1       8.609  -4.944   0.968  1.00  0.00     0.202 C 
BRANCH  78  79
ATOM     79  C   UNL     1       8.101  -5.010   2.430  1.00  0.00     0.261 C 
BRANCH  79  80
ATOM     80  O   UNL     1       6.684  -4.894   2.693  1.00  0.00    -0.462 OA
BRANCH  80  81
ATOM     81  C   UNL     1       6.194  -3.659   2.958  1.00  0.00     0.329 C 
ATOM     82  O   UNL     1       6.889  -2.646   2.946  1.00  0.00    -0.250 OA
BRANCH  81  83
ATOM     83  C   UNL     1       4.706  -3.640   3.455  1.00  0.00     0.195 C 
BRANCH  83  84
ATOM     84  N   UNL     1       3.621  -4.444   2.841  1.00  0.00    -0.337 N 
ATOM     85  C   UNL     1       3.143  -5.718   2.975  1.00  0.00     0.278 C 
ATOM     86  H   UNL     1       3.120  -3.931   2.166  1.00  0.00     0.164 HD
ATOM     87  O   UNL     1       2.245  -6.064   2.202  1.00  0.00    -0.268 OA
BRANCH  85  88
ATOM     88  C   UNL     1       3.671  -6.609   4.093  1.00  0.00     0.272 C 
ATOM     89  C   UNL     1       2.741  -6.553   5.307  1.00  0.00     0.076 C 
ATOM     90  N   UNL     1       3.773  -8.038   3.702  1.00  0.00    -0.333 N 
ATOM     91  C   UNL     1       3.434  -7.221   6.488  1.00  0.00     0.016 C 
ATOM     92  C   UNL     1       4.568  -8.720   4.730  1.00  0.00     0.186 C 
ATOM     93  H   UNL     1       4.233  -8.119   2.796  1.00  0.00     0.347 HD
ATOM     94  H   UNL     1       2.846  -8.457   3.628  1.00  0.00     0.347 HD
ATOM     95  C   UNL     1       3.894  -8.638   6.123  1.00  0.00     0.048 C 
ATOM     96  C   UNL     1       4.817 -10.194   4.392  1.00  0.00     0.065 C 
ATOM     97  C   UNL     1       4.872  -9.178   7.174  1.00  0.00     0.010 C 
ATOM     98  C   UNL     1       5.763 -10.807   5.430  1.00  0.00     0.006 C 
ATOM     99  C   UNL     1       5.267 -10.620   6.866  1.00  0.00     0.001 C 
ENDBRANCH  85  88
ENDBRANCH  83  84
BRANCH  83 100
ATOM    100  C   UNL     1       4.585  -3.661   4.959  1.00  0.00     0.023 C 
ATOM    101  C   UNL     1       5.700  -4.162   5.852  1.00  0.00     0.007 C 
ATOM    102  C   UNL     1       5.369  -2.697   5.813  1.00  0.00     0.007 C 
ENDBRANCH  83 100
ENDBRANCH  81  83
ENDBRANCH  80  81
ENDBRANCH  79  80
ENDBRANCH  78  79
ENDBRANCH  77  78
ENDBRANCH  76  77
ENDBRANCH  75  76
ENDBRANCH  74  75
ENDBRANCH   1  74
TORSDOF 26
