REMARK SMILES Cc1cc(C(=O)N[C@@H]2C(=O)N3C(C(=O)OCCOCCOCCOCCOC(=O)c4ccc(-c5c6nc(c(-c7cccc(S(=O)(=O)[O-])c7F)c7ccc([nH]7)c(-c7cccc(S(=O)(=O)[O-])c7F)c7nc(c(-c8cccc(S(=O)(=O)[O-])c8F)c8ccc5[nH]8)C=C7)C=C6)cc4)=C(CSc4nnc(C)s4)CS[C@H]23)n(C)n1
REMARK SMILES IDX 21 1 20 2 19 3 18 4 17 5 16 6 15 7 13 8 14 9 12 10 8 11 9 12
REMARK SMILES IDX 104 13 10 14 11 15 103 16 102 17 93 18 7 19 5 20 6 21 4 23
REMARK SMILES IDX 1 24 2 25 3 26 107 27 105 28 106 29 94 30 95 31 96 32 97 33
REMARK SMILES IDX 101 34 98 35 99 36 100 37 22 38 23 39 24 40 25 41 26 42
REMARK SMILES IDX 27 43 28 44 29 45 30 46 31 47 92 48 32 49 91 50 33 51 34 52
REMARK SMILES IDX 35 53 85 54 36 55 90 56 84 57 86 58 37 59 89 60 83 61 82 62
REMARK SMILES IDX 38 64 70 65 50 66 69 67 51 68 54 69 68 70 87 71 52 72 53 73
REMARK SMILES IDX 67 75 88 76 55 77 39 78 40 79 48 80 41 81 43 82 49 83 42 84
REMARK SMILES IDX 44 85 45 86 46 87 47 88 71 89 72 90 80 91 73 92 75 93 81 94
REMARK SMILES IDX 74 95 76 96 77 97 78 98 79 99 56 100 57 101 65 102 58 103
REMARK SMILES IDX 60 104 66 105 59 106 61 107 62 108 63 109 64 110
REMARK H PARENT 7 22 86 63 54 74
REMARK Flexibility Score: inf
ROOT
ATOM      1  O   UNL     1      -5.414  -0.532  -0.578  1.00  0.00    -0.377 OA
ENDROOT
BRANCH   1   2
ATOM      2  C   UNL     1      -4.015  -0.770  -0.634  1.00  0.00     0.188 C 
BRANCH   2   3
ATOM      3  C   UNL     1      -2.975   0.375  -0.767  1.00  0.00     0.188 C 
BRANCH   3   4
ATOM      4  O   UNL     1      -3.426   1.512  -1.480  1.00  0.00    -0.376 OA
BRANCH   4   5
ATOM      5  C   UNL     1      -2.994   1.780  -2.795  1.00  0.00     0.202 C 
BRANCH   5   6
ATOM      6  C   UNL     1      -3.116   0.726  -3.906  1.00  0.00     0.261 C 
BRANCH   6   7
ATOM      7  O   UNL     1      -3.265  -0.630  -3.484  1.00  0.00    -0.459 OA
BRANCH   7   8
ATOM      8  C   UNL     1      -2.137  -1.349  -3.329  1.00  0.00     0.355 C 
ATOM      9  O   UNL     1      -0.997  -0.936  -3.502  1.00  0.00    -0.244 OA
BRANCH   8  10
ATOM     10  C   UNL     1      -2.416  -2.744  -2.840  1.00  0.00     0.132 C 
ATOM     11  C   UNL     1      -0.271  -4.153  -0.589  1.00  0.00     0.206 C 
ATOM     12  C   UNL     1      -1.016  -2.799  -0.714  1.00  0.00     0.253 C 
ATOM     13  C   UNL     1      -1.199  -4.589  -1.764  1.00  0.00     0.181 C 
ATOM     14  O   UNL     1      -1.106  -1.810  -0.040  1.00  0.00    -0.272 OA
ATOM     15  N   UNL     1      -1.541  -3.205  -1.901  1.00  0.00    -0.289 N 
ATOM     16  S   UNL     1      -2.720  -5.476  -1.366  1.00  0.00    -0.129 SA
ATOM     17  C   UNL     1      -3.463  -5.055  -2.964  1.00  0.00     0.106 C 
ATOM     18  C   UNL     1      -3.382  -3.572  -3.329  1.00  0.00    -0.019 C 
BRANCH  11  19
ATOM     19  N   UNL     1      -0.302  -4.944   0.665  1.00  0.00    -0.336 N 
ATOM     20  C   UNL     1       0.009  -6.288   0.808  1.00  0.00     0.270 C 
ATOM     21  O   UNL     1      -0.058  -6.780   1.932  1.00  0.00    -0.268 OA
ATOM     22  H   UNL     1      -0.572  -4.465   1.482  1.00  0.00     0.164 HD
BRANCH  20  23
ATOM     23  C   UNL     1       0.324  -7.051  -0.385  1.00  0.00     0.126 A 
ATOM     24  C   UNL     1       0.393  -7.431  -3.998  1.00  0.00     0.069 C 
ATOM     25  C   UNL     1       0.461  -7.603  -2.526  1.00  0.00     0.060 A 
ATOM     26  C   UNL     1       0.950  -6.689  -1.571  1.00  0.00     0.059 A 
ATOM     27  N   UNL     1      -0.064  -8.674  -1.930  1.00  0.00    -0.178 NA
ATOM     28  N   UNL     1      -0.022  -8.364  -0.613  1.00  0.00    -0.263 N 
ATOM     29  C   UNL     1      -0.344  -9.406   0.331  1.00  0.00     0.174 C 
ENDBRANCH  20  23
ENDBRANCH  11  19
BRANCH  18  30
ATOM     30  C   UNL     1      -4.427  -3.204  -4.362  1.00  0.00     0.111 C 
BRANCH  30  31
ATOM     31  S   UNL     1      -5.934  -2.389  -3.789  1.00  0.00    -0.089 SA
BRANCH  31  32
ATOM     32  C   UNL     1      -6.481  -3.135  -2.311  1.00  0.00     0.174 A 
ATOM     33  N   UNL     1      -5.795  -4.003  -1.603  1.00  0.00    -0.132 NA
ATOM     34  S   UNL     1      -7.978  -2.700  -1.582  1.00  0.00    -0.091 S 
ATOM     35  N   UNL     1      -6.382  -4.289  -0.385  1.00  0.00    -0.143 NA
ATOM     36  C   UNL     1      -7.495  -3.610  -0.208  1.00  0.00     0.115 A 
ATOM     37  C   UNL     1      -8.286  -3.588   1.049  1.00  0.00     0.081 C 
ENDBRANCH  31  32
ENDBRANCH  30  31
ENDBRANCH  18  30
ENDBRANCH   8  10
ENDBRANCH   7   8
ENDBRANCH   6   7
ENDBRANCH   5   6
ENDBRANCH   4   5
ENDBRANCH   3   4
ENDBRANCH   2   3
ENDBRANCH   1   2
BRANCH   1  38
ATOM     38  C   UNL     1      -5.898   0.673  -1.137  1.00  0.00     0.188 C 
BRANCH  38  39
ATOM     39  C   UNL     1      -5.791   1.842  -0.144  1.00  0.00     0.188 C 
BRANCH  39  40
ATOM     40  O   UNL     1      -5.008   1.609   1.013  1.00  0.00    -0.376 OA
BRANCH  40  41
ATOM     41  C   UNL     1      -5.423   0.695   2.018  1.00  0.00     0.202 C 
BRANCH  41  42
ATOM     42  C   UNL     1      -6.652  -0.245   1.982  1.00  0.00     0.261 C 
BRANCH  42  43
ATOM     43  O   UNL     1      -7.666  -0.058   0.993  1.00  0.00    -0.460 OA
BRANCH  43  44
ATOM     44  C   UNL     1      -8.556   0.936   1.176  1.00  0.00     0.338 C 
ATOM     45  O   UNL     1      -8.609   1.714   2.109  1.00  0.00    -0.246 OA
BRANCH  44  46
ATOM     46  C   UNL     1      -9.356   1.029  -0.067  1.00  0.00     0.060 A 
ATOM     47  C   UNL     1      -9.234   2.167  -0.877  1.00  0.00     0.016 A 
ATOM     48  C   UNL     1     -10.201  -0.016  -0.445  1.00  0.00     0.016 A 
ATOM     49  C   UNL     1      -9.972   2.273  -2.054  1.00  0.00     0.010 A 
ATOM     50  C   UNL     1     -10.958   0.100  -1.614  1.00  0.00     0.010 A 
ATOM     51  C   UNL     1     -10.875   1.263  -2.401  1.00  0.00    -0.014 A 
BRANCH  51  52
ATOM     52  C   UNL     1     -11.888   1.526  -3.450  1.00  0.00     0.031 A 
ATOM     53  C   UNL     1     -13.276   1.907  -3.011  1.00  0.00     0.074 A 
ATOM     54  C   UNL     1     -11.588   1.450  -4.758  1.00  0.00     0.049 A 
ATOM     55  N   UNL     1     -14.338   2.145  -3.732  1.00  0.00    -0.248 NA
ATOM     56  C   UNL     1     -13.494   2.030  -1.559  1.00  0.00     0.031 C 
ATOM     57  C   UNL     1     -10.276   1.115  -5.308  1.00  0.00     0.029 A 
ATOM     58  N   UNL     1     -12.383   1.629  -5.862  1.00  0.00    -0.354 N 
ATOM     59  C   UNL     1     -15.358   2.409  -2.825  1.00  0.00     0.074 A 
ATOM     60  C   UNL     1     -14.791   2.287  -1.501  1.00  0.00     0.031 C 
ATOM     61  C   UNL     1     -10.362   1.086  -6.649  1.00  0.00     0.029 A 
ATOM     62  C   UNL     1     -11.741   1.366  -7.049  1.00  0.00     0.049 A 
ATOM     63  H   UNL     1     -13.323   1.917  -5.810  1.00  0.00     0.167 HD
ATOM     64  C   UNL     1     -16.648   2.734  -3.070  1.00  0.00     0.034 A 
ATOM     65  C   UNL     1     -12.221   1.327  -8.309  1.00  0.00     0.034 A 
ATOM     66  C   UNL     1     -17.206   2.864  -4.388  1.00  0.00     0.049 A 
ATOM     67  C   UNL     1     -13.674   1.648  -8.555  1.00  0.00     0.074 A 
ATOM     68  C   UNL     1     -18.491   3.231  -4.743  1.00  0.00     0.029 A 
ATOM     69  N   UNL     1     -16.521   2.610  -5.566  1.00  0.00    -0.354 N 
ATOM     70  N   UNL     1     -14.603   1.992  -7.696  1.00  0.00    -0.248 NA
ATOM     71  C   UNL     1     -14.139   1.603  -9.950  1.00  0.00     0.031 C 
ATOM     72  C   UNL     1     -18.598   3.151  -6.135  1.00  0.00     0.029 A 
ATOM     73  C   UNL     1     -17.363   2.791  -6.650  1.00  0.00     0.049 A 
ATOM     74  H   UNL     1     -15.576   2.341  -5.623  1.00  0.00     0.167 HD
ATOM     75  C   UNL     1     -15.747   2.245  -8.447  1.00  0.00     0.074 A 
ATOM     76  C   UNL     1     -15.389   2.030  -9.834  1.00  0.00     0.031 C 
ATOM     77  C   UNL     1     -16.983   2.616  -8.029  1.00  0.00     0.034 A 
BRANCH  64  78
ATOM     78  C   UNL     1     -17.546   2.965  -1.883  1.00  0.00     0.023 A 
ATOM     79  C   UNL     1     -17.366   4.103  -1.071  1.00  0.00     0.012 A 
ATOM     80  C   UNL     1     -18.593   2.069  -1.595  1.00  0.00     0.148 A 
ATOM     81  C   UNL     1     -18.188   4.324   0.034  1.00  0.00     0.002 A 
ATOM     82  C   UNL     1     -19.441   2.323  -0.524  1.00  0.00     0.091 A 
ATOM     83  F   UNL     1     -18.733   0.980  -2.364  1.00  0.00    -0.205 F 
ATOM     84  C   UNL     1     -19.231   3.440   0.300  1.00  0.00     0.022 A 
BRANCH  82  85
ATOM     85  S   UNL     1     -20.862   1.291  -0.150  1.00  0.00     0.127 S 
ATOM     86  O   UNL     1     -20.456   0.678   1.114  1.00  0.00    -0.237 OA
ATOM     87  O   UNL     1     -21.934   2.280  -0.031  1.00  0.00    -0.237 OA
ATOM     88  O   UNL     1     -21.001   0.373  -1.271  1.00  0.00    -0.744 OA
ENDBRANCH  82  85
ENDBRANCH  64  78
BRANCH  65  89
ATOM     89  C   UNL     1     -11.316   0.984  -9.443  1.00  0.00     0.023 A 
ATOM     90  C   UNL     1     -10.999   1.962 -10.405  1.00  0.00     0.012 A 
ATOM     91  C   UNL     1     -10.766  -0.307  -9.569  1.00  0.00     0.148 A 
ATOM     92  C   UNL     1     -10.179   1.652 -11.491  1.00  0.00     0.002 A 
ATOM     93  C   UNL     1      -9.902  -0.592 -10.620  1.00  0.00     0.091 A 
ATOM     94  F   UNL     1     -11.091  -1.228  -8.651  1.00  0.00    -0.205 F 
ATOM     95  C   UNL     1      -9.624   0.380 -11.593  1.00  0.00     0.022 A 
BRANCH  93  96
ATOM     96  S   UNL     1      -9.039  -2.160 -10.762  1.00  0.00     0.127 S 
ATOM     97  O   UNL     1      -9.610  -2.707 -11.991  1.00  0.00    -0.237 OA
ATOM     98  O   UNL     1      -7.646  -1.725 -10.870  1.00  0.00    -0.237 OA
ATOM     99  O   UNL     1      -9.346  -2.897  -9.544  1.00  0.00    -0.744 OA
ENDBRANCH  93  96
ENDBRANCH  65  89
BRANCH  77 100
ATOM    100  C   UNL     1     -18.037   2.871  -9.077  1.00  0.00     0.023 A 
ATOM    101  C   UNL     1     -18.589   1.799  -9.806  1.00  0.00     0.012 A 
ATOM    102  C   UNL     1     -18.535   4.174  -9.282  1.00  0.00     0.148 A 
ATOM    103  C   UNL     1     -19.593   2.026 -10.748  1.00  0.00     0.002 A 
ATOM    104  C   UNL     1     -19.573   4.384 -10.181  1.00  0.00     0.091 A 
ATOM    105  F   UNL     1     -17.988   5.183  -8.589  1.00  0.00    -0.205 F 
ATOM    106  C   UNL     1     -20.093   3.314 -10.926  1.00  0.00     0.022 A 
BRANCH 104 107
ATOM    107  S   UNL     1     -20.349   5.989 -10.404  1.00  0.00     0.127 S 
ATOM    108  O   UNL     1     -19.926   6.338 -11.759  1.00  0.00    -0.237 OA
ATOM    109  O   UNL     1     -21.770   5.665 -10.272  1.00  0.00    -0.237 OA
ATOM    110  O   UNL     1     -19.821   6.843  -9.349  1.00  0.00    -0.744 OA
ENDBRANCH 104 107
ENDBRANCH  77 100
ENDBRANCH  51  52
ENDBRANCH  44  46
ENDBRANCH  43  44
ENDBRANCH  42  43
ENDBRANCH  41  42
ENDBRANCH  40  41
ENDBRANCH  39  40
ENDBRANCH  38  39
ENDBRANCH   1  38
TORSDOF 28
