REMARK SMILES Cc1c(-c2nn(-c3ccccc3)cc2/C=N/O)nnn1-c1ccc(C(=O)OCCOCCOCCOCCOC(=O)c2ccc(-c3c4nc(c(-c5cccc(S(=O)(=O)[O-])c5F)c5ccc([nH]5)c(-c5cccc(S(=O)(=O)[O-])c5F)c5nc(c(-c6cccc(S(=O)(=O)[O-])c6F)c6ccc3[nH]6)C=C5)C=C4)cc2)cc1
REMARK SMILES IDX 32 1 31 2 30 3 29 4 28 5 27 6 25 7 26 8 24 9 21 10 22 11
REMARK SMILES IDX 106 12 23 13 105 14 20 15 1 16 2 17 3 18 18 19 19 20 4 21
REMARK SMILES IDX 5 22 14 23 6 24 13 25 15 26 16 27 17 28 7 30 8 31 12 32 9 33
REMARK SMILES IDX 11 34 10 35 33 36 34 37 35 38 36 39 37 40 38 41 39 42 40 43
REMARK SMILES IDX 41 44 42 45 43 46 104 47 44 48 103 49 45 50 46 51 47 52
REMARK SMILES IDX 97 53 48 54 102 55 96 56 98 57 49 58 101 59 95 60 94 61
REMARK SMILES IDX 50 63 82 64 62 65 81 66 63 67 66 68 80 69 99 70 64 71 65 72
REMARK SMILES IDX 79 74 100 75 67 76 51 77 52 78 60 79 53 80 55 81 61 82 54 83
REMARK SMILES IDX 56 84 57 85 58 86 59 87 83 88 84 89 92 90 85 91 87 92 93 93
REMARK SMILES IDX 86 94 88 95 89 96 90 97 91 98 68 99 69 100 77 101 70 102
REMARK SMILES IDX 72 103 78 104 71 105 73 106 74 107 75 108 76 109
REMARK H PARENT 17 29 98 62 66 73
REMARK Flexibility Score: inf
ROOT
ATOM      1  C   UNL     1       3.559   7.180  -0.910  1.00  0.00     0.188 C 
ENDROOT
BRANCH   1   2
ATOM      2  C   UNL     1       2.388   7.935  -0.246  1.00  0.00     0.188 C 
BRANCH   2   3
ATOM      3  O   UNL     1       2.604   8.834   0.834  1.00  0.00    -0.376 OA
BRANCH   3   4
ATOM      4  C   UNL     1       3.454   8.532   1.927  1.00  0.00     0.202 C 
BRANCH   4   5
ATOM      5  C   UNL     1       3.634   7.128   2.535  1.00  0.00     0.261 C 
BRANCH   5   6
ATOM      6  O   UNL     1       3.239   6.008   1.748  1.00  0.00    -0.460 OA
BRANCH   6   7
ATOM      7  C   UNL     1       1.949   5.634   1.873  1.00  0.00     0.338 C 
ATOM      8  O   UNL     1       1.111   6.111   2.619  1.00  0.00    -0.246 OA
BRANCH   7   9
ATOM      9  C   UNL     1       1.643   4.644   0.816  1.00  0.00     0.060 A 
ATOM     10  C   UNL     1       0.898   2.752  -1.081  1.00  0.00     0.067 A 
ATOM     11  C   UNL     1       0.112   3.894  -0.906  1.00  0.00     0.029 A 
ATOM     12  C   UNL     1       2.119   2.619  -0.403  1.00  0.00     0.029 A 
ATOM     13  C   UNL     1       0.466   4.817   0.074  1.00  0.00     0.018 A 
ATOM     14  C   UNL     1       2.504   3.579   0.535  1.00  0.00     0.018 A 
BRANCH  10  15
ATOM     15  N   UNL     1       0.385   1.692  -1.868  1.00  0.00    -0.217 N 
ATOM     16  C   UNL     1       0.933  -0.268  -0.337  1.00  0.00     0.069 C 
ATOM     17  C   UNL     1       0.416   0.337  -1.587  1.00  0.00     0.071 A 
ATOM     18  C   UNL     1      -0.255  -0.223  -2.656  1.00  0.00     0.137 A 
ATOM     19  N   UNL     1      -0.753   0.754  -3.466  1.00  0.00    -0.128 NA
ATOM     20  N   UNL     1      -0.418   1.925  -2.937  1.00  0.00    -0.061 NA
BRANCH  18  21
ATOM     21  C   UNL     1      -0.535  -1.634  -2.892  1.00  0.00     0.124 A 
ATOM     22  N   UNL     1      -1.495  -2.293  -2.227  1.00  0.00    -0.165 NA
ATOM     23  C   UNL     1       0.210  -2.477  -3.748  1.00  0.00     0.044 A 
ATOM     24  N   UNL     1      -1.290  -3.589  -2.549  1.00  0.00    -0.240 N 
ATOM     25  C   UNL     1      -0.274  -3.739  -3.462  1.00  0.00     0.125 A 
BRANCH  23  26
ATOM     26  C   UNL     1       1.252  -2.195  -4.702  1.00  0.00     0.166 C 
ATOM     27  N   UNL     1       1.713  -0.996  -4.828  1.00  0.00    -0.097 NA
BRANCH  27  28
ATOM     28  O   UNL     1       2.684  -0.993  -5.838  1.00  0.00    -0.411 OA
ATOM     29  H   UNL     1       3.125  -0.196  -6.062  1.00  0.00     0.330 HD
ENDBRANCH  27  28
ENDBRANCH  23  26
BRANCH  24  30
ATOM     30  C   UNL     1      -2.044  -4.618  -1.939  1.00  0.00     0.065 A 
ATOM     31  C   UNL     1      -3.392  -4.396  -1.633  1.00  0.00     0.028 A 
ATOM     32  C   UNL     1      -1.441  -5.844  -1.629  1.00  0.00     0.028 A 
ATOM     33  C   UNL     1      -4.145  -5.415  -1.049  1.00  0.00     0.002 A 
ATOM     34  C   UNL     1      -2.188  -6.837  -0.994  1.00  0.00     0.002 A 
ATOM     35  C   UNL     1      -3.541  -6.629  -0.717  1.00  0.00     0.000 A 
ENDBRANCH  24  30
ENDBRANCH  18  21
ENDBRANCH  10  15
ENDBRANCH   7   9
ENDBRANCH   6   7
ENDBRANCH   5   6
ENDBRANCH   4   5
ENDBRANCH   3   4
ENDBRANCH   2   3
ENDBRANCH   1   2
BRANCH   1  36
ATOM     36  O   UNL     1       4.769   7.284  -0.182  1.00  0.00    -0.377 OA
BRANCH  36  37
ATOM     37  C   UNL     1       5.646   8.334  -0.575  1.00  0.00     0.188 C 
BRANCH  37  38
ATOM     38  C   UNL     1       5.068   9.726  -0.956  1.00  0.00     0.188 C 
BRANCH  38  39
ATOM     39  O   UNL     1       3.830   9.692  -1.657  1.00  0.00    -0.376 OA
BRANCH  39  40
ATOM     40  C   UNL     1       3.696  10.064  -3.019  1.00  0.00     0.202 C 
BRANCH  40  41
ATOM     41  C   UNL     1       4.294   9.130  -4.068  1.00  0.00     0.261 C 
BRANCH  41  42
ATOM     42  O   UNL     1       5.537   8.602  -3.663  1.00  0.00    -0.460 OA
BRANCH  42  43
ATOM     43  C   UNL     1       6.524   9.506  -3.578  1.00  0.00     0.338 C 
ATOM     44  O   UNL     1       6.444  10.713  -3.777  1.00  0.00    -0.246 OA
BRANCH  43  45
ATOM     45  C   UNL     1       7.755   8.792  -3.236  1.00  0.00     0.060 A 
ATOM     46  C   UNL     1       8.892   9.592  -3.166  1.00  0.00     0.016 A 
ATOM     47  C   UNL     1       7.796   7.412  -3.500  1.00  0.00     0.016 A 
ATOM     48  C   UNL     1       9.994   9.120  -3.815  1.00  0.00     0.010 A 
ATOM     49  C   UNL     1       8.891   6.943  -4.154  1.00  0.00     0.010 A 
ATOM     50  C   UNL     1       9.888   7.869  -4.427  1.00  0.00    -0.014 A 
BRANCH  50  51
ATOM     51  C   UNL     1      10.808   7.573  -5.484  1.00  0.00     0.031 A 
ATOM     52  C   UNL     1      12.081   7.062  -4.978  1.00  0.00     0.074 A 
ATOM     53  C   UNL     1      10.450   7.716  -6.771  1.00  0.00     0.049 A 
ATOM     54  N   UNL     1      13.188   7.715  -4.900  1.00  0.00    -0.248 NA
ATOM     55  C   UNL     1      12.060   5.787  -4.251  1.00  0.00     0.031 C 
ATOM     56  C   UNL     1       9.123   7.970  -7.343  1.00  0.00     0.029 A 
ATOM     57  N   UNL     1      11.219   7.503  -7.862  1.00  0.00    -0.354 N 
ATOM     58  C   UNL     1      14.076   6.821  -4.325  1.00  0.00     0.074 A 
ATOM     59  C   UNL     1      13.281   5.786  -3.717  1.00  0.00     0.031 C 
ATOM     60  C   UNL     1       9.141   7.623  -8.651  1.00  0.00     0.029 A 
ATOM     61  C   UNL     1      10.496   7.239  -9.013  1.00  0.00     0.049 A 
ATOM     62  H   UNL     1      12.203   7.532  -7.840  1.00  0.00     0.167 HD
ATOM     63  C   UNL     1      15.393   6.842  -4.649  1.00  0.00     0.034 A 
ATOM     64  C   UNL     1      10.985   6.615 -10.113  1.00  0.00     0.034 A 
ATOM     65  C   UNL     1      15.746   8.038  -5.371  1.00  0.00     0.049 A 
ATOM     66  C   UNL     1      12.467   6.752 -10.070  1.00  0.00     0.074 A 
ATOM     67  C   UNL     1      15.702   9.389  -5.088  1.00  0.00     0.029 A 
ATOM     68  N   UNL     1      15.829   7.935  -6.741  1.00  0.00    -0.354 N 
ATOM     69  N   UNL     1      13.075   7.903 -10.172  1.00  0.00    -0.248 NA
ATOM     70  C   UNL     1      13.239   5.703  -9.415  1.00  0.00     0.031 C 
ATOM     71  C   UNL     1      15.307  10.009  -6.309  1.00  0.00     0.029 A 
ATOM     72  C   UNL     1      15.181   9.016  -7.283  1.00  0.00     0.049 A 
ATOM     73  H   UNL     1      16.274   7.214  -7.243  1.00  0.00     0.167 HD
ATOM     74  C   UNL     1      14.077   7.860  -9.207  1.00  0.00     0.074 A 
ATOM     75  C   UNL     1      14.204   6.445  -8.857  1.00  0.00     0.031 C 
ATOM     76  C   UNL     1      14.484   8.992  -8.554  1.00  0.00     0.034 A 
BRANCH  63  77
ATOM     77  C   UNL     1      16.272   5.626  -4.646  1.00  0.00     0.023 A 
ATOM     78  C   UNL     1      17.661   5.839  -4.724  1.00  0.00     0.012 A 
ATOM     79  C   UNL     1      15.805   4.302  -4.822  1.00  0.00     0.148 A 
ATOM     80  C   UNL     1      18.541   4.790  -5.000  1.00  0.00     0.002 A 
ATOM     81  C   UNL     1      16.689   3.250  -5.008  1.00  0.00     0.091 A 
ATOM     82  F   UNL     1      14.498   4.060  -4.957  1.00  0.00    -0.205 F 
ATOM     83  C   UNL     1      18.057   3.492  -5.129  1.00  0.00     0.022 A 
BRANCH  81  84
ATOM     84  S   UNL     1      16.105   1.556  -5.130  1.00  0.00     0.127 S 
ATOM     85  O   UNL     1      16.190   1.320  -6.568  1.00  0.00    -0.237 OA
ATOM     86  O   UNL     1      17.092   0.838  -4.323  1.00  0.00    -0.237 OA
ATOM     87  O   UNL     1      14.765   1.566  -4.557  1.00  0.00    -0.744 OA
ENDBRANCH  81  84
ENDBRANCH  63  77
BRANCH  64  88
ATOM     88  C   UNL     1      10.274   5.642 -10.976  1.00  0.00     0.023 A 
ATOM     89  C   UNL     1      10.754   5.354 -12.266  1.00  0.00     0.012 A 
ATOM     90  C   UNL     1       9.250   4.818 -10.450  1.00  0.00     0.148 A 
ATOM     91  C   UNL     1      10.233   4.281 -13.004  1.00  0.00     0.002 A 
ATOM     92  C   UNL     1       8.720   3.770 -11.193  1.00  0.00     0.091 A 
ATOM     93  F   UNL     1       8.859   4.997  -9.182  1.00  0.00    -0.205 F 
ATOM     94  C   UNL     1       9.216   3.491 -12.470  1.00  0.00     0.022 A 
BRANCH  92  95
ATOM     95  S   UNL     1       7.412   2.718 -10.548  1.00  0.00     0.127 S 
ATOM     96  O   UNL     1       6.493   2.643 -11.684  1.00  0.00    -0.237 OA
ATOM     97  O   UNL     1       8.132   1.482 -10.258  1.00  0.00    -0.237 OA
ATOM     98  O   UNL     1       6.870   3.421  -9.391  1.00  0.00    -0.744 OA
ENDBRANCH  92  95
ENDBRANCH  64  88
BRANCH  76  99
ATOM     99  C   UNL     1      13.926  10.318  -9.028  1.00  0.00     0.023 A 
ATOM    100  C   UNL     1      12.549  10.617  -8.940  1.00  0.00     0.012 A 
ATOM    101  C   UNL     1      14.813  11.346  -9.383  1.00  0.00     0.148 A 
ATOM    102  C   UNL     1      12.062  11.894  -9.227  1.00  0.00     0.002 A 
ATOM    103  C   UNL     1      14.331  12.630  -9.624  1.00  0.00     0.091 A 
ATOM    104  F   UNL     1      16.122  11.061  -9.445  1.00  0.00    -0.205 F 
ATOM    105  C   UNL     1      12.956  12.905  -9.559  1.00  0.00     0.022 A 
BRANCH 103 106
ATOM    106  S   UNL     1      15.437  14.011  -9.922  1.00  0.00     0.127 S 
ATOM    107  O   UNL     1      15.275  14.228 -11.358  1.00  0.00    -0.237 OA
ATOM    108  O   UNL     1      14.864  15.061  -9.077  1.00  0.00    -0.237 OA
ATOM    109  O   UNL     1      16.758  13.564  -9.499  1.00  0.00    -0.744 OA
ENDBRANCH 103 106
ENDBRANCH  76  99
ENDBRANCH  50  51
ENDBRANCH  43  45
ENDBRANCH  42  43
ENDBRANCH  41  42
ENDBRANCH  40  41
ENDBRANCH  39  40
ENDBRANCH  38  39
ENDBRANCH  37  38
ENDBRANCH  36  37
ENDBRANCH   1  36
TORSDOF 28
