REMARK SMILES N#CCCn1cc(C(=O)OCCOCCOCCOCCOC(=O)c2ccc(-c3c4nc(c(-c5cccc(S(=O)(=O)[O-])c5F)c5ccc([nH]5)c(-c5cccc(S(=O)(=O)[O-])c5F)c5nc(c(-c6cccc(S(=O)(=O)[O-])c6F)c6ccc3[nH]6)C=C5)C=C4)cc2)c(-c2cccc([N+](=O)[O-])c2)n1
REMARK SMILES IDX 16 1 15 2 14 3 13 4 12 5 11 6 10 7 8 8 9 9 7 10 5 11 6 12
REMARK SMILES IDX 98 13 88 14 4 15 3 16 2 17 1 18 89 19 90 20 97 21 91 22
REMARK SMILES IDX 93 23 92 24 94 25 95 26 96 27 17 28 18 29 19 30 20 31 21 32
REMARK SMILES IDX 22 33 23 34 24 35 25 36 26 37 87 38 27 39 86 40 28 41 29 42
REMARK SMILES IDX 30 43 80 44 31 45 85 46 79 47 81 48 32 49 84 50 78 51 77 52
REMARK SMILES IDX 33 54 65 55 45 56 64 57 46 58 49 59 63 60 82 61 47 62 48 63
REMARK SMILES IDX 62 65 83 66 50 67 34 68 35 69 43 70 36 71 38 72 44 73 37 74
REMARK SMILES IDX 39 75 40 76 41 77 42 78 66 79 67 80 75 81 68 82 70 83 76 84
REMARK SMILES IDX 69 85 71 86 72 87 73 88 74 89 51 90 52 91 60 92 53 93 55 94
REMARK SMILES IDX 61 95 54 96 56 97 57 98 58 99 59 100
REMARK H PARENT 81 53 49 64
REMARK Flexibility Score: inf
ROOT
ATOM      1  O   UNL     1      -0.527   4.148   0.605  1.00  0.00    -0.377 OA
ENDROOT
BRANCH   1   2
ATOM      2  C   UNL     1       0.719   4.792   0.457  1.00  0.00     0.188 C 
BRANCH   2   3
ATOM      3  C   UNL     1       0.798   6.091  -0.372  1.00  0.00     0.188 C 
BRANCH   3   4
ATOM      4  O   UNL     1      -0.424   6.639  -0.798  1.00  0.00    -0.376 OA
BRANCH   4   5
ATOM      5  C   UNL     1      -1.021   6.296  -2.023  1.00  0.00     0.202 C 
BRANCH   5   6
ATOM      6  C   UNL     1      -0.705   5.041  -2.853  1.00  0.00     0.261 C 
BRANCH   6   7
ATOM      7  O   UNL     1       0.400   4.220  -2.476  1.00  0.00    -0.460 OA
BRANCH   7   8
ATOM      8  C   UNL     1       1.636   4.556  -2.951  1.00  0.00     0.342 C 
ATOM      9  O   UNL     1       1.867   5.499  -3.684  1.00  0.00    -0.246 OA
BRANCH   8  10
ATOM     10  C   UNL     1       2.663   3.725  -2.341  1.00  0.00     0.106 A 
ATOM     11  N   UNL     1       3.752   2.006  -1.506  1.00  0.00    -0.270 N 
ATOM     12  C   UNL     1       2.607   2.359  -2.156  1.00  0.00     0.125 A 
ATOM     13  N   UNL     1       4.539   3.058  -1.209  1.00  0.00    -0.172 NA
ATOM     14  C   UNL     1       3.885   4.118  -1.713  1.00  0.00     0.107 A 
BRANCH  11  15
ATOM     15  C   UNL     1       4.211   0.649  -1.246  1.00  0.00     0.159 C 
BRANCH  15  16
ATOM     16  C   UNL     1       3.702   0.029   0.054  1.00  0.00     0.144 C 
BRANCH  16  17
ATOM     17  C   UNL     1       2.182   0.029   0.054  1.00  0.00     0.064 C 
ATOM     18  N   UNL     1       0.921   0.029   0.054  1.00  0.00    -0.198 NA
ENDBRANCH  16  17
ENDBRANCH  15  16
ENDBRANCH  11  15
BRANCH  14  19
ATOM     19  C   UNL     1       4.397   5.473  -1.537  1.00  0.00     0.010 A 
ATOM     20  C   UNL     1       4.092   6.209  -0.381  1.00  0.00     0.011 A 
ATOM     21  C   UNL     1       5.145   6.070  -2.552  1.00  0.00     0.096 A 
ATOM     22  C   UNL     1       4.432   7.562  -0.283  1.00  0.00     0.008 A 
ATOM     23  C   UNL     1       5.532   7.411  -2.424  1.00  0.00     0.270 A 
ATOM     24  C   UNL     1       5.149   8.171  -1.310  1.00  0.00     0.085 A 
BRANCH  23  25
ATOM     25  N   UNL     1       6.360   8.024  -3.468  1.00  0.00     0.062 N 
ATOM     26  O   UNL     1       6.580   9.242  -3.391  1.00  0.00    -0.258 OA
ATOM     27  O   UNL     1       6.809   7.287  -4.358  1.00  0.00    -0.258 OA
ENDBRANCH  23  25
ENDBRANCH  14  19
ENDBRANCH   8  10
ENDBRANCH   7   8
ENDBRANCH   6   7
ENDBRANCH   5   6
ENDBRANCH   4   5
ENDBRANCH   3   4
ENDBRANCH   2   3
ENDBRANCH   1   2
BRANCH   1  28
ATOM     28  C   UNL     1      -1.670   4.862   1.047  1.00  0.00     0.188 C 
BRANCH  28  29
ATOM     29  C   UNL     1      -1.611   6.272   1.699  1.00  0.00     0.188 C 
BRANCH  29  30
ATOM     30  O   UNL     1      -0.335   6.851   1.895  1.00  0.00    -0.376 OA
BRANCH  30  31
ATOM     31  C   UNL     1       0.389   6.877   3.108  1.00  0.00     0.202 C 
BRANCH  31  32
ATOM     32  C   UNL     1       0.527   5.644   3.987  1.00  0.00     0.261 C 
BRANCH  32  33
ATOM     33  O   UNL     1      -0.531   4.736   3.831  1.00  0.00    -0.460 OA
BRANCH  33  34
ATOM     34  C   UNL     1      -1.671   5.137   4.425  1.00  0.00     0.338 C 
ATOM     35  O   UNL     1      -1.919   6.232   4.892  1.00  0.00    -0.246 OA
BRANCH  34  36
ATOM     36  C   UNL     1      -2.546   3.970   4.503  1.00  0.00     0.060 A 
ATOM     37  C   UNL     1      -3.826   4.229   4.989  1.00  0.00     0.016 A 
ATOM     38  C   UNL     1      -1.897   2.737   4.646  1.00  0.00     0.016 A 
ATOM     39  C   UNL     1      -4.306   3.371   5.941  1.00  0.00     0.010 A 
ATOM     40  C   UNL     1      -2.338   1.926   5.644  1.00  0.00     0.010 A 
ATOM     41  C   UNL     1      -3.483   2.312   6.336  1.00  0.00    -0.014 A 
BRANCH  41  42
ATOM     42  C   UNL     1      -3.922   1.474   7.418  1.00  0.00     0.031 A 
ATOM     43  C   UNL     1      -4.925   0.511   6.916  1.00  0.00     0.074 A 
ATOM     44  C   UNL     1      -3.345   1.552   8.633  1.00  0.00     0.049 A 
ATOM     45  N   UNL     1      -6.200   0.530   7.127  1.00  0.00    -0.248 NA
ATOM     46  C   UNL     1      -4.519  -0.384   5.812  1.00  0.00     0.031 C 
ATOM     47  C   UNL     1      -2.159   2.326   9.018  1.00  0.00     0.029 A 
ATOM     48  N   UNL     1      -3.602   0.830   9.752  1.00  0.00    -0.354 N 
ATOM     49  C   UNL     1      -6.673  -0.569   6.418  1.00  0.00     0.074 A 
ATOM     50  C   UNL     1      -5.701  -0.843   5.402  1.00  0.00     0.031 C 
ATOM     51  C   UNL     1      -1.651   1.815  10.164  1.00  0.00     0.029 A 
ATOM     52  C   UNL     1      -2.528   0.757  10.636  1.00  0.00     0.049 A 
ATOM     53  H   UNL     1      -4.469   0.396   9.924  1.00  0.00     0.167 HD
ATOM     54  C   UNL     1      -7.568  -1.412   6.998  1.00  0.00     0.034 A 
ATOM     55  C   UNL     1      -2.338  -0.186  11.597  1.00  0.00     0.034 A 
ATOM     56  C   UNL     1      -8.230  -0.762   8.106  1.00  0.00     0.049 A 
ATOM     57  C   UNL     1      -3.640  -0.867  11.807  1.00  0.00     0.074 A 
ATOM     58  C   UNL     1      -8.964   0.398   8.261  1.00  0.00     0.029 A 
ATOM     59  N   UNL     1      -7.801  -1.116   9.362  1.00  0.00    -0.354 N 
ATOM     60  N   UNL     1      -4.686  -0.277  12.312  1.00  0.00    -0.248 NA
ATOM     61  C   UNL     1      -3.914  -2.049  11.005  1.00  0.00     0.031 C 
ATOM     62  C   UNL     1      -8.577   0.916   9.532  1.00  0.00     0.029 A 
ATOM     63  C   UNL     1      -7.698   0.012  10.129  1.00  0.00     0.049 A 
ATOM     64  H   UNL     1      -7.599  -2.032   9.661  1.00  0.00     0.167 HD
ATOM     65  C   UNL     1      -5.736  -0.697  11.504  1.00  0.00     0.074 A 
ATOM     66  C   UNL     1      -5.220  -1.864  10.786  1.00  0.00     0.031 C 
ATOM     67  C   UNL     1      -6.797   0.128  11.256  1.00  0.00     0.034 A 
BRANCH  54  68
ATOM     68  C   UNL     1      -7.497  -2.926   6.890  1.00  0.00     0.023 A 
ATOM     69  C   UNL     1      -8.549  -3.643   7.499  1.00  0.00     0.012 A 
ATOM     70  C   UNL     1      -6.362  -3.682   6.497  1.00  0.00     0.148 A 
ATOM     71  C   UNL     1      -8.445  -5.010   7.771  1.00  0.00     0.002 A 
ATOM     72  C   UNL     1      -6.292  -5.053   6.704  1.00  0.00     0.091 A 
ATOM     73  F   UNL     1      -5.269  -3.084   6.027  1.00  0.00    -0.205 F 
ATOM     74  C   UNL     1      -7.317  -5.718   7.373  1.00  0.00     0.022 A 
BRANCH  72  75
ATOM     75  S   UNL     1      -4.865  -6.019   6.179  1.00  0.00     0.127 S 
ATOM     76  O   UNL     1      -4.279  -6.393   7.463  1.00  0.00    -0.237 OA
ATOM     77  O   UNL     1      -5.505  -7.112   5.446  1.00  0.00    -0.237 OA
ATOM     78  O   UNL     1      -4.061  -5.132   5.348  1.00  0.00    -0.744 OA
ENDBRANCH  72  75
ENDBRANCH  54  68
BRANCH  55  79
ATOM     79  C   UNL     1      -1.075  -0.787  12.101  1.00  0.00     0.023 A 
ATOM     80  C   UNL     1      -1.078  -1.511  13.314  1.00  0.00     0.012 A 
ATOM     81  C   UNL     1       0.060  -0.904  11.269  1.00  0.00     0.148 A 
ATOM     82  C   UNL     1      -0.005  -2.341  13.668  1.00  0.00     0.002 A 
ATOM     83  C   UNL     1       1.129  -1.721  11.629  1.00  0.00     0.091 A 
ATOM     84  F   UNL     1       0.053  -0.294  10.078  1.00  0.00    -0.205 F 
ATOM     85  C   UNL     1       1.096  -2.452  12.822  1.00  0.00     0.022 A 
BRANCH  83  86
ATOM     86  S   UNL     1       2.570  -1.929  10.572  1.00  0.00     0.127 S 
ATOM     87  O   UNL     1       3.669  -1.702  11.511  1.00  0.00    -0.237 OA
ATOM     88  O   UNL     1       2.422  -3.312  10.125  1.00  0.00    -0.237 OA
ATOM     89  O   UNL     1       2.453  -0.914   9.532  1.00  0.00    -0.744 OA
ENDBRANCH  83  86
ENDBRANCH  55  79
BRANCH  67  90
ATOM     90  C   UNL     1      -6.935   1.366  12.107  1.00  0.00     0.023 A 
ATOM     91  C   UNL     1      -5.982   2.408  12.127  1.00  0.00     0.012 A 
ATOM     92  C   UNL     1      -8.133   1.532  12.818  1.00  0.00     0.148 A 
ATOM     93  C   UNL     1      -6.209   3.571  12.871  1.00  0.00     0.002 A 
ATOM     94  C   UNL     1      -8.375   2.706  13.518  1.00  0.00     0.091 A 
ATOM     95  F   UNL     1      -9.031   0.536  12.785  1.00  0.00    -0.205 F 
ATOM     96  C   UNL     1      -7.411   3.724  13.558  1.00  0.00     0.022 A 
BRANCH  94  97
ATOM     97  S   UNL     1      -9.949   2.989  14.326  1.00  0.00     0.127 S 
ATOM     98  O   UNL     1      -9.624   2.720  15.725  1.00  0.00    -0.237 OA
ATOM     99  O   UNL     1     -10.215   4.395  14.018  1.00  0.00    -0.237 OA
ATOM    100  O   UNL     1     -10.887   2.061  13.707  1.00  0.00    -0.744 OA
ENDBRANCH  94  97
ENDBRANCH  67  90
ENDBRANCH  41  42
ENDBRANCH  34  36
ENDBRANCH  33  34
ENDBRANCH  32  33
ENDBRANCH  31  32
ENDBRANCH  30  31
ENDBRANCH  29  30
ENDBRANCH  28  29
ENDBRANCH   1  28
TORSDOF 28
