REMARK SMILES Cc1ncccc1OC1(C(=O)OCCOCCOCCOCCOC(=O)c2ccc(-c3c4nc(c(-c5cccc(S(=O)(=O)[O-])c5F)c5ccc([nH]5)c(-c5cccc(S(=O)(=O)[O-])c5F)c5nc(c(-c6cccc(S(=O)(=O)[O-])c6F)c6ccc3[nH]6)C=C5)C=C4)cc2)CCN(C(=O)c2ccc(O)nn2)CC1
REMARK SMILES IDX 19 1 18 2 17 3 16 4 15 5 14 6 13 7 12 8 10 9 11 10 9 11
REMARK SMILES IDX 90 12 103 13 91 14 102 15 92 16 93 17 94 18 8 19 7 20 1 21
REMARK SMILES IDX 2 22 3 23 4 24 6 25 5 26 95 27 96 28 101 29 97 30 100 31
REMARK SMILES IDX 98 32 99 33 20 35 21 36 22 37 23 38 24 39 25 40 26 41 27 42
REMARK SMILES IDX 28 43 89 44 29 45 88 46 30 47 31 48 32 49 82 50 33 51 87 52
REMARK SMILES IDX 81 53 83 54 34 55 86 56 80 57 79 58 35 60 67 61 47 62 66 63
REMARK SMILES IDX 48 64 51 65 65 66 84 67 49 68 50 69 64 71 85 72 52 73 36 74
REMARK SMILES IDX 37 75 45 76 38 77 40 78 46 79 39 80 41 81 42 82 43 83 44 84
REMARK SMILES IDX 68 85 69 86 77 87 70 88 72 89 78 90 71 91 73 92 74 93 75 94
REMARK SMILES IDX 76 95 53 96 54 97 62 98 55 99 57 100 63 101 56 102 58 103
REMARK SMILES IDX 59 104 60 105 61 106
REMARK H PARENT 99 34 83 59 51 70
REMARK Flexibility Score: inf
ROOT
ATOM      1  C   UNL     1       4.508  -5.556   3.177  1.00  0.00     0.188 C 
ENDROOT
BRANCH   1   2
ATOM      2  O   UNL     1       3.850  -4.825   2.146  1.00  0.00    -0.377 OA
BRANCH   2   3
ATOM      3  C   UNL     1       2.457  -4.644   2.292  1.00  0.00     0.188 C 
BRANCH   3   4
ATOM      4  C   UNL     1       1.579  -5.598   1.471  1.00  0.00     0.188 C 
BRANCH   4   5
ATOM      5  O   UNL     1       2.133  -6.727   0.809  1.00  0.00    -0.376 OA
BRANCH   5   6
ATOM      6  C   UNL     1       3.382  -6.638   0.138  1.00  0.00     0.202 C 
BRANCH   6   7
ATOM      7  C   UNL     1       3.643  -5.540  -0.904  1.00  0.00     0.261 C 
BRANCH   7   8
ATOM      8  O   UNL     1       3.436  -4.179  -0.483  1.00  0.00    -0.460 OA
BRANCH   8   9
ATOM      9  C   UNL     1       2.311  -3.544  -0.925  1.00  0.00     0.350 C 
ATOM     10  O   UNL     1       1.425  -4.115  -1.556  1.00  0.00    -0.247 OA
BRANCH   9  11
ATOM     11  C   UNL     1       2.353  -1.992  -0.667  1.00  0.00     0.209 C 
ATOM     12  C   UNL     1       2.923  -1.665   0.714  1.00  0.00     0.082 C 
ATOM     13  C   UNL     1       3.276  -1.556  -1.805  1.00  0.00     0.082 C 
ATOM     14  C   UNL     1       3.784  -0.426   0.878  1.00  0.00     0.124 C 
ATOM     15  C   UNL     1       3.870  -0.185  -1.659  1.00  0.00     0.124 C 
ATOM     16  N   UNL     1       4.314   0.202  -0.318  1.00  0.00    -0.337 N 
ATOM     17  C   UNL     1       4.974   1.431  -0.107  1.00  0.00     0.274 C 
ATOM     18  O   UNL     1       5.165   1.928   0.999  1.00  0.00    -0.267 OA
BRANCH  11  19
ATOM     19  O   UNL     1       0.993  -1.596  -0.981  1.00  0.00    -0.474 OA
BRANCH  19  20
ATOM     20  C   UNL     1       0.049  -0.819  -0.391  1.00  0.00     0.142 A 
ATOM     21  C   UNL     1       1.238   1.445  -0.250  1.00  0.00     0.071 C 
ATOM     22  C   UNL     1       0.059   0.558  -0.144  1.00  0.00     0.079 A 
ATOM     23  N   UNL     1      -1.067   1.283   0.136  1.00  0.00    -0.258 NA
ATOM     24  C   UNL     1      -2.250   0.655   0.154  1.00  0.00     0.111 A 
ATOM     25  C   UNL     1      -1.214  -1.432  -0.323  1.00  0.00     0.050 A 
ATOM     26  C   UNL     1      -2.373  -0.699  -0.052  1.00  0.00     0.024 A 
ENDBRANCH  19  20
ENDBRANCH  11  19
BRANCH  17  27
ATOM     27  C   UNL     1       5.460   2.134  -1.308  1.00  0.00     0.151 A 
ATOM     28  C   UNL     1       6.748   1.879  -1.744  1.00  0.00     0.042 A 
ATOM     29  N   UNL     1       4.517   2.766  -2.058  1.00  0.00    -0.142 NA
ATOM     30  C   UNL     1       7.071   2.281  -3.030  1.00  0.00     0.072 A 
ATOM     31  N   UNL     1       4.844   3.164  -3.311  1.00  0.00    -0.112 NA
ATOM     32  C   UNL     1       6.088   2.906  -3.766  1.00  0.00     0.230 A 
BRANCH  32  33
ATOM     33  O   UNL     1       6.317   3.272  -5.053  1.00  0.00    -0.492 OA
ATOM     34  H   UNL     1       7.157   3.125  -5.440  1.00  0.00     0.295 HD
ENDBRANCH  32  33
ENDBRANCH  17  27
ENDBRANCH   9  11
ENDBRANCH   8   9
ENDBRANCH   7   8
ENDBRANCH   6   7
ENDBRANCH   5   6
ENDBRANCH   4   5
ENDBRANCH   3   4
ENDBRANCH   2   3
ENDBRANCH   1   2
BRANCH   1  35
ATOM     35  C   UNL     1       3.758  -6.761   3.782  1.00  0.00     0.188 C 
BRANCH  35  36
ATOM     36  O   UNL     1       2.432  -6.470   4.209  1.00  0.00    -0.376 OA
BRANCH  36  37
ATOM     37  C   UNL     1       2.203  -6.112   5.565  1.00  0.00     0.202 C 
BRANCH  37  38
ATOM     38  C   UNL     1       2.849  -4.825   6.111  1.00  0.00     0.261 C 
BRANCH  38  39
ATOM     39  O   UNL     1       4.281  -4.751   6.061  1.00  0.00    -0.460 OA
BRANCH  39  40
ATOM     40  C   UNL     1       4.986  -5.727   6.665  1.00  0.00     0.338 C 
ATOM     41  O   UNL     1       4.539  -6.650   7.329  1.00  0.00    -0.246 OA
BRANCH  40  42
ATOM     42  C   UNL     1       6.388  -5.623   6.212  1.00  0.00     0.060 A 
ATOM     43  C   UNL     1       6.963  -6.718   5.554  1.00  0.00     0.016 A 
ATOM     44  C   UNL     1       7.130  -4.462   6.436  1.00  0.00     0.016 A 
ATOM     45  C   UNL     1       8.299  -6.674   5.160  1.00  0.00     0.010 A 
ATOM     46  C   UNL     1       8.477  -4.428   6.063  1.00  0.00     0.010 A 
ATOM     47  C   UNL     1       9.076  -5.550   5.462  1.00  0.00    -0.014 A 
BRANCH  47  48
ATOM     48  C   UNL     1      10.552  -5.636   5.349  1.00  0.00     0.031 A 
ATOM     49  C   UNL     1      11.343  -5.930   6.595  1.00  0.00     0.074 A 
ATOM     50  C   UNL     1      11.177  -5.475   4.170  1.00  0.00     0.049 A 
ATOM     51  N   UNL     1      12.637  -6.021   6.754  1.00  0.00    -0.248 NA
ATOM     52  C   UNL     1      10.568  -6.152   7.828  1.00  0.00     0.031 C 
ATOM     53  C   UNL     1      10.519  -5.212   2.892  1.00  0.00     0.029 A 
ATOM     54  N   UNL     1      12.516  -5.487   3.865  1.00  0.00    -0.354 N 
ATOM     55  C   UNL     1      12.833  -6.273   8.106  1.00  0.00     0.074 A 
ATOM     56  C   UNL     1      11.528  -6.315   8.726  1.00  0.00     0.031 C 
ATOM     57  C   UNL     1      11.459  -5.055   1.944  1.00  0.00     0.029 A 
ATOM     58  C   UNL     1      12.783  -5.176   2.553  1.00  0.00     0.049 A 
ATOM     59  H   UNL     1      13.217  -5.698   4.524  1.00  0.00     0.167 HD
ATOM     60  C   UNL     1      13.996  -6.462   8.773  1.00  0.00     0.034 A 
ATOM     61  C   UNL     1      13.961  -4.982   1.927  1.00  0.00     0.034 A 
ATOM     62  C   UNL     1      15.292  -6.429   8.152  1.00  0.00     0.049 A 
ATOM     63  C   UNL     1      15.244  -5.157   2.701  1.00  0.00     0.074 A 
ATOM     64  C   UNL     1      16.528  -6.651   8.733  1.00  0.00     0.029 A 
ATOM     65  N   UNL     1      15.522  -6.136   6.818  1.00  0.00    -0.354 N 
ATOM     66  N   UNL     1      15.414  -5.500   3.956  1.00  0.00    -0.248 NA
ATOM     67  C   UNL     1      16.500  -4.949   1.964  1.00  0.00     0.031 C 
ATOM     68  C   UNL     1      17.509  -6.448   7.758  1.00  0.00     0.029 A 
ATOM     69  C   UNL     1      16.881  -6.152   6.558  1.00  0.00     0.049 A 
ATOM     70  H   UNL     1      14.822  -5.946   6.152  1.00  0.00     0.167 HD
ATOM     71  C   UNL     1      16.789  -5.589   4.147  1.00  0.00     0.074 A 
ATOM     72  C   UNL     1      17.407  -5.281   2.873  1.00  0.00     0.031 C 
ATOM     73  C   UNL     1      17.480  -5.891   5.274  1.00  0.00     0.034 A 
BRANCH  60  74
ATOM     74  C   UNL     1      13.918  -6.719  10.255  1.00  0.00     0.023 A 
ATOM     75  C   UNL     1      13.417  -7.946  10.734  1.00  0.00     0.012 A 
ATOM     76  C   UNL     1      14.388  -5.759  11.172  1.00  0.00     0.148 A 
ATOM     77  C   UNL     1      13.352  -8.200  12.104  1.00  0.00     0.002 A 
ATOM     78  C   UNL     1      14.367  -6.039  12.532  1.00  0.00     0.091 A 
ATOM     79  F   UNL     1      14.839  -4.589  10.697  1.00  0.00    -0.205 F 
ATOM     80  C   UNL     1      13.837  -7.252  13.001  1.00  0.00     0.022 A 
BRANCH  78  81
ATOM     81  S   UNL     1      15.043  -4.918  13.762  1.00  0.00     0.127 S 
ATOM     82  O   UNL     1      13.833  -4.483  14.460  1.00  0.00    -0.237 OA
ATOM     83  O   UNL     1      15.910  -5.804  14.538  1.00  0.00    -0.237 OA
ATOM     84  O   UNL     1      15.741  -3.878  13.020  1.00  0.00    -0.744 OA
ENDBRANCH  78  81
ENDBRANCH  60  74
BRANCH  61  85
ATOM     85  C   UNL     1      13.989  -4.616   0.481  1.00  0.00     0.023 A 
ATOM     86  C   UNL     1      14.508  -5.526  -0.460  1.00  0.00     0.012 A 
ATOM     87  C   UNL     1      13.502  -3.371   0.036  1.00  0.00     0.148 A 
ATOM     88  C   UNL     1      14.575  -5.189  -1.813  1.00  0.00     0.002 A 
ATOM     89  C   UNL     1      13.516  -3.066  -1.320  1.00  0.00     0.091 A 
ATOM     90  F   UNL     1      13.026  -2.512   0.948  1.00  0.00    -0.205 F 
ATOM     91  C   UNL     1      14.071  -3.965  -2.244  1.00  0.00     0.022 A 
BRANCH  89  92
ATOM     92  S   UNL     1      12.771  -1.571  -1.981  1.00  0.00     0.127 S 
ATOM     93  O   UNL     1      13.939  -0.844  -2.470  1.00  0.00    -0.237 OA
ATOM     94  O   UNL     1      11.896  -2.107  -3.025  1.00  0.00    -0.237 OA
ATOM     95  O   UNL     1      12.063  -0.952  -0.869  1.00  0.00    -0.744 OA
ENDBRANCH  89  92
ENDBRANCH  61  85
BRANCH  73  96
ATOM     96  C   UNL     1      18.984  -5.960   5.183  1.00  0.00     0.023 A 
ATOM     97  C   UNL     1      19.741  -4.782   5.021  1.00  0.00     0.012 A 
ATOM     98  C   UNL     1      19.651  -7.193   5.336  1.00  0.00     0.148 A 
ATOM     99  C   UNL     1      21.134  -4.836   4.976  1.00  0.00     0.002 A 
ATOM    100  C   UNL     1      21.040  -7.231   5.346  1.00  0.00     0.091 A 
ATOM    101  F   UNL     1      18.914  -8.305   5.475  1.00  0.00    -0.205 F 
ATOM    102  C   UNL     1      21.783  -6.056   5.151  1.00  0.00     0.022 A 
BRANCH 100 103
ATOM    103  S   UNL     1      21.961  -8.740   5.665  1.00  0.00     0.127 S 
ATOM    104  O   UNL     1      22.555  -9.008   4.356  1.00  0.00    -0.237 OA
ATOM    105  O   UNL     1      22.913  -8.309   6.690  1.00  0.00    -0.237 OA
ATOM    106  O   UNL     1      20.985  -9.721   6.119  1.00  0.00    -0.744 OA
ENDBRANCH 100 103
ENDBRANCH  73  96
ENDBRANCH  47  48
ENDBRANCH  40  42
ENDBRANCH  39  40
ENDBRANCH  38  39
ENDBRANCH  37  38
ENDBRANCH  36  37
ENDBRANCH  35  36
ENDBRANCH   1  35
TORSDOF 27
