REMARK SMILES C=CCc1cccc(-c2ccc([C@@H](C)C(=O)OCCOCCOCCOCCOC(=O)c3ccc(-c4c5nc(c(-c6cccc(S(=O)(=O)[O-])c6F)c6ccc([nH]6)c(-c6cccc(S(=O)(=O)[O-])c6F)c6nc(c(-c7cccc(S(=O)(=O)[O-])c7F)c7ccc4[nH]7)C=C6)C=C5)cc3)cc2)c1
REMARK SMILES IDX 22 1 21 2 20 3 19 4 18 5 17 6 15 7 16 8 13 9 14 10 12 11
REMARK SMILES IDX 9 12 10 13 96 14 11 15 95 16 8 17 4 18 5 19 97 20 6 21 7 22
REMARK SMILES IDX 3 23 2 24 1 25 23 26 24 27 25 28 26 29 27 30 28 31 29 32
REMARK SMILES IDX 30 33 31 34 32 35 33 36 94 37 34 38 93 39 35 40 36 41 37 42
REMARK SMILES IDX 87 43 38 44 92 45 86 46 88 47 39 48 91 49 85 50 84 51 40 53
REMARK SMILES IDX 72 54 52 55 71 56 53 57 56 58 70 59 89 60 54 61 55 62 69 64
REMARK SMILES IDX 90 65 57 66 41 67 42 68 50 69 43 70 45 71 51 72 44 73 46 74
REMARK SMILES IDX 47 75 48 76 49 77 73 78 74 79 82 80 75 81 77 82 83 83 76 84
REMARK SMILES IDX 78 85 79 86 80 87 81 88 58 89 59 90 67 91 60 92 62 93 68 94
REMARK SMILES IDX 61 95 63 96 64 97 65 98 66 99
REMARK H PARENT 88 52 56 63
REMARK Flexibility Score: inf
ROOT
ATOM      1  C   UNL     1      -3.420  -5.649   4.035  1.00  0.00     0.188 C 
ENDROOT
BRANCH   1   2
ATOM      2  C   UNL     1      -3.232  -7.156   4.264  1.00  0.00     0.188 C 
BRANCH   2   3
ATOM      3  O   UNL     1      -4.347  -8.026   4.406  1.00  0.00    -0.376 OA
BRANCH   3   4
ATOM      4  C   UNL     1      -5.521  -7.595   5.081  1.00  0.00     0.202 C 
BRANCH   4   5
ATOM      5  C   UNL     1      -5.451  -6.989   6.497  1.00  0.00     0.261 C 
BRANCH   5   6
ATOM      6  O   UNL     1      -4.503  -5.923   6.707  1.00  0.00    -0.463 OA
BRANCH   6   7
ATOM      7  C   UNL     1      -3.380  -6.238   7.390  1.00  0.00     0.313 C 
ATOM      8  O   UNL     1      -3.149  -7.364   7.830  1.00  0.00    -0.252 OA
BRANCH   7   9
ATOM      9  C   UNL     1      -2.386  -5.098   7.615  1.00  0.00     0.126 C 
ATOM     10  C   UNL     1      -2.423  -4.712   9.089  1.00  0.00     0.025 C 
BRANCH   9  11
ATOM     11  C   UNL     1      -2.372  -3.860   6.717  1.00  0.00    -0.034 A 
ATOM     12  C   UNL     1      -2.220  -1.555   5.011  1.00  0.00    -0.018 A 
ATOM     13  C   UNL     1      -3.393  -1.881   5.716  1.00  0.00     0.009 A 
ATOM     14  C   UNL     1      -1.125  -2.414   5.163  1.00  0.00     0.009 A 
ATOM     15  C   UNL     1      -3.470  -3.008   6.558  1.00  0.00     0.005 A 
ATOM     16  C   UNL     1      -1.194  -3.535   6.008  1.00  0.00     0.005 A 
BRANCH  12  17
ATOM     17  C   UNL     1      -2.118  -0.313   4.214  1.00  0.00    -0.018 A 
ATOM     18  C   UNL     1      -1.605   0.899   2.134  1.00  0.00    -0.044 A 
ATOM     19  C   UNL     1      -1.880   2.112   2.778  1.00  0.00     0.004 A 
ATOM     20  C   UNL     1      -1.720  -0.305   2.862  1.00  0.00     0.012 A 
ATOM     21  C   UNL     1      -2.272   2.125   4.113  1.00  0.00     0.001 A 
ATOM     22  C   UNL     1      -2.390   0.926   4.819  1.00  0.00     0.009 A 
BRANCH  18  23
ATOM     23  C   UNL     1      -1.162   0.906   0.689  1.00  0.00     0.062 C 
BRANCH  23  24
ATOM     24  C   UNL     1       0.336   0.937   0.551  1.00  0.00    -0.030 C 
ATOM     25  C   UNL     1       1.057   0.019  -0.105  1.00  0.00     0.004 C 
ENDBRANCH  23  24
ENDBRANCH  18  23
ENDBRANCH  12  17
ENDBRANCH   9  11
ENDBRANCH   7   9
ENDBRANCH   6   7
ENDBRANCH   5   6
ENDBRANCH   4   5
ENDBRANCH   3   4
ENDBRANCH   2   3
ENDBRANCH   1   2
BRANCH   1  26
ATOM     26  O   UNL     1      -4.747  -5.187   4.155  1.00  0.00    -0.377 OA
BRANCH  26  27
ATOM     27  C   UNL     1      -5.440  -4.912   2.950  1.00  0.00     0.188 C 
BRANCH  27  28
ATOM     28  C   UNL     1      -5.232  -5.902   1.791  1.00  0.00     0.188 C 
BRANCH  28  29
ATOM     29  O   UNL     1      -3.867  -6.121   1.452  1.00  0.00    -0.376 OA
BRANCH  29  30
ATOM     30  C   UNL     1      -3.288  -5.345   0.413  1.00  0.00     0.202 C 
BRANCH  30  31
ATOM     31  C   UNL     1      -3.155  -3.822   0.609  1.00  0.00     0.261 C 
BRANCH  31  32
ATOM     32  O   UNL     1      -4.362  -3.081   0.842  1.00  0.00    -0.460 OA
BRANCH  32  33
ATOM     33  C   UNL     1      -5.364  -3.183  -0.053  1.00  0.00     0.338 C 
ATOM     34  O   UNL     1      -5.338  -3.788  -1.113  1.00  0.00    -0.246 OA
BRANCH  33  35
ATOM     35  C   UNL     1      -6.584  -2.613   0.561  1.00  0.00     0.060 A 
ATOM     36  C   UNL     1      -7.713  -3.432   0.704  1.00  0.00     0.016 A 
ATOM     37  C   UNL     1      -6.616  -1.287   1.000  1.00  0.00     0.016 A 
ATOM     38  C   UNL     1      -8.891  -2.915   1.244  1.00  0.00     0.010 A 
ATOM     39  C   UNL     1      -7.806  -0.763   1.516  1.00  0.00     0.010 A 
ATOM     40  C   UNL     1      -8.959  -1.564   1.605  1.00  0.00    -0.014 A 
BRANCH  40  41
ATOM     41  C   UNL     1     -10.279  -0.944   1.879  1.00  0.00     0.031 A 
ATOM     42  C   UNL     1     -10.951  -0.178   0.770  1.00  0.00     0.074 A 
ATOM     43  C   UNL     1     -10.879  -1.062   3.077  1.00  0.00     0.049 A 
ATOM     44  N   UNL     1     -12.080   0.479   0.780  1.00  0.00    -0.248 NA
ATOM     45  C   UNL     1     -10.250  -0.150  -0.525  1.00  0.00     0.031 C 
ATOM     46  C   UNL     1     -10.344  -1.793   4.223  1.00  0.00     0.029 A 
ATOM     47  N   UNL     1     -12.065  -0.540   3.532  1.00  0.00    -0.354 N 
ATOM     48  C   UNL     1     -12.210   1.027  -0.490  1.00  0.00     0.074 A 
ATOM     49  C   UNL     1     -11.040   0.632  -1.244  1.00  0.00     0.031 C 
ATOM     50  C   UNL     1     -11.185  -1.648   5.263  1.00  0.00     0.029 A 
ATOM     51  C   UNL     1     -12.300  -0.790   4.864  1.00  0.00     0.049 A 
ATOM     52  H   UNL     1     -12.688  -0.036   2.960  1.00  0.00     0.167 HD
ATOM     53  C   UNL     1     -13.215   1.784  -0.990  1.00  0.00     0.034 A 
ATOM     54  C   UNL     1     -13.286  -0.350   5.673  1.00  0.00     0.034 A 
ATOM     55  C   UNL     1     -14.381   2.168  -0.242  1.00  0.00     0.049 A 
ATOM     56  C   UNL     1     -14.373   0.528   5.104  1.00  0.00     0.074 A 
ATOM     57  C   UNL     1     -15.476   2.897  -0.673  1.00  0.00     0.029 A 
ATOM     58  N   UNL     1     -14.596   1.875   1.095  1.00  0.00    -0.354 N 
ATOM     59  N   UNL     1     -14.537   0.949   3.873  1.00  0.00    -0.248 NA
ATOM     60  C   UNL     1     -15.428   0.966   6.031  1.00  0.00     0.031 C 
ATOM     61  C   UNL     1     -16.332   3.082   0.417  1.00  0.00     0.029 A 
ATOM     62  C   UNL     1     -15.796   2.425   1.512  1.00  0.00     0.049 A 
ATOM     63  H   UNL     1     -13.986   1.353   1.664  1.00  0.00     0.167 HD
ATOM     64  C   UNL     1     -15.731   1.664   3.869  1.00  0.00     0.074 A 
ATOM     65  C   UNL     1     -16.257   1.604   5.216  1.00  0.00     0.031 C 
ATOM     66  C   UNL     1     -16.335   2.317   2.844  1.00  0.00     0.034 A 
BRANCH  53  67
ATOM     67  C   UNL     1     -13.098   2.248  -2.418  1.00  0.00     0.023 A 
ATOM     68  C   UNL     1     -13.236   1.324  -3.474  1.00  0.00     0.012 A 
ATOM     69  C   UNL     1     -12.900   3.611  -2.714  1.00  0.00     0.148 A 
ATOM     70  C   UNL     1     -13.145   1.743  -4.800  1.00  0.00     0.002 A 
ATOM     71  C   UNL     1     -12.859   4.029  -4.038  1.00  0.00     0.091 A 
ATOM     72  F   UNL     1     -12.747   4.470  -1.696  1.00  0.00    -0.205 F 
ATOM     73  C   UNL     1     -12.968   3.095  -5.082  1.00  0.00     0.022 A 
BRANCH  71  74
ATOM     74  S   UNL     1     -12.716   5.757  -4.504  1.00  0.00     0.127 S 
ATOM     75  O   UNL     1     -11.380   5.793  -5.097  1.00  0.00    -0.237 OA
ATOM     76  O   UNL     1     -13.812   5.907  -5.462  1.00  0.00    -0.237 OA
ATOM     77  O   UNL     1     -12.872   6.521  -3.275  1.00  0.00    -0.744 OA
ENDBRANCH  71  74
ENDBRANCH  53  67
BRANCH  54  78
ATOM     78  C   UNL     1     -13.306  -0.743   7.112  1.00  0.00     0.023 A 
ATOM     79  C   UNL     1     -14.328  -1.586   7.591  1.00  0.00     0.012 A 
ATOM     80  C   UNL     1     -12.322  -0.280   8.006  1.00  0.00     0.148 A 
ATOM     81  C   UNL     1     -14.389  -1.932   8.942  1.00  0.00     0.002 A 
ATOM     82  C   UNL     1     -12.356  -0.675   9.338  1.00  0.00     0.091 A 
ATOM     83  F   UNL     1     -11.368   0.535   7.534  1.00  0.00    -0.205 F 
ATOM     84  C   UNL     1     -13.399  -1.485   9.813  1.00  0.00     0.022 A 
BRANCH  82  85
ATOM     85  S   UNL     1     -11.058  -0.249  10.505  1.00  0.00     0.127 S 
ATOM     86  O   UNL     1     -11.763   0.638  11.426  1.00  0.00    -0.237 OA
ATOM     87  O   UNL     1     -10.709  -1.560  11.054  1.00  0.00    -0.237 OA
ATOM     88  O   UNL     1     -10.004   0.372   9.714  1.00  0.00    -0.744 OA
ENDBRANCH  82  85
ENDBRANCH  54  78
BRANCH  66  89
ATOM     89  C   UNL     1     -17.663   2.979   3.114  1.00  0.00     0.023 A 
ATOM     90  C   UNL     1     -17.730   4.139   3.909  1.00  0.00     0.012 A 
ATOM     91  C   UNL     1     -18.839   2.488   2.510  1.00  0.00     0.148 A 
ATOM     92  C   UNL     1     -18.950   4.778   4.131  1.00  0.00     0.002 A 
ATOM     93  C   UNL     1     -20.041   3.160   2.690  1.00  0.00     0.091 A 
ATOM     94  F   UNL     1     -18.758   1.374   1.767  1.00  0.00    -0.205 F 
ATOM     95  C   UNL     1     -20.102   4.297   3.512  1.00  0.00     0.022 A 
BRANCH  93  96
ATOM     96  S   UNL     1     -21.554   2.674   1.853  1.00  0.00     0.127 S 
ATOM     97  O   UNL     1     -22.358   2.165   2.963  1.00  0.00    -0.237 OA
ATOM     98  O   UNL     1     -22.020   3.943   1.294  1.00  0.00    -0.237 OA
ATOM     99  O   UNL     1     -21.165   1.681   0.860  1.00  0.00    -0.744 OA
ENDBRANCH  93  96
ENDBRANCH  66  89
ENDBRANCH  40  41
ENDBRANCH  33  35
ENDBRANCH  32  33
ENDBRANCH  31  32
ENDBRANCH  30  31
ENDBRANCH  29  30
ENDBRANCH  28  29
ENDBRANCH  27  28
ENDBRANCH  26  27
ENDBRANCH   1  26
TORSDOF 27
