REMARK SMILES CC1(C)C(C(=O)Nc2ccc(CC(=O)OCCOCCOCCOCCOC(=O)c3ccc(-c4c5nc(c(-c6cccc(S(=O)(=O)[O-])c6F)c6ccc([nH]6)c(-c6cccc(S(=O)(=O)[O-])c6F)c6nc(c(-c7cccc(S(=O)(=O)[O-])c7F)c7ccc4[nH]7)C=C6)C=C5)cc3)cc2)C1(C)C
REMARK SMILES IDX 21 1 20 2 19 3 18 4 17 5 16 6 15 7 13 8 14 9 12 10 11 11
REMARK SMILES IDX 8 12 9 13 94 14 10 15 93 16 7 17 5 18 6 19 4 21 1 22 2 23
REMARK SMILES IDX 3 24 95 25 96 26 97 27 22 28 23 29 24 30 25 31 26 32 27 33
REMARK SMILES IDX 28 34 29 35 30 36 31 37 92 38 32 39 91 40 33 41 34 42 35 43
REMARK SMILES IDX 85 44 36 45 90 46 84 47 86 48 37 49 89 50 83 51 82 52 38 54
REMARK SMILES IDX 70 55 50 56 69 57 51 58 54 59 68 60 87 61 52 62 53 63 67 65
REMARK SMILES IDX 88 66 55 67 39 68 40 69 48 70 41 71 43 72 49 73 42 74 44 75
REMARK SMILES IDX 45 76 46 77 47 78 71 79 72 80 80 81 73 82 75 83 81 84 74 85
REMARK SMILES IDX 76 86 77 87 78 88 79 89 56 90 57 91 65 92 58 93 60 94 66 95
REMARK SMILES IDX 59 96 61 97 62 98 63 99 64 100
REMARK H PARENT 7 20 86 53 54 64
REMARK Flexibility Score: inf
ROOT
ATOM      1  O   UNL     1      -5.664   0.478  -6.608  1.00  0.00    -0.377 OA
ENDROOT
BRANCH   1   2
ATOM      2  C   UNL     1      -5.149  -0.693  -6.003  1.00  0.00     0.188 C 
BRANCH   2   3
ATOM      3  C   UNL     1      -6.200  -1.805  -5.806  1.00  0.00     0.188 C 
BRANCH   3   4
ATOM      4  O   UNL     1      -7.559  -1.505  -5.478  1.00  0.00    -0.376 OA
BRANCH   4   5
ATOM      5  C   UNL     1      -7.941  -0.154  -5.278  1.00  0.00     0.202 C 
BRANCH   5   6
ATOM      6  C   UNL     1      -7.483   0.479  -3.953  1.00  0.00     0.261 C 
BRANCH   6   7
ATOM      7  O   UNL     1      -6.213   0.017  -3.456  1.00  0.00    -0.463 OA
BRANCH   7   8
ATOM      8  C   UNL     1      -6.235  -1.084  -2.668  1.00  0.00     0.310 C 
ATOM      9  O   UNL     1      -7.260  -1.605  -2.235  1.00  0.00    -0.252 OA
BRANCH   8  10
ATOM     10  C   UNL     1      -4.868  -1.626  -2.307  1.00  0.00     0.158 C 
BRANCH  10  11
ATOM     11  C   UNL     1      -3.645  -1.312  -3.149  1.00  0.00    -0.037 A 
ATOM     12  C   UNL     1      -1.078  -0.953  -4.202  1.00  0.00     0.041 A 
ATOM     13  C   UNL     1      -1.799  -2.093  -4.545  1.00  0.00     0.026 A 
ATOM     14  C   UNL     1      -1.722   0.110  -3.579  1.00  0.00     0.026 A 
ATOM     15  C   UNL     1      -3.060  -2.296  -3.971  1.00  0.00     0.006 A 
ATOM     16  C   UNL     1      -3.006  -0.068  -3.051  1.00  0.00     0.006 A 
BRANCH  12  17
ATOM     17  N   UNL     1       0.303  -0.951  -4.431  1.00  0.00    -0.326 N 
ATOM     18  C   UNL     1       1.291  -0.490  -3.585  1.00  0.00     0.228 C 
ATOM     19  O   UNL     1       2.171   0.220  -4.079  1.00  0.00    -0.274 OA
ATOM     20  H   UNL     1       0.604  -1.321  -5.292  1.00  0.00     0.169 HD
BRANCH  18  21
ATOM     21  C   UNL     1       1.579  -1.058  -2.217  1.00  0.00     0.091 C 
ATOM     22  C   UNL     1       1.867  -0.271   0.237  1.00  0.00     0.012 C 
ATOM     23  C   UNL     1       0.929  -0.679  -0.886  1.00  0.00    -0.017 C 
ATOM     24  C   UNL     1      -0.349   0.107  -0.782  1.00  0.00     0.012 C 
ATOM     25  C   UNL     1       0.935  -2.154  -1.380  1.00  0.00    -0.017 C 
ATOM     26  C   UNL     1       1.865  -3.138  -0.691  1.00  0.00     0.012 C 
ATOM     27  C   UNL     1      -0.298  -2.877  -1.840  1.00  0.00     0.012 C 
ENDBRANCH  18  21
ENDBRANCH  12  17
ENDBRANCH  10  11
ENDBRANCH   8  10
ENDBRANCH   7   8
ENDBRANCH   6   7
ENDBRANCH   5   6
ENDBRANCH   4   5
ENDBRANCH   3   4
ENDBRANCH   2   3
ENDBRANCH   1   2
BRANCH   1  28
ATOM     28  C   UNL     1      -5.142   0.751  -7.890  1.00  0.00     0.188 C 
BRANCH  28  29
ATOM     29  C   UNL     1      -5.537  -0.316  -8.917  1.00  0.00     0.188 C 
BRANCH  29  30
ATOM     30  O   UNL     1      -5.104  -1.611  -8.519  1.00  0.00    -0.376 OA
BRANCH  30  31
ATOM     31  C   UNL     1      -3.966  -2.203  -9.110  1.00  0.00     0.202 C 
BRANCH  31  32
ATOM     32  C   UNL     1      -2.574  -1.555  -8.998  1.00  0.00     0.261 C 
BRANCH  32  33
ATOM     33  O   UNL     1      -2.493  -0.129  -9.011  1.00  0.00    -0.460 OA
BRANCH  33  34
ATOM     34  C   UNL     1      -2.680   0.498 -10.192  1.00  0.00     0.338 C 
ATOM     35  O   UNL     1      -2.938  -0.029 -11.262  1.00  0.00    -0.246 OA
BRANCH  34  36
ATOM     36  C   UNL     1      -2.738   1.952  -9.921  1.00  0.00     0.060 A 
ATOM     37  C   UNL     1      -3.915   2.645 -10.233  1.00  0.00     0.016 A 
ATOM     38  C   UNL     1      -1.665   2.618  -9.320  1.00  0.00     0.016 A 
ATOM     39  C   UNL     1      -4.021   4.007  -9.957  1.00  0.00     0.010 A 
ATOM     40  C   UNL     1      -1.756   3.993  -9.085  1.00  0.00     0.010 A 
ATOM     41  C   UNL     1      -2.923   4.697  -9.430  1.00  0.00    -0.014 A 
BRANCH  41  42
ATOM     42  C   UNL     1      -2.914   6.177  -9.476  1.00  0.00     0.031 A 
ATOM     43  C   UNL     1      -2.278   6.834 -10.671  1.00  0.00     0.074 A 
ATOM     44  C   UNL     1      -3.462   6.921  -8.500  1.00  0.00     0.049 A 
ATOM     45  N   UNL     1      -2.116   8.102 -10.933  1.00  0.00    -0.248 NA
ATOM     46  C   UNL     1      -1.754   5.931 -11.712  1.00  0.00     0.031 C 
ATOM     47  C   UNL     1      -4.127   6.399  -7.308  1.00  0.00     0.029 A 
ATOM     48  N   UNL     1      -3.521   8.284  -8.351  1.00  0.00    -0.354 N 
ATOM     49  C   UNL     1      -1.448   8.152 -12.150  1.00  0.00     0.074 A 
ATOM     50  C   UNL     1      -1.226   6.787 -12.572  1.00  0.00     0.031 C 
ATOM     51  C   UNL     1      -4.496   7.432  -6.529  1.00  0.00     0.029 A 
ATOM     52  C   UNL     1      -4.071   8.683  -7.155  1.00  0.00     0.049 A 
ATOM     53  H   UNL     1      -3.201   8.916  -9.035  1.00  0.00     0.167 HD
ATOM     54  C   UNL     1      -1.059   9.236 -12.859  1.00  0.00     0.034 A 
ATOM     55  C   UNL     1      -4.186   9.916  -6.621  1.00  0.00     0.034 A 
ATOM     56  C   UNL     1      -1.280  10.591 -12.436  1.00  0.00     0.049 A 
ATOM     57  C   UNL     1      -3.701  11.107  -7.410  1.00  0.00     0.074 A 
ATOM     58  C   UNL     1      -0.957  11.761 -13.098  1.00  0.00     0.029 A 
ATOM     59  N   UNL     1      -1.862  10.957 -11.233  1.00  0.00    -0.354 N 
ATOM     60  N   UNL     1      -3.170  11.146  -8.608  1.00  0.00    -0.248 NA
ATOM     61  C   UNL     1      -3.861  12.429  -6.785  1.00  0.00     0.031 C 
ATOM     62  C   UNL     1      -1.306  12.836 -12.275  1.00  0.00     0.029 A 
ATOM     63  C   UNL     1      -1.891  12.335 -11.122  1.00  0.00     0.049 A 
ATOM     64  H   UNL     1      -2.204  10.329 -10.556  1.00  0.00     0.167 HD
ATOM     65  C   UNL     1      -2.969  12.493  -8.896  1.00  0.00     0.074 A 
ATOM     66  C   UNL     1      -3.455  13.239  -7.753  1.00  0.00     0.031 C 
ATOM     67  C   UNL     1      -2.424  13.063  -9.999  1.00  0.00     0.034 A 
BRANCH  54  68
ATOM     68  C   UNL     1      -0.351   8.997 -14.166  1.00  0.00     0.023 A 
ATOM     69  C   UNL     1      -1.069   8.502 -15.274  1.00  0.00     0.012 A 
ATOM     70  C   UNL     1       1.016   9.302 -14.306  1.00  0.00     0.148 A 
ATOM     71  C   UNL     1      -0.428   8.283 -16.493  1.00  0.00     0.002 A 
ATOM     72  C   UNL     1       1.636   9.127 -15.537  1.00  0.00     0.091 A 
ATOM     73  F   UNL     1       1.685   9.745 -13.233  1.00  0.00    -0.205 F 
ATOM     74  C   UNL     1       0.920   8.607 -16.627  1.00  0.00     0.022 A 
BRANCH  72  75
ATOM     75  S   UNL     1       3.346   9.588 -15.834  1.00  0.00     0.127 S 
ATOM     76  O   UNL     1       3.971   8.282 -16.038  1.00  0.00    -0.237 OA
ATOM     77  O   UNL     1       3.236  10.407 -17.041  1.00  0.00    -0.237 OA
ATOM     78  O   UNL     1       3.782  10.308 -14.646  1.00  0.00    -0.744 OA
ENDBRANCH  72  75
ENDBRANCH  54  68
BRANCH  55  79
ATOM     79  C   UNL     1      -4.796  10.096  -5.272  1.00  0.00     0.023 A 
ATOM     80  C   UNL     1      -6.030  10.763  -5.146  1.00  0.00     0.012 A 
ATOM     81  C   UNL     1      -4.154   9.617  -4.112  1.00  0.00     0.148 A 
ATOM     82  C   UNL     1      -6.596  10.982  -3.889  1.00  0.00     0.002 A 
ATOM     83  C   UNL     1      -4.750   9.789  -2.869  1.00  0.00     0.091 A 
ATOM     84  F   UNL     1      -2.972   9.001  -4.250  1.00  0.00    -0.205 F 
ATOM     85  C   UNL     1      -5.961  10.488  -2.752  1.00  0.00     0.022 A 
BRANCH  83  86
ATOM     86  S   UNL     1      -4.069   9.082  -1.365  1.00  0.00     0.127 S 
ATOM     87  O   UNL     1      -3.669  10.277  -0.626  1.00  0.00    -0.237 OA
ATOM     88  O   UNL     1      -5.226   8.375  -0.816  1.00  0.00    -0.237 OA
ATOM     89  O   UNL     1      -2.981   8.213  -1.794  1.00  0.00    -0.744 OA
ENDBRANCH  83  86
ENDBRANCH  55  79
BRANCH  67  90
ATOM     90  C   UNL     1      -2.364  14.569 -10.058  1.00  0.00     0.023 A 
ATOM     91  C   UNL     1      -1.463  15.274  -9.236  1.00  0.00     0.012 A 
ATOM     92  C   UNL     1      -3.148  15.278 -10.990  1.00  0.00     0.148 A 
ATOM     93  C   UNL     1      -1.371  16.664  -9.315  1.00  0.00     0.002 A 
ATOM     94  C   UNL     1      -3.012  16.656 -11.101  1.00  0.00     0.091 A 
ATOM     95  F   UNL     1      -4.010  14.590 -11.754  1.00  0.00    -0.205 F 
ATOM     96  C   UNL     1      -2.135  17.352 -10.255  1.00  0.00     0.022 A 
BRANCH  94  97
ATOM     97  S   UNL     1      -3.878  17.613 -12.350  1.00  0.00     0.127 S 
ATOM     98  O   UNL     1      -4.834  18.365 -11.539  1.00  0.00    -0.237 OA
ATOM     99  O   UNL     1      -2.799  18.418 -12.925  1.00  0.00    -0.237 OA
ATOM    100  O   UNL     1      -4.465  16.645 -13.267  1.00  0.00    -0.744 OA
ENDBRANCH  94  97
ENDBRANCH  67  90
ENDBRANCH  41  42
ENDBRANCH  34  36
ENDBRANCH  33  34
ENDBRANCH  32  33
ENDBRANCH  31  32
ENDBRANCH  30  31
ENDBRANCH  29  30
ENDBRANCH  28  29
ENDBRANCH   1  28
TORSDOF 26
