REMARK SMILES COc1ccc(-c2cc(Cl)cc3c2O[C@@H](C(F)(F)F)C(C(=O)OCCOCCOCCOCCOC(=O)c2ccc(-c4c5nc(c(-c6cccc(S(=O)(=O)[O-])c6F)c6ccc([nH]6)c(-c6cccc(S(=O)(=O)[O-])c6F)c6nc(c(-c7cccc(S(=O)(=O)[O-])c7F)c7ccc4[nH]7)C=C6)C=C5)cc2)=C3)cc1C
REMARK SMILES IDX 30 1 29 2 28 3 27 4 26 5 25 6 24 7 23 8 21 9 22 10 20 11
REMARK SMILES IDX 7 12 8 13 13 14 9 15 12 16 14 17 10 18 11 19 101 20 15 21
REMARK SMILES IDX 6 22 3 23 4 24 103 25 5 26 102 27 104 28 2 29 1 30 16 31
REMARK SMILES IDX 17 32 18 33 19 34 31 35 32 36 33 37 34 38 35 39 36 40 37 41
REMARK SMILES IDX 38 42 39 43 100 44 40 45 99 46 41 47 42 48 43 49 93 50 44 51
REMARK SMILES IDX 98 52 92 53 94 54 45 55 97 56 91 57 90 58 46 60 78 61 58 62
REMARK SMILES IDX 77 63 59 64 62 65 76 66 95 67 60 68 61 69 75 71 96 72 63 73
REMARK SMILES IDX 47 74 48 75 56 76 49 77 51 78 57 79 50 80 52 81 53 82 54 83
REMARK SMILES IDX 55 84 79 85 80 86 88 87 81 88 83 89 89 90 82 91 84 92 85 93
REMARK SMILES IDX 86 94 87 95 64 96 65 97 73 98 66 99 68 100 74 101 67 102
REMARK SMILES IDX 69 103 70 104 71 105 72 106
REMARK H PARENT 94 59 62 70
REMARK Flexibility Score: inf
ROOT
ATOM      1  C   UNL     1      -3.777   8.116  -1.602  1.00  0.00     0.188 C 
ENDROOT
BRANCH   1   2
ATOM      2  O   UNL     1      -2.797   9.145  -1.704  1.00  0.00    -0.377 OA
BRANCH   2   3
ATOM      3  C   UNL     1      -1.836   9.031  -2.740  1.00  0.00     0.188 C 
BRANCH   3   4
ATOM      4  C   UNL     1      -1.109   7.713  -3.045  1.00  0.00     0.188 C 
BRANCH   4   5
ATOM      5  O   UNL     1      -0.399   6.922  -2.120  1.00  0.00    -0.376 OA
BRANCH   5   6
ATOM      6  C   UNL     1      -0.146   7.242  -0.770  1.00  0.00     0.202 C 
BRANCH   6   7
ATOM      7  C   UNL     1       1.314   7.078  -0.157  1.00  0.00     0.261 C 
BRANCH   7   8
ATOM      8  O   UNL     1       1.929   8.304   0.310  1.00  0.00    -0.460 OA
BRANCH   8   9
ATOM      9  C   UNL     1       3.122   8.689  -0.219  1.00  0.00     0.338 C 
ATOM     10  O   UNL     1       4.176   8.150  -0.124  1.00  0.00    -0.246 OA
BRANCH   9  11
ATOM     11  C   UNL     1       2.853   9.921  -1.066  1.00  0.00     0.087 C 
ATOM     12  C   UNL     1       2.066   6.588  -3.373  1.00  0.00     0.026 A 
ATOM     13  C   UNL     1       3.020   6.370  -4.386  1.00  0.00     0.033 A 
ATOM     14  C   UNL     1       2.115   8.003  -2.839  1.00  0.00     0.135 A 
ATOM     15  C   UNL     1       3.926   7.354  -4.814  1.00  0.00     0.042 A 
ATOM     16  C   UNL     1       3.230   8.854  -3.106  1.00  0.00     0.019 A 
ATOM     17  O   UNL     1       1.105   8.734  -2.118  1.00  0.00    -0.475 OA
ATOM     18  Cl  UNL     1       4.919   7.055  -6.186  1.00  0.00    -0.084 Cl
ATOM     19  C   UNL     1       4.070   8.568  -4.155  1.00  0.00     0.032 A 
ATOM     20  C   UNL     1       3.531  10.030  -2.226  1.00  0.00     0.027 C 
ATOM     21  C   UNL     1       1.395  10.015  -1.378  1.00  0.00     0.316 C 
BRANCH  12  22
ATOM     22  C   UNL     1       1.289   5.165  -3.051  1.00  0.00    -0.014 A 
ATOM     23  C   UNL     1       0.342   2.269  -2.879  1.00  0.00     0.121 A 
ATOM     24  C   UNL     1      -0.231   3.252  -3.696  1.00  0.00     0.047 A 
ATOM     25  C   UNL     1       1.472   2.675  -2.200  1.00  0.00    -0.008 A 
ATOM     26  C   UNL     1       0.250   4.622  -3.822  1.00  0.00     0.013 A 
ATOM     27  C   UNL     1       1.831   4.133  -2.225  1.00  0.00     0.016 A 
ATOM     28  C   UNL     1       2.324   1.548  -1.630  1.00  0.00     0.048 C 
BRANCH  23  29
ATOM     29  O   UNL     1      -0.240   1.023  -2.931  1.00  0.00    -0.496 OA
ATOM     30  C   UNL     1      -0.030  -0.000  -1.942  1.00  0.00     0.278 C 
ENDBRANCH  23  29
ENDBRANCH  12  22
BRANCH  21  31
ATOM     31  C   UNL     1       0.550  10.567  -0.140  1.00  0.00     0.430 C 
ATOM     32  F   UNL     1       1.099  11.768   0.243  1.00  0.00    -0.167 F 
ATOM     33  F   UNL     1      -0.723  10.874  -0.487  1.00  0.00    -0.167 F 
ATOM     34  F   UNL     1       0.483   9.853   0.994  1.00  0.00    -0.167 F 
ENDBRANCH  21  31
ENDBRANCH   9  11
ENDBRANCH   8   9
ENDBRANCH   7   8
ENDBRANCH   6   7
ENDBRANCH   5   6
ENDBRANCH   4   5
ENDBRANCH   3   4
ENDBRANCH   2   3
ENDBRANCH   1   2
BRANCH   1  35
ATOM     35  C   UNL     1      -4.598   7.867  -2.866  1.00  0.00     0.188 C 
BRANCH  35  36
ATOM     36  O   UNL     1      -3.748   7.189  -3.769  1.00  0.00    -0.376 OA
BRANCH  36  37
ATOM     37  C   UNL     1      -4.041   7.186  -5.147  1.00  0.00     0.202 C 
BRANCH  37  38
ATOM     38  C   UNL     1      -5.284   6.365  -5.439  1.00  0.00     0.261 C 
BRANCH  38  39
ATOM     39  O   UNL     1      -4.989   5.003  -5.051  1.00  0.00    -0.460 OA
BRANCH  39  40
ATOM     40  C   UNL     1      -5.668   4.564  -3.954  1.00  0.00     0.338 C 
ATOM     41  O   UNL     1      -6.884   4.607  -3.861  1.00  0.00    -0.246 OA
BRANCH  40  42
ATOM     42  C   UNL     1      -4.726   4.207  -2.837  1.00  0.00     0.060 A 
ATOM     43  C   UNL     1      -5.212   3.836  -1.580  1.00  0.00     0.016 A 
ATOM     44  C   UNL     1      -3.365   4.454  -2.948  1.00  0.00     0.016 A 
ATOM     45  C   UNL     1      -4.387   3.898  -0.427  1.00  0.00     0.010 A 
ATOM     46  C   UNL     1      -2.577   4.554  -1.796  1.00  0.00     0.010 A 
ATOM     47  C   UNL     1      -3.079   4.357  -0.506  1.00  0.00    -0.014 A 
BRANCH  47  48
ATOM     48  C   UNL     1      -2.182   4.784   0.619  1.00  0.00     0.031 A 
ATOM     49  C   UNL     1      -0.819   4.090   0.757  1.00  0.00     0.074 A 
ATOM     50  C   UNL     1      -2.382   6.034   1.137  1.00  0.00     0.049 A 
ATOM     51  N   UNL     1       0.322   4.619   1.077  1.00  0.00    -0.248 NA
ATOM     52  C   UNL     1      -0.667   2.659   0.537  1.00  0.00     0.031 C 
ATOM     53  C   UNL     1      -1.331   6.911   1.656  1.00  0.00     0.029 A 
ATOM     54  N   UNL     1      -3.481   6.885   1.210  1.00  0.00    -0.354 N 
ATOM     55  C   UNL     1       1.378   3.702   0.952  1.00  0.00     0.074 A 
ATOM     56  C   UNL     1       0.658   2.475   0.718  1.00  0.00     0.031 C 
ATOM     57  C   UNL     1      -1.781   8.151   1.903  1.00  0.00     0.029 A 
ATOM     58  C   UNL     1      -3.182   7.950   2.086  1.00  0.00     0.049 A 
ATOM     59  H   UNL     1      -4.331   6.764   0.728  1.00  0.00     0.167 HD
ATOM     60  C   UNL     1       2.698   4.120   1.143  1.00  0.00     0.034 A 
ATOM     61  C   UNL     1      -3.668   8.013   3.368  1.00  0.00     0.034 A 
ATOM     62  C   UNL     1       2.628   5.184   2.202  1.00  0.00     0.049 A 
ATOM     63  C   UNL     1      -2.584   7.592   4.427  1.00  0.00     0.074 A 
ATOM     64  C   UNL     1       3.245   6.391   2.452  1.00  0.00     0.029 A 
ATOM     65  N   UNL     1       1.673   5.059   3.239  1.00  0.00    -0.354 N 
ATOM     66  N   UNL     1      -1.417   7.053   4.125  1.00  0.00    -0.248 NA
ATOM     67  C   UNL     1      -2.638   7.851   5.862  1.00  0.00     0.031 C 
ATOM     68  C   UNL     1       2.466   7.087   3.444  1.00  0.00     0.029 A 
ATOM     69  C   UNL     1       1.470   6.243   3.934  1.00  0.00     0.049 A 
ATOM     70  H   UNL     1       1.202   4.220   3.446  1.00  0.00     0.167 HD
ATOM     71  C   UNL     1      -0.602   6.871   5.196  1.00  0.00     0.074 A 
ATOM     72  C   UNL     1      -1.427   7.412   6.274  1.00  0.00     0.031 C 
ATOM     73  C   UNL     1       0.637   6.258   5.156  1.00  0.00     0.034 A 
BRANCH  60  74
ATOM     74  C   UNL     1       4.194   3.627   0.591  1.00  0.00     0.023 A 
ATOM     75  C   UNL     1       5.268   3.776   1.487  1.00  0.00     0.012 A 
ATOM     76  C   UNL     1       4.716   3.217  -0.711  1.00  0.00     0.148 A 
ATOM     77  C   UNL     1       6.624   3.450   1.167  1.00  0.00     0.002 A 
ATOM     78  C   UNL     1       5.996   2.680  -0.967  1.00  0.00     0.091 A 
ATOM     79  F   UNL     1       4.088   3.444  -1.862  1.00  0.00    -0.205 F 
ATOM     80  C   UNL     1       6.981   2.832  -0.027  1.00  0.00     0.022 A 
BRANCH  78  81
ATOM     81  S   UNL     1       6.337   1.669  -2.459  1.00  0.00     0.127 S 
ATOM     82  O   UNL     1       6.868   2.632  -3.420  1.00  0.00    -0.237 OA
ATOM     83  O   UNL     1       7.319   0.695  -1.975  1.00  0.00    -0.237 OA
ATOM     84  O   UNL     1       5.061   1.060  -2.820  1.00  0.00    -0.744 OA
ENDBRANCH  78  81
ENDBRANCH  60  74
BRANCH  61  85
ATOM     85  C   UNL     1      -5.166   7.918   3.308  1.00  0.00     0.023 A 
ATOM     86  C   UNL     1      -5.773   8.970   2.555  1.00  0.00     0.012 A 
ATOM     87  C   UNL     1      -5.760   6.647   3.256  1.00  0.00     0.148 A 
ATOM     88  C   UNL     1      -6.723   8.693   1.565  1.00  0.00     0.002 A 
ATOM     89  C   UNL     1      -6.720   6.381   2.271  1.00  0.00     0.091 A 
ATOM     90  F   UNL     1      -5.258   5.683   4.038  1.00  0.00    -0.205 F 
ATOM     91  C   UNL     1      -7.149   7.385   1.383  1.00  0.00     0.022 A 
BRANCH  89  92
ATOM     92  S   UNL     1      -7.252   4.698   1.929  1.00  0.00     0.127 S 
ATOM     93  O   UNL     1      -8.492   4.612   2.689  1.00  0.00    -0.237 OA
ATOM     94  O   UNL     1      -7.422   4.714   0.477  1.00  0.00    -0.237 OA
ATOM     95  O   UNL     1      -6.154   3.863   2.393  1.00  0.00    -0.744 OA
ENDBRANCH  89  92
ENDBRANCH  61  85
BRANCH  73  96
ATOM     96  C   UNL     1       1.193   5.490   6.354  1.00  0.00     0.023 A 
ATOM     97  C   UNL     1       0.356   5.120   7.422  1.00  0.00     0.012 A 
ATOM     98  C   UNL     1       2.494   4.909   6.344  1.00  0.00     0.148 A 
ATOM     99  C   UNL     1       0.797   4.310   8.469  1.00  0.00     0.002 A 
ATOM    100  C   UNL     1       2.879   3.993   7.317  1.00  0.00     0.091 A 
ATOM    101  F   UNL     1       3.382   5.232   5.395  1.00  0.00    -0.205 F 
ATOM    102  C   UNL     1       2.052   3.728   8.406  1.00  0.00     0.022 A 
BRANCH 100 103
ATOM    103  S   UNL     1       4.355   2.981   7.117  1.00  0.00     0.127 S 
ATOM    104  O   UNL     1       5.335   3.716   7.913  1.00  0.00    -0.237 OA
ATOM    105  O   UNL     1       3.933   1.703   7.696  1.00  0.00    -0.237 OA
ATOM    106  O   UNL     1       4.598   2.928   5.681  1.00  0.00    -0.744 OA
ENDBRANCH 100 103
ENDBRANCH  73  96
ENDBRANCH  47  48
ENDBRANCH  40  42
ENDBRANCH  39  40
ENDBRANCH  38  39
ENDBRANCH  37  38
ENDBRANCH  36  37
ENDBRANCH  35  36
ENDBRANCH   1  35
TORSDOF 26
