REMARK SMILES O=C(OCCOCCOCCOCCOC(=O)c1ccnc(-n2cnnn2)c1)c1ccc(-c2c3nc(c(-c4cccc(S(=O)(=O)[O-])c4F)c4ccc([nH]4)c(-c4cccc(S(=O)(=O)[O-])c4F)c4nc(c(-c5cccc(S(=O)(=O)[O-])c5F)c5ccc2[nH]5)C=C4)C=C3)cc1
REMARK SMILES IDX 8 1 7 2 6 3 5 4 4 5 3 6 2 7 1 8 29 9 30 10 91 11 31 12 90 13
REMARK SMILES IDX 32 14 33 15 34 16 84 17 35 18 89 19 83 20 85 21 36 22 88 23
REMARK SMILES IDX 82 24 81 25 37 27 69 28 49 29 68 30 50 31 53 32 67 33 86 34
REMARK SMILES IDX 51 35 52 36 66 38 87 39 54 40 38 41 39 42 47 43 40 44 42 45
REMARK SMILES IDX 48 46 41 47 43 48 44 49 45 50 46 51 70 52 71 53 79 54 72 55
REMARK SMILES IDX 74 56 80 57 73 58 75 59 76 60 77 61 78 62 55 63 56 64 64 65
REMARK SMILES IDX 57 66 59 67 65 68 58 69 60 70 61 71 62 72 63 73 9 74 10 75
REMARK SMILES IDX 11 76 12 77 13 78 14 79 15 80 16 81 17 82 18 83 19 84 28 85
REMARK SMILES IDX 20 86 22 87 21 88 23 89 24 90 27 91 25 92 26 93
REMARK H PARENT 85 26 53 37
REMARK Flexibility Score: inf
ROOT
ATOM      1  C   UNL     1       2.255   2.181  -0.153  1.00  0.00     0.188 C 
ENDROOT
BRANCH   1   2
ATOM      2  C   UNL     1       3.057   1.359   0.883  1.00  0.00     0.188 C 
BRANCH   2   3
ATOM      3  O   UNL     1       4.398   0.898   0.778  1.00  0.00    -0.376 OA
BRANCH   3   4
ATOM      4  C   UNL     1       5.183   0.390  -0.281  1.00  0.00     0.202 C 
BRANCH   4   5
ATOM      5  C   UNL     1       4.693  -0.471  -1.446  1.00  0.00     0.261 C 
BRANCH   5   6
ATOM      6  O   UNL     1       3.351  -0.236  -1.828  1.00  0.00    -0.460 OA
BRANCH   6   7
ATOM      7  C   UNL     1       2.266  -0.835  -1.294  1.00  0.00     0.338 C 
ATOM      8  O   UNL     1       1.179  -0.643  -1.836  1.00  0.00    -0.246 OA
BRANCH   7   9
ATOM      9  C   UNL     1       2.302  -1.623  -0.031  1.00  0.00     0.060 A 
ATOM     10  C   UNL     1       3.444  -2.130   0.605  1.00  0.00     0.016 A 
ATOM     11  C   UNL     1       1.042  -1.866   0.545  1.00  0.00     0.016 A 
ATOM     12  C   UNL     1       3.335  -3.070   1.589  1.00  0.00     0.010 A 
ATOM     13  C   UNL     1       0.919  -2.769   1.574  1.00  0.00     0.010 A 
ATOM     14  C   UNL     1       2.063  -3.454   1.959  1.00  0.00    -0.014 A 
BRANCH  14  15
ATOM     15  C   UNL     1       1.982  -4.721   2.635  1.00  0.00     0.031 A 
ATOM     16  C   UNL     1       2.526  -4.697   4.015  1.00  0.00     0.074 A 
ATOM     17  C   UNL     1       1.440  -5.731   1.926  1.00  0.00     0.049 A 
ATOM     18  N   UNL     1       3.429  -5.459   4.540  1.00  0.00    -0.248 NA
ATOM     19  C   UNL     1       2.146  -3.551   4.862  1.00  0.00     0.031 C 
ATOM     20  C   UNL     1       0.768  -5.657   0.616  1.00  0.00     0.029 A 
ATOM     21  N   UNL     1       1.188  -7.002   2.311  1.00  0.00    -0.354 N 
ATOM     22  C   UNL     1       3.527  -5.040   5.867  1.00  0.00     0.074 A 
ATOM     23  C   UNL     1       2.891  -3.755   5.946  1.00  0.00     0.031 C 
ATOM     24  C   UNL     1      -0.093  -6.689   0.509  1.00  0.00     0.029 A 
ATOM     25  C   UNL     1       0.078  -7.541   1.668  1.00  0.00     0.049 A 
ATOM     26  H   UNL     1       1.729  -7.491   2.972  1.00  0.00     0.167 HD
ATOM     27  C   UNL     1       3.835  -5.917   6.859  1.00  0.00     0.034 A 
ATOM     28  C   UNL     1      -0.736  -8.500   2.171  1.00  0.00     0.034 A 
ATOM     29  C   UNL     1       4.553  -7.056   6.356  1.00  0.00     0.049 A 
ATOM     30  C   UNL     1       0.008  -9.159   3.276  1.00  0.00     0.074 A 
ATOM     31  C   UNL     1       5.760  -7.227   5.709  1.00  0.00     0.029 A 
ATOM     32  N   UNL     1       3.836  -8.207   6.137  1.00  0.00    -0.354 N 
ATOM     33  N   UNL     1       1.118  -9.823   3.093  1.00  0.00    -0.248 NA
ATOM     34  C   UNL     1      -0.196  -8.646   4.624  1.00  0.00     0.031 C 
ATOM     35  C   UNL     1       5.514  -8.247   4.745  1.00  0.00     0.029 A 
ATOM     36  C   UNL     1       4.197  -8.684   4.903  1.00  0.00     0.049 A 
ATOM     37  H   UNL     1       3.184  -8.614   6.752  1.00  0.00     0.167 HD
ATOM     38  C   UNL     1       1.938  -9.442   4.151  1.00  0.00     0.074 A 
ATOM     39  C   UNL     1       1.042  -8.789   5.108  1.00  0.00     0.031 C 
ATOM     40  C   UNL     1       3.299  -9.401   4.022  1.00  0.00     0.034 A 
BRANCH  27  41
ATOM     41  C   UNL     1       3.123  -5.936   8.191  1.00  0.00     0.023 A 
ATOM     42  C   UNL     1       3.626  -6.799   9.186  1.00  0.00     0.012 A 
ATOM     43  C   UNL     1       1.836  -5.385   8.411  1.00  0.00     0.148 A 
ATOM     44  C   UNL     1       2.865  -7.140  10.310  1.00  0.00     0.002 A 
ATOM     45  C   UNL     1       1.115  -5.668   9.563  1.00  0.00     0.091 A 
ATOM     46  F   UNL     1       1.226  -4.689   7.448  1.00  0.00    -0.205 F 
ATOM     47  C   UNL     1       1.611  -6.572  10.502  1.00  0.00     0.022 A 
BRANCH  45  48
ATOM     48  S   UNL     1      -0.495  -4.928   9.863  1.00  0.00     0.127 S 
ATOM     49  O   UNL     1      -1.387  -6.044   9.566  1.00  0.00    -0.237 OA
ATOM     50  O   UNL     1      -0.400  -4.566  11.277  1.00  0.00    -0.237 OA
ATOM     51  O   UNL     1      -0.571  -3.784   8.962  1.00  0.00    -0.744 OA
ENDBRANCH  45  48
ENDBRANCH  27  41
BRANCH  28  52
ATOM     52  C   UNL     1      -2.212  -8.557   2.029  1.00  0.00     0.023 A 
ATOM     53  C   UNL     1      -2.886  -9.780   2.196  1.00  0.00     0.012 A 
ATOM     54  C   UNL     1      -2.991  -7.376   1.940  1.00  0.00     0.148 A 
ATOM     55  C   UNL     1      -4.285  -9.825   2.271  1.00  0.00     0.002 A 
ATOM     56  C   UNL     1      -4.381  -7.429   1.989  1.00  0.00     0.091 A 
ATOM     57  F   UNL     1      -2.370  -6.190   1.895  1.00  0.00    -0.205 F 
ATOM     58  C   UNL     1      -5.032  -8.653   2.165  1.00  0.00     0.022 A 
BRANCH  56  59
ATOM     59  S   UNL     1      -5.403  -5.954   1.851  1.00  0.00     0.127 S 
ATOM     60  O   UNL     1      -6.385  -6.360   0.844  1.00  0.00    -0.237 OA
ATOM     61  O   UNL     1      -5.933  -5.824   3.205  1.00  0.00    -0.237 OA
ATOM     62  O   UNL     1      -4.508  -4.888   1.415  1.00  0.00    -0.744 OA
ENDBRANCH  56  59
ENDBRANCH  28  52
BRANCH  40  63
ATOM     63  C   UNL     1       3.909  -9.910   2.734  1.00  0.00     0.023 A 
ATOM     64  C   UNL     1       3.731  -9.240   1.503  1.00  0.00     0.012 A 
ATOM     65  C   UNL     1       4.848 -10.949   2.802  1.00  0.00     0.148 A 
ATOM     66  C   UNL     1       4.450  -9.613   0.363  1.00  0.00     0.002 A 
ATOM     67  C   UNL     1       5.595 -11.288   1.679  1.00  0.00     0.091 A 
ATOM     68  F   UNL     1       5.028 -11.560   3.982  1.00  0.00    -0.205 F 
ATOM     69  C   UNL     1       5.392 -10.631   0.454  1.00  0.00     0.022 A 
BRANCH  67  70
ATOM     70  S   UNL     1       6.923 -12.491   1.759  1.00  0.00     0.127 S 
ATOM     71  O   UNL     1       6.357 -13.619   1.024  1.00  0.00    -0.237 OA
ATOM     72  O   UNL     1       8.014 -11.797   1.072  1.00  0.00    -0.237 OA
ATOM     73  O   UNL     1       7.167 -12.726   3.177  1.00  0.00    -0.744 OA
ENDBRANCH  67  70
ENDBRANCH  40  63
ENDBRANCH  14  15
ENDBRANCH   7   9
ENDBRANCH   6   7
ENDBRANCH   5   6
ENDBRANCH   4   5
ENDBRANCH   3   4
ENDBRANCH   2   3
ENDBRANCH   1   2
BRANCH   1  74
ATOM     74  O   UNL     1       2.793   3.400  -0.639  1.00  0.00    -0.377 OA
BRANCH  74  75
ATOM     75  C   UNL     1       4.111   3.280  -1.114  1.00  0.00     0.188 C 
BRANCH  75  76
ATOM     76  C   UNL     1       5.153   3.721  -0.069  1.00  0.00     0.188 C 
BRANCH  76  77
ATOM     77  O   UNL     1       4.761   3.943   1.268  1.00  0.00    -0.376 OA
BRANCH  77  78
ATOM     78  C   UNL     1       3.689   4.818   1.578  1.00  0.00     0.202 C 
BRANCH  78  79
ATOM     79  C   UNL     1       3.264   6.030   0.717  1.00  0.00     0.261 C 
BRANCH  79  80
ATOM     80  O   UNL     1       3.664   6.086  -0.660  1.00  0.00    -0.460 OA
BRANCH  80  81
ATOM     81  C   UNL     1       4.817   6.727  -0.946  1.00  0.00     0.338 C 
ATOM     82  O   UNL     1       5.582   7.275  -0.167  1.00  0.00    -0.246 OA
BRANCH  81  83
ATOM     83  C   UNL     1       5.122   6.494  -2.374  1.00  0.00     0.065 A 
ATOM     84  C   UNL     1       4.316   7.067  -3.349  1.00  0.00     0.036 A 
ATOM     85  C   UNL     1       6.191   5.664  -2.738  1.00  0.00     0.065 A 
ATOM     86  C   UNL     1       4.653   6.833  -4.669  1.00  0.00     0.114 A 
ATOM     87  C   UNL     1       6.416   5.450  -4.090  1.00  0.00     0.157 A 
ATOM     88  N   UNL     1       5.690   6.057  -5.060  1.00  0.00    -0.237 NA
BRANCH  87  89
ATOM     89  N   UNL     1       7.393   4.510  -4.477  1.00  0.00    -0.182 N 
ATOM     90  C   UNL     1       7.462   3.182  -4.150  1.00  0.00     0.254 A 
ATOM     91  N   UNL     1       8.429   4.809  -5.287  1.00  0.00    -0.039 NA
ATOM     92  N   UNL     1       8.555   2.671  -4.668  1.00  0.00    -0.117 NA
ATOM     93  N   UNL     1       9.155   3.699  -5.355  1.00  0.00    -0.024 NA
ENDBRANCH  87  89
ENDBRANCH  81  83
ENDBRANCH  80  81
ENDBRANCH  79  80
ENDBRANCH  78  79
ENDBRANCH  77  78
ENDBRANCH  76  77
ENDBRANCH  75  76
ENDBRANCH  74  75
ENDBRANCH   1  74
TORSDOF 24
