REMARK SMILES O=C(OCCOCCOCCOCCOC(=O)[C@@H]1CC[C@@H](CNC(=O)c2cc(Cl)ccc2Cl)O1)c1ccc(-c2c3nc(c(-c4cccc(S(=O)(=O)[O-])c4F)c4ccc([nH]4)c(-c4cccc(S(=O)(=O)[O-])c4F)c4nc(c(-c5cccc(S(=O)(=O)[O-])c5F)c5ccc2[nH]5)C=C4)C=C3)cc1
REMARK SMILES IDX 9 1 8 2 7 3 6 4 5 5 4 6 3 7 2 8 1 9 35 10 36 11 97 12 37 13
REMARK SMILES IDX 96 14 38 15 39 16 40 17 90 18 41 19 95 20 89 21 91 22 42 23
REMARK SMILES IDX 94 24 88 25 87 26 43 28 75 29 55 30 74 31 56 32 59 33 73 34
REMARK SMILES IDX 92 35 57 36 58 37 72 39 93 40 60 41 44 42 45 43 53 44 46 45
REMARK SMILES IDX 48 46 54 47 47 48 49 49 50 50 51 51 52 52 76 53 77 54 85 55
REMARK SMILES IDX 78 56 80 57 86 58 79 59 81 60 82 61 83 62 84 63 61 64 62 65
REMARK SMILES IDX 70 66 63 67 65 68 71 69 64 70 66 71 67 72 68 73 69 74 10 75
REMARK SMILES IDX 11 76 12 77 13 78 14 79 15 80 16 81 17 82 18 83 19 84 34 85
REMARK SMILES IDX 20 86 21 87 22 88 23 89 24 90 25 92 26 93 27 94 32 95 28 96
REMARK SMILES IDX 31 97 33 98 29 99 30 100
REMARK H PARENT 91 27 59 38 23 91
REMARK Flexibility Score: inf
ROOT
ATOM      1  O   UNL     1       2.256  -2.021   3.165  1.00  0.00    -0.377 OA
ENDROOT
BRANCH   1   2
ATOM      2  C   UNL     1       1.586  -1.686   1.944  1.00  0.00     0.188 C 
BRANCH   2   3
ATOM      3  C   UNL     1       2.045  -0.354   1.334  1.00  0.00     0.188 C 
BRANCH   3   4
ATOM      4  O   UNL     1       3.349  -0.537   0.788  1.00  0.00    -0.376 OA
BRANCH   4   5
ATOM      5  C   UNL     1       4.257   0.550   0.703  1.00  0.00     0.202 C 
BRANCH   5   6
ATOM      6  C   UNL     1       3.829   1.757  -0.124  1.00  0.00     0.261 C 
BRANCH   6   7
ATOM      7  O   UNL     1       2.437   1.776  -0.472  1.00  0.00    -0.460 OA
BRANCH   7   8
ATOM      8  C   UNL     1       1.871   1.271  -1.599  1.00  0.00     0.338 C 
ATOM      9  O   UNL     1       0.704   1.546  -1.861  1.00  0.00    -0.246 OA
BRANCH   8  10
ATOM     10  C   UNL     1       2.634   0.414  -2.540  1.00  0.00     0.060 A 
ATOM     11  C   UNL     1       3.467  -0.622  -2.130  1.00  0.00     0.016 A 
ATOM     12  C   UNL     1       2.416   0.574  -3.909  1.00  0.00     0.016 A 
ATOM     13  C   UNL     1       4.232  -1.350  -3.016  1.00  0.00     0.010 A 
ATOM     14  C   UNL     1       3.079  -0.251  -4.823  1.00  0.00     0.010 A 
ATOM     15  C   UNL     1       4.025  -1.187  -4.374  1.00  0.00    -0.014 A 
BRANCH  15  16
ATOM     16  C   UNL     1       4.882  -1.942  -5.301  1.00  0.00     0.031 A 
ATOM     17  C   UNL     1       5.800  -1.156  -6.178  1.00  0.00     0.074 A 
ATOM     18  C   UNL     1       4.880  -3.288  -5.289  1.00  0.00     0.049 A 
ATOM     19  N   UNL     1       6.476  -1.544  -7.220  1.00  0.00    -0.248 NA
ATOM     20  C   UNL     1       5.971   0.271  -5.843  1.00  0.00     0.031 C 
ATOM     21  C   UNL     1       4.110  -4.130  -4.366  1.00  0.00     0.029 A 
ATOM     22  N   UNL     1       5.549  -4.189  -6.073  1.00  0.00    -0.354 N 
ATOM     23  C   UNL     1       7.052  -0.392  -7.733  1.00  0.00     0.074 A 
ATOM     24  C   UNL     1       6.701   0.702  -6.859  1.00  0.00     0.031 C 
ATOM     25  C   UNL     1       4.357  -5.422  -4.633  1.00  0.00     0.029 A 
ATOM     26  C   UNL     1       5.205  -5.497  -5.813  1.00  0.00     0.049 A 
ATOM     27  H   UNL     1       6.210  -3.929  -6.755  1.00  0.00     0.167 HD
ATOM     28  C   UNL     1       7.785  -0.272  -8.861  1.00  0.00     0.034 A 
ATOM     29  C   UNL     1       5.483  -6.616  -6.508  1.00  0.00     0.034 A 
ATOM     30  C   UNL     1       8.149  -1.402  -9.665  1.00  0.00     0.049 A 
ATOM     31  C   UNL     1       6.286  -6.454  -7.770  1.00  0.00     0.074 A 
ATOM     32  C   UNL     1       8.879  -1.433 -10.835  1.00  0.00     0.029 A 
ATOM     33  N   UNL     1       7.802  -2.713  -9.363  1.00  0.00    -0.354 N 
ATOM     34  N   UNL     1       6.823  -5.364  -8.268  1.00  0.00    -0.248 NA
ATOM     35  C   UNL     1       6.511  -7.660  -8.574  1.00  0.00     0.031 C 
ATOM     36  C   UNL     1       8.954  -2.766 -11.253  1.00  0.00     0.029 A 
ATOM     37  C   UNL     1       8.290  -3.565 -10.332  1.00  0.00     0.049 A 
ATOM     38  H   UNL     1       7.284  -2.993  -8.574  1.00  0.00     0.167 HD
ATOM     39  C   UNL     1       7.454  -5.749  -9.442  1.00  0.00     0.074 A 
ATOM     40  C   UNL     1       7.262  -7.184  -9.559  1.00  0.00     0.031 C 
ATOM     41  C   UNL     1       8.106  -4.995 -10.360  1.00  0.00     0.034 A 
BRANCH  28  42
ATOM     42  C   UNL     1       8.161   1.115  -9.294  1.00  0.00     0.023 A 
ATOM     43  C   UNL     1       9.177   1.824  -8.625  1.00  0.00     0.012 A 
ATOM     44  C   UNL     1       7.468   1.731 -10.355  1.00  0.00     0.148 A 
ATOM     45  C   UNL     1       9.476   3.139  -8.985  1.00  0.00     0.002 A 
ATOM     46  C   UNL     1       7.795   3.027 -10.732  1.00  0.00     0.091 A 
ATOM     47  F   UNL     1       6.481   1.049 -10.953  1.00  0.00    -0.205 F 
ATOM     48  C   UNL     1       8.791   3.737 -10.041  1.00  0.00     0.022 A 
BRANCH  46  49
ATOM     49  S   UNL     1       7.000   3.869 -12.104  1.00  0.00     0.127 S 
ATOM     50  O   UNL     1       6.285   4.943 -11.415  1.00  0.00    -0.237 OA
ATOM     51  O   UNL     1       8.148   4.310 -12.895  1.00  0.00    -0.237 OA
ATOM     52  O   UNL     1       6.154   2.877 -12.752  1.00  0.00    -0.744 OA
ENDBRANCH  46  49
ENDBRANCH  28  42
BRANCH  29  53
ATOM     53  C   UNL     1       4.957  -7.941  -6.064  1.00  0.00     0.023 A 
ATOM     54  C   UNL     1       5.854  -8.951  -5.669  1.00  0.00     0.012 A 
ATOM     55  C   UNL     1       3.572  -8.201  -5.998  1.00  0.00     0.148 A 
ATOM     56  C   UNL     1       5.385 -10.196  -5.241  1.00  0.00     0.002 A 
ATOM     57  C   UNL     1       3.110  -9.419  -5.511  1.00  0.00     0.091 A 
ATOM     58  F   UNL     1       2.723  -7.247  -6.407  1.00  0.00    -0.205 F 
ATOM     59  C   UNL     1       4.015 -10.426  -5.148  1.00  0.00     0.022 A 
BRANCH  57  60
ATOM     60  S   UNL     1       1.361  -9.725  -5.224  1.00  0.00     0.127 S 
ATOM     61  O   UNL     1       0.995 -10.507  -6.401  1.00  0.00    -0.237 OA
ATOM     62  O   UNL     1       1.379 -10.475  -3.967  1.00  0.00    -0.237 OA
ATOM     63  O   UNL     1       0.756  -8.403  -5.116  1.00  0.00    -0.744 OA
ENDBRANCH  57  60
ENDBRANCH  29  53
BRANCH  41  64
ATOM     64  C   UNL     1       8.671  -5.711 -11.551  1.00  0.00     0.023 A 
ATOM     65  C   UNL     1       7.812  -6.101 -12.595  1.00  0.00     0.012 A 
ATOM     66  C   UNL     1      10.061  -5.880 -11.682  1.00  0.00     0.148 A 
ATOM     67  C   UNL     1       8.333  -6.664 -13.757  1.00  0.00     0.002 A 
ATOM     68  C   UNL     1      10.576  -6.393 -12.863  1.00  0.00     0.091 A 
ATOM     69  F   UNL     1      10.849  -5.516 -10.660  1.00  0.00    -0.205 F 
ATOM     70  C   UNL     1       9.713  -6.794 -13.898  1.00  0.00     0.022 A 
BRANCH  68  71
ATOM     71  S   UNL     1      12.341  -6.487 -13.172  1.00  0.00     0.127 S 
ATOM     72  O   UNL     1      12.581  -7.926 -13.087  1.00  0.00    -0.237 OA
ATOM     73  O   UNL     1      12.450  -5.926 -14.519  1.00  0.00    -0.237 OA
ATOM     74  O   UNL     1      12.974  -5.686 -12.133  1.00  0.00    -0.744 OA
ENDBRANCH  68  71
ENDBRANCH  41  64
ENDBRANCH  15  16
ENDBRANCH   8  10
ENDBRANCH   7   8
ENDBRANCH   6   7
ENDBRANCH   5   6
ENDBRANCH   4   5
ENDBRANCH   3   4
ENDBRANCH   2   3
ENDBRANCH   1   2
BRANCH   1  75
ATOM     75  C   UNL     1       3.657  -1.778   3.148  1.00  0.00     0.188 C 
BRANCH  75  76
ATOM     76  C   UNL     1       4.534  -2.743   2.311  1.00  0.00     0.188 C 
BRANCH  76  77
ATOM     77  O   UNL     1       3.778  -3.464   1.354  1.00  0.00    -0.376 OA
BRANCH  77  78
ATOM     78  C   UNL     1       3.719  -4.879   1.501  1.00  0.00     0.202 C 
BRANCH  78  79
ATOM     79  C   UNL     1       3.156  -5.465   2.810  1.00  0.00     0.261 C 
BRANCH  79  80
ATOM     80  O   UNL     1       3.681  -4.920   4.041  1.00  0.00    -0.461 OA
BRANCH  80  81
ATOM     81  C   UNL     1       4.790  -5.483   4.613  1.00  0.00     0.335 C 
ATOM     82  O   UNL     1       5.404  -6.418   4.162  1.00  0.00    -0.249 OA
BRANCH  81  83
ATOM     83  C   UNL     1       5.130  -4.737   5.950  1.00  0.00     0.228 C 
ATOM     84  C   UNL     1       4.740  -3.279   5.876  1.00  0.00     0.047 C 
ATOM     85  O   UNL     1       6.526  -4.719   6.318  1.00  0.00    -0.361 OA
ATOM     86  C   UNL     1       5.777  -2.508   6.622  1.00  0.00     0.037 C 
ATOM     87  C   UNL     1       6.989  -3.350   6.283  1.00  0.00     0.138 C 
BRANCH  87  88
ATOM     88  C   UNL     1       8.190  -3.083   7.191  1.00  0.00     0.148 C 
BRANCH  88  89
ATOM     89  N   UNL     1       7.833  -2.909   8.596  1.00  0.00    -0.349 N 
ATOM     90  C   UNL     1       7.357  -3.840   9.488  1.00  0.00     0.252 C 
ATOM     91  H   UNL     1       7.949  -2.000   8.954  1.00  0.00     0.163 HD
ATOM     92  O   UNL     1       6.885  -3.475  10.558  1.00  0.00    -0.269 OA
BRANCH  90  93
ATOM     93  C   UNL     1       7.463  -5.275   9.165  1.00  0.00     0.059 A 
ATOM     94  C   UNL     1       8.735  -5.781   8.866  1.00  0.00     0.036 A 
ATOM     95  C   UNL     1       6.352  -6.128   9.181  1.00  0.00     0.053 A 
ATOM     96  C   UNL     1       8.883  -7.117   8.514  1.00  0.00     0.041 A 
ATOM     97  C   UNL     1       6.514  -7.472   8.825  1.00  0.00     0.023 A 
ATOM     98  Cl  UNL     1       4.760  -5.594   9.586  1.00  0.00    -0.083 Cl
ATOM     99  Cl  UNL     1      10.443  -7.719   8.117  1.00  0.00    -0.084 Cl
ATOM    100  C   UNL     1       7.778  -7.964   8.484  1.00  0.00     0.022 A 
ENDBRANCH  90  93
ENDBRANCH  88  89
ENDBRANCH  87  88
ENDBRANCH  81  83
ENDBRANCH  80  81
ENDBRANCH  79  80
ENDBRANCH  78  79
ENDBRANCH  77  78
ENDBRANCH  76  77
ENDBRANCH  75  76
ENDBRANCH   1  75
TORSDOF 26
