REMARK SMILES C[C@H]1N=N[C@H](S/C(=C/c2ccc(-c3cccc(Cl)c3)o2)C(=O)OCCOCCOCCOCCOC(=O)c2ccc(-c3c4nc(c(-c5cccc(S(=O)(=O)[O-])c5F)c5ccc([nH]5)c(-c5cccc(S(=O)(=O)[O-])c5F)c5nc(c(-c6cccc(S(=O)(=O)[O-])c6F)c6ccc3[nH]6)C=C5)C=C4)cc2)[NH2+]1
REMARK SMILES IDX 30 1 29 2 28 3 27 4 26 5 25 6 24 7 23 8 21 9 22 10 7 11 8 12
REMARK SMILES IDX 6 13 5 14 1 15 2 16 3 17 101 18 4 19 9 22 10 23 20 24 11 25
REMARK SMILES IDX 12 26 13 27 14 28 19 29 15 30 17 31 16 32 18 33 31 34 32 35
REMARK SMILES IDX 33 36 34 37 35 38 36 39 37 40 38 41 39 42 100 43 40 44 99 45
REMARK SMILES IDX 41 46 42 47 43 48 93 49 44 50 98 51 92 52 94 53 45 54 97 55
REMARK SMILES IDX 91 56 90 57 46 59 78 60 58 61 77 62 59 63 62 64 76 65 95 66
REMARK SMILES IDX 60 67 61 68 75 70 96 71 63 72 47 73 48 74 56 75 49 76 51 77
REMARK SMILES IDX 57 78 50 79 52 80 53 81 54 82 55 83 79 84 80 85 88 86 81 87
REMARK SMILES IDX 83 88 89 89 82 90 84 91 85 92 86 93 87 94 64 95 65 96 73 97
REMARK SMILES IDX 66 98 68 99 74 100 67 101 69 102 70 103 71 104 72 105
REMARK H PARENT 101 20 101 21 94 58 62 69
REMARK Flexibility Score: inf
ROOT
ATOM      1  C   UNL     1      -5.693  -5.694  -1.770  1.00  0.00     0.188 C 
ENDROOT
BRANCH   1   2
ATOM      2  O   UNL     1      -4.317  -5.349  -1.691  1.00  0.00    -0.377 OA
BRANCH   2   3
ATOM      3  C   UNL     1      -3.837  -4.184  -2.328  1.00  0.00     0.188 C 
BRANCH   3   4
ATOM      4  C   UNL     1      -3.895  -4.110  -3.871  1.00  0.00     0.188 C 
BRANCH   4   5
ATOM      5  O   UNL     1      -4.835  -4.927  -4.543  1.00  0.00    -0.376 OA
BRANCH   5   6
ATOM      6  C   UNL     1      -4.571  -6.281  -4.869  1.00  0.00     0.202 C 
BRANCH   6   7
ATOM      7  C   UNL     1      -3.305  -7.059  -4.480  1.00  0.00     0.261 C 
BRANCH   7   8
ATOM      8  O   UNL     1      -2.456  -6.403  -3.551  1.00  0.00    -0.459 OA
BRANCH   8   9
ATOM      9  C   UNL     1      -1.202  -6.072  -3.943  1.00  0.00     0.345 C 
ATOM     10  O   UNL     1      -0.711  -6.275  -5.043  1.00  0.00    -0.246 OA
BRANCH   9  11
ATOM     11  C   UNL     1      -0.549  -5.282  -2.844  1.00  0.00     0.104 C 
ATOM     12  C   UNL     1      -0.505  -5.731  -1.572  1.00  0.00     0.070 C 
BRANCH  11  13
ATOM     13  S   UNL     1      -0.120  -3.677  -3.391  1.00  0.00    -0.028 SA
BRANCH  13  14
ATOM     14  C   UNL     1       1.073  -2.990  -2.215  1.00  0.00     0.393 C 
ATOM     15  C   UNL     1       0.823  -0.218  -0.052  1.00  0.00     0.106 C 
ATOM     16  C   UNL     1       0.465  -1.023  -1.297  1.00  0.00     0.324 C 
ATOM     17  N   UNL     1       1.507  -0.787  -2.307  1.00  0.00    -0.126 NA
ATOM     18  N   UNL     1       0.407  -2.461  -1.024  1.00  0.00    -0.293 N 
ATOM     19  N   UNL     1       1.881  -1.885  -2.785  1.00  0.00    -0.115 NA
ATOM     20  H   UNL     1      -0.555  -2.791  -0.953  1.00  0.00     0.350 HD
ATOM     21  H   UNL     1       0.833  -2.741  -0.140  1.00  0.00     0.350 HD
ENDBRANCH  13  14
ENDBRANCH  11  13
BRANCH  12  22
ATOM     22  C   UNL     1      -0.970  -7.020  -1.149  1.00  0.00     0.128 A 
ATOM     23  C   UNL     1      -0.997  -8.241  -1.821  1.00  0.00     0.051 A 
ATOM     24  O   UNL     1      -1.501  -7.245   0.115  1.00  0.00    -0.457 OA
ATOM     25  C   UNL     1      -1.640  -9.186  -1.001  1.00  0.00     0.051 A 
ATOM     26  C   UNL     1      -1.895  -8.549   0.189  1.00  0.00     0.134 A 
BRANCH  26  27
ATOM     27  C   UNL     1      -2.407  -9.055   1.452  1.00  0.00     0.019 A 
ATOM     28  C   UNL     1      -1.920 -10.290   1.913  1.00  0.00     0.012 A 
ATOM     29  C   UNL     1      -3.408  -8.408   2.182  1.00  0.00     0.032 A 
ATOM     30  C   UNL     1      -2.433 -10.883   3.064  1.00  0.00     0.002 A 
ATOM     31  C   UNL     1      -3.909  -9.007   3.344  1.00  0.00     0.041 A 
ATOM     32  C   UNL     1      -3.442 -10.247   3.776  1.00  0.00     0.020 A 
ATOM     33  Cl  UNL     1      -5.105  -8.203   4.281  1.00  0.00    -0.084 Cl
ENDBRANCH  26  27
ENDBRANCH  12  22
ENDBRANCH   9  11
ENDBRANCH   8   9
ENDBRANCH   7   8
ENDBRANCH   6   7
ENDBRANCH   5   6
ENDBRANCH   4   5
ENDBRANCH   3   4
ENDBRANCH   2   3
ENDBRANCH   1   2
BRANCH   1  34
ATOM     34  C   UNL     1      -6.745  -4.760  -2.412  1.00  0.00     0.188 C 
BRANCH  34  35
ATOM     35  O   UNL     1      -6.355  -3.406  -2.557  1.00  0.00    -0.376 OA
BRANCH  35  36
ATOM     36  C   UNL     1      -6.863  -2.448  -1.647  1.00  0.00     0.202 C 
BRANCH  36  37
ATOM     37  C   UNL     1      -6.533  -2.624  -0.158  1.00  0.00     0.261 C 
BRANCH  37  38
ATOM     38  O   UNL     1      -6.873  -3.892   0.415  1.00  0.00    -0.460 OA
BRANCH  38  39
ATOM     39  C   UNL     1      -8.182  -4.215   0.459  1.00  0.00     0.338 C 
ATOM     40  O   UNL     1      -9.123  -3.542   0.064  1.00  0.00    -0.246 OA
BRANCH  39  41
ATOM     41  C   UNL     1      -8.278  -5.613   0.910  1.00  0.00     0.060 A 
ATOM     42  C   UNL     1      -8.820  -6.580   0.052  1.00  0.00     0.016 A 
ATOM     43  C   UNL     1      -7.837  -5.961   2.186  1.00  0.00     0.016 A 
ATOM     44  C   UNL     1      -8.951  -7.900   0.483  1.00  0.00     0.010 A 
ATOM     45  C   UNL     1      -8.003  -7.273   2.624  1.00  0.00     0.010 A 
ATOM     46  C   UNL     1      -8.585  -8.243   1.789  1.00  0.00    -0.014 A 
BRANCH  46  47
ATOM     47  C   UNL     1      -9.008  -9.543   2.362  1.00  0.00     0.031 A 
ATOM     48  C   UNL     1     -10.188  -9.553   3.297  1.00  0.00     0.074 A 
ATOM     49  C   UNL     1      -8.361 -10.686   2.075  1.00  0.00     0.049 A 
ATOM     50  N   UNL     1     -10.730 -10.551   3.942  1.00  0.00    -0.248 NA
ATOM     51  C   UNL     1     -10.835  -8.253   3.546  1.00  0.00     0.031 C 
ATOM     52  C   UNL     1      -7.200 -10.806   1.196  1.00  0.00     0.029 A 
ATOM     53  N   UNL     1      -8.584 -11.966   2.520  1.00  0.00    -0.354 N 
ATOM     54  C   UNL     1     -11.748  -9.994   4.707  1.00  0.00     0.074 A 
ATOM     55  C   UNL     1     -11.738  -8.570   4.459  1.00  0.00     0.031 C 
ATOM     56  C   UNL     1      -6.800 -12.090   1.179  1.00  0.00     0.029 A 
ATOM     57  C   UNL     1      -7.657 -12.874   2.067  1.00  0.00     0.049 A 
ATOM     58  H   UNL     1      -9.336 -12.210   3.106  1.00  0.00     0.167 HD
ATOM     59  C   UNL     1     -12.623 -10.611   5.534  1.00  0.00     0.034 A 
ATOM     60  C   UNL     1      -7.508 -14.183   2.356  1.00  0.00     0.034 A 
ATOM     61  C   UNL     1     -12.641 -12.028   5.768  1.00  0.00     0.049 A 
ATOM     62  C   UNL     1      -8.492 -14.852   3.283  1.00  0.00     0.074 A 
ATOM     63  C   UNL     1     -13.527 -12.762   6.536  1.00  0.00     0.029 A 
ATOM     64  N   UNL     1     -11.714 -12.924   5.258  1.00  0.00    -0.354 N 
ATOM     65  N   UNL     1      -9.528 -14.338   3.902  1.00  0.00    -0.248 NA
ATOM     66  C   UNL     1      -8.306 -16.291   3.526  1.00  0.00     0.031 C 
ATOM     67  C   UNL     1     -13.107 -14.096   6.529  1.00  0.00     0.029 A 
ATOM     68  C   UNL     1     -11.992 -14.202   5.710  1.00  0.00     0.049 A 
ATOM     69  H   UNL     1     -10.969 -12.687   4.661  1.00  0.00     0.167 HD
ATOM     70  C   UNL     1     -10.137 -15.393   4.575  1.00  0.00     0.074 A 
ATOM     71  C   UNL     1      -9.362 -16.579   4.275  1.00  0.00     0.031 C 
ATOM     72  C   UNL     1     -11.235 -15.382   5.373  1.00  0.00     0.034 A 
BRANCH  59  73
ATOM     73  C   UNL     1     -13.627  -9.745   6.250  1.00  0.00     0.023 A 
ATOM     74  C   UNL     1     -14.656  -9.105   5.527  1.00  0.00     0.012 A 
ATOM     75  C   UNL     1     -13.556  -9.572   7.645  1.00  0.00     0.148 A 
ATOM     76  C   UNL     1     -15.563  -8.267   6.173  1.00  0.00     0.002 A 
ATOM     77  C   UNL     1     -14.497  -8.779   8.290  1.00  0.00     0.091 A 
ATOM     78  F   UNL     1     -12.557 -10.166   8.314  1.00  0.00    -0.205 F 
ATOM     79  C   UNL     1     -15.489  -8.112   7.555  1.00  0.00     0.022 A 
BRANCH  77  80
ATOM     80  S   UNL     1     -14.537  -8.589  10.075  1.00  0.00     0.127 S 
ATOM     81  O   UNL     1     -14.086  -7.208  10.235  1.00  0.00    -0.237 OA
ATOM     82  O   UNL     1     -15.953  -8.807  10.374  1.00  0.00    -0.237 OA
ATOM     83  O   UNL     1     -13.642  -9.606  10.608  1.00  0.00    -0.744 OA
ENDBRANCH  77  80
ENDBRANCH  59  73
BRANCH  60  84
ATOM     84  C   UNL     1      -6.399 -14.959   1.730  1.00  0.00     0.023 A 
ATOM     85  C   UNL     1      -6.694 -15.939   0.763  1.00  0.00     0.012 A 
ATOM     86  C   UNL     1      -5.054 -14.716   2.073  1.00  0.00     0.148 A 
ATOM     87  C   UNL     1      -5.673 -16.684   0.170  1.00  0.00     0.002 A 
ATOM     88  C   UNL     1      -4.039 -15.427   1.444  1.00  0.00     0.091 A 
ATOM     89  F   UNL     1      -4.792 -13.764   2.980  1.00  0.00    -0.205 F 
ATOM     90  C   UNL     1      -4.347 -16.425   0.506  1.00  0.00     0.022 A 
BRANCH  88  91
ATOM     91  S   UNL     1      -2.302 -15.100   1.756  1.00  0.00     0.127 S 
ATOM     92  O   UNL     1      -1.749 -16.447   1.883  1.00  0.00    -0.237 OA
ATOM     93  O   UNL     1      -1.913 -14.386   0.540  1.00  0.00    -0.237 OA
ATOM     94  O   UNL     1      -2.261 -14.313   2.980  1.00  0.00    -0.744 OA
ENDBRANCH  88  91
ENDBRANCH  60  84
BRANCH  72  95
ATOM     95  C   UNL     1     -11.705 -16.696   5.947  1.00  0.00     0.023 A 
ATOM     96  C   UNL     1     -10.960 -17.338   6.956  1.00  0.00     0.012 A 
ATOM     97  C   UNL     1     -12.933 -17.253   5.536  1.00  0.00     0.148 A 
ATOM     98  C   UNL     1     -11.411 -18.534   7.518  1.00  0.00     0.002 A 
ATOM     99  C   UNL     1     -13.402 -18.414   6.139  1.00  0.00     0.091 A 
ATOM    100  F   UNL     1     -13.622 -16.636   4.565  1.00  0.00    -0.205 F 
ATOM    101  C   UNL     1     -12.636 -19.064   7.119  1.00  0.00     0.022 A 
BRANCH  99 102
ATOM    102  S   UNL     1     -15.014 -19.111   5.762  1.00  0.00     0.127 S 
ATOM    103  O   UNL     1     -14.650 -20.320   5.024  1.00  0.00    -0.237 OA
ATOM    104  O   UNL     1     -15.566 -19.354   7.096  1.00  0.00    -0.237 OA
ATOM    105  O   UNL     1     -15.722 -18.099   4.991  1.00  0.00    -0.744 OA
ENDBRANCH  99 102
ENDBRANCH  72  95
ENDBRANCH  46  47
ENDBRANCH  39  41
ENDBRANCH  38  39
ENDBRANCH  37  38
ENDBRANCH  36  37
ENDBRANCH  35  36
ENDBRANCH  34  35
ENDBRANCH   1  34
TORSDOF 27
