REMARK SMILES CC[C@H]([NH2+]C1c2ccccc2-c2ccccc21)C(=O)OCCOCCOCCOCCOC(=O)c1ccc(-c2c3nc(c(-c4cccc(S(=O)(=O)[O-])c4F)c4ccc([nH]4)c(-c4cccc(S(=O)(=O)[O-])c4F)c4nc(c(-c5cccc(S(=O)(=O)[O-])c5F)c5ccc2[nH]5)C=C4)C=C3)cc1
REMARK SMILES IDX 27 1 26 2 25 3 24 4 23 5 22 6 21 7 20 8 18 9 19 10 3 11 2 12
REMARK SMILES IDX 1 13 4 14 5 17 6 18 17 19 7 20 11 21 12 22 16 23 8 24 10 25
REMARK SMILES IDX 13 26 15 27 9 28 14 29 28 30 29 31 30 32 31 33 32 34 33 35
REMARK SMILES IDX 34 36 35 37 36 38 97 39 37 40 96 41 38 42 39 43 40 44 90 45
REMARK SMILES IDX 41 46 95 47 89 48 91 49 42 50 94 51 88 52 87 53 43 55 75 56
REMARK SMILES IDX 55 57 74 58 56 59 59 60 73 61 92 62 57 63 58 64 72 66 93 67
REMARK SMILES IDX 60 68 44 69 45 70 53 71 46 72 48 73 54 74 47 75 49 76 50 77
REMARK SMILES IDX 51 78 52 79 76 80 77 81 85 82 78 83 80 84 86 85 79 86 81 87
REMARK SMILES IDX 82 88 83 89 84 90 61 91 62 92 70 93 63 94 65 95 71 96 64 97
REMARK SMILES IDX 66 98 67 99 68 100 69 101
REMARK H PARENT 4 15 4 16 91 54 59 65
REMARK Flexibility Score: inf
ROOT
ATOM      1  C   UNL     1      -1.315  -3.307  -4.125  1.00  0.00     0.188 C 
ENDROOT
BRANCH   1   2
ATOM      2  O   UNL     1      -0.711  -3.159  -2.849  1.00  0.00    -0.377 OA
BRANCH   2   3
ATOM      3  C   UNL     1       0.674  -2.888  -2.825  1.00  0.00     0.188 C 
BRANCH   3   4
ATOM      4  C   UNL     1       1.551  -4.138  -2.654  1.00  0.00     0.188 C 
BRANCH   4   5
ATOM      5  O   UNL     1       1.030  -5.451  -2.799  1.00  0.00    -0.376 OA
BRANCH   5   6
ATOM      6  C   UNL     1      -0.224  -5.879  -2.291  1.00  0.00     0.202 C 
BRANCH   6   7
ATOM      7  C   UNL     1      -0.856  -5.445  -0.955  1.00  0.00     0.261 C 
BRANCH   7   8
ATOM      8  O   UNL     1      -0.482  -4.181  -0.418  1.00  0.00    -0.459 OA
BRANCH   8   9
ATOM      9  C   UNL     1       0.687  -4.180   0.264  1.00  0.00     0.364 C 
ATOM     10  O   UNL     1       1.371  -5.183   0.459  1.00  0.00    -0.245 OA
BRANCH   9  11
ATOM     11  C   UNL     1       1.072  -2.780   0.799  1.00  0.00     0.293 C 
BRANCH  11  12
ATOM     12  C   UNL     1       1.126  -3.000   2.320  1.00  0.00     0.074 C 
ATOM     13  C   UNL     1       2.493  -2.658   2.886  1.00  0.00     0.011 C 
ENDBRANCH  11  12
BRANCH  11  14
ATOM     14  N   UNL     1       0.193  -1.720   0.243  1.00  0.00    -0.325 N 
ATOM     15  H   UNL     1      -0.760  -1.986   0.493  1.00  0.00     0.347 HD
ATOM     16  H   UNL     1       0.477  -1.710  -0.736  1.00  0.00     0.347 HD
BRANCH  14  17
ATOM     17  C   UNL     1       0.325  -0.309   0.602  1.00  0.00     0.246 C 
ATOM     18  C   UNL     1       0.113  -0.039   2.078  1.00  0.00     0.022 A 
ATOM     19  C   UNL     1       1.684   0.343   0.352  1.00  0.00     0.022 A 
ATOM     20  C   UNL     1      -0.982  -0.383   2.857  1.00  0.00     0.011 A 
ATOM     21  C   UNL     1       1.279   0.526   2.638  1.00  0.00    -0.008 A 
ATOM     22  C   UNL     1       2.213   0.827   1.572  1.00  0.00    -0.008 A 
ATOM     23  C   UNL     1       2.325   0.605  -0.852  1.00  0.00     0.011 A 
ATOM     24  C   UNL     1      -0.845  -0.291   4.240  1.00  0.00     0.001 A 
ATOM     25  C   UNL     1       1.405   0.634   4.011  1.00  0.00     0.009 A 
ATOM     26  C   UNL     1       3.412   1.523   1.602  1.00  0.00     0.009 A 
ATOM     27  C   UNL     1       3.523   1.331  -0.824  1.00  0.00     0.001 A 
ATOM     28  C   UNL     1       0.347   0.189   4.812  1.00  0.00     0.001 A 
ATOM     29  C   UNL     1       4.067   1.776   0.393  1.00  0.00     0.001 A 
ENDBRANCH  14  17
ENDBRANCH  11  14
ENDBRANCH   9  11
ENDBRANCH   8   9
ENDBRANCH   7   8
ENDBRANCH   6   7
ENDBRANCH   5   6
ENDBRANCH   4   5
ENDBRANCH   3   4
ENDBRANCH   2   3
ENDBRANCH   1   2
BRANCH   1  30
ATOM     30  C   UNL     1      -0.503  -3.988  -5.248  1.00  0.00     0.188 C 
BRANCH  30  31
ATOM     31  O   UNL     1       0.814  -3.478  -5.416  1.00  0.00    -0.376 OA
BRANCH  31  32
ATOM     32  C   UNL     1       1.050  -2.523  -6.438  1.00  0.00     0.202 C 
BRANCH  32  33
ATOM     33  C   UNL     1       0.376  -1.149  -6.297  1.00  0.00     0.261 C 
BRANCH  33  34
ATOM     34  O   UNL     1      -1.057  -1.144  -6.219  1.00  0.00    -0.460 OA
BRANCH  34  35
ATOM     35  C   UNL     1      -1.746  -1.708  -7.237  1.00  0.00     0.338 C 
ATOM     36  O   UNL     1      -1.289  -2.168  -8.261  1.00  0.00    -0.246 OA
BRANCH  35  37
ATOM     37  C   UNL     1      -3.150  -1.864  -6.793  1.00  0.00     0.060 A 
ATOM     38  C   UNL     1      -3.718  -3.145  -6.786  1.00  0.00     0.016 A 
ATOM     39  C   UNL     1      -3.897  -0.757  -6.384  1.00  0.00     0.016 A 
ATOM     40  C   UNL     1      -5.051  -3.317  -6.414  1.00  0.00     0.010 A 
ATOM     41  C   UNL     1      -5.239  -0.928  -6.034  1.00  0.00     0.010 A 
ATOM     42  C   UNL     1      -5.832  -2.202  -6.087  1.00  0.00    -0.014 A 
BRANCH  42  43
ATOM     43  C   UNL     1      -7.307  -2.336  -6.010  1.00  0.00     0.031 A 
ATOM     44  C   UNL     1      -8.121  -1.932  -7.210  1.00  0.00     0.074 A 
ATOM     45  C   UNL     1      -7.916  -2.805  -4.906  1.00  0.00     0.049 A 
ATOM     46  N   UNL     1      -9.418  -1.905  -7.363  1.00  0.00    -0.248 NA
ATOM     47  C   UNL     1      -7.365  -1.494  -8.397  1.00  0.00     0.031 C 
ATOM     48  C   UNL     1      -7.239  -3.242  -3.687  1.00  0.00     0.029 A 
ATOM     49  N   UNL     1      -9.251  -2.962  -4.628  1.00  0.00    -0.354 N 
ATOM     50  C   UNL     1      -9.636  -1.421  -8.648  1.00  0.00     0.074 A 
ATOM     51  C   UNL     1      -8.339  -1.154  -9.228  1.00  0.00     0.031 C 
ATOM     52  C   UNL     1      -8.167  -3.585  -2.776  1.00  0.00     0.029 A 
ATOM     53  C   UNL     1      -9.499  -3.363  -3.336  1.00  0.00     0.049 A 
ATOM     54  H   UNL     1      -9.963  -2.803  -5.289  1.00  0.00     0.167 HD
ATOM     55  C   UNL     1     -10.810  -1.228  -9.293  1.00  0.00     0.034 A 
ATOM     56  C   UNL     1     -10.666  -3.501  -2.675  1.00  0.00     0.034 A 
ATOM     57  C   UNL     1     -12.098  -1.501  -8.718  1.00  0.00     0.049 A 
ATOM     58  C   UNL     1     -11.962  -3.241  -3.403  1.00  0.00     0.074 A 
ATOM     59  C   UNL     1     -13.345  -1.373  -9.304  1.00  0.00     0.029 A 
ATOM     60  N   UNL     1     -12.308  -1.940  -7.421  1.00  0.00    -0.354 N 
ATOM     61  N   UNL     1     -12.154  -2.883  -4.650  1.00  0.00    -0.248 NA
ATOM     62  C   UNL     1     -13.204  -3.435  -2.640  1.00  0.00     0.031 C 
ATOM     63  C   UNL     1     -14.311  -1.697  -8.347  1.00  0.00     0.029 A 
ATOM     64  C   UNL     1     -13.665  -2.075  -7.181  1.00  0.00     0.049 A 
ATOM     65  H   UNL     1     -11.598  -2.129  -6.766  1.00  0.00     0.167 HD
ATOM     66  C   UNL     1     -13.533  -2.849  -4.831  1.00  0.00     0.074 A 
ATOM     67  C   UNL     1     -14.129  -3.240  -3.571  1.00  0.00     0.031 C 
ATOM     68  C   UNL     1     -14.244  -2.515  -5.937  1.00  0.00     0.034 A 
BRANCH  55  69
ATOM     69  C   UNL     1     -10.752  -0.701 -10.703  1.00  0.00     0.023 A 
ATOM     70  C   UNL     1     -10.284  -1.529 -11.744  1.00  0.00     0.012 A 
ATOM     71  C   UNL     1     -11.209   0.597 -11.004  1.00  0.00     0.148 A 
ATOM     72  C   UNL     1     -10.238  -1.062 -13.057  1.00  0.00     0.002 A 
ATOM     73  C   UNL     1     -11.206   1.038 -12.322  1.00  0.00     0.091 A 
ATOM     74  F   UNL     1     -11.629   1.376  -9.998  1.00  0.00    -0.205 F 
ATOM     75  C   UNL     1     -10.709   0.216 -13.347  1.00  0.00     0.022 A 
BRANCH  73  76
ATOM     76  S   UNL     1     -11.865   2.636 -12.810  1.00  0.00     0.127 S 
ATOM     77  O   UNL     1     -10.652   3.341 -13.224  1.00  0.00    -0.237 OA
ATOM     78  O   UNL     1     -12.764   2.273 -13.906  1.00  0.00    -0.237 OA
ATOM     79  O   UNL     1     -12.527   3.177 -11.632  1.00  0.00    -0.744 OA
ENDBRANCH  73  76
ENDBRANCH  55  69
BRANCH  56  80
ATOM     80  C   UNL     1     -10.670  -3.916  -1.243  1.00  0.00     0.023 A 
ATOM     81  C   UNL     1     -11.190  -5.173  -0.879  1.00  0.00     0.012 A 
ATOM     82  C   UNL     1     -10.161  -3.067  -0.241  1.00  0.00     0.148 A 
ATOM     83  C   UNL     1     -11.237  -5.562   0.461  1.00  0.00     0.002 A 
ATOM     84  C   UNL     1     -10.156  -3.485   1.085  1.00  0.00     0.091 A 
ATOM     85  F   UNL     1      -9.686  -1.869  -0.606  1.00  0.00    -0.205 F 
ATOM     86  C   UNL     1     -10.712  -4.724   1.440  1.00  0.00     0.022 A 
BRANCH  84  87
ATOM     87  S   UNL     1      -9.386  -2.529   2.395  1.00  0.00     0.127 S 
ATOM     88  O   UNL     1     -10.542  -2.130   3.194  1.00  0.00    -0.237 OA
ATOM     89  O   UNL     1      -8.516  -3.525   3.021  1.00  0.00    -0.237 OA
ATOM     90  O   UNL     1      -8.676  -1.445   1.729  1.00  0.00    -0.744 OA
ENDBRANCH  84  87
ENDBRANCH  56  80
BRANCH  68  91
ATOM     91  C   UNL     1     -15.747  -2.607  -5.865  1.00  0.00     0.023 A 
ATOM     92  C   UNL     1     -16.479  -1.675  -5.103  1.00  0.00     0.012 A 
ATOM     93  C   UNL     1     -16.439  -3.577  -6.619  1.00  0.00     0.148 A 
ATOM     94  C   UNL     1     -17.873  -1.731  -5.063  1.00  0.00     0.002 A 
ATOM     95  C   UNL     1     -17.828  -3.592  -6.619  1.00  0.00     0.091 A 
ATOM     96  F   UNL     1     -15.724  -4.464  -7.327  1.00  0.00    -0.205 F 
ATOM     97  C   UNL     1     -18.546  -2.679  -5.830  1.00  0.00     0.022 A 
BRANCH  95  98
ATOM     98  S   UNL     1     -18.782  -4.711  -7.650  1.00  0.00     0.127 S 
ATOM     99  O   UNL     1     -19.362  -5.611  -6.655  1.00  0.00    -0.237 OA
ATOM    100  O   UNL     1     -19.739  -3.804  -8.285  1.00  0.00    -0.237 OA
ATOM    101  O   UNL     1     -17.831  -5.325  -8.566  1.00  0.00    -0.744 OA
ENDBRANCH  95  98
ENDBRANCH  68  91
ENDBRANCH  42  43
ENDBRANCH  35  37
ENDBRANCH  34  35
ENDBRANCH  33  34
ENDBRANCH  32  33
ENDBRANCH  31  32
ENDBRANCH  30  31
ENDBRANCH   1  30
TORSDOF 26
