REMARK SMILES Cc1ccc(-c2cc(OCC(=O)OCCOCCOCCOCCOC(=O)c3ccc(-c4c5nc(c(-c6cccc(S(=O)(=O)[O-])c6F)c6ccc([nH]6)c(-c6cccc(S(=O)(=O)[O-])c6F)c6nc(c(-c7cccc(S(=O)(=O)[O-])c7F)c7ccc4[nH]7)C=C6)C=C5)cc3)nc(NCc3ccc4c(c3)OCO4)n2)cc1
REMARK SMILES IDX 18 1 17 2 16 3 15 4 14 5 13 6 11 7 12 8 10 9 9 10 8 11 6 12
REMARK SMILES IDX 7 13 104 14 92 15 91 16 5 17 1 18 2 19 3 20 106 21 4 22
REMARK SMILES IDX 105 23 93 24 94 26 95 27 96 28 100 29 97 30 99 31 98 32
REMARK SMILES IDX 101 33 103 34 102 35 19 36 20 37 21 38 22 39 23 40 24 41
REMARK SMILES IDX 25 42 26 43 27 44 28 45 29 46 90 47 30 48 89 49 31 50 32 51
REMARK SMILES IDX 33 52 83 53 34 54 88 55 82 56 84 57 35 58 87 59 81 60 80 61
REMARK SMILES IDX 36 63 68 64 48 65 67 66 49 67 52 68 66 69 85 70 50 71 51 72
REMARK SMILES IDX 65 74 86 75 53 76 37 77 38 78 46 79 39 80 41 81 47 82 40 83
REMARK SMILES IDX 42 84 43 85 44 86 45 87 69 88 70 89 78 90 71 91 73 92 79 93
REMARK SMILES IDX 72 94 74 95 75 96 76 97 77 98 54 99 55 100 63 101 56 102
REMARK SMILES IDX 58 103 64 104 57 105 59 106 60 107 61 108 62 109
REMARK H PARENT 93 25 84 62 52 73
REMARK Flexibility Score: inf
ROOT
ATOM      1  C   UNL     1      -4.686   2.154  -0.124  1.00  0.00     0.188 C 
ENDROOT
BRANCH   1   2
ATOM      2  C   UNL     1      -4.353   1.915  -1.587  1.00  0.00     0.188 C 
BRANCH   2   3
ATOM      3  O   UNL     1      -2.964   1.848  -1.879  1.00  0.00    -0.376 OA
BRANCH   3   4
ATOM      4  C   UNL     1      -2.412   2.783  -2.789  1.00  0.00     0.202 C 
BRANCH   4   5
ATOM      5  C   UNL     1      -3.008   2.799  -4.201  1.00  0.00     0.261 C 
BRANCH   5   6
ATOM      6  O   UNL     1      -4.150   1.944  -4.360  1.00  0.00    -0.461 OA
BRANCH   6   7
ATOM      7  C   UNL     1      -3.882   0.630  -4.570  1.00  0.00     0.344 C 
ATOM      8  O   UNL     1      -2.781   0.165  -4.830  1.00  0.00    -0.248 OA
BRANCH   7   9
ATOM      9  C   UNL     1      -5.178  -0.200  -4.492  1.00  0.00     0.353 C 
BRANCH   9  10
ATOM     10  O   UNL     1      -5.645  -1.067  -3.478  1.00  0.00    -0.466 OA
BRANCH  10  11
ATOM     11  C   UNL     1      -4.904  -1.384  -2.382  1.00  0.00     0.219 A 
ATOM     12  C   UNL     1      -2.983  -1.838  -1.129  1.00  0.00     0.080 A 
ATOM     13  C   UNL     1      -3.553  -1.594  -2.368  1.00  0.00     0.097 A 
ATOM     14  N   UNL     1      -3.722  -1.971  -0.004  1.00  0.00    -0.213 NA
ATOM     15  C   UNL     1      -5.024  -1.688  -0.102  1.00  0.00     0.226 A 
ATOM     16  N   UNL     1      -5.648  -1.435  -1.263  1.00  0.00    -0.177 NA
BRANCH  12  17
ATOM     17  C   UNL     1      -1.524  -1.715  -0.934  1.00  0.00     0.000 A 
ATOM     18  C   UNL     1       2.635  -0.896   0.019  1.00  0.00     0.044 C 
ATOM     19  C   UNL     1       1.215  -1.209  -0.344  1.00  0.00    -0.051 A 
ATOM     20  C   UNL     1       0.652  -2.478  -0.141  1.00  0.00     0.004 A 
ATOM     21  C   UNL     1       0.428  -0.219  -0.917  1.00  0.00     0.004 A 
ATOM     22  C   UNL     1      -0.709  -2.724  -0.416  1.00  0.00     0.010 A 
ATOM     23  C   UNL     1      -0.907  -0.485  -1.212  1.00  0.00     0.010 A 
ENDBRANCH  12  17
BRANCH  15  24
ATOM     24  N   UNL     1      -5.814  -1.545   1.006  1.00  0.00    -0.350 N 
ATOM     25  H   UNL     1      -6.642  -1.020   0.911  1.00  0.00     0.164 HD
BRANCH  24  26
ATOM     26  C   UNL     1      -5.525  -2.103   2.300  1.00  0.00     0.152 C 
BRANCH  26  27
ATOM     27  C   UNL     1      -6.069  -3.515   2.398  1.00  0.00    -0.025 A 
ATOM     28  C   UNL     1      -5.371  -4.486   3.155  1.00  0.00     0.009 A 
ATOM     29  C   UNL     1      -7.192  -3.896   1.644  1.00  0.00     0.056 A 
ATOM     30  C   UNL     1      -5.670  -5.846   3.022  1.00  0.00     0.051 A 
ATOM     31  C   UNL     1      -7.405  -5.237   1.469  1.00  0.00     0.166 A 
ATOM     32  C   UNL     1      -6.643  -6.187   2.110  1.00  0.00     0.165 A 
ATOM     33  O   UNL     1      -8.250  -5.785   0.551  1.00  0.00    -0.454 OA
ATOM     34  O   UNL     1      -6.907  -7.440   1.641  1.00  0.00    -0.454 OA
ATOM     35  C   UNL     1      -7.642  -7.085   0.448  1.00  0.00     0.468 C 
ENDBRANCH  26  27
ENDBRANCH  24  26
ENDBRANCH  15  24
ENDBRANCH  10  11
ENDBRANCH   9  10
ENDBRANCH   7   9
ENDBRANCH   6   7
ENDBRANCH   5   6
ENDBRANCH   4   5
ENDBRANCH   3   4
ENDBRANCH   2   3
ENDBRANCH   1   2
BRANCH   1  36
ATOM     36  O   UNL     1      -3.884   1.331   0.720  1.00  0.00    -0.377 OA
BRANCH  36  37
ATOM     37  C   UNL     1      -2.747   2.064   1.159  1.00  0.00     0.188 C 
BRANCH  37  38
ATOM     38  C   UNL     1      -1.688   1.177   1.801  1.00  0.00     0.188 C 
BRANCH  38  39
ATOM     39  O   UNL     1      -2.075   0.152   2.699  1.00  0.00    -0.376 OA
BRANCH  39  40
ATOM     40  C   UNL     1      -3.185   0.382   3.546  1.00  0.00     0.202 C 
BRANCH  40  41
ATOM     41  C   UNL     1      -3.316   1.731   4.273  1.00  0.00     0.261 C 
BRANCH  41  42
ATOM     42  O   UNL     1      -2.062   2.417   4.412  1.00  0.00    -0.460 OA
BRANCH  42  43
ATOM     43  C   UNL     1      -2.198   3.697   4.892  1.00  0.00     0.338 C 
ATOM     44  O   UNL     1      -2.628   3.972   5.980  1.00  0.00    -0.246 OA
BRANCH  43  45
ATOM     45  C   UNL     1      -1.885   4.664   3.784  1.00  0.00     0.060 A 
ATOM     46  C   UNL     1      -2.706   5.774   3.603  1.00  0.00     0.016 A 
ATOM     47  C   UNL     1      -0.965   4.349   2.791  1.00  0.00     0.016 A 
ATOM     48  C   UNL     1      -2.804   6.387   2.340  1.00  0.00     0.010 A 
ATOM     49  C   UNL     1      -1.113   4.908   1.517  1.00  0.00     0.010 A 
ATOM     50  C   UNL     1      -2.103   5.872   1.248  1.00  0.00    -0.014 A 
BRANCH  50  51
ATOM     51  C   UNL     1      -2.495   6.117  -0.168  1.00  0.00     0.031 A 
ATOM     52  C   UNL     1      -1.483   6.400  -1.254  1.00  0.00     0.074 A 
ATOM     53  C   UNL     1      -3.754   5.786  -0.585  1.00  0.00     0.049 A 
ATOM     54  N   UNL     1      -1.810   6.680  -2.479  1.00  0.00    -0.248 NA
ATOM     55  C   UNL     1      -0.031   6.417  -1.080  1.00  0.00     0.031 C 
ATOM     56  C   UNL     1      -4.101   5.420  -1.958  1.00  0.00     0.029 A 
ATOM     57  N   UNL     1      -4.984   5.641   0.075  1.00  0.00    -0.354 N 
ATOM     58  C   UNL     1      -0.703   6.525  -3.280  1.00  0.00     0.074 A 
ATOM     59  C   UNL     1       0.398   6.518  -2.348  1.00  0.00     0.031 C 
ATOM     60  C   UNL     1      -5.380   5.079  -2.061  1.00  0.00     0.029 A 
ATOM     61  C   UNL     1      -6.021   5.544  -0.871  1.00  0.00     0.049 A 
ATOM     62  H   UNL     1      -5.103   5.612   1.052  1.00  0.00     0.167 HD
ATOM     63  C   UNL     1      -0.848   6.306  -4.623  1.00  0.00     0.034 A 
ATOM     64  C   UNL     1      -7.157   6.288  -0.951  1.00  0.00     0.034 A 
ATOM     65  C   UNL     1      -2.243   6.464  -5.113  1.00  0.00     0.049 A 
ATOM     66  C   UNL     1      -7.134   7.232  -2.149  1.00  0.00     0.074 A 
ATOM     67  C   UNL     1      -3.068   5.784  -5.997  1.00  0.00     0.029 A 
ATOM     68  N   UNL     1      -3.028   7.513  -4.630  1.00  0.00    -0.354 N 
ATOM     69  N   UNL     1      -6.397   7.064  -3.223  1.00  0.00    -0.248 NA
ATOM     70  C   UNL     1      -7.873   8.489  -2.205  1.00  0.00     0.031 C 
ATOM     71  C   UNL     1      -4.379   6.352  -5.930  1.00  0.00     0.029 A 
ATOM     72  C   UNL     1      -4.336   7.446  -5.083  1.00  0.00     0.049 A 
ATOM     73  H   UNL     1      -2.691   8.220  -4.034  1.00  0.00     0.167 HD
ATOM     74  C   UNL     1      -6.293   8.254  -3.897  1.00  0.00     0.074 A 
ATOM     75  C   UNL     1      -7.366   9.048  -3.320  1.00  0.00     0.031 C 
ATOM     76  C   UNL     1      -5.262   8.536  -4.764  1.00  0.00     0.034 A 
BRANCH  63  77
ATOM     77  C   UNL     1       0.288   5.856  -5.552  1.00  0.00     0.023 A 
ATOM     78  C   UNL     1       0.097   5.995  -6.947  1.00  0.00     0.012 A 
ATOM     79  C   UNL     1       1.509   5.248  -5.159  1.00  0.00     0.148 A 
ATOM     80  C   UNL     1       1.042   5.561  -7.889  1.00  0.00     0.002 A 
ATOM     81  C   UNL     1       2.498   4.915  -6.096  1.00  0.00     0.091 A 
ATOM     82  F   UNL     1       1.692   4.892  -3.883  1.00  0.00    -0.205 F 
ATOM     83  C   UNL     1       2.257   5.047  -7.465  1.00  0.00     0.022 A 
BRANCH  81  84
ATOM     84  S   UNL     1       4.150   4.369  -5.616  1.00  0.00     0.127 S 
ATOM     85  O   UNL     1       4.171   2.987  -6.091  1.00  0.00    -0.237 OA
ATOM     86  O   UNL     1       5.013   5.283  -6.366  1.00  0.00    -0.237 OA
ATOM     87  O   UNL     1       4.220   4.531  -4.168  1.00  0.00    -0.744 OA
ENDBRANCH  81  84
ENDBRANCH  63  77
BRANCH  64  88
ATOM     88  C   UNL     1      -7.918   6.335   0.317  1.00  0.00     0.023 A 
ATOM     89  C   UNL     1      -8.732   5.198   0.552  1.00  0.00     0.012 A 
ATOM     90  C   UNL     1      -7.410   7.049   1.409  1.00  0.00     0.148 A 
ATOM     91  C   UNL     1      -8.901   4.691   1.841  1.00  0.00     0.002 A 
ATOM     92  C   UNL     1      -7.512   6.487   2.679  1.00  0.00     0.091 A 
ATOM     93  F   UNL     1      -6.657   8.128   1.158  1.00  0.00    -0.205 F 
ATOM     94  C   UNL     1      -8.248   5.310   2.897  1.00  0.00     0.022 A 
BRANCH  92  95
ATOM     95  S   UNL     1      -6.410   6.974   4.010  1.00  0.00     0.127 S 
ATOM     96  O   UNL     1      -7.343   7.410   5.043  1.00  0.00    -0.237 OA
ATOM     97  O   UNL     1      -5.731   5.707   4.274  1.00  0.00    -0.237 OA
ATOM     98  O   UNL     1      -5.560   8.011   3.444  1.00  0.00    -0.744 OA
ENDBRANCH  92  95
ENDBRANCH  64  88
BRANCH  76  99
ATOM     99  C   UNL     1      -4.941   9.914  -5.351  1.00  0.00     0.023 A 
ATOM    100  C   UNL     1      -5.418  11.111  -4.787  1.00  0.00     0.012 A 
ATOM    101  C   UNL     1      -4.006  10.055  -6.417  1.00  0.00     0.148 A 
ATOM    102  C   UNL     1      -5.047  12.370  -5.279  1.00  0.00     0.002 A 
ATOM    103  C   UNL     1      -3.552  11.308  -6.825  1.00  0.00     0.091 A 
ATOM    104  F   UNL     1      -3.560   8.971  -7.068  1.00  0.00    -0.205 F 
ATOM    105  C   UNL     1      -4.094  12.471  -6.281  1.00  0.00     0.022 A 
BRANCH 103 106
ATOM    106  S   UNL     1      -2.150  11.466  -7.945  1.00  0.00     0.127 S 
ATOM    107  O   UNL     1      -2.806  11.534  -9.248  1.00  0.00    -0.237 OA
ATOM    108  O   UNL     1      -1.535  12.721  -7.506  1.00  0.00    -0.237 OA
ATOM    109  O   UNL     1      -1.335  10.285  -7.691  1.00  0.00    -0.744 OA
ENDBRANCH 103 106
ENDBRANCH  76  99
ENDBRANCH  50  51
ENDBRANCH  43  45
ENDBRANCH  42  43
ENDBRANCH  41  42
ENDBRANCH  40  41
ENDBRANCH  39  40
ENDBRANCH  38  39
ENDBRANCH  37  38
ENDBRANCH  36  37
ENDBRANCH   1  36
TORSDOF 29
