REMARK SMILES CCCCCCNC(=O)Oc1cccc(-c2ccc([C@@H](C)C(=O)OCCOCCOCCOCCOC(=O)c3ccc(-c4c5nc(c(-c6cccc(S(=O)(=O)[O-])c6F)c6ccc([nH]6)c(-c6cccc(S(=O)(=O)[O-])c6F)c6nc(c(-c7cccc(S(=O)(=O)[O-])c7F)c7ccc4[nH]7)C=C6)C=C5)cc3)cc2C)c1
REMARK SMILES IDX 27 1 26 2 25 3 24 4 22 5 23 6 20 7 21 8 19 9 16 10 17 11
REMARK SMILES IDX 103 12 18 13 102 14 104 15 15 16 11 17 12 18 105 19 13 20
REMARK SMILES IDX 14 21 10 22 8 23 7 24 9 26 6 27 5 28 4 29 3 30 2 31 1 32
REMARK SMILES IDX 28 33 29 34 30 35 31 36 32 37 33 38 34 39 35 40 36 41 37 42
REMARK SMILES IDX 38 43 39 44 40 45 101 46 41 47 100 48 42 49 43 50 44 51
REMARK SMILES IDX 94 52 45 53 99 54 93 55 95 56 46 57 98 58 92 59 91 60 47 62
REMARK SMILES IDX 79 63 59 64 78 65 60 66 63 67 77 68 96 69 61 70 62 71 76 73
REMARK SMILES IDX 97 74 64 75 48 76 49 77 57 78 50 79 52 80 58 81 51 82 53 83
REMARK SMILES IDX 54 84 55 85 56 86 80 87 81 88 89 89 82 90 84 91 90 92 83 93
REMARK SMILES IDX 85 94 86 95 87 96 88 97 65 98 66 99 74 100 67 101 69 102
REMARK SMILES IDX 75 103 68 104 70 105 71 106 72 107 73 108
REMARK H PARENT 7 25 95 61 63 72
REMARK Flexibility Score: inf
ROOT
ATOM      1  O   UNL     1      -1.117  11.373  10.221  1.00  0.00    -0.376 OA
ENDROOT
BRANCH   1   2
ATOM      2  C   UNL     1      -1.675  11.090  11.497  1.00  0.00     0.202 C 
BRANCH   2   3
ATOM      3  C   UNL     1      -3.188  11.255  11.735  1.00  0.00     0.261 C 
BRANCH   3   4
ATOM      4  O   UNL     1      -4.072  10.603  10.798  1.00  0.00    -0.463 OA
BRANCH   4   5
ATOM      5  C   UNL     1      -4.676  11.398   9.885  1.00  0.00     0.313 C 
ATOM      6  O   UNL     1      -4.511  12.617   9.832  1.00  0.00    -0.252 OA
BRANCH   5   7
ATOM      7  C   UNL     1      -5.627  10.701   8.913  1.00  0.00     0.126 C 
ATOM      8  C   UNL     1      -7.059  11.053   9.300  1.00  0.00     0.025 C 
BRANCH   7   9
ATOM      9  C   UNL     1      -5.486   9.213   8.587  1.00  0.00    -0.034 A 
ATOM     10  C   UNL     1      -5.201   6.447   7.834  1.00  0.00    -0.015 A 
ATOM     11  C   UNL     1      -5.450   6.847   9.166  1.00  0.00     0.009 A 
ATOM     12  C   UNL     1      -5.082   7.468   6.867  1.00  0.00    -0.043 A 
ATOM     13  C   UNL     1      -5.596   8.198   9.538  1.00  0.00     0.005 A 
ATOM     14  C   UNL     1      -5.227   8.822   7.256  1.00  0.00     0.008 A 
ATOM     15  C   UNL     1      -4.767   7.203   5.417  1.00  0.00     0.045 C 
BRANCH  10  16
ATOM     16  C   UNL     1      -5.179   5.001   7.497  1.00  0.00    -0.014 A 
ATOM     17  C   UNL     1      -4.189   3.042   6.441  1.00  0.00     0.133 A 
ATOM     18  C   UNL     1      -5.324   2.282   6.715  1.00  0.00     0.047 A 
ATOM     19  C   UNL     1      -4.098   4.382   6.837  1.00  0.00     0.056 A 
ATOM     20  C   UNL     1      -6.383   2.865   7.403  1.00  0.00     0.004 A 
ATOM     21  C   UNL     1      -6.311   4.209   7.780  1.00  0.00     0.009 A 
BRANCH  17  22
ATOM     22  O   UNL     1      -3.233   2.424   5.606  1.00  0.00    -0.410 OA
BRANCH  22  23
ATOM     23  C   UNL     1      -1.877   2.510   5.880  1.00  0.00     0.412 C 
ATOM     24  N   UNL     1      -1.098   1.873   4.951  1.00  0.00    -0.321 N 
ATOM     25  H   UNL     1      -0.126   1.896   5.106  1.00  0.00     0.167 HD
ATOM     26  O   UNL     1      -1.373   3.081   6.839  1.00  0.00    -0.224 OA
BRANCH  24  27
ATOM     27  C   UNL     1      -1.543   1.167   3.763  1.00  0.00     0.119 C 
BRANCH  27  28
ATOM     28  C   UNL     1      -0.956   1.770   2.484  1.00  0.00     0.021 C 
BRANCH  28  29
ATOM     29  C   UNL     1       0.572   1.687   2.370  1.00  0.00     0.002 C 
BRANCH  29  30
ATOM     30  C   UNL     1       1.159   0.271   2.355  1.00  0.00    -0.000 C 
BRANCH  30  31
ATOM     31  C   UNL     1       0.692  -0.623   1.203  1.00  0.00    -0.003 C 
ATOM     32  C   UNL     1       1.096  -0.101  -0.168  1.00  0.00     0.004 C 
ENDBRANCH  30  31
ENDBRANCH  29  30
ENDBRANCH  28  29
ENDBRANCH  27  28
ENDBRANCH  24  27
ENDBRANCH  22  23
ENDBRANCH  17  22
ENDBRANCH  10  16
ENDBRANCH   7   9
ENDBRANCH   5   7
ENDBRANCH   4   5
ENDBRANCH   3   4
ENDBRANCH   2   3
ENDBRANCH   1   2
BRANCH   1  33
ATOM     33  C   UNL     1      -1.589  10.702   9.059  1.00  0.00     0.188 C 
BRANCH  33  34
ATOM     34  C   UNL     1      -2.133   9.267   9.121  1.00  0.00     0.188 C 
BRANCH  34  35
ATOM     35  O   UNL     1      -2.181   8.694  10.409  1.00  0.00    -0.377 OA
BRANCH  35  36
ATOM     36  C   UNL     1      -1.177   7.742  10.714  1.00  0.00     0.188 C 
BRANCH  36  37
ATOM     37  C   UNL     1       0.252   8.091  10.261  1.00  0.00     0.188 C 
BRANCH  37  38
ATOM     38  O   UNL     1       0.368   8.365   8.867  1.00  0.00    -0.376 OA
BRANCH  38  39
ATOM     39  C   UNL     1       0.745   7.303   7.999  1.00  0.00     0.202 C 
BRANCH  39  40
ATOM     40  C   UNL     1      -0.236   6.129   7.818  1.00  0.00     0.261 C 
BRANCH  40  41
ATOM     41  O   UNL     1      -0.567   5.387   8.999  1.00  0.00    -0.460 OA
BRANCH  41  42
ATOM     42  C   UNL     1       0.446   4.835   9.702  1.00  0.00     0.338 C 
ATOM     43  O   UNL     1       1.624   4.847   9.418  1.00  0.00    -0.246 OA
BRANCH  42  44
ATOM     44  C   UNL     1      -0.091   4.418  11.018  1.00  0.00     0.060 A 
ATOM     45  C   UNL     1       0.509   4.942  12.171  1.00  0.00     0.016 A 
ATOM     46  C   UNL     1      -1.149   3.512  11.122  1.00  0.00     0.016 A 
ATOM     47  C   UNL     1       0.102   4.506  13.430  1.00  0.00     0.010 A 
ATOM     48  C   UNL     1      -1.542   3.058  12.387  1.00  0.00     0.010 A 
ATOM     49  C   UNL     1      -0.880   3.514  13.542  1.00  0.00    -0.014 A 
BRANCH  49  50
ATOM     50  C   UNL     1      -1.018   2.797  14.836  1.00  0.00     0.031 A 
ATOM     51  C   UNL     1      -0.305   1.478  14.996  1.00  0.00     0.074 A 
ATOM     52  C   UNL     1      -1.693   3.330  15.871  1.00  0.00     0.049 A 
ATOM     53  N   UNL     1      -0.237   0.691  16.037  1.00  0.00    -0.248 NA
ATOM     54  C   UNL     1       0.439   0.986  13.823  1.00  0.00     0.031 C 
ATOM     55  C   UNL     1      -2.399   4.609  15.854  1.00  0.00     0.029 A 
ATOM     56  N   UNL     1      -1.897   2.848  17.141  1.00  0.00    -0.354 N 
ATOM     57  C   UNL     1       0.538  -0.394  15.642  1.00  0.00     0.074 A 
ATOM     58  C   UNL     1       0.898  -0.177  14.258  1.00  0.00     0.031 C 
ATOM     59  C   UNL     1      -2.974   4.804  17.055  1.00  0.00     0.029 A 
ATOM     60  C   UNL     1      -2.695   3.656  17.916  1.00  0.00     0.049 A 
ATOM     61  H   UNL     1      -1.507   2.005  17.466  1.00  0.00     0.167 HD
ATOM     62  C   UNL     1       0.937  -1.464  16.368  1.00  0.00     0.034 A 
ATOM     63  C   UNL     1      -3.158   3.477  19.170  1.00  0.00     0.034 A 
ATOM     64  C   UNL     1       0.590  -1.676  17.746  1.00  0.00     0.049 A 
ATOM     65  C   UNL     1      -2.747   2.244  19.938  1.00  0.00     0.074 A 
ATOM     66  C   UNL     1       0.959  -2.720  18.575  1.00  0.00     0.029 A 
ATOM     67  N   UNL     1      -0.217  -0.835  18.495  1.00  0.00    -0.354 N 
ATOM     68  N   UNL     1      -1.933   1.279  19.583  1.00  0.00    -0.248 NA
ATOM     69  C   UNL     1      -3.294   2.094  21.295  1.00  0.00     0.031 C 
ATOM     70  C   UNL     1       0.349  -2.527  19.818  1.00  0.00     0.029 A 
ATOM     71  C   UNL     1      -0.368  -1.341  19.775  1.00  0.00     0.049 A 
ATOM     72  H   UNL     1      -0.623  -0.001  18.167  1.00  0.00     0.167 HD
ATOM     73  C   UNL     1      -1.837   0.434  20.685  1.00  0.00     0.074 A 
ATOM     74  C   UNL     1      -2.658   1.013  21.727  1.00  0.00     0.031 C 
ATOM     75  C   UNL     1      -1.143  -0.724  20.820  1.00  0.00     0.034 A 
BRANCH  62  76
ATOM     76  C   UNL     1       1.817  -2.481  15.687  1.00  0.00     0.023 A 
ATOM     77  C   UNL     1       3.156  -2.156  15.387  1.00  0.00     0.012 A 
ATOM     78  C   UNL     1       1.335  -3.771  15.390  1.00  0.00     0.148 A 
ATOM     79  C   UNL     1       3.992  -3.088  14.774  1.00  0.00     0.002 A 
ATOM     80  C   UNL     1       2.188  -4.709  14.821  1.00  0.00     0.091 A 
ATOM     81  F   UNL     1       0.053  -4.053  15.664  1.00  0.00    -0.205 F 
ATOM     82  C   UNL     1       3.512  -4.366  14.501  1.00  0.00     0.022 A 
BRANCH  80  83
ATOM     83  S   UNL     1       1.691  -6.405  14.501  1.00  0.00     0.127 S 
ATOM     84  O   UNL     1       1.704  -6.445  13.039  1.00  0.00    -0.237 OA
ATOM     85  O   UNL     1       2.765  -7.164  15.140  1.00  0.00    -0.237 OA
ATOM     86  O   UNL     1       0.381  -6.565  15.115  1.00  0.00    -0.744 OA
ENDBRANCH  80  83
ENDBRANCH  62  76
BRANCH  63  87
ATOM     87  C   UNL     1      -4.047   4.495  19.802  1.00  0.00     0.023 A 
ATOM     88  C   UNL     1      -3.592   5.222  20.921  1.00  0.00     0.012 A 
ATOM     89  C   UNL     1      -5.351   4.725  19.321  1.00  0.00     0.148 A 
ATOM     90  C   UNL     1      -4.433   6.126  21.573  1.00  0.00     0.002 A 
ATOM     91  C   UNL     1      -6.163   5.668  19.941  1.00  0.00     0.091 A 
ATOM     92  F   UNL     1      -5.775   4.011  18.269  1.00  0.00    -0.205 F 
ATOM     93  C   UNL     1      -5.714   6.354  21.079  1.00  0.00     0.022 A 
BRANCH  91  94
ATOM     94  S   UNL     1      -7.782   6.113  19.303  1.00  0.00     0.127 S 
ATOM     95  O   UNL     1      -8.668   5.556  20.321  1.00  0.00    -0.237 OA
ATOM     96  O   UNL     1      -7.706   7.575  19.284  1.00  0.00    -0.237 OA
ATOM     97  O   UNL     1      -7.868   5.500  17.985  1.00  0.00    -0.744 OA
ENDBRANCH  91  94
ENDBRANCH  63  87
BRANCH  75  98
ATOM     98  C   UNL     1      -1.195  -1.423  22.155  1.00  0.00     0.023 A 
ATOM     99  C   UNL     1      -2.380  -2.060  22.573  1.00  0.00     0.012 A 
ATOM    100  C   UNL     1      -0.044  -1.507  22.965  1.00  0.00     0.148 A 
ATOM    101  C   UNL     1      -2.431  -2.734  23.794  1.00  0.00     0.002 A 
ATOM    102  C   UNL     1      -0.087  -2.225  24.154  1.00  0.00     0.091 A 
ATOM    103  F   UNL     1       1.071  -0.883  22.558  1.00  0.00    -0.205 F 
ATOM    104  C   UNL     1      -1.283  -2.826  24.577  1.00  0.00     0.022 A 
BRANCH 102 105
ATOM    105  S   UNL     1       1.366  -2.484  25.179  1.00  0.00     0.127 S 
ATOM    106  O   UNL     1       1.057  -1.659  26.346  1.00  0.00    -0.237 OA
ATOM    107  O   UNL     1       1.319  -3.926  25.422  1.00  0.00    -0.237 OA
ATOM    108  O   UNL     1       2.504  -2.040  24.386  1.00  0.00    -0.744 OA
ENDBRANCH 102 105
ENDBRANCH  75  98
ENDBRANCH  49  50
ENDBRANCH  42  44
ENDBRANCH  41  42
ENDBRANCH  40  41
ENDBRANCH  39  40
ENDBRANCH  38  39
ENDBRANCH  37  38
ENDBRANCH  36  37
ENDBRANCH  35  36
ENDBRANCH  34  35
ENDBRANCH  33  34
ENDBRANCH   1  33
TORSDOF 32
