REMARK SMILES O=C(OCCOCCOCCOCCOC(=O)c1cc(-c2ccn(C(F)F)c(=O)c2)ccc1O)c1ccc(-c2c3nc(c(-c4cccc(S(=O)(=O)[O-])c4F)c4ccc([nH]4)c(-c4cccc(S(=O)(=O)[O-])c4F)c4nc(c(-c5cccc(S(=O)(=O)[O-])c5F)c5ccc2[nH]5)C=C4)C=C3)cc1
REMARK SMILES IDX 8 1 7 2 6 3 5 4 4 5 3 6 2 7 1 8 35 9 36 10 97 11 37 12 96 13
REMARK SMILES IDX 38 14 39 15 40 16 90 17 41 18 95 19 89 20 91 21 42 22 94 23
REMARK SMILES IDX 88 24 87 25 43 27 75 28 55 29 74 30 56 31 59 32 73 33 92 34
REMARK SMILES IDX 57 35 58 36 72 38 93 39 60 40 44 41 45 42 53 43 46 44 48 45
REMARK SMILES IDX 54 46 47 47 49 48 50 49 51 50 52 51 76 52 77 53 85 54 78 55
REMARK SMILES IDX 80 56 86 57 79 58 81 59 82 60 83 61 84 62 61 63 62 64 70 65
REMARK SMILES IDX 63 66 65 67 71 68 64 69 66 70 67 71 68 72 69 73 9 74 10 75
REMARK SMILES IDX 11 76 12 77 13 78 14 79 15 80 16 81 17 82 18 83 19 84 33 85
REMARK SMILES IDX 20 86 32 87 31 88 34 89 21 91 22 92 30 93 23 94 28 95 24 96
REMARK SMILES IDX 29 97 25 98 26 99 27 100
REMARK H PARENT 91 26 59 37 34 90
REMARK Flexibility Score: inf
ROOT
ATOM      1  C   UNL     1       1.803   0.863   2.280  1.00  0.00     0.188 C 
ENDROOT
BRANCH   1   2
ATOM      2  C   UNL     1       2.284   0.994   0.837  1.00  0.00     0.188 C 
BRANCH   2   3
ATOM      3  O   UNL     1       3.613   0.483   0.690  1.00  0.00    -0.376 OA
BRANCH   3   4
ATOM      4  C   UNL     1       4.483   1.294  -0.096  1.00  0.00     0.202 C 
BRANCH   4   5
ATOM      5  C   UNL     1       4.398   1.046  -1.601  1.00  0.00     0.261 C 
BRANCH   5   6
ATOM      6  O   UNL     1       3.078   0.709  -2.043  1.00  0.00    -0.460 OA
BRANCH   6   7
ATOM      7  C   UNL     1       2.465  -0.500  -2.048  1.00  0.00     0.338 C 
ATOM      8  O   UNL     1       1.338  -0.547  -2.546  1.00  0.00    -0.246 OA
BRANCH   7   9
ATOM      9  C   UNL     1       3.010  -1.770  -1.443  1.00  0.00     0.060 A 
ATOM     10  C   UNL     1       2.161  -2.895  -1.502  1.00  0.00     0.016 A 
ATOM     11  C   UNL     1       4.255  -1.947  -0.830  1.00  0.00     0.016 A 
ATOM     12  C   UNL     1       2.556  -4.143  -1.006  1.00  0.00     0.010 A 
ATOM     13  C   UNL     1       4.655  -3.183  -0.320  1.00  0.00     0.010 A 
ATOM     14  C   UNL     1       3.822  -4.294  -0.435  1.00  0.00    -0.014 A 
BRANCH  14  15
ATOM     15  C   UNL     1       4.402  -5.629  -0.201  1.00  0.00     0.031 A 
ATOM     16  C   UNL     1       4.515  -6.218   1.168  1.00  0.00     0.074 A 
ATOM     17  C   UNL     1       4.958  -6.229  -1.271  1.00  0.00     0.049 A 
ATOM     18  N   UNL     1       4.972  -7.393   1.510  1.00  0.00    -0.248 NA
ATOM     19  C   UNL     1       4.080  -5.386   2.301  1.00  0.00     0.031 C 
ATOM     20  C   UNL     1       5.008  -5.650  -2.619  1.00  0.00     0.029 A 
ATOM     21  N   UNL     1       5.617  -7.420  -1.397  1.00  0.00    -0.354 N 
ATOM     22  C   UNL     1       4.881  -7.451   2.894  1.00  0.00     0.074 A 
ATOM     23  C   UNL     1       4.346  -6.180   3.334  1.00  0.00     0.031 C 
ATOM     24  C   UNL     1       5.674  -6.481  -3.431  1.00  0.00     0.029 A 
ATOM     25  C   UNL     1       6.083  -7.653  -2.669  1.00  0.00     0.049 A 
ATOM     26  H   UNL     1       5.746  -8.049  -0.651  1.00  0.00     0.167 HD
ATOM     27  C   UNL     1       5.197  -8.489   3.704  1.00  0.00     0.034 A 
ATOM     28  C   UNL     1       6.746  -8.709  -3.174  1.00  0.00     0.034 A 
ATOM     29  C   UNL     1       5.724  -9.740   3.223  1.00  0.00     0.049 A 
ATOM     30  C   UNL     1       7.006  -9.875  -2.273  1.00  0.00     0.074 A 
ATOM     31  C   UNL     1       5.979 -10.898   3.935  1.00  0.00     0.029 A 
ATOM     32  N   UNL     1       6.091  -9.989   1.907  1.00  0.00    -0.354 N 
ATOM     33  N   UNL     1       6.733  -9.994  -0.996  1.00  0.00    -0.248 NA
ATOM     34  C   UNL     1       7.614 -11.065  -2.878  1.00  0.00     0.031 C 
ATOM     35  C   UNL     1       6.510 -11.843   3.052  1.00  0.00     0.029 A 
ATOM     36  C   UNL     1       6.576 -11.279   1.787  1.00  0.00     0.049 A 
ATOM     37  H   UNL     1       6.017  -9.342   1.169  1.00  0.00     0.167 HD
ATOM     38  C   UNL     1       7.116 -11.279  -0.643  1.00  0.00     0.074 A 
ATOM     39  C   UNL     1       7.629 -11.904  -1.849  1.00  0.00     0.031 C 
ATOM     40  C   UNL     1       7.056 -11.881   0.569  1.00  0.00     0.034 A 
BRANCH  27  41
ATOM     41  C   UNL     1       4.903  -8.368   5.177  1.00  0.00     0.023 A 
ATOM     42  C   UNL     1       3.568  -8.495   5.613  1.00  0.00     0.012 A 
ATOM     43  C   UNL     1       5.934  -8.268   6.132  1.00  0.00     0.148 A 
ATOM     44  C   UNL     1       3.261  -8.517   6.973  1.00  0.00     0.002 A 
ATOM     45  C   UNL     1       5.623  -8.317   7.488  1.00  0.00     0.091 A 
ATOM     46  F   UNL     1       7.197  -8.146   5.697  1.00  0.00    -0.205 F 
ATOM     47  C   UNL     1       4.288  -8.437   7.909  1.00  0.00     0.022 A 
BRANCH  45  48
ATOM     48  S   UNL     1       6.869  -8.279   8.783  1.00  0.00     0.127 S 
ATOM     49  O   UNL     1       6.519  -7.049   9.494  1.00  0.00    -0.237 OA
ATOM     50  O   UNL     1       6.582  -9.510   9.520  1.00  0.00    -0.237 OA
ATOM     51  O   UNL     1       8.158  -8.254   8.106  1.00  0.00    -0.744 OA
ENDBRANCH  45  48
ENDBRANCH  27  41
BRANCH  28  52
ATOM     52  C   UNL     1       7.053  -8.723  -4.627  1.00  0.00     0.023 A 
ATOM     53  C   UNL     1       6.194  -9.425  -5.494  1.00  0.00     0.012 A 
ATOM     54  C   UNL     1       8.076  -7.919  -5.167  1.00  0.00     0.148 A 
ATOM     55  C   UNL     1       6.346  -9.325  -6.876  1.00  0.00     0.002 A 
ATOM     56  C   UNL     1       8.199  -7.795  -6.546  1.00  0.00     0.091 A 
ATOM     57  F   UNL     1       8.873  -7.254  -4.318  1.00  0.00    -0.205 F 
ATOM     58  C   UNL     1       7.338  -8.501  -7.402  1.00  0.00     0.022 A 
BRANCH  56  59
ATOM     59  S   UNL     1       9.364  -6.665  -7.319  1.00  0.00     0.127 S 
ATOM     60  O   UNL     1      10.291  -7.590  -7.967  1.00  0.00    -0.237 OA
ATOM     61  O   UNL     1       8.499  -5.918  -8.233  1.00  0.00    -0.237 OA
ATOM     62  O   UNL     1       9.924  -5.871  -6.234  1.00  0.00    -0.744 OA
ENDBRANCH  56  59
ENDBRANCH  28  52
BRANCH  40  63
ATOM     63  C   UNL     1       7.569 -13.289   0.663  1.00  0.00     0.023 A 
ATOM     64  C   UNL     1       8.957 -13.508   0.745  1.00  0.00     0.012 A 
ATOM     65  C   UNL     1       6.678 -14.372   0.784  1.00  0.00     0.148 A 
ATOM     66  C   UNL     1       9.455 -14.795   0.938  1.00  0.00     0.002 A 
ATOM     67  C   UNL     1       7.181 -15.646   1.010  1.00  0.00     0.091 A 
ATOM     68  F   UNL     1       5.363 -14.130   0.691  1.00  0.00    -0.205 F 
ATOM     69  C   UNL     1       8.568 -15.860   1.083  1.00  0.00     0.022 A 
BRANCH  67  70
ATOM     70  S   UNL     1       6.121 -17.070   1.280  1.00  0.00     0.127 S 
ATOM     71  O   UNL     1       6.397 -17.876   0.092  1.00  0.00    -0.237 OA
ATOM     72  O   UNL     1       6.654 -17.618   2.527  1.00  0.00    -0.237 OA
ATOM     73  O   UNL     1       4.763 -16.552   1.374  1.00  0.00    -0.744 OA
ENDBRANCH  67  70
ENDBRANCH  40  63
ENDBRANCH  14  15
ENDBRANCH   7   9
ENDBRANCH   6   7
ENDBRANCH   5   6
ENDBRANCH   4   5
ENDBRANCH   3   4
ENDBRANCH   2   3
ENDBRANCH   1   2
BRANCH   1  74
ATOM     74  O   UNL     1       2.417   1.766   3.195  1.00  0.00    -0.377 OA
BRANCH  74  75
ATOM     75  C   UNL     1       3.841   1.775   3.233  1.00  0.00     0.188 C 
BRANCH  75  76
ATOM     76  C   UNL     1       4.595   0.452   3.485  1.00  0.00     0.188 C 
BRANCH  76  77
ATOM     77  O   UNL     1       3.752  -0.637   3.829  1.00  0.00    -0.376 OA
BRANCH  77  78
ATOM     78  C   UNL     1       3.838  -1.069   5.183  1.00  0.00     0.202 C 
BRANCH  78  79
ATOM     79  C   UNL     1       3.182  -0.121   6.191  1.00  0.00     0.261 C 
BRANCH  79  80
ATOM     80  O   UNL     1       3.682   1.228   6.180  1.00  0.00    -0.460 OA
BRANCH  80  81
ATOM     81  C   UNL     1       4.927   1.477   6.663  1.00  0.00     0.342 C 
ATOM     82  O   UNL     1       5.723   0.680   7.091  1.00  0.00    -0.246 OA
BRANCH  81  83
ATOM     83  C   UNL     1       5.230   2.896   6.331  1.00  0.00     0.102 A 
ATOM     84  C   UNL     1       6.290   3.164   5.442  1.00  0.00     0.028 A 
ATOM     85  C   UNL     1       4.377   3.927   6.736  1.00  0.00     0.130 A 
ATOM     86  C   UNL     1       6.442   4.452   4.910  1.00  0.00    -0.017 A 
ATOM     87  C   UNL     1       4.557   5.219   6.247  1.00  0.00     0.048 A 
ATOM     88  C   UNL     1       5.577   5.475   5.330  1.00  0.00     0.012 A 
BRANCH  85  89
ATOM     89  O   UNL     1       3.355   3.678   7.607  1.00  0.00    -0.507 OA
ATOM     90  H   UNL     1       3.225   2.813   7.942  1.00  0.00     0.293 HD
ENDBRANCH  85  89
BRANCH  86  91
ATOM     91  C   UNL     1       7.454   4.778   3.886  1.00  0.00    -0.011 A 
ATOM     92  C   UNL     1       8.802   5.188   4.221  1.00  0.00     0.027 A 
ATOM     93  C   UNL     1       7.060   4.821   2.600  1.00  0.00     0.080 A 
ATOM     94  C   UNL     1       9.618   5.678   3.280  1.00  0.00     0.095 A 
ATOM     95  C   UNL     1       7.966   5.343   1.536  1.00  0.00     0.255 A 
ATOM     96  N   UNL     1       9.211   5.776   1.961  1.00  0.00    -0.258 N 
ATOM     97  O   UNL     1       7.545   5.394   0.384  1.00  0.00    -0.269 OA
BRANCH  96  98
ATOM     98  C   UNL     1      10.068   6.387   0.976  1.00  0.00     0.451 C 
ATOM     99  F   UNL     1      10.294   5.561  -0.073  1.00  0.00    -0.185 F 
ATOM    100  F   UNL     1       9.510   7.528   0.497  1.00  0.00    -0.185 F 
ENDBRANCH  96  98
ENDBRANCH  86  91
ENDBRANCH  81  83
ENDBRANCH  80  81
ENDBRANCH  79  80
ENDBRANCH  78  79
ENDBRANCH  77  78
ENDBRANCH  76  77
ENDBRANCH  75  76
ENDBRANCH  74  75
ENDBRANCH   1  74
TORSDOF 26
