REMARK SMILES COc1ccc(-c2ccc(CCC(=O)OCCOCCOCCOCCOC(=O)c3ccc(-c4c5nc(c(-c6cccc(S(=O)(=O)[O-])c6F)c6ccc([nH]6)c(-c6cccc(S(=O)(=O)[O-])c6F)c6nc(c(-c7cccc(S(=O)(=O)[O-])c7F)c7ccc4[nH]7)C=C6)C=C5)cc3)n2-c2ccc(C(C)=O)cc2)cc1
REMARK SMILES IDX 20 1 19 2 18 3 17 4 16 5 15 6 13 7 14 8 12 9 11 10 10 11
REMARK SMILES IDX 7 12 8 13 93 14 9 15 6 16 3 17 4 18 104 19 5 20 103 21 2 22
REMARK SMILES IDX 1 23 94 24 95 25 102 26 96 27 101 28 97 29 98 30 99 31
REMARK SMILES IDX 100 32 21 33 22 34 23 35 24 36 25 37 26 38 27 39 28 40 29 41
REMARK SMILES IDX 30 42 31 43 92 44 32 45 91 46 33 47 34 48 35 49 85 50 36 51
REMARK SMILES IDX 90 52 84 53 86 54 37 55 89 56 83 57 82 58 38 60 70 61 50 62
REMARK SMILES IDX 69 63 51 64 54 65 68 66 87 67 52 68 53 69 67 71 88 72 55 73
REMARK SMILES IDX 39 74 40 75 48 76 41 77 43 78 49 79 42 80 44 81 45 82 46 83
REMARK SMILES IDX 47 84 71 85 72 86 80 87 73 88 75 89 81 90 74 91 76 92 77 93
REMARK SMILES IDX 78 94 79 95 56 96 57 97 65 98 58 99 60 100 66 101 59 102
REMARK SMILES IDX 61 103 62 104 63 105 64 106
REMARK H PARENT 86 59 54 70
REMARK Flexibility Score: inf
ROOT
ATOM      1  C   UNL     1       4.101   9.306  -6.524  1.00  0.00     0.188 C 
ENDROOT
BRANCH   1   2
ATOM      2  C   UNL     1       5.435  10.050  -6.387  1.00  0.00     0.188 C 
BRANCH   2   3
ATOM      3  O   UNL     1       6.638   9.432  -6.809  1.00  0.00    -0.376 OA
BRANCH   3   4
ATOM      4  C   UNL     1       7.053   8.222  -6.194  1.00  0.00     0.202 C 
BRANCH   4   5
ATOM      5  C   UNL     1       7.021   8.114  -4.670  1.00  0.00     0.261 C 
BRANCH   5   6
ATOM      6  O   UNL     1       5.690   8.098  -4.123  1.00  0.00    -0.463 OA
BRANCH   6   7
ATOM      7  C   UNL     1       5.466   8.902  -3.058  1.00  0.00     0.306 C 
ATOM      8  O   UNL     1       6.270   9.732  -2.642  1.00  0.00    -0.252 OA
BRANCH   7   9
ATOM      9  C   UNL     1       4.188   8.602  -2.307  1.00  0.00     0.129 C 
BRANCH   9  10
ATOM     10  C   UNL     1       2.893   8.307  -3.061  1.00  0.00     0.066 C 
BRANCH  10  11
ATOM     11  C   UNL     1       2.742   6.877  -3.509  1.00  0.00     0.024 A 
ATOM     12  C   UNL     1       2.186   4.694  -3.332  1.00  0.00     0.053 A 
ATOM     13  C   UNL     1       3.084   4.822  -4.376  1.00  0.00     0.029 A 
ATOM     14  N   UNL     1       1.835   5.980  -2.941  1.00  0.00    -0.314 N 
ATOM     15  C   UNL     1       3.416   6.181  -4.494  1.00  0.00     0.024 A 
BRANCH  12  16
ATOM     16  C   UNL     1       1.647   3.452  -2.796  1.00  0.00    -0.001 A 
ATOM     17  C   UNL     1       0.700   1.059  -1.705  1.00  0.00     0.118 A 
ATOM     18  C   UNL     1      -0.154   1.879  -2.446  1.00  0.00     0.047 A 
ATOM     19  C   UNL     1       2.044   1.400  -1.567  1.00  0.00     0.047 A 
ATOM     20  C   UNL     1       0.315   3.079  -2.985  1.00  0.00     0.014 A 
ATOM     21  C   UNL     1       2.514   2.593  -2.110  1.00  0.00     0.014 A 
BRANCH  17  22
ATOM     22  O   UNL     1       0.149  -0.080  -1.187  1.00  0.00    -0.497 OA
ATOM     23  C   UNL     1       0.630  -0.416   0.109  1.00  0.00     0.278 C 
ENDBRANCH  17  22
ENDBRANCH  12  16
BRANCH  14  24
ATOM     24  C   UNL     1       0.767   6.356  -2.090  1.00  0.00     0.046 A 
ATOM     25  C   UNL     1      -0.165   7.288  -2.562  1.00  0.00     0.027 A 
ATOM     26  C   UNL     1       0.694   5.872  -0.786  1.00  0.00     0.027 A 
ATOM     27  C   UNL     1      -1.157   7.777  -1.710  1.00  0.00     0.014 A 
ATOM     28  C   UNL     1      -0.285   6.385   0.069  1.00  0.00     0.014 A 
ATOM     29  C   UNL     1      -1.209   7.349  -0.379  1.00  0.00     0.017 A 
BRANCH  29  30
ATOM     30  C   UNL     1      -2.174   7.906   0.619  1.00  0.00     0.159 C 
ATOM     31  C   UNL     1      -3.351   8.740   0.181  1.00  0.00     0.093 C 
ATOM     32  O   UNL     1      -2.002   7.671   1.817  1.00  0.00    -0.295 OA
ENDBRANCH  29  30
ENDBRANCH  14  24
ENDBRANCH  10  11
ENDBRANCH   9  10
ENDBRANCH   7   9
ENDBRANCH   6   7
ENDBRANCH   5   6
ENDBRANCH   4   5
ENDBRANCH   3   4
ENDBRANCH   2   3
ENDBRANCH   1   2
BRANCH   1  33
ATOM     33  O   UNL     1       4.052   8.017  -7.085  1.00  0.00    -0.377 OA
BRANCH  33  34
ATOM     34  C   UNL     1       4.493   7.753  -8.401  1.00  0.00     0.188 C 
BRANCH  34  35
ATOM     35  C   UNL     1       4.843   8.872  -9.390  1.00  0.00     0.188 C 
BRANCH  35  36
ATOM     36  O   UNL     1       4.346  10.165  -9.071  1.00  0.00    -0.376 OA
BRANCH  36  37
ATOM     37  C   UNL     1       3.258  10.635  -9.855  1.00  0.00     0.202 C 
BRANCH  37  38
ATOM     38  C   UNL     1       1.892  10.116  -9.392  1.00  0.00     0.261 C 
BRANCH  38  39
ATOM     39  O   UNL     1       1.744   8.697  -9.413  1.00  0.00    -0.460 OA
BRANCH  39  40
ATOM     40  C   UNL     1       1.919   8.149 -10.631  1.00  0.00     0.338 C 
ATOM     41  O   UNL     1       2.343   8.686 -11.637  1.00  0.00    -0.246 OA
BRANCH  40  42
ATOM     42  C   UNL     1       1.452   6.770 -10.649  1.00  0.00     0.060 A 
ATOM     43  C   UNL     1       2.159   5.889 -11.475  1.00  0.00     0.016 A 
ATOM     44  C   UNL     1       0.137   6.548 -10.245  1.00  0.00     0.016 A 
ATOM     45  C   UNL     1       1.466   4.861 -12.077  1.00  0.00     0.010 A 
ATOM     46  C   UNL     1      -0.563   5.554 -10.889  1.00  0.00     0.010 A 
ATOM     47  C   UNL     1       0.088   4.771 -11.853  1.00  0.00    -0.014 A 
BRANCH  47  48
ATOM     48  C   UNL     1      -0.712   3.885 -12.709  1.00  0.00     0.031 A 
ATOM     49  C   UNL     1      -0.893   2.505 -12.104  1.00  0.00     0.074 A 
ATOM     50  C   UNL     1      -1.144   4.442 -13.882  1.00  0.00     0.049 A 
ATOM     51  N   UNL     1      -1.116   1.373 -12.698  1.00  0.00    -0.248 NA
ATOM     52  C   UNL     1      -0.680   2.326 -10.642  1.00  0.00     0.031 C 
ATOM     53  C   UNL     1      -0.833   5.826 -14.310  1.00  0.00     0.029 A 
ATOM     54  N   UNL     1      -1.917   3.999 -14.937  1.00  0.00    -0.354 N 
ATOM     55  C   UNL     1      -1.315   0.428 -11.675  1.00  0.00     0.074 A 
ATOM     56  C   UNL     1      -0.869   1.021 -10.454  1.00  0.00     0.031 C 
ATOM     57  C   UNL     1      -1.351   6.083 -15.527  1.00  0.00     0.029 A 
ATOM     58  C   UNL     1      -2.088   4.925 -15.996  1.00  0.00     0.049 A 
ATOM     59  H   UNL     1      -2.322   3.102 -14.952  1.00  0.00     0.167 HD
ATOM     60  C   UNL     1      -2.007  -0.729 -11.855  1.00  0.00     0.034 A 
ATOM     61  C   UNL     1      -2.763   4.782 -17.178  1.00  0.00     0.034 A 
ATOM     62  C   UNL     1      -2.512  -0.807 -13.187  1.00  0.00     0.049 A 
ATOM     63  C   UNL     1      -3.480   3.501 -17.090  1.00  0.00     0.074 A 
ATOM     64  C   UNL     1      -1.950  -1.118 -14.395  1.00  0.00     0.029 A 
ATOM     65  N   UNL     1      -3.733  -0.208 -13.391  1.00  0.00    -0.354 N 
ATOM     66  N   UNL     1      -4.517   3.293 -16.335  1.00  0.00    -0.248 NA
ATOM     67  C   UNL     1      -2.966   2.335 -17.818  1.00  0.00     0.031 C 
ATOM     68  C   UNL     1      -2.731  -0.418 -15.341  1.00  0.00     0.029 A 
ATOM     69  C   UNL     1      -3.772   0.250 -14.685  1.00  0.00     0.049 A 
ATOM     70  H   UNL     1      -4.454  -0.122 -12.726  1.00  0.00     0.167 HD
ATOM     71  C   UNL     1      -4.526   1.924 -16.215  1.00  0.00     0.074 A 
ATOM     72  C   UNL     1      -3.804   1.412 -17.355  1.00  0.00     0.031 C 
ATOM     73  C   UNL     1      -4.643   1.367 -14.981  1.00  0.00     0.034 A 
BRANCH  60  74
ATOM     74  C   UNL     1      -2.495  -1.756 -10.877  1.00  0.00     0.023 A 
ATOM     75  C   UNL     1      -2.679  -3.060 -11.406  1.00  0.00     0.012 A 
ATOM     76  C   UNL     1      -3.021  -1.488  -9.601  1.00  0.00     0.148 A 
ATOM     77  C   UNL     1      -3.419  -4.033 -10.739  1.00  0.00     0.002 A 
ATOM     78  C   UNL     1      -3.719  -2.485  -8.914  1.00  0.00     0.091 A 
ATOM     79  F   UNL     1      -2.936  -0.253  -9.094  1.00  0.00    -0.205 F 
ATOM     80  C   UNL     1      -3.944  -3.742  -9.492  1.00  0.00     0.022 A 
BRANCH  78  81
ATOM     81  S   UNL     1      -4.365  -2.220  -7.258  1.00  0.00     0.127 S 
ATOM     82  O   UNL     1      -5.729  -1.778  -7.526  1.00  0.00    -0.237 OA
ATOM     83  O   UNL     1      -4.269  -3.558  -6.667  1.00  0.00    -0.237 OA
ATOM     84  O   UNL     1      -3.462  -1.248  -6.654  1.00  0.00    -0.744 OA
ENDBRANCH  78  81
ENDBRANCH  60  74
BRANCH  61  85
ATOM     85  C   UNL     1      -2.874   5.552 -18.477  1.00  0.00     0.023 A 
ATOM     86  C   UNL     1      -2.358   6.842 -18.673  1.00  0.00     0.012 A 
ATOM     87  C   UNL     1      -3.441   4.934 -19.631  1.00  0.00     0.148 A 
ATOM     88  C   UNL     1      -2.315   7.436 -19.950  1.00  0.00     0.002 A 
ATOM     89  C   UNL     1      -3.299   5.471 -20.907  1.00  0.00     0.091 A 
ATOM     90  F   UNL     1      -4.158   3.813 -19.500  1.00  0.00    -0.205 F 
ATOM     91  C   UNL     1      -2.742   6.735 -21.072  1.00  0.00     0.022 A 
BRANCH  89  92
ATOM     92  S   UNL     1      -3.670   4.514 -22.390  1.00  0.00     0.127 S 
ATOM     93  O   UNL     1      -4.669   5.347 -23.055  1.00  0.00    -0.237 OA
ATOM     94  O   UNL     1      -2.363   4.478 -23.049  1.00  0.00    -0.237 OA
ATOM     95  O   UNL     1      -4.146   3.216 -21.932  1.00  0.00    -0.744 OA
ENDBRANCH  89  92
ENDBRANCH  61  85
BRANCH  73  96
ATOM     96  C   UNL     1      -5.382   2.252 -13.977  1.00  0.00     0.023 A 
ATOM     97  C   UNL     1      -6.712   2.610 -14.283  1.00  0.00     0.012 A 
ATOM     98  C   UNL     1      -4.796   2.855 -12.841  1.00  0.00     0.148 A 
ATOM     99  C   UNL     1      -7.418   3.540 -13.513  1.00  0.00     0.002 A 
ATOM    100  C   UNL     1      -5.499   3.787 -12.072  1.00  0.00     0.091 A 
ATOM    101  F   UNL     1      -3.541   2.538 -12.531  1.00  0.00    -0.205 F 
ATOM    102  C   UNL     1      -6.814   4.128 -12.408  1.00  0.00     0.022 A 
BRANCH 100 103
ATOM    103  S   UNL     1      -4.798   4.626 -10.637  1.00  0.00     0.127 S 
ATOM    104  O   UNL     1      -4.616   5.994 -11.124  1.00  0.00    -0.237 OA
ATOM    105  O   UNL     1      -5.857   4.484  -9.639  1.00  0.00    -0.237 OA
ATOM    106  O   UNL     1      -3.560   3.928 -10.319  1.00  0.00    -0.744 OA
ENDBRANCH 100 103
ENDBRANCH  73  96
ENDBRANCH  47  48
ENDBRANCH  40  42
ENDBRANCH  39  40
ENDBRANCH  38  39
ENDBRANCH  37  38
ENDBRANCH  36  37
ENDBRANCH  35  36
ENDBRANCH  34  35
ENDBRANCH  33  34
ENDBRANCH   1  33
TORSDOF 29
