REMARK SMILES CN(C)Nc1ncnc(Nc2ccc(C(=O)OCCOCCOCCOCCOC(=O)c3ccc(-c4c5nc(c(-c6cccc(S(=O)(=O)[O-])c6F)c6ccc([nH]6)c(-c6cccc(S(=O)(=O)[O-])c6F)c6nc(c(-c7cccc(S(=O)(=O)[O-])c7F)c7ccc4[nH]7)C=C6)C=C5)cc3)cc2)c1[N+](=O)[O-]
REMARK SMILES IDX 22 1 21 2 20 3 19 4 18 5 17 6 15 7 16 8 14 9 11 10 12 11
REMARK SMILES IDX 96 12 13 13 95 14 10 15 9 17 5 18 6 19 97 20 7 21 8 22 4 23
REMARK SMILES IDX 2 25 1 26 3 27 98 28 99 29 100 30 23 31 24 32 25 33 26 34
REMARK SMILES IDX 27 35 28 36 29 37 30 38 31 39 32 40 33 41 94 42 34 43 93 44
REMARK SMILES IDX 35 45 36 46 37 47 87 48 38 49 92 50 86 51 88 52 39 53 91 54
REMARK SMILES IDX 85 55 84 56 40 58 72 59 52 60 71 61 53 62 56 63 70 64 89 65
REMARK SMILES IDX 54 66 55 67 69 69 90 70 57 71 41 72 42 73 50 74 43 75 45 76
REMARK SMILES IDX 51 77 44 78 46 79 47 80 48 81 49 82 73 83 74 84 82 85 75 86
REMARK SMILES IDX 77 87 83 88 76 89 78 90 79 91 80 92 81 93 58 94 59 95 67 96
REMARK SMILES IDX 60 97 62 98 68 99 61 100 63 101 64 102 65 103 66 104
REMARK H PARENT 10 16 4 24 88 57 56 68
REMARK Flexibility Score: inf
ROOT
ATOM      1  C   UNL     1       7.867   6.284  -3.253  1.00  0.00     0.188 C 
ENDROOT
BRANCH   1   2
ATOM      2  C   UNL     1       9.016   5.884  -4.206  1.00  0.00     0.188 C 
BRANCH   2   3
ATOM      3  O   UNL     1       9.274   6.807  -5.248  1.00  0.00    -0.376 OA
BRANCH   3   4
ATOM      4  C   UNL     1       8.939   6.471  -6.581  1.00  0.00     0.202 C 
BRANCH   4   5
ATOM      5  C   UNL     1       7.474   6.168  -6.926  1.00  0.00     0.261 C 
BRANCH   5   6
ATOM      6  O   UNL     1       6.784   5.332  -5.996  1.00  0.00    -0.460 OA
BRANCH   6   7
ATOM      7  C   UNL     1       7.123   4.027  -5.989  1.00  0.00     0.338 C 
ATOM      8  O   UNL     1       7.949   3.479  -6.698  1.00  0.00    -0.246 OA
BRANCH   7   9
ATOM      9  C   UNL     1       6.491   3.401  -4.807  1.00  0.00     0.060 A 
ATOM     10  C   UNL     1       5.339   2.073  -2.638  1.00  0.00     0.040 A 
ATOM     11  C   UNL     1       6.689   1.876  -2.937  1.00  0.00     0.027 A 
ATOM     12  C   UNL     1       4.606   3.027  -3.364  1.00  0.00     0.027 A 
ATOM     13  C   UNL     1       7.259   2.521  -4.033  1.00  0.00     0.018 A 
ATOM     14  C   UNL     1       5.178   3.701  -4.441  1.00  0.00     0.018 A 
BRANCH  10  15
ATOM     15  N   UNL     1       4.681   1.136  -1.816  1.00  0.00    -0.334 N 
ATOM     16  H   UNL     1       4.953   1.067  -0.873  1.00  0.00     0.168 HD
BRANCH  15  17
ATOM     17  C   UNL     1       3.652   0.293  -2.282  1.00  0.00     0.215 A 
ATOM     18  C   UNL     1       1.805  -1.153  -1.990  1.00  0.00     0.225 A 
ATOM     19  N   UNL     1       1.486  -1.051  -3.298  1.00  0.00    -0.212 NA
ATOM     20  C   UNL     1       2.946  -0.572  -1.472  1.00  0.00     0.354 A 
ATOM     21  C   UNL     1       2.258  -0.264  -4.042  1.00  0.00     0.227 A 
ATOM     22  N   UNL     1       3.300   0.425  -3.583  1.00  0.00    -0.212 NA
BRANCH  18  23
ATOM     23  N   UNL     1       0.788  -1.766  -1.250  1.00  0.00    -0.298 N 
ATOM     24  H   UNL     1       0.414  -2.605  -1.604  1.00  0.00     0.184 HD
BRANCH  23  25
ATOM     25  N   UNL     1       0.247  -1.272  -0.024  1.00  0.00    -0.228 NA
ATOM     26  C   UNL     1       0.278   0.200   0.080  1.00  0.00     0.130 C 
ATOM     27  C   UNL     1      -1.172  -1.678  -0.001  1.00  0.00     0.130 C 
ENDBRANCH  23  25
ENDBRANCH  18  23
BRANCH  20  28
ATOM     28  N   UNL     1       3.470  -0.986  -0.201  1.00  0.00     0.070 N 
ATOM     29  O   UNL     1       3.935  -0.112   0.547  1.00  0.00    -0.258 OA
ATOM     30  O   UNL     1       3.546  -2.204   0.021  1.00  0.00    -0.258 OA
ENDBRANCH  20  28
ENDBRANCH  15  17
ENDBRANCH  10  15
ENDBRANCH   7   9
ENDBRANCH   6   7
ENDBRANCH   5   6
ENDBRANCH   4   5
ENDBRANCH   3   4
ENDBRANCH   2   3
ENDBRANCH   1   2
BRANCH   1  31
ATOM     31  O   UNL     1       7.044   7.402  -3.552  1.00  0.00    -0.377 OA
BRANCH  31  32
ATOM     32  C   UNL     1       7.614   8.592  -4.084  1.00  0.00     0.188 C 
BRANCH  32  33
ATOM     33  C   UNL     1       9.042   9.030  -3.687  1.00  0.00     0.188 C 
BRANCH  33  34
ATOM     34  O   UNL     1       9.657   8.217  -2.701  1.00  0.00    -0.376 OA
BRANCH  34  35
ATOM     35  C   UNL     1       9.757   8.746  -1.391  1.00  0.00     0.202 C 
BRANCH  35  36
ATOM     36  C   UNL     1       8.451   9.097  -0.665  1.00  0.00     0.261 C 
BRANCH  36  37
ATOM     37  O   UNL     1       7.550   9.975  -1.357  1.00  0.00    -0.460 OA
BRANCH  37  38
ATOM     38  C   UNL     1       7.959  11.245  -1.585  1.00  0.00     0.338 C 
ATOM     39  O   UNL     1       9.016  11.743  -1.266  1.00  0.00    -0.246 OA
BRANCH  38  40
ATOM     40  C   UNL     1       6.955  11.866  -2.479  1.00  0.00     0.060 A 
ATOM     41  C   UNL     1       7.341  12.275  -3.763  1.00  0.00     0.016 A 
ATOM     42  C   UNL     1       5.630  12.001  -2.061  1.00  0.00     0.016 A 
ATOM     43  C   UNL     1       6.400  12.835  -4.629  1.00  0.00     0.010 A 
ATOM     44  C   UNL     1       4.696  12.582  -2.921  1.00  0.00     0.010 A 
ATOM     45  C   UNL     1       5.081  13.023  -4.199  1.00  0.00    -0.014 A 
BRANCH  45  46
ATOM     46  C   UNL     1       4.136  13.816  -5.021  1.00  0.00     0.031 A 
ATOM     47  C   UNL     1       3.894  15.253  -4.656  1.00  0.00     0.074 A 
ATOM     48  C   UNL     1       3.478  13.263  -6.054  1.00  0.00     0.049 A 
ATOM     49  N   UNL     1       3.069  16.116  -5.185  1.00  0.00    -0.248 NA
ATOM     50  C   UNL     1       4.688  15.782  -3.535  1.00  0.00     0.031 C 
ATOM     51  C   UNL     1       3.620  11.880  -6.501  1.00  0.00     0.029 A 
ATOM     52  N   UNL     1       2.523  13.794  -6.887  1.00  0.00    -0.354 N 
ATOM     53  C   UNL     1       3.215  17.280  -4.441  1.00  0.00     0.074 A 
ATOM     54  C   UNL     1       4.201  17.008  -3.418  1.00  0.00     0.031 C 
ATOM     55  C   UNL     1       2.748  11.656  -7.498  1.00  0.00     0.029 A 
ATOM     56  C   UNL     1       1.967  12.869  -7.737  1.00  0.00     0.049 A 
ATOM     57  H   UNL     1       2.264  14.744  -6.876  1.00  0.00     0.167 HD
ATOM     58  C   UNL     1       2.590  18.471  -4.598  1.00  0.00     0.034 A 
ATOM     59  C   UNL     1       0.919  12.976  -8.579  1.00  0.00     0.034 A 
ATOM     60  C   UNL     1       1.607  18.737  -5.614  1.00  0.00     0.049 A 
ATOM     61  C   UNL     1       0.213  14.299  -8.721  1.00  0.00     0.074 A 
ATOM     62  C   UNL     1       0.963  19.928  -5.898  1.00  0.00     0.029 A 
ATOM     63  N   UNL     1       1.098  17.789  -6.490  1.00  0.00    -0.354 N 
ATOM     64  N   UNL     1       0.453  15.432  -8.107  1.00  0.00    -0.248 NA
ATOM     65  C   UNL     1      -0.888  14.366  -9.693  1.00  0.00     0.031 C 
ATOM     66  C   UNL     1       0.029  19.688  -6.912  1.00  0.00     0.029 A 
ATOM     67  C   UNL     1       0.125  18.359  -7.294  1.00  0.00     0.049 A 
ATOM     68  H   UNL     1       1.386  16.849  -6.534  1.00  0.00     0.167 HD
ATOM     69  C   UNL     1      -0.450  16.352  -8.632  1.00  0.00     0.074 A 
ATOM     70  C   UNL     1      -1.225  15.648  -9.632  1.00  0.00     0.031 C 
ATOM     71  C   UNL     1      -0.626  17.658  -8.307  1.00  0.00     0.034 A 
BRANCH  58  72
ATOM     72  C   UNL     1       2.952  19.572  -3.635  1.00  0.00     0.023 A 
ATOM     73  C   UNL     1       4.233  20.162  -3.684  1.00  0.00     0.012 A 
ATOM     74  C   UNL     1       2.019  20.030  -2.685  1.00  0.00     0.148 A 
ATOM     75  C   UNL     1       4.596  21.149  -2.769  1.00  0.00     0.002 A 
ATOM     76  C   UNL     1       2.371  21.050  -1.810  1.00  0.00     0.091 A 
ATOM     77  F   UNL     1       0.814  19.443  -2.635  1.00  0.00    -0.205 F 
ATOM     78  C   UNL     1       3.663  21.599  -1.839  1.00  0.00     0.022 A 
BRANCH  76  79
ATOM     79  S   UNL     1       1.211  21.753  -0.632  1.00  0.00     0.127 S 
ATOM     80  O   UNL     1       1.712  21.215   0.631  1.00  0.00    -0.237 OA
ATOM     81  O   UNL     1       1.426  23.190  -0.810  1.00  0.00    -0.237 OA
ATOM     82  O   UNL     1      -0.106  21.283  -1.038  1.00  0.00    -0.744 OA
ENDBRANCH  76  79
ENDBRANCH  58  72
BRANCH  59  83
ATOM     83  C   UNL     1       0.478  11.779  -9.348  1.00  0.00     0.023 A 
ATOM     84  C   UNL     1       0.692  11.717 -10.738  1.00  0.00     0.012 A 
ATOM     85  C   UNL     1      -0.101  10.675  -8.690  1.00  0.00     0.148 A 
ATOM     86  C   UNL     1       0.323  10.582 -11.461  1.00  0.00     0.002 A 
ATOM     87  C   UNL     1      -0.411   9.526  -9.406  1.00  0.00     0.091 A 
ATOM     88  F   UNL     1      -0.308  10.763  -7.369  1.00  0.00    -0.205 F 
ATOM     89  C   UNL     1      -0.215   9.483 -10.795  1.00  0.00     0.022 A 
BRANCH  87  90
ATOM     90  S   UNL     1      -0.979   8.017  -8.615  1.00  0.00     0.127 S 
ATOM     91  O   UNL     1      -2.316   7.865  -9.182  1.00  0.00    -0.237 OA
ATOM     92  O   UNL     1       0.006   7.045  -9.090  1.00  0.00    -0.237 OA
ATOM     93  O   UNL     1      -0.931   8.275  -7.183  1.00  0.00    -0.744 OA
ENDBRANCH  87  90
ENDBRANCH  59  83
BRANCH  71  94
ATOM     94  C   UNL     1      -1.688  18.431  -9.050  1.00  0.00     0.023 A 
ATOM     95  C   UNL     1      -3.051  18.171  -8.803  1.00  0.00     0.012 A 
ATOM     96  C   UNL     1      -1.334  19.470  -9.935  1.00  0.00     0.148 A 
ATOM     97  C   UNL     1      -4.043  18.909  -9.450  1.00  0.00     0.002 A 
ATOM     98  C   UNL     1      -2.327  20.235 -10.535  1.00  0.00     0.091 A 
ATOM     99  F   UNL     1      -0.033  19.694 -10.168  1.00  0.00    -0.205 F 
ATOM    100  C   UNL     1      -3.682  19.948 -10.305  1.00  0.00     0.022 A 
BRANCH  98 101
ATOM    101  S   UNL     1      -1.960  21.653 -11.576  1.00  0.00     0.127 S 
ATOM    102  O   UNL     1      -2.392  21.178 -12.889  1.00  0.00    -0.237 OA
ATOM    103  O   UNL     1      -2.809  22.692 -10.993  1.00  0.00    -0.237 OA
ATOM    104  O   UNL     1      -0.529  21.893 -11.442  1.00  0.00    -0.744 OA
ENDBRANCH  98 101
ENDBRANCH  71  94
ENDBRANCH  45  46
ENDBRANCH  38  40
ENDBRANCH  37  38
ENDBRANCH  36  37
ENDBRANCH  35  36
ENDBRANCH  34  35
ENDBRANCH  33  34
ENDBRANCH  32  33
ENDBRANCH  31  32
ENDBRANCH   1  31
TORSDOF 28
