REMARK SMILES O=C(CCS(=O)(=O)N1CCN(C(=O)[C@@H]2CCCO2)CC1)OCCOCCOCCOCCOC(=O)c1ccc(-c2c3nc(c(-c4cccc(S(=O)(=O)[O-])c4F)c4ccc([nH]4)c(-c4cccc(S(=O)(=O)[O-])c4F)c4nc(c(-c5cccc(S(=O)(=O)[O-])c5F)c5ccc2[nH]5)C=C4)C=C3)cc1
REMARK SMILES IDX 26 1 25 2 24 3 23 4 22 5 21 6 2 7 1 8 3 9 4 10 5 11 6 12
REMARK SMILES IDX 7 13 8 14 9 15 20 16 10 17 19 18 11 19 12 20 13 21 14 22
REMARK SMILES IDX 15 23 18 24 16 25 17 26 27 27 28 28 29 29 30 30 31 31 32 32
REMARK SMILES IDX 33 33 34 34 35 35 36 36 37 37 98 38 38 39 97 40 39 41 40 42
REMARK SMILES IDX 41 43 91 44 42 45 96 46 90 47 92 48 43 49 95 50 89 51 88 52
REMARK SMILES IDX 44 54 76 55 56 56 75 57 57 58 60 59 74 60 93 61 58 62 59 63
REMARK SMILES IDX 73 65 94 66 61 67 45 68 46 69 54 70 47 71 49 72 55 73 48 74
REMARK SMILES IDX 50 75 51 76 52 77 53 78 77 79 78 80 86 81 79 82 81 83 87 84
REMARK SMILES IDX 80 85 82 86 83 87 84 88 85 89 62 90 63 91 71 92 64 93 66 94
REMARK SMILES IDX 72 95 65 96 67 97 68 98 69 99 70 100
REMARK H PARENT 92 53 60 64
REMARK Flexibility Score: inf
ROOT
ATOM      1  C   UNL     1       3.639  -0.465   3.327  1.00  0.00     0.188 C 
ENDROOT
BRANCH   1   2
ATOM      2  C   UNL     1       4.189  -1.345   2.208  1.00  0.00     0.188 C 
BRANCH   2   3
ATOM      3  O   UNL     1       5.150  -0.822   1.283  1.00  0.00    -0.376 OA
BRANCH   3   4
ATOM      4  C   UNL     1       5.050   0.511   0.764  1.00  0.00     0.202 C 
BRANCH   4   5
ATOM      5  C   UNL     1       4.565   0.881  -0.775  1.00  0.00     0.261 C 
BRANCH   5   6
ATOM      6  O   UNL     1       2.779   0.975  -1.631  1.00  0.00    -0.463 OA
BRANCH   6   7
ATOM      7  C   UNL     1       1.295   0.113  -1.705  1.00  0.00     0.306 C 
ATOM      8  O   UNL     1       0.248   0.695  -1.882  1.00  0.00    -0.252 OA
BRANCH   7   9
ATOM      9  C   UNL     1       1.574  -1.750  -1.880  1.00  0.00     0.140 C 
BRANCH   9  10
ATOM     10  C   UNL     1       3.240  -2.588  -1.849  1.00  0.00     0.166 C 
BRANCH  10  11
ATOM     11  S   UNL     1       5.010  -1.511  -2.572  1.00  0.00     0.214 S 
ATOM     12  O   UNL     1       6.030  -1.400  -1.557  1.00  0.00    -0.212 OA
ATOM     13  O   UNL     1       5.353  -2.145  -3.833  1.00  0.00    -0.212 OA
BRANCH  11  14
ATOM     14  N   UNL     1       4.375   0.209  -3.110  1.00  0.00    -0.198 NA
ATOM     15  C   UNL     1       3.156  -0.455  -2.691  1.00  0.00     0.123 C 
ATOM     16  C   UNL     1       4.139   2.057  -2.591  1.00  0.00     0.123 C 
ATOM     17  C   UNL     1       3.001  -0.504  -0.604  1.00  0.00     0.136 C 
ATOM     18  C   UNL     1       3.191   2.651  -0.941  1.00  0.00     0.136 C 
ATOM     19  N   UNL     1       2.680   1.226   0.180  1.00  0.00    -0.338 N 
ATOM     20  C   UNL     1       1.642   1.341   1.101  1.00  0.00     0.251 C 
ATOM     21  O   UNL     1       1.026   0.305   1.402  1.00  0.00    -0.272 OA
BRANCH  20  22
ATOM     22  C   UNL     1       1.266   2.671   1.822  1.00  0.00     0.207 C 
ATOM     23  C   UNL     1       1.059   3.991   1.099  1.00  0.00     0.044 C 
ATOM     24  O   UNL     1       2.161   2.915   2.908  1.00  0.00    -0.368 OA
ATOM     25  C   UNL     1       1.974   4.984   1.776  1.00  0.00     0.032 C 
ATOM     26  C   UNL     1       2.830   4.147   2.687  1.00  0.00     0.161 C 
ENDBRANCH  20  22
ENDBRANCH  11  14
ENDBRANCH  10  11
ENDBRANCH   9  10
ENDBRANCH   7   9
ENDBRANCH   6   7
ENDBRANCH   5   6
ENDBRANCH   4   5
ENDBRANCH   3   4
ENDBRANCH   2   3
ENDBRANCH   1   2
BRANCH   1  27
ATOM     27  O   UNL     1       4.282   0.785   3.431  1.00  0.00    -0.377 OA
BRANCH  27  28
ATOM     28  C   UNL     1       5.594   0.705   3.962  1.00  0.00     0.188 C 
BRANCH  28  29
ATOM     29  C   UNL     1       5.578   1.415   5.296  1.00  0.00     0.188 C 
BRANCH  29  30
ATOM     30  O   UNL     1       4.626   0.869   6.211  1.00  0.00    -0.376 OA
BRANCH  30  31
ATOM     31  C   UNL     1       3.341   1.514   6.180  1.00  0.00     0.202 C 
BRANCH  31  32
ATOM     32  C   UNL     1       3.304   2.833   6.963  1.00  0.00     0.261 C 
BRANCH  32  33
ATOM     33  O   UNL     1       3.659   3.956   6.133  1.00  0.00    -0.460 OA
BRANCH  33  34
ATOM     34  C   UNL     1       4.928   4.419   6.215  1.00  0.00     0.338 C 
ATOM     35  O   UNL     1       5.816   4.038   6.957  1.00  0.00    -0.246 OA
BRANCH  34  36
ATOM     36  C   UNL     1       5.139   5.350   5.087  1.00  0.00     0.060 A 
ATOM     37  C   UNL     1       6.186   5.127   4.177  1.00  0.00     0.016 A 
ATOM     38  C   UNL     1       4.290   6.447   4.936  1.00  0.00     0.016 A 
ATOM     39  C   UNL     1       6.435   6.050   3.155  1.00  0.00     0.010 A 
ATOM     40  C   UNL     1       4.522   7.352   3.904  1.00  0.00     0.010 A 
ATOM     41  C   UNL     1       5.639   7.199   3.059  1.00  0.00    -0.014 A 
BRANCH  41  42
ATOM     42  C   UNL     1       6.141   8.429   2.393  1.00  0.00     0.031 A 
ATOM     43  C   UNL     1       6.691   9.494   3.307  1.00  0.00     0.074 A 
ATOM     44  C   UNL     1       6.021   8.663   1.075  1.00  0.00     0.049 A 
ATOM     45  N   UNL     1       6.924  10.756   3.073  1.00  0.00    -0.248 NA
ATOM     46  C   UNL     1       6.954   9.078   4.697  1.00  0.00     0.031 C 
ATOM     47  C   UNL     1       5.522   7.721   0.079  1.00  0.00     0.029 A 
ATOM     48  N   UNL     1       6.273   9.812   0.363  1.00  0.00    -0.354 N 
ATOM     49  C   UNL     1       7.274  11.300   4.304  1.00  0.00     0.074 A 
ATOM     50  C   UNL     1       7.203  10.237   5.280  1.00  0.00     0.031 C 
ATOM     51  C   UNL     1       5.468   8.342  -1.115  1.00  0.00     0.029 A 
ATOM     52  C   UNL     1       5.888   9.736  -0.955  1.00  0.00     0.049 A 
ATOM     53  H   UNL     1       6.689  10.611   0.759  1.00  0.00     0.167 HD
ATOM     54  C   UNL     1       7.637  12.568   4.601  1.00  0.00     0.034 A 
ATOM     55  C   UNL     1       5.846  10.693  -1.905  1.00  0.00     0.034 A 
ATOM     56  C   UNL     1       7.768  13.606   3.621  1.00  0.00     0.049 A 
ATOM     57  C   UNL     1       6.280  12.100  -1.565  1.00  0.00     0.074 A 
ATOM     58  C   UNL     1       8.202  14.905   3.799  1.00  0.00     0.029 A 
ATOM     59  N   UNL     1       7.465  13.459   2.277  1.00  0.00    -0.354 N 
ATOM     60  N   UNL     1       6.696  12.585  -0.419  1.00  0.00    -0.248 NA
ATOM     61  C   UNL     1       6.264  13.088  -2.656  1.00  0.00     0.031 C 
ATOM     62  C   UNL     1       8.138  15.554   2.562  1.00  0.00     0.029 A 
ATOM     63  C   UNL     1       7.703  14.645   1.610  1.00  0.00     0.049 A 
ATOM     64  H   UNL     1       7.130  12.632   1.860  1.00  0.00     0.167 HD
ATOM     65  C   UNL     1       7.037  13.913  -0.663  1.00  0.00     0.074 A 
ATOM     66  C   UNL     1       6.783  14.157  -2.067  1.00  0.00     0.031 C 
ATOM     67  C   UNL     1       7.514  14.848   0.197  1.00  0.00     0.034 A 
BRANCH  54  68
ATOM     68  C   UNL     1       7.931  12.882   6.043  1.00  0.00     0.023 A 
ATOM     69  C   UNL     1       9.065  12.326   6.671  1.00  0.00     0.012 A 
ATOM     70  C   UNL     1       7.080  13.729   6.778  1.00  0.00     0.148 A 
ATOM     71  C   UNL     1       9.314  12.560   8.022  1.00  0.00     0.002 A 
ATOM     72  C   UNL     1       7.368  14.005   8.108  1.00  0.00     0.091 A 
ATOM     73  F   UNL     1       5.992  14.226   6.173  1.00  0.00    -0.205 F 
ATOM     74  C   UNL     1       8.472  13.407   8.737  1.00  0.00     0.022 A 
BRANCH  72  75
ATOM     75  S   UNL     1       6.397  15.156   9.086  1.00  0.00     0.127 S 
ATOM     76  O   UNL     1       5.697  14.252   9.998  1.00  0.00    -0.237 OA
ATOM     77  O   UNL     1       7.434  15.975   9.714  1.00  0.00    -0.237 OA
ATOM     78  O   UNL     1       5.551  15.870   8.140  1.00  0.00    -0.744 OA
ENDBRANCH  72  75
ENDBRANCH  54  68
BRANCH  55  79
ATOM     79  C   UNL     1       5.403  10.354  -3.288  1.00  0.00     0.023 A 
ATOM     80  C   UNL     1       6.345  10.358  -4.335  1.00  0.00     0.012 A 
ATOM     81  C   UNL     1       4.066  10.016  -3.570  1.00  0.00     0.148 A 
ATOM     82  C   UNL     1       5.958  10.063  -5.643  1.00  0.00     0.002 A 
ATOM     83  C   UNL     1       3.699   9.667  -4.864  1.00  0.00     0.091 A 
ATOM     84  F   UNL     1       3.184  10.026  -2.561  1.00  0.00    -0.205 F 
ATOM     85  C   UNL     1       4.638   9.709  -5.906  1.00  0.00     0.022 A 
BRANCH  83  86
ATOM     86  S   UNL     1       2.057   9.066  -5.275  1.00  0.00     0.127 S 
ATOM     87  O   UNL     1       1.573  10.107  -6.179  1.00  0.00    -0.237 OA
ATOM     88  O   UNL     1       2.364   7.785  -5.913  1.00  0.00    -0.237 OA
ATOM     89  O   UNL     1       1.349   8.953  -4.008  1.00  0.00    -0.744 OA
ENDBRANCH  83  86
ENDBRANCH  55  79
BRANCH  67  90
ATOM     90  C   UNL     1       7.878  16.205  -0.347  1.00  0.00     0.023 A 
ATOM     91  C   UNL     1       6.871  17.124  -0.699  1.00  0.00     0.012 A 
ATOM     92  C   UNL     1       9.228  16.609  -0.384  1.00  0.00     0.148 A 
ATOM     93  C   UNL     1       7.205  18.418  -1.100  1.00  0.00     0.002 A 
ATOM     94  C   UNL     1       9.550  17.914  -0.732  1.00  0.00     0.091 A 
ATOM     95  F   UNL     1      10.171  15.712  -0.058  1.00  0.00    -0.205 F 
ATOM     96  C   UNL     1       8.541  18.817  -1.101  1.00  0.00     0.022 A 
BRANCH  94  97
ATOM     97  S   UNL     1      11.230  18.545  -0.657  1.00  0.00     0.127 S 
ATOM     98  O   UNL     1      11.548  18.716  -2.074  1.00  0.00    -0.237 OA
ATOM     99  O   UNL     1      11.058  19.794   0.085  1.00  0.00    -0.237 OA
ATOM    100  O   UNL     1      12.012  17.531   0.038  1.00  0.00    -0.744 OA
ENDBRANCH  94  97
ENDBRANCH  67  90
ENDBRANCH  41  42
ENDBRANCH  34  36
ENDBRANCH  33  34
ENDBRANCH  32  33
ENDBRANCH  31  32
ENDBRANCH  30  31
ENDBRANCH  29  30
ENDBRANCH  28  29
ENDBRANCH  27  28
ENDBRANCH   1  27
TORSDOF 27
