REMARK SMILES Cc1cc(/C=C2\C(=O)N(Cc3ccco3)C(=O)N=C2OCCOCCOCCOCCOC(=O)c2ccc(-c3c4nc(c(-c5cccc(S(=O)(=O)[O-])c5F)c5ccc([nH]5)c(-c5cccc(S(=O)(=O)[O-])c5F)c5nc(c(-c6cccc(S(=O)(=O)[O-])c6F)c6ccc3[nH]6)C=C5)C=C4)cc2)c(C)n1-c1ccc(Cl)c(C(=O)[O-])c1
REMARK SMILES IDX 27 1 26 2 25 3 24 4 23 5 22 6 21 7 20 8 19 9 5 10 6 11 7 12
REMARK SMILES IDX 8 13 9 14 18 15 16 16 17 17 4 18 1 19 2 20 3 21 100 22 98 23
REMARK SMILES IDX 99 24 101 25 102 26 110 27 103 28 106 29 104 30 105 31
REMARK SMILES IDX 107 32 108 33 109 34 10 35 11 36 12 37 15 38 13 39 14 40
REMARK SMILES IDX 28 41 29 42 30 43 31 44 32 45 33 46 34 47 35 48 36 49 97 50
REMARK SMILES IDX 37 51 96 52 38 53 39 54 40 55 90 56 41 57 95 58 89 59 91 60
REMARK SMILES IDX 42 61 94 62 88 63 87 64 43 66 75 67 55 68 74 69 56 70 59 71
REMARK SMILES IDX 73 72 92 73 57 74 58 75 72 77 93 78 60 79 44 80 45 81 53 82
REMARK SMILES IDX 46 83 48 84 54 85 47 86 49 87 50 88 51 89 52 90 76 91 77 92
REMARK SMILES IDX 85 93 78 94 80 95 86 96 79 97 81 98 82 99 83 100 84 101
REMARK SMILES IDX 61 102 62 103 70 104 63 105 65 106 71 107 64 108 66 109
REMARK SMILES IDX 67 110 68 111 69 112
REMARK H PARENT 91 65 59 76
REMARK Flexibility Score: inf
ROOT
ATOM      1  C   UNL     1      -3.680  -6.114  -5.219  1.00  0.00     0.188 C 
ENDROOT
BRANCH   1   2
ATOM      2  O   UNL     1      -3.144  -4.985  -4.550  1.00  0.00    -0.377 OA
BRANCH   2   3
ATOM      3  C   UNL     1      -3.172  -3.698  -5.145  1.00  0.00     0.188 C 
BRANCH   3   4
ATOM      4  C   UNL     1      -3.266  -3.486  -6.663  1.00  0.00     0.188 C 
BRANCH   4   5
ATOM      5  O   UNL     1      -3.131  -4.662  -7.428  1.00  0.00    -0.376 OA
BRANCH   5   6
ATOM      6  C   UNL     1      -1.953  -4.917  -8.168  1.00  0.00     0.201 C 
BRANCH   6   7
ATOM      7  C   UNL     1      -0.599  -5.075  -7.429  1.00  0.00     0.260 C 
BRANCH   7   8
ATOM      8  O   UNL     1      -0.136  -4.023  -6.547  1.00  0.00    -0.475 OA
BRANCH   8   9
ATOM      9  C   UNL     1      -0.162  -2.756  -7.001  1.00  0.00     0.231 C 
ATOM     10  C   UNL     1       0.048  -1.935  -4.648  1.00  0.00     0.029 C 
ATOM     11  C   UNL     1       0.061  -1.712  -5.980  1.00  0.00     0.103 C 
ATOM     12  C   UNL     1       0.161  -0.379  -6.613  1.00  0.00     0.267 C 
ATOM     13  O   UNL     1       0.977   0.469  -6.274  1.00  0.00    -0.268 OA
ATOM     14  N   UNL     1      -0.759  -0.244  -7.627  1.00  0.00    -0.250 N 
ATOM     15  N   UNL     1      -0.481  -2.512  -8.220  1.00  0.00    -0.156 NA
ATOM     16  C   UNL     1      -1.044  -1.293  -8.482  1.00  0.00     0.354 C 
ATOM     17  O   UNL     1      -1.858  -1.189  -9.388  1.00  0.00    -0.245 OA
BRANCH  10  18
ATOM     18  C   UNL     1       0.077  -1.025  -3.528  1.00  0.00    -0.003 A 
ATOM     19  C   UNL     1       0.980  -0.127  -0.017  1.00  0.00     0.065 C 
ATOM     20  C   UNL     1       0.548  -0.256  -1.438  1.00  0.00     0.020 A 
ATOM     21  C   UNL     1       0.595  -1.372  -2.252  1.00  0.00     0.031 A 
ATOM     22  N   UNL     1      -0.032   0.768  -2.164  1.00  0.00    -0.318 N 
ATOM     23  C   UNL     1      -0.446   0.259  -3.399  1.00  0.00     0.027 A 
ATOM     24  C   UNL     1      -1.198   1.098  -4.369  1.00  0.00     0.065 C 
BRANCH  22  25
ATOM     25  C   UNL     1      -0.055   2.146  -1.808  1.00  0.00     0.046 A 
ATOM     26  C   UNL     1      -1.252   2.861  -1.825  1.00  0.00     0.028 A 
ATOM     27  C   UNL     1       1.161   2.813  -1.611  1.00  0.00     0.038 A 
ATOM     28  C   UNL     1      -1.226   4.252  -1.754  1.00  0.00     0.023 A 
ATOM     29  C   UNL     1       1.195   4.221  -1.525  1.00  0.00     0.018 A 
ATOM     30  C   UNL     1      -0.009   4.938  -1.628  1.00  0.00     0.050 A 
ATOM     31  Cl  UNL     1      -0.116   6.663  -1.644  1.00  0.00    -0.084 Cl
BRANCH  29  32
ATOM     32  C   UNL     1       2.509   4.916  -1.373  1.00  0.00     0.073 C 
ATOM     33  O   UNL     1       2.737   6.101  -1.360  1.00  0.00    -0.545 OA
ATOM     34  O   UNL     1       3.528   4.040  -1.228  1.00  0.00    -0.545 OA
ENDBRANCH  29  32
ENDBRANCH  22  25
ENDBRANCH  10  18
BRANCH  14  35
ATOM     35  C   UNL     1      -1.436   1.020  -7.839  1.00  0.00     0.206 C 
BRANCH  35  36
ATOM     36  C   UNL     1      -0.890   1.690  -9.031  1.00  0.00     0.123 A 
ATOM     37  C   UNL     1      -1.143   1.561 -10.379  1.00  0.00     0.047 A 
ATOM     38  O   UNL     1       0.106   2.587  -8.816  1.00  0.00    -0.467 OA
ATOM     39  C   UNL     1      -0.188   2.369 -11.031  1.00  0.00     0.042 A 
ATOM     40  C   UNL     1       0.536   2.986 -10.038  1.00  0.00     0.195 A 
ENDBRANCH  35  36
ENDBRANCH  14  35
ENDBRANCH   8   9
ENDBRANCH   7   8
ENDBRANCH   6   7
ENDBRANCH   5   6
ENDBRANCH   4   5
ENDBRANCH   3   4
ENDBRANCH   2   3
ENDBRANCH   1   2
BRANCH   1  41
ATOM     41  C   UNL     1      -5.135  -6.109  -5.708  1.00  0.00     0.188 C 
BRANCH  41  42
ATOM     42  O   UNL     1      -5.758  -4.857  -5.841  1.00  0.00    -0.376 OA
BRANCH  42  43
ATOM     43  C   UNL     1      -6.388  -4.253  -4.724  1.00  0.00     0.202 C 
BRANCH  43  44
ATOM     44  C   UNL     1      -6.814  -4.918  -3.369  1.00  0.00     0.261 C 
BRANCH  44  45
ATOM     45  O   UNL     1      -5.929  -5.513  -2.354  1.00  0.00    -0.460 OA
BRANCH  45  46
ATOM     46  C   UNL     1      -6.260  -6.804  -1.956  1.00  0.00     0.338 C 
ATOM     47  O   UNL     1      -6.721  -7.602  -2.769  1.00  0.00    -0.246 OA
BRANCH  46  48
ATOM     48  C   UNL     1      -5.944  -7.261  -0.491  1.00  0.00     0.060 A 
ATOM     49  C   UNL     1      -5.093  -8.343  -0.286  1.00  0.00     0.016 A 
ATOM     50  C   UNL     1      -6.659  -6.912   0.680  1.00  0.00     0.016 A 
ATOM     51  C   UNL     1      -4.917  -8.972   1.022  1.00  0.00     0.010 A 
ATOM     52  C   UNL     1      -6.532  -7.619   2.008  1.00  0.00     0.010 A 
ATOM     53  C   UNL     1      -5.647  -8.690   2.252  1.00  0.00    -0.014 A 
BRANCH  53  54
ATOM     54  C   UNL     1      -5.680  -9.916   3.458  1.00  0.00     0.031 A 
ATOM     55  C   UNL     1      -5.734 -11.119   2.577  1.00  0.00     0.074 A 
ATOM     56  C   UNL     1      -5.812 -10.256   4.843  1.00  0.00     0.049 A 
ATOM     57  N   UNL     1      -6.651 -11.166   1.649  1.00  0.00    -0.248 NA
ATOM     58  C   UNL     1      -4.627 -12.051   2.352  1.00  0.00     0.031 C 
ATOM     59  C   UNL     1      -6.087  -9.360   5.989  1.00  0.00     0.029 A 
ATOM     60  N   UNL     1      -5.752 -11.520   5.606  1.00  0.00    -0.354 N 
ATOM     61  C   UNL     1      -6.494 -12.354   1.009  1.00  0.00     0.074 A 
ATOM     62  C   UNL     1      -5.099 -12.691   1.272  1.00  0.00     0.031 C 
ATOM     63  C   UNL     1      -6.014  -9.991   7.207  1.00  0.00     0.029 A 
ATOM     64  C   UNL     1      -5.738 -11.428   7.084  1.00  0.00     0.049 A 
ATOM     65  H   UNL     1      -5.723 -12.391   5.149  1.00  0.00     0.167 HD
ATOM     66  C   UNL     1      -7.606 -13.144   1.061  1.00  0.00     0.034 A 
ATOM     67  C   UNL     1      -5.630 -12.393   8.124  1.00  0.00     0.034 A 
ATOM     68  C   UNL     1      -7.458 -14.219   2.001  1.00  0.00     0.049 A 
ATOM     69  C   UNL     1      -6.178 -13.628   7.554  1.00  0.00     0.074 A 
ATOM     70  C   UNL     1      -6.389 -15.027   2.346  1.00  0.00     0.029 A 
ATOM     71  N   UNL     1      -8.332 -14.239   3.064  1.00  0.00    -0.354 N 
ATOM     72  N   UNL     1      -7.461 -13.822   7.497  1.00  0.00    -0.248 NA
ATOM     73  C   UNL     1      -5.353 -14.776   7.194  1.00  0.00     0.031 C 
ATOM     74  C   UNL     1      -6.397 -15.036   3.754  1.00  0.00     0.029 A 
ATOM     75  C   UNL     1      -7.662 -14.673   4.188  1.00  0.00     0.049 A 
ATOM     76  H   UNL     1      -9.282 -13.984   3.028  1.00  0.00     0.167 HD
ATOM     77  C   UNL     1      -7.558 -14.806   6.566  1.00  0.00     0.074 A 
ATOM     78  C   UNL     1      -6.302 -15.533   6.639  1.00  0.00     0.031 C 
ATOM     79  C   UNL     1      -8.282 -14.481   5.470  1.00  0.00     0.034 A 
BRANCH  66  80
ATOM     80  C   UNL     1      -8.904 -12.398   0.786  1.00  0.00     0.023 A 
ATOM     81  C   UNL     1      -9.542 -12.658  -0.435  1.00  0.00     0.012 A 
ATOM     82  C   UNL     1      -9.386 -11.325   1.589  1.00  0.00     0.148 A 
ATOM     83  C   UNL     1     -10.582 -11.836  -0.880  1.00  0.00     0.002 A 
ATOM     84  C   UNL     1     -10.332 -10.439   1.084  1.00  0.00     0.091 A 
ATOM     85  F   UNL     1      -8.910 -11.175   2.836  1.00  0.00    -0.205 F 
ATOM     86  C   UNL     1     -10.945 -10.706  -0.146  1.00  0.00     0.022 A 
BRANCH  84  87
ATOM     87  S   UNL     1     -10.645  -8.827   1.836  1.00  0.00     0.127 S 
ATOM     88  O   UNL     1     -10.591  -7.923   0.680  1.00  0.00    -0.237 OA
ATOM     89  O   UNL     1     -11.977  -8.983   2.409  1.00  0.00    -0.237 OA
ATOM     90  O   UNL     1      -9.572  -8.599   2.797  1.00  0.00    -0.744 OA
ENDBRANCH  84  87
ENDBRANCH  66  80
BRANCH  67  91
ATOM     91  C   UNL     1      -5.444 -12.741   9.703  1.00  0.00     0.023 A 
ATOM     92  C   UNL     1      -6.264 -13.786  10.294  1.00  0.00     0.012 A 
ATOM     93  C   UNL     1      -4.263 -12.486  10.446  1.00  0.00     0.148 A 
ATOM     94  C   UNL     1      -5.906 -14.571  11.419  1.00  0.00     0.002 A 
ATOM     95  C   UNL     1      -3.918 -13.262  11.603  1.00  0.00     0.091 A 
ATOM     96  F   UNL     1      -3.420 -11.556   9.984  1.00  0.00    -0.205 F 
ATOM     97  C   UNL     1      -4.720 -14.316  12.068  1.00  0.00     0.022 A 
BRANCH  95  98
ATOM     98  S   UNL     1      -2.376 -13.066  12.539  1.00  0.00     0.127 S 
ATOM     99  O   UNL     1      -2.835 -13.104  13.930  1.00  0.00    -0.237 OA
ATOM    100  O   UNL     1      -1.617 -14.247  12.126  1.00  0.00    -0.237 OA
ATOM    101  O   UNL     1      -1.829 -11.786  12.116  1.00  0.00    -0.744 OA
ENDBRANCH  95  98
ENDBRANCH  67  91
BRANCH  79 102
ATOM    102  C   UNL     1      -9.580 -13.734   5.683  1.00  0.00     0.023 A 
ATOM    103  C   UNL     1      -9.725 -12.523   6.396  1.00  0.00     0.012 A 
ATOM    104  C   UNL     1     -10.728 -14.307   5.120  1.00  0.00     0.148 A 
ATOM    105  C   UNL     1     -10.979 -11.919   6.551  1.00  0.00     0.002 A 
ATOM    106  C   UNL     1     -11.962 -13.681   5.226  1.00  0.00     0.091 A 
ATOM    107  F   UNL     1     -10.590 -15.479   4.482  1.00  0.00    -0.205 F 
ATOM    108  C   UNL     1     -12.097 -12.488   5.947  1.00  0.00     0.022 A 
BRANCH 106 109
ATOM    109  S   UNL     1     -13.392 -14.378   4.404  1.00  0.00     0.127 S 
ATOM    110  O   UNL     1     -14.053 -15.087   5.499  1.00  0.00    -0.237 OA
ATOM    111  O   UNL     1     -14.108 -13.202   3.917  1.00  0.00    -0.237 OA
ATOM    112  O   UNL     1     -12.851 -15.229   3.348  1.00  0.00    -0.744 OA
ENDBRANCH 106 109
ENDBRANCH  79 102
ENDBRANCH  53  54
ENDBRANCH  46  48
ENDBRANCH  45  46
ENDBRANCH  44  45
ENDBRANCH  43  44
ENDBRANCH  42  43
ENDBRANCH  41  42
ENDBRANCH   1  41
TORSDOF 27
