REMARK SMILES CC[C@H]1CCC[C@H]([N@H+]2[C@@H](C(=O)OCCOCCOCCOCCOC(=O)c3ccc(-c4c5nc(c(-c6cccc(S(=O)(=O)[O-])c6F)c6ccc([nH]6)c(-c6cccc(S(=O)(=O)[O-])c6F)c6nc(c(-c7cccc(S(=O)(=O)[O-])c7F)c7ccc4[nH]7)C=C6)C=C5)cc3)CC[C@@H]3CCCC[C@H]32)C1
REMARK SMILES IDX 19 1 18 2 17 3 16 4 15 5 14 6 13 7 12 8 10 9 11 10 9 11 8 12
REMARK SMILES IDX 97 13 90 15 92 16 96 17 91 18 93 19 95 20 94 21 7 22 3 23
REMARK SMILES IDX 4 24 98 25 5 26 6 27 2 28 1 29 20 30 21 31 22 32 23 33 24 34
REMARK SMILES IDX 25 35 26 36 27 37 28 38 89 39 29 40 88 41 30 42 31 43 32 44
REMARK SMILES IDX 82 45 33 46 87 47 81 48 83 49 34 50 86 51 80 52 79 53 35 55
REMARK SMILES IDX 67 56 47 57 66 58 48 59 51 60 65 61 84 62 49 63 50 64 64 66
REMARK SMILES IDX 85 67 52 68 36 69 37 70 45 71 38 72 40 73 46 74 39 75 41 76
REMARK SMILES IDX 42 77 43 78 44 79 68 80 69 81 77 82 70 83 72 84 78 85 71 86
REMARK SMILES IDX 73 87 74 88 75 89 76 90 53 91 54 92 62 93 55 94 57 95 63 96
REMARK SMILES IDX 56 97 58 98 59 99 60 100 61 101
REMARK H PARENT 8 14 83 54 51 65
REMARK Flexibility Score: inf
ROOT
ATOM      1  C   UNL     1      -1.827   1.993   1.090  1.00  0.00     0.188 C 
ENDROOT
BRANCH   1   2
ATOM      2  O   UNL     1      -0.686   2.658   1.635  1.00  0.00    -0.377 OA
BRANCH   2   3
ATOM      3  C   UNL     1       0.452   1.935   2.078  1.00  0.00     0.188 C 
BRANCH   3   4
ATOM      4  C   UNL     1       0.880   2.130   3.531  1.00  0.00     0.188 C 
BRANCH   4   5
ATOM      5  O   UNL     1      -0.069   1.987   4.570  1.00  0.00    -0.376 OA
BRANCH   5   6
ATOM      6  C   UNL     1      -1.352   2.556   4.367  1.00  0.00     0.202 C 
BRANCH   6   7
ATOM      7  C   UNL     1      -1.501   4.081   4.138  1.00  0.00     0.261 C 
BRANCH   7   8
ATOM      8  O   UNL     1      -0.651   4.751   3.164  1.00  0.00    -0.459 OA
BRANCH   8   9
ATOM      9  C   UNL     1       0.534   5.224   3.624  1.00  0.00     0.365 C 
ATOM     10  O   UNL     1       0.947   4.977   4.763  1.00  0.00    -0.245 OA
BRANCH   9  11
ATOM     11  C   UNL     1       1.234   6.312   2.797  1.00  0.00     0.295 C 
ATOM     12  N   UNL     1       0.745   6.848   1.472  1.00  0.00    -0.318 N 
ATOM     13  C   UNL     1       0.987   8.372   1.721  1.00  0.00     0.188 C 
ATOM     14  H   UNL     1      -0.216   6.597   1.242  1.00  0.00     0.349 HD
ATOM     15  C   UNL     1       2.759   6.600   2.968  1.00  0.00     0.078 C 
ATOM     16  C   UNL     1       2.389   8.817   1.367  1.00  0.00     0.048 C 
ATOM     17  C   UNL     1      -0.086   9.396   2.178  1.00  0.00     0.065 C 
ATOM     18  C   UNL     1       3.313   8.027   2.404  1.00  0.00     0.016 C 
ATOM     19  C   UNL     1       2.653  10.330   1.275  1.00  0.00     0.010 C 
ATOM     20  C   UNL     1       0.657  10.622   2.791  1.00  0.00     0.006 C 
ATOM     21  C   UNL     1       1.522  11.252   1.720  1.00  0.00     0.001 C 
BRANCH  12  22
ATOM     22  C   UNL     1       1.424   6.227   0.147  1.00  0.00     0.185 C 
ATOM     23  C   UNL     1       2.017   3.691  -0.754  1.00  0.00    -0.006 C 
ATOM     24  C   UNL     1       3.372   3.994  -0.154  1.00  0.00     0.004 C 
ATOM     25  C   UNL     1       0.949   4.819  -0.422  1.00  0.00     0.068 C 
ATOM     26  C   UNL     1       3.817   5.299  -0.743  1.00  0.00     0.006 C 
ATOM     27  C   UNL     1       2.944   6.415  -0.213  1.00  0.00     0.065 C 
BRANCH  23  28
ATOM     28  C   UNL     1       2.188   3.284  -2.255  1.00  0.00     0.000 C 
ATOM     29  C   UNL     1       2.943   1.950  -2.455  1.00  0.00     0.004 C 
ENDBRANCH  23  28
ENDBRANCH  12  22
ENDBRANCH   9  11
ENDBRANCH   8   9
ENDBRANCH   7   8
ENDBRANCH   6   7
ENDBRANCH   5   6
ENDBRANCH   4   5
ENDBRANCH   3   4
ENDBRANCH   2   3
ENDBRANCH   1   2
BRANCH   1  30
ATOM     30  C   UNL     1      -1.710   0.495   0.836  1.00  0.00     0.188 C 
BRANCH  30  31
ATOM     31  O   UNL     1      -0.891   0.041  -0.241  1.00  0.00    -0.376 OA
BRANCH  31  32
ATOM     32  C   UNL     1      -0.112   0.984  -0.966  1.00  0.00     0.202 C 
BRANCH  32  33
ATOM     33  C   UNL     1      -0.116   0.724  -2.476  1.00  0.00     0.261 C 
BRANCH  33  34
ATOM     34  O   UNL     1      -1.435   0.561  -2.944  1.00  0.00    -0.460 OA
BRANCH  34  35
ATOM     35  C   UNL     1      -1.929  -0.671  -2.718  1.00  0.00     0.338 C 
ATOM     36  O   UNL     1      -1.320  -1.715  -2.529  1.00  0.00    -0.246 OA
BRANCH  35  37
ATOM     37  C   UNL     1      -3.343  -0.428  -2.466  1.00  0.00     0.060 A 
ATOM     38  C   UNL     1      -3.932  -1.053  -1.363  1.00  0.00     0.016 A 
ATOM     39  C   UNL     1      -4.029   0.509  -3.253  1.00  0.00     0.016 A 
ATOM     40  C   UNL     1      -5.249  -0.773  -1.066  1.00  0.00     0.010 A 
ATOM     41  C   UNL     1      -5.343   0.791  -2.961  1.00  0.00     0.010 A 
ATOM     42  C   UNL     1      -5.955   0.090  -1.914  1.00  0.00    -0.014 A 
BRANCH  42  43
ATOM     43  C   UNL     1      -7.407  -0.037  -1.958  1.00  0.00     0.031 A 
ATOM     44  C   UNL     1      -7.945  -0.993  -2.980  1.00  0.00     0.074 A 
ATOM     45  C   UNL     1      -8.158   0.694  -1.127  1.00  0.00     0.049 A 
ATOM     46  N   UNL     1      -9.179  -1.247  -3.300  1.00  0.00    -0.248 NA
ATOM     47  C   UNL     1      -6.952  -1.754  -3.770  1.00  0.00     0.031 C 
ATOM     48  C   UNL     1      -7.648   1.646  -0.139  1.00  0.00     0.029 A 
ATOM     49  N   UNL     1      -9.512   0.771  -1.012  1.00  0.00    -0.354 N 
ATOM     50  C   UNL     1      -9.107  -2.177  -4.330  1.00  0.00     0.074 A 
ATOM     51  C   UNL     1      -7.718  -2.417  -4.618  1.00  0.00     0.031 C 
ATOM     52  C   UNL     1      -8.690   2.247   0.460  1.00  0.00     0.029 A 
ATOM     53  C   UNL     1      -9.923   1.736  -0.129  1.00  0.00     0.049 A 
ATOM     54  H   UNL     1     -10.133   0.194  -1.513  1.00  0.00     0.167 HD
ATOM     55  C   UNL     1     -10.130  -2.793  -4.957  1.00  0.00     0.034 A 
ATOM     56  C   UNL     1     -11.171   2.165   0.125  1.00  0.00     0.034 A 
ATOM     57  C   UNL     1     -11.496  -2.511  -4.632  1.00  0.00     0.049 A 
ATOM     58  C   UNL     1     -12.294   1.474  -0.601  1.00  0.00     0.074 A 
ATOM     59  C   UNL     1     -12.643  -3.059  -5.165  1.00  0.00     0.029 A 
ATOM     60  N   UNL     1     -11.889  -1.581  -3.678  1.00  0.00    -0.354 N 
ATOM     61  N   UNL     1     -12.228   0.529  -1.513  1.00  0.00    -0.248 NA
ATOM     62  C   UNL     1     -13.657   1.871  -0.241  1.00  0.00     0.031 C 
ATOM     63  C   UNL     1     -13.734  -2.436  -4.550  1.00  0.00     0.029 A 
ATOM     64  C   UNL     1     -13.263  -1.536  -3.602  1.00  0.00     0.049 A 
ATOM     65  H   UNL     1     -11.275  -1.034  -3.136  1.00  0.00     0.167 HD
ATOM     66  C   UNL     1     -13.540   0.190  -1.809  1.00  0.00     0.074 A 
ATOM     67  C   UNL     1     -14.376   1.020  -0.960  1.00  0.00     0.031 C 
ATOM     68  C   UNL     1     -14.027  -0.711  -2.700  1.00  0.00     0.034 A 
BRANCH  55  69
ATOM     69  C   UNL     1      -9.797  -3.812  -6.011  1.00  0.00     0.023 A 
ATOM     70  C   UNL     1      -9.202  -5.037  -5.640  1.00  0.00     0.012 A 
ATOM     71  C   UNL     1     -10.087  -3.570  -7.366  1.00  0.00     0.148 A 
ATOM     72  C   UNL     1      -8.878  -5.992  -6.602  1.00  0.00     0.002 A 
ATOM     73  C   UNL     1      -9.808  -4.547  -8.314  1.00  0.00     0.091 A 
ATOM     74  F   UNL     1     -10.617  -2.386  -7.703  1.00  0.00    -0.205 F 
ATOM     75  C   UNL     1      -9.193  -5.753  -7.936  1.00  0.00     0.022 A 
BRANCH  73  76
ATOM     76  S   UNL     1     -10.237  -4.367 -10.048  1.00  0.00     0.127 S 
ATOM     77  O   UNL     1      -8.921  -4.408 -10.685  1.00  0.00    -0.237 OA
ATOM     78  O   UNL     1     -11.063  -5.552 -10.279  1.00  0.00    -0.237 OA
ATOM     79  O   UNL     1     -10.938  -3.097 -10.163  1.00  0.00    -0.744 OA
ENDBRANCH  73  76
ENDBRANCH  55  69
BRANCH  56  80
ATOM     80  C   UNL     1     -11.405   3.266   1.096  1.00  0.00     0.023 A 
ATOM     81  C   UNL     1     -12.059   3.006   2.314  1.00  0.00     0.012 A 
ATOM     82  C   UNL     1     -10.951   4.573   0.826  1.00  0.00     0.148 A 
ATOM     83  C   UNL     1     -12.299   4.035   3.226  1.00  0.00     0.002 A 
ATOM     84  C   UNL     1     -11.142   5.581   1.763  1.00  0.00     0.091 A 
ATOM     85  F   UNL     1     -10.332   4.803  -0.340  1.00  0.00    -0.205 F 
ATOM     86  C   UNL     1     -11.834   5.319   2.955  1.00  0.00     0.022 A 
BRANCH  84  87
ATOM     87  S   UNL     1     -10.460   7.229   1.549  1.00  0.00     0.127 S 
ATOM     88  O   UNL     1     -11.658   8.013   1.261  1.00  0.00    -0.237 OA
ATOM     89  O   UNL     1      -9.858   7.480   2.860  1.00  0.00    -0.237 OA
ATOM     90  O   UNL     1      -9.497   7.116   0.462  1.00  0.00    -0.744 OA
ENDBRANCH  84  87
ENDBRANCH  56  80
BRANCH  68  91
ATOM     91  C   UNL     1     -15.518  -0.872  -2.751  1.00  0.00     0.023 A 
ATOM     92  C   UNL     1     -16.316   0.135  -3.325  1.00  0.00     0.012 A 
ATOM     93  C   UNL     1     -16.109  -2.066  -2.297  1.00  0.00     0.148 A 
ATOM     94  C   UNL     1     -17.696  -0.029  -3.408  1.00  0.00     0.002 A 
ATOM     95  C   UNL     1     -17.475  -2.247  -2.441  1.00  0.00     0.091 A 
ATOM     96  F   UNL     1     -15.322  -3.001  -1.745  1.00  0.00    -0.205 F 
ATOM     97  C   UNL     1     -18.272  -1.224  -2.979  1.00  0.00     0.022 A 
BRANCH  95  98
ATOM     98  S   UNL     1     -18.284  -3.793  -2.024  1.00  0.00     0.127 S 
ATOM     99  O   UNL     1     -19.063  -3.410  -0.847  1.00  0.00    -0.237 OA
ATOM    100  O   UNL     1     -19.078  -4.056  -3.224  1.00  0.00    -0.237 OA
ATOM    101  O   UNL     1     -17.218  -4.755  -1.780  1.00  0.00    -0.744 OA
ENDBRANCH  95  98
ENDBRANCH  68  91
ENDBRANCH  42  43
ENDBRANCH  35  37
ENDBRANCH  34  35
ENDBRANCH  33  34
ENDBRANCH  32  33
ENDBRANCH  31  32
ENDBRANCH  30  31
ENDBRANCH   1  30
TORSDOF 25
