REMARK SMILES CC(C)(C)OC(=O)NC[C@H]1CC[C@@H](C(=O)OCCOCCOCCOCCOC(=O)c2ccc(-c3c4nc(c(-c5cccc(S(=O)(=O)[O-])c5F)c5ccc([nH]5)c(-c5cccc(S(=O)(=O)[O-])c5F)c5nc(c(-c6cccc(S(=O)(=O)[O-])c6F)c6ccc3[nH]6)C=C5)C=C4)cc2)CC1
REMARK SMILES IDX 21 1 20 2 19 3 18 4 17 5 16 6 14 7 15 8 13 9 10 10 11 11
REMARK SMILES IDX 95 12 12 13 94 14 9 15 8 16 6 17 7 18 5 20 2 21 1 22 3 23
REMARK SMILES IDX 4 24 22 25 23 26 24 27 25 28 26 29 27 30 28 31 29 32 30 33
REMARK SMILES IDX 31 34 32 35 93 36 33 37 92 38 34 39 35 40 36 41 86 42 37 43
REMARK SMILES IDX 91 44 85 45 87 46 38 47 90 48 84 49 83 50 39 52 71 53 51 54
REMARK SMILES IDX 70 55 52 56 55 57 69 58 88 59 53 60 54 61 68 63 89 64 56 65
REMARK SMILES IDX 40 66 41 67 49 68 42 69 44 70 50 71 43 72 45 73 46 74 47 75
REMARK SMILES IDX 48 76 72 77 73 78 81 79 74 80 76 81 82 82 75 83 77 84 78 85
REMARK SMILES IDX 79 86 80 87 57 88 58 89 66 90 59 91 61 92 67 93 60 94 62 95
REMARK SMILES IDX 63 96 64 97 65 98
REMARK H PARENT 8 19 87 51 55 62
REMARK Flexibility Score: inf
ROOT
ATOM      1  C   UNL     1       6.444  -1.501  -3.097  1.00  0.00     0.188 C 
ENDROOT
BRANCH   1   2
ATOM      2  C   UNL     1       7.768  -0.874  -2.634  1.00  0.00     0.188 C 
BRANCH   2   3
ATOM      3  O   UNL     1       7.872  -0.182  -1.398  1.00  0.00    -0.376 OA
BRANCH   3   4
ATOM      4  C   UNL     1       6.788   0.592  -0.907  1.00  0.00     0.202 C 
BRANCH   4   5
ATOM      5  C   UNL     1       6.127   1.683  -1.768  1.00  0.00     0.261 C 
BRANCH   5   6
ATOM      6  O   UNL     1       5.794   1.351  -3.129  1.00  0.00    -0.463 OA
BRANCH   6   7
ATOM      7  C   UNL     1       6.634   1.806  -4.084  1.00  0.00     0.309 C 
ATOM      8  O   UNL     1       7.689   2.389  -3.849  1.00  0.00    -0.252 OA
BRANCH   7   9
ATOM      9  C   UNL     1       6.126   1.635  -5.518  1.00  0.00     0.099 C 
ATOM     10  C   UNL     1       3.149   1.784  -5.811  1.00  0.00     0.008 C 
ATOM     11  C   UNL     1       3.995   3.006  -5.416  1.00  0.00     0.006 C 
ATOM     12  C   UNL     1       3.840   0.481  -5.377  1.00  0.00     0.006 C 
ATOM     13  C   UNL     1       5.428   2.926  -5.942  1.00  0.00     0.015 C 
ATOM     14  C   UNL     1       5.261   0.439  -5.929  1.00  0.00     0.015 C 
BRANCH  10  15
ATOM     15  C   UNL     1       1.732   1.937  -5.245  1.00  0.00     0.123 C 
BRANCH  15  16
ATOM     16  N   UNL     1       0.936   0.744  -5.437  1.00  0.00    -0.321 N 
ATOM     17  C   UNL     1       0.509  -0.062  -4.422  1.00  0.00     0.407 C 
ATOM     18  O   UNL     1      -0.116  -1.088  -4.625  1.00  0.00    -0.225 OA
ATOM     19  H   UNL     1       0.688   0.498  -6.358  1.00  0.00     0.167 HD
BRANCH  17  20
ATOM     20  O   UNL     1       0.902   0.433  -3.235  1.00  0.00    -0.444 OA
BRANCH  20  21
ATOM     21  C   UNL     1       0.492  -0.123  -1.978  1.00  0.00     0.106 C 
ATOM     22  C   UNL     1       1.223   0.773  -0.963  1.00  0.00     0.056 C 
ATOM     23  C   UNL     1       0.998  -1.549  -1.831  1.00  0.00     0.056 C 
ATOM     24  C   UNL     1      -1.026  -0.038  -1.813  1.00  0.00     0.056 C 
ENDBRANCH  20  21
ENDBRANCH  17  20
ENDBRANCH  15  16
ENDBRANCH  10  15
ENDBRANCH   7   9
ENDBRANCH   6   7
ENDBRANCH   5   6
ENDBRANCH   4   5
ENDBRANCH   3   4
ENDBRANCH   2   3
ENDBRANCH   1   2
BRANCH   1  25
ATOM     25  O   UNL     1       5.309  -1.167  -2.329  1.00  0.00    -0.377 OA
BRANCH  25  26
ATOM     26  C   UNL     1       4.810  -2.178  -1.466  1.00  0.00     0.188 C 
BRANCH  26  27
ATOM     27  C   UNL     1       5.861  -2.936  -0.639  1.00  0.00     0.188 C 
BRANCH  27  28
ATOM     28  O   UNL     1       6.847  -3.583  -1.435  1.00  0.00    -0.376 OA
BRANCH  28  29
ATOM     29  C   UNL     1       6.621  -4.933  -1.822  1.00  0.00     0.202 C 
BRANCH  29  30
ATOM     30  C   UNL     1       5.366  -5.250  -2.657  1.00  0.00     0.261 C 
BRANCH  30  31
ATOM     31  O   UNL     1       4.089  -5.025  -2.029  1.00  0.00    -0.460 OA
BRANCH  31  32
ATOM     32  C   UNL     1       3.859  -5.551  -0.808  1.00  0.00     0.338 C 
ATOM     33  O   UNL     1       4.592  -6.295  -0.182  1.00  0.00    -0.246 OA
BRANCH  32  34
ATOM     34  C   UNL     1       2.645  -4.913  -0.249  1.00  0.00     0.060 A 
ATOM     35  C   UNL     1       2.733  -4.230   0.973  1.00  0.00     0.016 A 
ATOM     36  C   UNL     1       1.423  -5.007  -0.910  1.00  0.00     0.016 A 
ATOM     37  C   UNL     1       1.591  -3.669   1.560  1.00  0.00     0.010 A 
ATOM     38  C   UNL     1       0.282  -4.454  -0.317  1.00  0.00     0.010 A 
ATOM     39  C   UNL     1       0.346  -3.803   0.938  1.00  0.00    -0.014 A 
BRANCH  39  40
ATOM     40  C   UNL     1      -0.923  -3.405   1.615  1.00  0.00     0.031 A 
ATOM     41  C   UNL     1      -1.865  -4.499   2.023  1.00  0.00     0.074 A 
ATOM     42  C   UNL     1      -1.285  -2.124   1.835  1.00  0.00     0.049 A 
ATOM     43  N   UNL     1      -3.060  -4.405   2.539  1.00  0.00    -0.248 NA
ATOM     44  C   UNL     1      -1.384  -5.881   1.853  1.00  0.00     0.031 C 
ATOM     45  C   UNL     1      -0.444  -0.957   1.611  1.00  0.00     0.029 A 
ATOM     46  N   UNL     1      -2.488  -1.578   2.227  1.00  0.00    -0.354 N 
ATOM     47  C   UNL     1      -3.462  -5.709   2.778  1.00  0.00     0.074 A 
ATOM     48  C   UNL     1      -2.427  -6.579   2.267  1.00  0.00     0.031 C 
ATOM     49  C   UNL     1      -1.190   0.160   1.696  1.00  0.00     0.029 A 
ATOM     50  C   UNL     1      -2.557  -0.213   2.033  1.00  0.00     0.049 A 
ATOM     51  H   UNL     1      -3.225  -2.109   2.607  1.00  0.00     0.167 HD
ATOM     52  C   UNL     1      -4.565  -6.144   3.427  1.00  0.00     0.034 A 
ATOM     53  C   UNL     1      -3.604   0.636   2.105  1.00  0.00     0.034 A 
ATOM     54  C   UNL     1      -5.596  -5.280   3.924  1.00  0.00     0.049 A 
ATOM     55  C   UNL     1      -4.899   0.122   2.672  1.00  0.00     0.074 A 
ATOM     56  C   UNL     1      -6.728  -5.616   4.642  1.00  0.00     0.029 A 
ATOM     57  N   UNL     1      -5.639  -3.909   3.723  1.00  0.00    -0.354 N 
ATOM     58  N   UNL     1      -5.205  -1.099   3.038  1.00  0.00    -0.248 NA
ATOM     59  C   UNL     1      -5.952   1.112   2.942  1.00  0.00     0.031 C 
ATOM     60  C   UNL     1      -7.482  -4.454   4.831  1.00  0.00     0.029 A 
ATOM     61  C   UNL     1      -6.794  -3.386   4.277  1.00  0.00     0.049 A 
ATOM     62  H   UNL     1      -4.950  -3.385   3.255  1.00  0.00     0.167 HD
ATOM     63  C   UNL     1      -6.444  -1.011   3.659  1.00  0.00     0.074 A 
ATOM     64  C   UNL     1      -6.842   0.381   3.600  1.00  0.00     0.031 C 
ATOM     65  C   UNL     1      -7.168  -1.994   4.248  1.00  0.00     0.034 A 
BRANCH  52  66
ATOM     66  C   UNL     1      -4.672  -7.626   3.647  1.00  0.00     0.023 A 
ATOM     67  C   UNL     1      -3.779  -8.268   4.532  1.00  0.00     0.012 A 
ATOM     68  C   UNL     1      -5.636  -8.385   2.962  1.00  0.00     0.148 A 
ATOM     69  C   UNL     1      -3.808  -9.652   4.689  1.00  0.00     0.002 A 
ATOM     70  C   UNL     1      -5.692  -9.758   3.162  1.00  0.00     0.091 A 
ATOM     71  F   UNL     1      -6.455  -7.758   2.107  1.00  0.00    -0.205 F 
ATOM     72  C   UNL     1      -4.769 -10.395   4.010  1.00  0.00     0.022 A 
BRANCH  70  73
ATOM     73  S   UNL     1      -6.935 -10.794   2.390  1.00  0.00     0.127 S 
ATOM     74  O   UNL     1      -6.124 -11.594   1.473  1.00  0.00    -0.237 OA
ATOM     75  O   UNL     1      -7.468 -11.533   3.535  1.00  0.00    -0.237 OA
ATOM     76  O   UNL     1      -7.880  -9.887   1.756  1.00  0.00    -0.744 OA
ENDBRANCH  70  73
ENDBRANCH  52  66
BRANCH  53  77
ATOM     77  C   UNL     1      -3.464   2.072   1.716  1.00  0.00     0.023 A 
ATOM     78  C   UNL     1      -3.396   3.065   2.712  1.00  0.00     0.012 A 
ATOM     79  C   UNL     1      -3.436   2.460   0.360  1.00  0.00     0.148 A 
ATOM     80  C   UNL     1      -3.338   4.418   2.367  1.00  0.00     0.002 A 
ATOM     81  C   UNL     1      -3.333   3.807   0.023  1.00  0.00     0.091 A 
ATOM     82  F   UNL     1      -3.534   1.504  -0.573  1.00  0.00    -0.205 F 
ATOM     83  C   UNL     1      -3.300   4.788   1.026  1.00  0.00     0.022 A 
BRANCH  81  84
ATOM     84  S   UNL     1      -3.196   4.389  -1.673  1.00  0.00     0.127 S 
ATOM     85  O   UNL     1      -4.428   5.159  -1.828  1.00  0.00    -0.237 OA
ATOM     86  O   UNL     1      -1.973   5.191  -1.615  1.00  0.00    -0.237 OA
ATOM     87  O   UNL     1      -3.096   3.193  -2.496  1.00  0.00    -0.744 OA
ENDBRANCH  81  84
ENDBRANCH  53  77
BRANCH  65  88
ATOM     88  C   UNL     1      -8.445  -1.603   4.943  1.00  0.00     0.023 A 
ATOM     89  C   UNL     1      -9.570  -1.204   4.196  1.00  0.00     0.012 A 
ATOM     90  C   UNL     1      -8.547  -1.712   6.345  1.00  0.00     0.148 A 
ATOM     91  C   UNL     1     -10.768  -0.889   4.837  1.00  0.00     0.002 A 
ATOM     92  C   UNL     1      -9.760  -1.454   6.970  1.00  0.00     0.091 A 
ATOM     93  F   UNL     1      -7.458  -2.073   7.039  1.00  0.00    -0.205 F 
ATOM     94  C   UNL     1     -10.867  -1.027   6.220  1.00  0.00     0.022 A 
BRANCH  92  95
ATOM     95  S   UNL     1     -10.010  -1.711   8.730  1.00  0.00     0.127 S 
ATOM     96  O   UNL     1     -10.166  -0.340   9.212  1.00  0.00    -0.237 OA
ATOM     97  O   UNL     1     -11.236  -2.509   8.752  1.00  0.00    -0.237 OA
ATOM     98  O   UNL     1      -8.824  -2.408   9.210  1.00  0.00    -0.744 OA
ENDBRANCH  92  95
ENDBRANCH  65  88
ENDBRANCH  39  40
ENDBRANCH  32  34
ENDBRANCH  31  32
ENDBRANCH  30  31
ENDBRANCH  29  30
ENDBRANCH  28  29
ENDBRANCH  27  28
ENDBRANCH  26  27
ENDBRANCH  25  26
ENDBRANCH   1  25
TORSDOF 27
