REMARK SMILES O=C(CN1C(=O)/C(=C2/Sc3ccccc3N2CCCS(=O)(=O)[O-])SC1=S)OCCOCCOCCOCCOC(=O)c1ccc(-c2c3nc(c(-c4cccc(S(=O)(=O)[O-])c4F)c4ccc([nH]4)c(-c4cccc(S(=O)(=O)[O-])c4F)c4nc(c(-c5cccc(S(=O)(=O)[O-])c5F)c5ccc2[nH]5)C=C4)C=C3)cc1
REMARK SMILES IDX 32 1 31 2 30 3 29 4 28 5 27 6 2 7 1 8 3 9 4 10 5 11 25 12
REMARK SMILES IDX 6 13 7 14 24 15 26 16 8 17 9 18 16 19 10 20 15 21 11 22
REMARK SMILES IDX 14 23 12 24 13 25 17 26 18 27 19 28 20 29 21 30 22 31 23 32
REMARK SMILES IDX 33 33 34 34 35 35 36 36 37 37 38 38 39 39 40 40 41 41 42 42
REMARK SMILES IDX 43 43 104 44 44 45 103 46 45 47 46 48 47 49 97 50 48 51
REMARK SMILES IDX 102 52 96 53 98 54 49 55 101 56 95 57 94 58 50 60 82 61
REMARK SMILES IDX 62 62 81 63 63 64 66 65 80 66 99 67 64 68 65 69 79 71 100 72
REMARK SMILES IDX 67 73 51 74 52 75 60 76 53 77 55 78 61 79 54 80 56 81 57 82
REMARK SMILES IDX 58 83 59 84 83 85 84 86 92 87 85 88 87 89 93 90 86 91 88 92
REMARK SMILES IDX 89 93 90 94 91 95 68 96 69 97 77 98 70 99 72 100 78 101
REMARK SMILES IDX 71 102 73 103 74 104 75 105 76 106
REMARK H PARENT 98 59 66 70
REMARK Flexibility Score: inf
ROOT
ATOM      1  C   UNL     1       2.129  -1.810   2.259  1.00  0.00     0.188 C 
ENDROOT
BRANCH   1   2
ATOM      2  C   UNL     1       3.025  -2.522   1.235  1.00  0.00     0.188 C 
BRANCH   2   3
ATOM      3  O   UNL     1       4.404  -2.195   1.121  1.00  0.00    -0.376 OA
BRANCH   3   4
ATOM      4  C   UNL     1       4.887  -0.874   0.942  1.00  0.00     0.202 C 
BRANCH   4   5
ATOM      5  C   UNL     1       3.876   0.244   0.953  1.00  0.00     0.261 C 
BRANCH   5   6
ATOM      6  O   UNL     1       2.799   0.160  -0.015  1.00  0.00    -0.462 OA
BRANCH   6   7
ATOM      7  C   UNL     1       2.597  -0.380  -1.228  1.00  0.00     0.326 C 
ATOM      8  O   UNL     1       1.444  -0.373  -1.664  1.00  0.00    -0.250 OA
BRANCH   7   9
ATOM      9  C   UNL     1       3.734  -0.903  -2.093  1.00  0.00     0.250 C 
BRANCH   9  10
ATOM     10  N   UNL     1       3.614  -0.292  -3.443  1.00  0.00    -0.281 N 
ATOM     11  C   UNL     1       4.167   0.941  -3.711  1.00  0.00     0.269 C 
ATOM     12  C   UNL     1       3.145  -0.909  -4.571  1.00  0.00     0.148 C 
ATOM     13  O   UNL     1       5.243   1.323  -3.270  1.00  0.00    -0.268 OA
ATOM     14  C   UNL     1       3.496   1.630  -4.842  1.00  0.00     0.111 C 
ATOM     15  S   UNL     1       3.131   0.258  -5.902  1.00  0.00    -0.052 SA
ATOM     16  S   UNL     1       2.708  -2.504  -4.768  1.00  0.00    -0.052 S 
ATOM     17  C   UNL     1       3.120   2.929  -5.068  1.00  0.00     0.100 C 
ATOM     18  S   UNL     1       2.872   3.283  -6.873  1.00  0.00    -0.068 SA
ATOM     19  N   UNL     1       2.917   4.142  -4.311  1.00  0.00    -0.334 N 
ATOM     20  C   UNL     1       2.653   4.998  -6.522  1.00  0.00     0.037 A 
ATOM     21  C   UNL     1       2.585   5.262  -5.154  1.00  0.00     0.056 A 
ATOM     22  C   UNL     1       2.532   6.008  -7.470  1.00  0.00     0.017 A 
ATOM     23  C   UNL     1       2.216   6.559  -4.762  1.00  0.00     0.027 A 
ATOM     24  C   UNL     1       2.266   7.310  -7.050  1.00  0.00     0.001 A 
ATOM     25  C   UNL     1       2.075   7.579  -5.701  1.00  0.00     0.002 A 
BRANCH  19  26
ATOM     26  C   UNL     1       3.177   4.590  -2.941  1.00  0.00     0.124 C 
BRANCH  26  27
ATOM     27  C   UNL     1       2.420   3.885  -1.855  1.00  0.00     0.037 C 
BRANCH  27  28
ATOM     28  C   UNL     1       3.145   2.694  -1.332  1.00  0.00     0.124 C 
BRANCH  28  29
ATOM     29  S   UNL     1       4.880   2.909  -0.844  1.00  0.00     0.095 S 
ATOM     30  O   UNL     1       4.939   3.916   0.167  1.00  0.00    -0.243 OA
ATOM     31  O   UNL     1       5.492   1.598  -0.672  1.00  0.00    -0.243 OA
ATOM     32  O   UNL     1       5.584   3.436  -2.185  1.00  0.00    -0.748 OA
ENDBRANCH  28  29
ENDBRANCH  27  28
ENDBRANCH  26  27
ENDBRANCH  19  26
ENDBRANCH   9  10
ENDBRANCH   7   9
ENDBRANCH   6   7
ENDBRANCH   5   6
ENDBRANCH   4   5
ENDBRANCH   3   4
ENDBRANCH   2   3
ENDBRANCH   1   2
BRANCH   1  33
ATOM     33  O   UNL     1       2.550  -1.835   3.608  1.00  0.00    -0.377 OA
BRANCH  33  34
ATOM     34  C   UNL     1       3.843  -1.353   3.928  1.00  0.00     0.188 C 
BRANCH  34  35
ATOM     35  C   UNL     1       4.958  -2.411   3.976  1.00  0.00     0.188 C 
BRANCH  35  36
ATOM     36  O   UNL     1       4.646  -3.785   3.886  1.00  0.00    -0.376 OA
BRANCH  36  37
ATOM     37  C   UNL     1       3.466  -4.303   4.461  1.00  0.00     0.202 C 
BRANCH  37  38
ATOM     38  C   UNL     1       2.897  -3.850   5.824  1.00  0.00     0.261 C 
BRANCH  38  39
ATOM     39  O   UNL     1       3.260  -2.574   6.363  1.00  0.00    -0.460 OA
BRANCH  39  40
ATOM     40  C   UNL     1       4.445  -2.455   7.011  1.00  0.00     0.338 C 
ATOM     41  O   UNL     1       5.250  -3.344   7.217  1.00  0.00    -0.246 OA
BRANCH  40  42
ATOM     42  C   UNL     1       4.695  -0.995   7.219  1.00  0.00     0.060 A 
ATOM     43  C   UNL     1       3.687  -0.171   7.728  1.00  0.00     0.016 A 
ATOM     44  C   UNL     1       5.915  -0.425   6.814  1.00  0.00     0.016 A 
ATOM     45  C   UNL     1       3.925   1.197   7.896  1.00  0.00     0.010 A 
ATOM     46  C   UNL     1       6.149   0.950   6.973  1.00  0.00     0.010 A 
ATOM     47  C   UNL     1       5.175   1.762   7.567  1.00  0.00    -0.014 A 
BRANCH  47  48
ATOM     48  C   UNL     1       5.533   3.079   8.161  1.00  0.00     0.031 A 
ATOM     49  C   UNL     1       5.586   4.366   7.395  1.00  0.00     0.074 A 
ATOM     50  C   UNL     1       5.803   3.081   9.483  1.00  0.00     0.049 A 
ATOM     51  N   UNL     1       5.668   5.585   7.867  1.00  0.00    -0.248 NA
ATOM     52  C   UNL     1       5.560   4.291   5.928  1.00  0.00     0.031 C 
ATOM     53  C   UNL     1       5.869   1.879  10.319  1.00  0.00     0.029 A 
ATOM     54  N   UNL     1       6.043   4.108  10.358  1.00  0.00    -0.354 N 
ATOM     55  C   UNL     1       5.708   6.427   6.764  1.00  0.00     0.074 A 
ATOM     56  C   UNL     1       5.656   5.575   5.592  1.00  0.00     0.031 C 
ATOM     57  C   UNL     1       6.070   2.240  11.593  1.00  0.00     0.029 A 
ATOM     58  C   UNL     1       6.168   3.693  11.664  1.00  0.00     0.049 A 
ATOM     59  H   UNL     1       6.119   5.050  10.081  1.00  0.00     0.167 HD
ATOM     60  C   UNL     1       5.766   7.782   6.740  1.00  0.00     0.034 A 
ATOM     61  C   UNL     1       6.313   4.394  12.803  1.00  0.00     0.034 A 
ATOM     62  C   UNL     1       5.813   8.619   7.913  1.00  0.00     0.049 A 
ATOM     63  C   UNL     1       6.330   5.891  12.751  1.00  0.00     0.074 A 
ATOM     64  C   UNL     1       5.778  10.002   7.979  1.00  0.00     0.029 A 
ATOM     65  N   UNL     1       5.933   8.162   9.216  1.00  0.00    -0.354 N 
ATOM     66  N   UNL     1       6.186   6.674  11.711  1.00  0.00    -0.248 NA
ATOM     67  C   UNL     1       6.499   6.603  14.026  1.00  0.00     0.031 C 
ATOM     68  C   UNL     1       5.909  10.382   9.318  1.00  0.00     0.029 A 
ATOM     69  C   UNL     1       5.992   9.235  10.090  1.00  0.00     0.049 A 
ATOM     70  H   UNL     1       5.970   7.215   9.481  1.00  0.00     0.167 HD
ATOM     71  C   UNL     1       6.224   7.971  12.205  1.00  0.00     0.074 A 
ATOM     72  C   UNL     1       6.397   7.870  13.640  1.00  0.00     0.031 C 
ATOM     73  C   UNL     1       6.129   9.135  11.521  1.00  0.00     0.034 A 
BRANCH  60  74
ATOM     74  C   UNL     1       5.726   8.480   5.405  1.00  0.00     0.023 A 
ATOM     75  C   UNL     1       4.493   8.600   4.733  1.00  0.00     0.012 A 
ATOM     76  C   UNL     1       6.861   9.140   4.894  1.00  0.00     0.148 A 
ATOM     77  C   UNL     1       4.393   9.356   3.566  1.00  0.00     0.002 A 
ATOM     78  C   UNL     1       6.748   9.912   3.743  1.00  0.00     0.091 A 
ATOM     79  F   UNL     1       8.022   9.017   5.554  1.00  0.00    -0.205 F 
ATOM     80  C   UNL     1       5.516  10.019   3.076  1.00  0.00     0.022 A 
BRANCH  78  81
ATOM     81  S   UNL     1       8.118  10.851   3.055  1.00  0.00     0.127 S 
ATOM     82  O   UNL     1       8.326  10.172   1.776  1.00  0.00    -0.237 OA
ATOM     83  O   UNL     1       7.547  12.193   2.946  1.00  0.00    -0.237 OA
ATOM     84  O   UNL     1       9.213  10.725   4.007  1.00  0.00    -0.744 OA
ENDBRANCH  78  81
ENDBRANCH  60  74
BRANCH  61  85
ATOM     85  C   UNL     1       6.353   3.660  14.095  1.00  0.00     0.023 A 
ATOM     86  C   UNL     1       5.206   3.642  14.911  1.00  0.00     0.012 A 
ATOM     87  C   UNL     1       7.479   2.901  14.463  1.00  0.00     0.148 A 
ATOM     88  C   UNL     1       5.182   2.880  16.079  1.00  0.00     0.002 A 
ATOM     89  C   UNL     1       7.436   2.116  15.608  1.00  0.00     0.091 A 
ATOM     90  F   UNL     1       8.550   2.928  13.657  1.00  0.00    -0.205 F 
ATOM     91  C   UNL     1       6.292   2.110  16.421  1.00  0.00     0.022 A 
BRANCH  89  92
ATOM     92  S   UNL     1       8.778   1.023  16.084  1.00  0.00     0.127 S 
ATOM     93  O   UNL     1       9.161   1.572  17.383  1.00  0.00    -0.237 OA
ATOM     94  O   UNL     1       8.100  -0.273  16.138  1.00  0.00    -0.237 OA
ATOM     95  O   UNL     1       9.782   1.144  15.037  1.00  0.00    -0.744 OA
ENDBRANCH  89  92
ENDBRANCH  61  85
BRANCH  73  96
ATOM     96  C   UNL     1       6.192  10.424  12.292  1.00  0.00     0.023 A 
ATOM     97  C   UNL     1       7.439  10.916  12.723  1.00  0.00     0.012 A 
ATOM     98  C   UNL     1       5.037  11.215  12.455  1.00  0.00     0.148 A 
ATOM     99  C   UNL     1       7.536  12.181  13.302  1.00  0.00     0.002 A 
ATOM    100  C   UNL     1       5.147  12.488  13.001  1.00  0.00     0.091 A 
ATOM    101  F   UNL     1       3.862  10.718  12.043  1.00  0.00    -0.205 F 
ATOM    102  C   UNL     1       6.395  12.972  13.427  1.00  0.00     0.022 A 
BRANCH 100 103
ATOM    103  S   UNL     1       3.749  13.608  13.137  1.00  0.00     0.127 S 
ATOM    104  O   UNL     1       3.641  13.774  14.586  1.00  0.00    -0.237 OA
ATOM    105  O   UNL     1       4.231  14.790  12.422  1.00  0.00    -0.237 OA
ATOM    106  O   UNL     1       2.622  12.931  12.510  1.00  0.00    -0.744 OA
ENDBRANCH 100 103
ENDBRANCH  73  96
ENDBRANCH  47  48
ENDBRANCH  40  42
ENDBRANCH  39  40
ENDBRANCH  38  39
ENDBRANCH  37  38
ENDBRANCH  36  37
ENDBRANCH  35  36
ENDBRANCH  34  35
ENDBRANCH  33  34
ENDBRANCH   1  33
TORSDOF 28
