REMARK SMILES C[C@](NC(=O)[C@](C)([NH3+])C(F)(F)F)(C(=O)OCCOCCOCCOCCOC(=O)c1ccc(-c2c3nc(c(-c4cccc(S(=O)(=O)[O-])c4F)c4ccc([nH]4)c(-c4cccc(S(=O)(=O)[O-])c4F)c4nc(c(-c5cccc(S(=O)(=O)[O-])c5F)c5ccc2[nH]5)C=C4)C=C3)cc1)c1ccccc1
REMARK SMILES IDX 21 1 20 2 19 3 18 4 17 5 16 6 15 7 13 8 14 9 2 10 1 11 93 12
REMARK SMILES IDX 94 13 98 14 95 15 97 16 96 17 3 18 4 19 5 21 6 22 7 23 8 24
REMARK SMILES IDX 9 28 10 29 11 30 12 31 22 32 23 33 24 34 25 35 26 36 27 37
REMARK SMILES IDX 28 38 29 39 30 40 31 41 92 42 32 43 91 44 33 45 34 46 35 47
REMARK SMILES IDX 85 48 36 49 90 50 84 51 86 52 37 53 89 54 83 55 82 56 38 58
REMARK SMILES IDX 70 59 50 60 69 61 51 62 54 63 68 64 87 65 52 66 53 67 67 69
REMARK SMILES IDX 88 70 55 71 39 72 40 73 48 74 41 75 43 76 49 77 42 78 44 79
REMARK SMILES IDX 45 80 46 81 47 82 71 83 72 84 80 85 73 86 75 87 81 88 74 89
REMARK SMILES IDX 76 90 77 91 78 92 79 93 56 94 57 95 65 96 58 97 60 98 66 99
REMARK SMILES IDX 59 100 61 101 62 102 63 103 64 104
REMARK H PARENT 3 20 8 25 8 26 8 27 86 57 54 68
REMARK Flexibility Score: inf
ROOT
ATOM      1  O   UNL     1       0.967  -7.104   0.600  1.00  0.00    -0.377 OA
ENDROOT
BRANCH   1   2
ATOM      2  C   UNL     1       0.381  -6.502  -0.535  1.00  0.00     0.188 C 
BRANCH   2   3
ATOM      3  C   UNL     1       0.918  -7.039  -1.882  1.00  0.00     0.188 C 
BRANCH   3   4
ATOM      4  O   UNL     1       1.990  -7.967  -1.931  1.00  0.00    -0.376 OA
BRANCH   4   5
ATOM      5  C   UNL     1       3.008  -7.928  -0.947  1.00  0.00     0.202 C 
BRANCH   5   6
ATOM      6  C   UNL     1       3.700  -6.605  -0.548  1.00  0.00     0.261 C 
BRANCH   6   7
ATOM      7  O   UNL     1       2.955  -5.375  -0.654  1.00  0.00    -0.461 OA
BRANCH   7   8
ATOM      8  C   UNL     1       3.058  -4.706  -1.834  1.00  0.00     0.336 C 
ATOM      9  O   UNL     1       3.738  -5.099  -2.779  1.00  0.00    -0.249 OA
BRANCH   8  10
ATOM     10  C   UNL     1       2.305  -3.313  -1.827  1.00  0.00     0.161 C 
ATOM     11  C   UNL     1       3.474  -2.322  -1.894  1.00  0.00     0.053 C 
BRANCH  10  12
ATOM     12  C   UNL     1       1.416  -3.229  -3.129  1.00  0.00    -0.012 A 
ATOM     13  C   UNL     1       1.776  -2.450  -4.243  1.00  0.00     0.007 A 
ATOM     14  C   UNL     1       0.217  -3.969  -3.256  1.00  0.00     0.007 A 
ATOM     15  C   UNL     1       1.025  -2.459  -5.425  1.00  0.00     0.000 A 
ATOM     16  C   UNL     1      -0.527  -3.994  -4.441  1.00  0.00     0.000 A 
ATOM     17  C   UNL     1      -0.116  -3.244  -5.531  1.00  0.00     0.000 A 
ENDBRANCH  10  12
BRANCH  10  18
ATOM     18  N   UNL     1       1.367  -3.071  -0.670  1.00  0.00    -0.331 N 
ATOM     19  C   UNL     1       1.243  -2.770   0.640  1.00  0.00     0.291 C 
ATOM     20  H   UNL     1       0.454  -3.179  -1.021  1.00  0.00     0.165 HD
ATOM     21  O   UNL     1       0.095  -3.031   1.043  1.00  0.00    -0.267 OA
BRANCH  19  22
ATOM     22  C   UNL     1       2.193  -2.000   1.569  1.00  0.00     0.267 C 
ATOM     23  C   UNL     1       1.665  -0.554   1.636  1.00  0.00     0.100 C 
BRANCH  22  24
ATOM     24  N   UNL     1       3.587  -1.920   1.079  1.00  0.00    -0.337 N 
ATOM     25  H   UNL     1       4.153  -1.396   1.747  1.00  0.00     0.345 HD
ATOM     26  H   UNL     1       3.603  -1.448   0.175  1.00  0.00     0.345 HD
ATOM     27  H   UNL     1       3.966  -2.862   0.977  1.00  0.00     0.345 HD
ENDBRANCH  22  24
BRANCH  22  28
ATOM     28  C   UNL     1       2.094  -2.649   2.979  1.00  0.00     0.453 C 
ATOM     29  F   UNL     1       2.933  -2.020   3.843  1.00  0.00    -0.164 F 
ATOM     30  F   UNL     1       0.862  -2.578   3.524  1.00  0.00    -0.164 F 
ATOM     31  F   UNL     1       2.468  -3.950   2.939  1.00  0.00    -0.164 F 
ENDBRANCH  22  28
ENDBRANCH  19  22
ENDBRANCH  10  18
ENDBRANCH   8  10
ENDBRANCH   7   8
ENDBRANCH   6   7
ENDBRANCH   5   6
ENDBRANCH   4   5
ENDBRANCH   3   4
ENDBRANCH   2   3
ENDBRANCH   1   2
BRANCH   1  32
ATOM     32  C   UNL     1       0.213  -8.158   1.181  1.00  0.00     0.188 C 
BRANCH  32  33
ATOM     33  C   UNL     1      -0.351  -9.205   0.200  1.00  0.00     0.188 C 
BRANCH  33  34
ATOM     34  O   UNL     1      -1.148  -8.640  -0.839  1.00  0.00    -0.376 OA
BRANCH  34  35
ATOM     35  C   UNL     1      -2.561  -8.670  -0.735  1.00  0.00     0.202 C 
BRANCH  35  36
ATOM     36  C   UNL     1      -3.220  -7.785   0.337  1.00  0.00     0.261 C 
BRANCH  36  37
ATOM     37  O   UNL     1      -2.772  -7.979   1.683  1.00  0.00    -0.460 OA
BRANCH  37  38
ATOM     38  C   UNL     1      -2.912  -9.213   2.208  1.00  0.00     0.338 C 
ATOM     39  O   UNL     1      -3.452 -10.174   1.681  1.00  0.00    -0.246 OA
BRANCH  38  40
ATOM     40  C   UNL     1      -2.102  -9.282   3.441  1.00  0.00     0.060 A 
ATOM     41  C   UNL     1      -1.142 -10.296   3.549  1.00  0.00     0.016 A 
ATOM     42  C   UNL     1      -2.280  -8.360   4.477  1.00  0.00     0.016 A 
ATOM     43  C   UNL     1      -0.405 -10.437   4.720  1.00  0.00     0.010 A 
ATOM     44  C   UNL     1      -1.559  -8.519   5.664  1.00  0.00     0.010 A 
ATOM     45  C   UNL     1      -0.664  -9.593   5.807  1.00  0.00    -0.014 A 
BRANCH  45  46
ATOM     46  C   UNL     1      -0.202 -10.017   7.149  1.00  0.00     0.031 A 
ATOM     47  C   UNL     1      -1.178 -10.754   8.027  1.00  0.00     0.074 A 
ATOM     48  C   UNL     1       1.062  -9.812   7.556  1.00  0.00     0.049 A 
ATOM     49  N   UNL     1      -1.003 -11.269   9.214  1.00  0.00    -0.248 NA
ATOM     50  C   UNL     1      -2.538 -10.938   7.488  1.00  0.00     0.031 C 
ATOM     51  C   UNL     1       2.103  -9.136   6.785  1.00  0.00     0.029 A 
ATOM     52  N   UNL     1       1.679 -10.154   8.733  1.00  0.00    -0.354 N 
ATOM     53  C   UNL     1      -2.234 -11.802   9.579  1.00  0.00     0.074 A 
ATOM     54  C   UNL     1      -3.151 -11.541   8.493  1.00  0.00     0.031 C 
ATOM     55  C   UNL     1       3.231  -9.099   7.517  1.00  0.00     0.029 A 
ATOM     56  C   UNL     1       2.983  -9.728   8.813  1.00  0.00     0.049 A 
ATOM     57  H   UNL     1       1.231 -10.656   9.451  1.00  0.00     0.167 HD
ATOM     58  C   UNL     1      -2.571 -12.460  10.712  1.00  0.00     0.034 A 
ATOM     59  C   UNL     1       3.866  -9.825   9.827  1.00  0.00     0.034 A 
ATOM     60  C   UNL     1      -1.652 -12.732  11.783  1.00  0.00     0.049 A 
ATOM     61  C   UNL     1       3.455 -10.535  11.093  1.00  0.00     0.074 A 
ATOM     62  C   UNL     1      -1.879 -13.434  12.952  1.00  0.00     0.029 A 
ATOM     63  N   UNL     1      -0.338 -12.293  11.825  1.00  0.00    -0.354 N 
ATOM     64  N   UNL     1       2.323 -11.132  11.379  1.00  0.00    -0.248 NA
ATOM     65  C   UNL     1       4.461 -10.615  12.163  1.00  0.00     0.031 C 
ATOM     66  C   UNL     1      -0.714 -13.378  13.725  1.00  0.00     0.029 A 
ATOM     67  C   UNL     1       0.255 -12.690  13.011  1.00  0.00     0.049 A 
ATOM     68  H   UNL     1       0.108 -11.774  11.117  1.00  0.00     0.167 HD
ATOM     69  C   UNL     1       2.497 -11.700  12.638  1.00  0.00     0.074 A 
ATOM     70  C   UNL     1       3.849 -11.386  13.051  1.00  0.00     0.031 C 
ATOM     71  C   UNL     1       1.617 -12.412  13.387  1.00  0.00     0.034 A 
BRANCH  58  72
ATOM     72  C   UNL     1      -3.998 -12.921  10.854  1.00  0.00     0.023 A 
ATOM     73  C   UNL     1      -4.487 -13.976  10.056  1.00  0.00     0.012 A 
ATOM     74  C   UNL     1      -4.847 -12.325  11.806  1.00  0.00     0.148 A 
ATOM     75  C   UNL     1      -5.810 -14.402  10.177  1.00  0.00     0.002 A 
ATOM     76  C   UNL     1      -6.147 -12.790  11.958  1.00  0.00     0.091 A 
ATOM     77  F   UNL     1      -4.372 -11.306  12.536  1.00  0.00    -0.205 F 
ATOM     78  C   UNL     1      -6.635 -13.818  11.134  1.00  0.00     0.022 A 
BRANCH  76  79
ATOM     79  S   UNL     1      -7.258 -12.160  13.219  1.00  0.00     0.127 S 
ATOM     80  O   UNL     1      -8.243 -11.442  12.412  1.00  0.00    -0.237 OA
ATOM     81  O   UNL     1      -7.754 -13.392  13.833  1.00  0.00    -0.237 OA
ATOM     82  O   UNL     1      -6.444 -11.329  14.095  1.00  0.00    -0.744 OA
ENDBRANCH  76  79
ENDBRANCH  58  72
BRANCH  59  83
ATOM     83  C   UNL     1       5.242  -9.272   9.680  1.00  0.00     0.023 A 
ATOM     84  C   UNL     1       6.344 -10.149   9.636  1.00  0.00     0.012 A 
ATOM     85  C   UNL     1       5.466  -7.885   9.590  1.00  0.00     0.148 A 
ATOM     86  C   UNL     1       7.645  -9.654   9.543  1.00  0.00     0.002 A 
ATOM     87  C   UNL     1       6.760  -7.400   9.442  1.00  0.00     0.091 A 
ATOM     88  F   UNL     1       4.405  -7.067   9.648  1.00  0.00    -0.205 F 
ATOM     89  C   UNL     1       7.852  -8.281   9.437  1.00  0.00     0.022 A 
BRANCH  87  90
ATOM     90  S   UNL     1       7.118  -5.660   9.184  1.00  0.00     0.127 S 
ATOM     91  O   UNL     1       7.845  -5.320  10.405  1.00  0.00    -0.237 OA
ATOM     92  O   UNL     1       7.936  -5.701   7.971  1.00  0.00    -0.237 OA
ATOM     93  O   UNL     1       5.826  -5.009   9.021  1.00  0.00    -0.744 OA
ENDBRANCH  87  90
ENDBRANCH  59  83
BRANCH  71  94
ATOM     94  C   UNL     1       2.102 -12.960  14.705  1.00  0.00     0.023 A 
ATOM     95  C   UNL     1       2.368 -12.094  15.784  1.00  0.00     0.012 A 
ATOM     96  C   UNL     1       2.236 -14.352  14.889  1.00  0.00     0.148 A 
ATOM     97  C   UNL     1       2.804 -12.600  17.009  1.00  0.00     0.002 A 
ATOM     98  C   UNL     1       2.614 -14.852  16.129  1.00  0.00     0.091 A 
ATOM     99  F   UNL     1       1.993 -15.162  13.848  1.00  0.00    -0.205 F 
ATOM    100  C   UNL     1       2.916 -13.977  17.184  1.00  0.00     0.022 A 
BRANCH  98 101
ATOM    101  S   UNL     1       2.681 -16.613  16.475  1.00  0.00     0.127 S 
ATOM    102  O   UNL     1       4.122 -16.848  16.549  1.00  0.00    -0.237 OA
ATOM    103  O   UNL     1       1.982 -16.704  17.758  1.00  0.00    -0.237 OA
ATOM    104  O   UNL     1       1.998 -17.267  15.368  1.00  0.00    -0.744 OA
ENDBRANCH  98 101
ENDBRANCH  71  94
ENDBRANCH  45  46
ENDBRANCH  38  40
ENDBRANCH  37  38
ENDBRANCH  36  37
ENDBRANCH  35  36
ENDBRANCH  34  35
ENDBRANCH  33  34
ENDBRANCH  32  33
ENDBRANCH   1  32
TORSDOF 28
