REMARK SMILES Cc1cc(C(=O)OCCOCCOCCOCCOC(=O)c2ccc(-c3c4nc(c(-c5cccc(S(=O)(=O)[O-])c5F)c5ccc([nH]5)c(-c5cccc(S(=O)(=O)[O-])c5F)c5nc(c(-c6cccc(S(=O)(=O)[O-])c6F)c6ccc3[nH]6)C=C5)C=C4)cc2)c(NC(=O)c2nc(C(C)(C)C)n[nH]2)s1
REMARK SMILES IDX 13 1 12 2 11 3 10 4 9 5 8 6 7 7 5 8 6 9 4 10 1 11 2 12 3 13
REMARK SMILES IDX 98 14 85 15 86 16 87 17 88 19 89 20 90 21 97 22 91 23 96 24
REMARK SMILES IDX 92 26 93 27 94 28 95 29 14 30 15 31 16 32 17 33 18 34 19 35
REMARK SMILES IDX 20 36 21 37 22 38 23 39 84 40 24 41 83 42 25 43 26 44 27 45
REMARK SMILES IDX 77 46 28 47 82 48 76 49 78 50 29 51 81 52 75 53 74 54 30 56
REMARK SMILES IDX 62 57 42 58 61 59 43 60 46 61 60 62 79 63 44 64 45 65 59 67
REMARK SMILES IDX 80 68 47 69 31 70 32 71 40 72 33 73 35 74 41 75 34 76 36 77
REMARK SMILES IDX 37 78 38 79 39 80 63 81 64 82 72 83 65 84 67 85 73 86 66 87
REMARK SMILES IDX 68 88 69 89 70 90 71 91 48 92 49 93 57 94 50 95 52 96 58 97
REMARK SMILES IDX 51 98 53 99 54 100 55 101 56 102
REMARK H PARENT 86 18 97 25 78 55 46 66
REMARK Flexibility Score: inf
ROOT
ATOM      1  O   UNL     1      -2.264  -3.889   1.861  1.00  0.00    -0.377 OA
ENDROOT
BRANCH   1   2
ATOM      2  C   UNL     1      -2.533  -2.495   1.877  1.00  0.00     0.188 C 
BRANCH   2   3
ATOM      3  C   UNL     1      -3.866  -2.172   1.182  1.00  0.00     0.188 C 
BRANCH   3   4
ATOM      4  O   UNL     1      -4.551  -3.339   0.727  1.00  0.00    -0.376 OA
BRANCH   4   5
ATOM      5  C   UNL     1      -4.427  -3.669  -0.651  1.00  0.00     0.202 C 
BRANCH   5   6
ATOM      6  C   UNL     1      -3.053  -4.147  -1.153  1.00  0.00     0.261 C 
BRANCH   6   7
ATOM      7  O   UNL     1      -1.959  -3.217  -1.058  1.00  0.00    -0.460 OA
BRANCH   7   8
ATOM      8  C   UNL     1      -2.082  -1.977  -1.579  1.00  0.00     0.341 C 
ATOM      9  O   UNL     1      -3.040  -1.566  -2.224  1.00  0.00    -0.246 OA
BRANCH   8  10
ATOM     10  C   UNL     1      -1.012  -1.105  -1.104  1.00  0.00     0.095 A 
ATOM     11  C   UNL     1       2.542  -0.572   0.115  1.00  0.00     0.056 C 
ATOM     12  C   UNL     1       1.107  -0.528  -0.285  1.00  0.00     0.004 A 
ATOM     13  C   UNL     1       0.347  -1.515  -0.870  1.00  0.00     0.033 A 
ATOM     14  S   UNL     1       0.179   0.864   0.013  1.00  0.00    -0.122 S 
ATOM     15  C   UNL     1      -1.218   0.208  -0.697  1.00  0.00     0.110 A 
BRANCH  15  16
ATOM     16  N   UNL     1      -2.432   0.882  -0.692  1.00  0.00    -0.310 N 
ATOM     17  C   UNL     1      -2.788   2.142  -0.244  1.00  0.00     0.293 C 
ATOM     18  H   UNL     1      -3.177   0.369  -1.079  1.00  0.00     0.171 HD
ATOM     19  O   UNL     1      -3.978   2.310   0.036  1.00  0.00    -0.265 OA
BRANCH  17  20
ATOM     20  C   UNL     1      -1.832   3.221  -0.228  1.00  0.00     0.214 A 
ATOM     21  N   UNL     1      -1.686   4.119   0.729  1.00  0.00    -0.207 NA
ATOM     22  N   UNL     1      -0.980   3.532  -1.246  1.00  0.00    -0.255 N 
ATOM     23  C   UNL     1      -0.660   4.911   0.275  1.00  0.00     0.156 A 
ATOM     24  N   UNL     1      -0.225   4.601  -0.955  1.00  0.00    -0.158 NA
ATOM     25  H   UNL     1      -0.925   3.032  -2.092  1.00  0.00     0.192 HD
BRANCH  23  26
ATOM     26  C   UNL     1      -0.107   6.059   1.084  1.00  0.00     0.024 C 
ATOM     27  C   UNL     1      -1.031   7.280   0.933  1.00  0.00     0.019 C 
ATOM     28  C   UNL     1      -0.023   5.677   2.576  1.00  0.00     0.019 C 
ATOM     29  C   UNL     1       1.311   6.447   0.618  1.00  0.00     0.019 C 
ENDBRANCH  23  26
ENDBRANCH  17  20
ENDBRANCH  15  16
ENDBRANCH   8  10
ENDBRANCH   7   8
ENDBRANCH   6   7
ENDBRANCH   5   6
ENDBRANCH   4   5
ENDBRANCH   3   4
ENDBRANCH   2   3
ENDBRANCH   1   2
BRANCH   1  30
ATOM     30  C   UNL     1      -2.713  -4.623   2.997  1.00  0.00     0.188 C 
BRANCH  30  31
ATOM     31  C   UNL     1      -4.103  -4.302   3.585  1.00  0.00     0.188 C 
BRANCH  31  32
ATOM     32  O   UNL     1      -4.216  -2.958   4.064  1.00  0.00    -0.376 OA
BRANCH  32  33
ATOM     33  C   UNL     1      -4.227  -2.793   5.480  1.00  0.00     0.202 C 
BRANCH  33  34
ATOM     34  C   UNL     1      -2.827  -2.807   6.106  1.00  0.00     0.261 C 
BRANCH  34  35
ATOM     35  O   UNL     1      -2.143  -4.066   6.012  1.00  0.00    -0.460 OA
BRANCH  35  36
ATOM     36  C   UNL     1      -2.743  -5.133   6.584  1.00  0.00     0.338 C 
ATOM     37  O   UNL     1      -3.761  -5.133   7.252  1.00  0.00    -0.246 OA
BRANCH  36  38
ATOM     38  C   UNL     1      -2.063  -6.349   6.099  1.00  0.00     0.060 A 
ATOM     39  C   UNL     1      -2.840  -7.375   5.546  1.00  0.00     0.016 A 
ATOM     40  C   UNL     1      -0.676  -6.477   6.197  1.00  0.00     0.016 A 
ATOM     41  C   UNL     1      -2.231  -8.560   5.135  1.00  0.00     0.010 A 
ATOM     42  C   UNL     1      -0.070  -7.668   5.798  1.00  0.00     0.010 A 
ATOM     43  C   UNL     1      -0.850  -8.727   5.304  1.00  0.00    -0.014 A 
BRANCH  43  44
ATOM     44  C   UNL     1      -0.244 -10.069   5.159  1.00  0.00     0.031 A 
ATOM     45  C   UNL     1      -0.105 -10.920   6.391  1.00  0.00     0.074 A 
ATOM     46  C   UNL     1       0.208 -10.506   3.972  1.00  0.00     0.049 A 
ATOM     47  N   UNL     1       0.413 -12.112   6.519  1.00  0.00    -0.248 NA
ATOM     48  C   UNL     1      -0.613 -10.345   7.648  1.00  0.00     0.031 C 
ATOM     49  C   UNL     1       0.144  -9.762   2.716  1.00  0.00     0.029 A 
ATOM     50  N   UNL     1       0.841 -11.678   3.641  1.00  0.00    -0.354 N 
ATOM     51  C   UNL     1       0.310 -12.424   7.868  1.00  0.00     0.074 A 
ATOM     52  C   UNL     1      -0.305 -11.290   8.523  1.00  0.00     0.031 C 
ATOM     53  C   UNL     1       0.747 -10.484   1.754  1.00  0.00     0.029 A 
ATOM     54  C   UNL     1       1.247 -11.731   2.329  1.00  0.00     0.049 A 
ATOM     55  H   UNL     1       0.990 -12.410   4.282  1.00  0.00     0.167 HD
ATOM     56  C   UNL     1       0.676 -13.559   8.505  1.00  0.00     0.034 A 
ATOM     57  C   UNL     1       1.954 -12.676   1.677  1.00  0.00     0.034 A 
ATOM     58  C   UNL     1       1.279 -14.688   7.854  1.00  0.00     0.049 A 
ATOM     59  C   UNL     1       2.366 -13.927   2.412  1.00  0.00     0.074 A 
ATOM     60  C   UNL     1       1.642 -15.905   8.402  1.00  0.00     0.029 A 
ATOM     61  N   UNL     1       1.621 -14.732   6.512  1.00  0.00    -0.354 N 
ATOM     62  N   UNL     1       2.127 -14.271   3.655  1.00  0.00    -0.248 NA
ATOM     63  C   UNL     1       3.115 -14.934   1.646  1.00  0.00     0.031 C 
ATOM     64  C   UNL     1       2.219 -16.681   7.391  1.00  0.00     0.029 A 
ATOM     65  C   UNL     1       2.202 -15.951   6.212  1.00  0.00     0.049 A 
ATOM     66  H   UNL     1       1.473 -14.003   5.867  1.00  0.00     0.167 HD
ATOM     67  C   UNL     1       2.662 -15.546   3.809  1.00  0.00     0.074 A 
ATOM     68  C   UNL     1       3.224 -15.920   2.528  1.00  0.00     0.031 C 
ATOM     69  C   UNL     1       2.700 -16.331   4.915  1.00  0.00     0.034 A 
BRANCH  56  70
ATOM     70  C   UNL     1       0.394 -13.645   9.979  1.00  0.00     0.023 A 
ATOM     71  C   UNL     1      -0.930 -13.856  10.416  1.00  0.00     0.012 A 
ATOM     72  C   UNL     1       1.430 -13.547  10.927  1.00  0.00     0.148 A 
ATOM     73  C   UNL     1      -1.223 -13.941  11.776  1.00  0.00     0.002 A 
ATOM     74  C   UNL     1       1.135 -13.669  12.280  1.00  0.00     0.091 A 
ATOM     75  F   UNL     1       2.676 -13.312  10.492  1.00  0.00    -0.205 F 
ATOM     76  C   UNL     1      -0.190 -13.858  12.707  1.00  0.00     0.022 A 
BRANCH  74  77
ATOM     77  S   UNL     1       2.409 -13.637  13.545  1.00  0.00     0.127 S 
ATOM     78  O   UNL     1       2.250 -12.290  14.090  1.00  0.00    -0.237 OA
ATOM     79  O   UNL     1       1.984 -14.712  14.444  1.00  0.00    -0.237 OA
ATOM     80  O   UNL     1       3.663 -13.893  12.851  1.00  0.00    -0.744 OA
ENDBRANCH  74  77
ENDBRANCH  56  70
BRANCH  57  81
ATOM     81  C   UNL     1       2.269 -12.500   0.231  1.00  0.00     0.023 A 
ATOM     82  C   UNL     1       1.625 -13.314  -0.720  1.00  0.00     0.012 A 
ATOM     83  C   UNL     1       3.180 -11.519  -0.208  1.00  0.00     0.148 A 
ATOM     84  C   UNL     1       1.899 -13.171  -2.081  1.00  0.00     0.002 A 
ATOM     85  C   UNL     1       3.410 -11.347  -1.569  1.00  0.00     0.091 A 
ATOM     86  F   UNL     1       3.799 -10.768   0.713  1.00  0.00    -0.205 F 
ATOM     87  C   UNL     1       2.782 -12.182  -2.506  1.00  0.00     0.022 A 
BRANCH  85  88
ATOM     88  S   UNL     1       4.433 -10.018  -2.212  1.00  0.00     0.127 S 
ATOM     89  O   UNL     1       5.620 -10.742  -2.659  1.00  0.00    -0.237 OA
ATOM     90  O   UNL     1       3.596  -9.482  -3.286  1.00  0.00    -0.237 OA
ATOM     91  O   UNL     1       4.631  -9.102  -1.097  1.00  0.00    -0.744 OA
ENDBRANCH  85  88
ENDBRANCH  57  81
BRANCH  69  92
ATOM     92  C   UNL     1       3.344 -17.687   4.794  1.00  0.00     0.023 A 
ATOM     93  C   UNL     1       4.747 -17.788   4.736  1.00  0.00     0.012 A 
ATOM     94  C   UNL     1       2.566 -18.861   4.838  1.00  0.00     0.148 A 
ATOM     95  C   UNL     1       5.367 -19.036   4.700  1.00  0.00     0.002 A 
ATOM     96  C   UNL     1       3.192 -20.102   4.846  1.00  0.00     0.091 A 
ATOM     97  F   UNL     1       1.230 -18.744   4.874  1.00  0.00    -0.205 F 
ATOM     98  C   UNL     1       4.591 -20.192   4.769  1.00  0.00     0.022 A 
BRANCH  96  99
ATOM     99  S   UNL     1       2.273 -21.635   5.028  1.00  0.00     0.127 S 
ATOM    100  O   UNL     1       2.263 -22.141   3.657  1.00  0.00    -0.237 OA
ATOM    101  O   UNL     1       3.112 -22.398   5.953  1.00  0.00    -0.237 OA
ATOM    102  O   UNL     1       0.974 -21.256   5.569  1.00  0.00    -0.744 OA
ENDBRANCH  96  99
ENDBRANCH  69  92
ENDBRANCH  43  44
ENDBRANCH  36  38
ENDBRANCH  35  36
ENDBRANCH  34  35
ENDBRANCH  33  34
ENDBRANCH  32  33
ENDBRANCH  31  32
ENDBRANCH  30  31
ENDBRANCH   1  30
TORSDOF 26
