REMARK SMILES Cc1cc(C(=O)N[C@H](C(=O)OCCOCCOCCOCCOC(=O)c2ccc(-c3c4nc(c(-c5cccc(S(=O)(=O)[O-])c5F)c5ccc([nH]5)c(-c5cccc(S(=O)(=O)[O-])c5F)c5nc(c(-c6cccc(S(=O)(=O)[O-])c6F)c6ccc3[nH]6)C=C5)C=C4)cc2)C(C)C)c(C)s1
REMARK SMILES IDX 18 1 17 2 16 3 15 4 14 5 13 6 12 7 11 8 9 9 10 10 8 11 7 12
REMARK SMILES IDX 5 13 6 14 4 16 1 17 2 18 3 19 94 20 92 21 93 22 89 23 90 24
REMARK SMILES IDX 91 25 19 26 20 27 21 28 22 29 23 30 24 31 25 32 26 33 27 34
REMARK SMILES IDX 88 35 28 36 87 37 29 38 30 39 31 40 81 41 32 42 86 43 80 44
REMARK SMILES IDX 82 45 33 46 85 47 79 48 78 49 34 51 66 52 46 53 65 54 47 55
REMARK SMILES IDX 50 56 64 57 83 58 48 59 49 60 63 62 84 63 51 64 35 65 36 66
REMARK SMILES IDX 44 67 37 68 39 69 45 70 38 71 40 72 41 73 42 74 43 75 67 76
REMARK SMILES IDX 68 77 76 78 69 79 71 80 77 81 70 82 72 83 73 84 74 85 75 86
REMARK SMILES IDX 52 87 53 88 61 89 54 90 56 91 62 92 55 93 57 94 58 95 59 96
REMARK SMILES IDX 60 97
REMARK H PARENT 7 15 82 50 50 61
REMARK Flexibility Score: inf
ROOT
ATOM      1  C   UNL     1       2.735  -0.548  -1.085  1.00  0.00     0.188 C 
ENDROOT
BRANCH   1   2
ATOM      2  O   UNL     1       1.665  -1.475  -0.928  1.00  0.00    -0.377 OA
BRANCH   2   3
ATOM      3  C   UNL     1       1.139  -1.687   0.366  1.00  0.00     0.188 C 
BRANCH   3   4
ATOM      4  C   UNL     1       2.064  -2.508   1.284  1.00  0.00     0.188 C 
BRANCH   4   5
ATOM      5  O   UNL     1       3.358  -2.739   0.743  1.00  0.00    -0.376 OA
BRANCH   5   6
ATOM      6  C   UNL     1       3.593  -3.939   0.021  1.00  0.00     0.202 C 
BRANCH   6   7
ATOM      7  C   UNL     1       2.764  -4.232  -1.243  1.00  0.00     0.261 C 
BRANCH   7   8
ATOM      8  O   UNL     1       1.329  -4.243  -1.124  1.00  0.00    -0.462 OA
BRANCH   8   9
ATOM      9  C   UNL     1       0.767  -4.961  -0.119  1.00  0.00     0.328 C 
ATOM     10  O   UNL     1       1.414  -5.597   0.697  1.00  0.00    -0.250 OA
BRANCH   9  11
ATOM     11  C   UNL     1      -0.775  -4.880  -0.206  1.00  0.00     0.195 C 
BRANCH  11  12
ATOM     12  N   UNL     1      -1.236  -5.963  -1.075  1.00  0.00    -0.338 N 
ATOM     13  C   UNL     1      -1.203  -7.332  -0.994  1.00  0.00     0.253 C 
ATOM     14  O   UNL     1      -1.816  -7.921  -1.886  1.00  0.00    -0.269 OA
ATOM     15  H   UNL     1      -1.665  -5.638  -1.899  1.00  0.00     0.164 HD
BRANCH  13  16
ATOM     16  C   UNL     1      -0.449  -8.073   0.038  1.00  0.00     0.053 A 
ATOM     17  C   UNL     1       1.385  -8.312   3.359  1.00  0.00     0.056 C 
ATOM     18  C   UNL     1       0.727  -8.550   2.045  1.00  0.00     0.003 A 
ATOM     19  C   UNL     1      -0.102  -7.684   1.374  1.00  0.00     0.029 A 
ATOM     20  S   UNL     1       0.938  -9.977   1.163  1.00  0.00    -0.145 S 
ATOM     21  C   UNL     1       0.041  -9.363  -0.174  1.00  0.00     0.014 A 
ATOM     22  C   UNL     1      -0.089 -10.247  -1.374  1.00  0.00     0.057 C 
ENDBRANCH  13  16
ENDBRANCH  11  12
BRANCH  11  23
ATOM     23  C   UNL     1      -1.656  -4.770   1.075  1.00  0.00     0.017 C 
ATOM     24  C   UNL     1      -1.039  -4.025   2.260  1.00  0.00     0.010 C 
ATOM     25  C   UNL     1      -3.020  -4.140   0.756  1.00  0.00     0.010 C 
ENDBRANCH  11  23
ENDBRANCH   9  11
ENDBRANCH   8   9
ENDBRANCH   7   8
ENDBRANCH   6   7
ENDBRANCH   5   6
ENDBRANCH   4   5
ENDBRANCH   3   4
ENDBRANCH   2   3
ENDBRANCH   1   2
BRANCH   1  26
ATOM     26  C   UNL     1       3.548  -0.020   0.123  1.00  0.00     0.188 C 
BRANCH  26  27
ATOM     27  O   UNL     1       2.784   0.202   1.303  1.00  0.00    -0.376 OA
BRANCH  27  28
ATOM     28  C   UNL     1       2.473   1.536   1.660  1.00  0.00     0.202 C 
BRANCH  28  29
ATOM     29  C   UNL     1       1.450   2.240   0.762  1.00  0.00     0.261 C 
BRANCH  29  30
ATOM     30  O   UNL     1       1.808   2.351  -0.621  1.00  0.00    -0.460 OA
BRANCH  30  31
ATOM     31  C   UNL     1       2.970   2.966  -0.934  1.00  0.00     0.338 C 
ATOM     32  O   UNL     1       3.752   3.501  -0.168  1.00  0.00    -0.246 OA
BRANCH  31  33
ATOM     33  C   UNL     1       3.237   2.676  -2.358  1.00  0.00     0.060 A 
ATOM     34  C   UNL     1       4.432   2.039  -2.725  1.00  0.00     0.016 A 
ATOM     35  C   UNL     1       2.270   2.983  -3.316  1.00  0.00     0.016 A 
ATOM     36  C   UNL     1       4.678   1.736  -4.065  1.00  0.00     0.010 A 
ATOM     37  C   UNL     1       2.528   2.708  -4.656  1.00  0.00     0.010 A 
ATOM     38  C   UNL     1       3.747   2.119  -5.037  1.00  0.00    -0.014 A 
BRANCH  38  39
ATOM     39  C   UNL     1       4.129   2.183  -6.465  1.00  0.00     0.031 A 
ATOM     40  C   UNL     1       4.628   3.505  -6.977  1.00  0.00     0.074 A 
ATOM     41  C   UNL     1       3.954   1.141  -7.296  1.00  0.00     0.049 A 
ATOM     42  N   UNL     1       4.833   3.896  -8.204  1.00  0.00    -0.248 NA
ATOM     43  C   UNL     1       4.916   4.532  -5.959  1.00  0.00     0.031 C 
ATOM     44  C   UNL     1       3.502  -0.192  -6.905  1.00  0.00     0.029 A 
ATOM     45  N   UNL     1       4.094   1.067  -8.659  1.00  0.00    -0.354 N 
ATOM     46  C   UNL     1       5.231   5.224  -8.110  1.00  0.00     0.074 A 
ATOM     47  C   UNL     1       5.240   5.573  -6.708  1.00  0.00     0.031 C 
ATOM     48  C   UNL     1       3.357  -0.942  -8.012  1.00  0.00     0.029 A 
ATOM     49  C   UNL     1       3.664  -0.128  -9.188  1.00  0.00     0.049 A 
ATOM     50  H   UNL     1       4.465   1.797  -9.206  1.00  0.00     0.167 HD
ATOM     51  C   UNL     1       5.562   6.078  -9.105  1.00  0.00     0.034 A 
ATOM     52  C   UNL     1       3.499  -0.498 -10.474  1.00  0.00     0.034 A 
ATOM     53  C   UNL     1       5.552   5.721 -10.494  1.00  0.00     0.049 A 
ATOM     54  C   UNL     1       3.830   0.487 -11.569  1.00  0.00     0.074 A 
ATOM     55  C   UNL     1       5.892   6.501 -11.583  1.00  0.00     0.029 A 
ATOM     56  N   UNL     1       5.170   4.483 -10.985  1.00  0.00    -0.354 N 
ATOM     57  N   UNL     1       4.286   1.713 -11.469  1.00  0.00    -0.248 NA
ATOM     58  C   UNL     1       3.645   0.033 -12.956  1.00  0.00     0.031 C 
ATOM     59  C   UNL     1       5.689   5.742 -12.738  1.00  0.00     0.029 A 
ATOM     60  C   UNL     1       5.262   4.476 -12.364  1.00  0.00     0.049 A 
ATOM     61  H   UNL     1       4.878   3.722 -10.434  1.00  0.00     0.167 HD
ATOM     62  C   UNL     1       4.493   2.154 -12.773  1.00  0.00     0.074 A 
ATOM     63  C   UNL     1       4.112   1.065 -13.647  1.00  0.00     0.031 C 
ATOM     64  C   UNL     1       4.952   3.353 -13.209  1.00  0.00     0.034 A 
BRANCH  51  65
ATOM     65  C   UNL     1       5.968   7.473  -8.719  1.00  0.00     0.023 A 
ATOM     66  C   UNL     1       7.211   7.692  -8.092  1.00  0.00     0.012 A 
ATOM     67  C   UNL     1       5.136   8.571  -9.013  1.00  0.00     0.148 A 
ATOM     68  C   UNL     1       7.607   8.980  -7.735  1.00  0.00     0.002 A 
ATOM     69  C   UNL     1       5.559   9.856  -8.697  1.00  0.00     0.091 A 
ATOM     70  F   UNL     1       3.946   8.337  -9.584  1.00  0.00    -0.205 F 
ATOM     71  C   UNL     1       6.787  10.061  -8.047  1.00  0.00     0.022 A 
BRANCH  69  72
ATOM     72  S   UNL     1       4.611  11.319  -9.128  1.00  0.00     0.127 S 
ATOM     73  O   UNL     1       4.171  11.783  -7.813  1.00  0.00    -0.237 OA
ATOM     74  O   UNL     1       5.623  12.162  -9.765  1.00  0.00    -0.237 OA
ATOM     75  O   UNL     1       3.550  10.865 -10.015  1.00  0.00    -0.744 OA
ENDBRANCH  69  72
ENDBRANCH  51  65
BRANCH  52  76
ATOM     76  C   UNL     1       3.010  -1.866 -10.808  1.00  0.00     0.023 A 
ATOM     77  C   UNL     1       3.881  -2.776 -11.440  1.00  0.00     0.012 A 
ATOM     78  C   UNL     1       1.694  -2.271 -10.512  1.00  0.00     0.148 A 
ATOM     79  C   UNL     1       3.440  -4.050 -11.801  1.00  0.00     0.002 A 
ATOM     80  C   UNL     1       1.277  -3.559 -10.826  1.00  0.00     0.091 A 
ATOM     81  F   UNL     1       0.874  -1.386  -9.927  1.00  0.00    -0.205 F 
ATOM     82  C   UNL     1       2.143  -4.445 -11.487  1.00  0.00     0.022 A 
BRANCH  80  83
ATOM     83  S   UNL     1      -0.336  -4.195 -10.356  1.00  0.00     0.127 S 
ATOM     84  O   UNL     1      -0.998  -4.317 -11.652  1.00  0.00    -0.237 OA
ATOM     85  O   UNL     1       0.016  -5.465  -9.721  1.00  0.00    -0.237 OA
ATOM     86  O   UNL     1      -0.900  -3.204  -9.449  1.00  0.00    -0.744 OA
ENDBRANCH  80  83
ENDBRANCH  52  76
BRANCH  64  87
ATOM     87  C   UNL     1       5.159   3.544 -14.688  1.00  0.00     0.023 A 
ATOM     88  C   UNL     1       4.055   3.742 -15.538  1.00  0.00     0.012 A 
ATOM     89  C   UNL     1       6.465   3.665 -15.204  1.00  0.00     0.148 A 
ATOM     90  C   UNL     1       4.250   4.043 -16.886  1.00  0.00     0.002 A 
ATOM     91  C   UNL     1       6.651   4.015 -16.534  1.00  0.00     0.091 A 
ATOM     92  F   UNL     1       7.499   3.459 -14.375  1.00  0.00    -0.205 F 
ATOM     93  C   UNL     1       5.545   4.195 -17.380  1.00  0.00     0.022 A 
BRANCH  91  94
ATOM     94  S   UNL     1       8.276   4.339 -17.229  1.00  0.00     0.127 S 
ATOM     95  O   UNL     1       8.423   3.229 -18.170  1.00  0.00    -0.237 OA
ATOM     96  O   UNL     1       8.088   5.648 -17.854  1.00  0.00    -0.237 OA
ATOM     97  O   UNL     1       9.206   4.328 -16.108  1.00  0.00    -0.744 OA
ENDBRANCH  91  94
ENDBRANCH  64  87
ENDBRANCH  38  39
ENDBRANCH  31  33
ENDBRANCH  30  31
ENDBRANCH  29  30
ENDBRANCH  28  29
ENDBRANCH  27  28
ENDBRANCH  26  27
ENDBRANCH   1  26
TORSDOF 26
