REMARK SMILES Cc1nc(CSCC(=O)N2CCCC[C@@H]2C(=O)OCCOCCOCCOCCOC(=O)c2ccc(-c3c4nc(c(-c5cccc(S(=O)(=O)[O-])c5F)c5ccc([nH]5)c(-c5cccc(S(=O)(=O)[O-])c5F)c5nc(c(-c6cccc(S(=O)(=O)[O-])c6F)c6ccc3[nH]6)C=C5)C=C4)cc2)cs1
REMARK SMILES IDX 23 1 22 2 21 3 20 4 19 5 18 6 16 7 17 8 15 9 10 10 11 11
REMARK SMILES IDX 12 12 14 13 13 14 8 15 9 16 7 17 6 18 5 19 4 20 1 21 2 22
REMARK SMILES IDX 3 23 97 24 96 25 24 26 25 27 26 28 27 29 28 30 29 31 30 32
REMARK SMILES IDX 31 33 32 34 33 35 34 36 95 37 35 38 94 39 36 40 37 41 38 42
REMARK SMILES IDX 88 43 39 44 93 45 87 46 89 47 40 48 92 49 86 50 85 51 41 53
REMARK SMILES IDX 73 54 53 55 72 56 54 57 57 58 71 59 90 60 55 61 56 62 70 64
REMARK SMILES IDX 91 65 58 66 42 67 43 68 51 69 44 70 46 71 52 72 45 73 47 74
REMARK SMILES IDX 48 75 49 76 50 77 74 78 75 79 83 80 76 81 78 82 84 83 77 84
REMARK SMILES IDX 79 85 80 86 81 87 82 88 59 89 60 90 68 91 61 92 63 93 69 94
REMARK SMILES IDX 62 95 64 96 65 97 66 98 67 99
REMARK H PARENT 89 52 57 63
REMARK Flexibility Score: inf
ROOT
ATOM      1  C   UNL     1       4.620  -4.780   0.827  1.00  0.00     0.188 C 
ENDROOT
BRANCH   1   2
ATOM      2  C   UNL     1       4.920  -3.272   0.795  1.00  0.00     0.188 C 
BRANCH   2   3
ATOM      3  O   UNL     1       3.959  -2.433   1.425  1.00  0.00    -0.376 OA
BRANCH   3   4
ATOM      4  C   UNL     1       2.880  -1.933   0.648  1.00  0.00     0.202 C 
BRANCH   4   5
ATOM      5  C   UNL     1       1.739  -2.922   0.381  1.00  0.00     0.261 C 
BRANCH   5   6
ATOM      6  O   UNL     1       1.984  -4.013  -0.530  1.00  0.00    -0.462 OA
BRANCH   6   7
ATOM      7  C   UNL     1       2.715  -3.875  -1.660  1.00  0.00     0.328 C 
ATOM      8  O   UNL     1       3.317  -2.865  -2.008  1.00  0.00    -0.250 OA
BRANCH   7   9
ATOM      9  C   UNL     1       2.639  -5.120  -2.548  1.00  0.00     0.195 C 
ATOM     10  N   UNL     1       1.846  -4.876  -3.765  1.00  0.00    -0.328 N 
ATOM     11  C   UNL     1       1.584  -6.024  -4.624  1.00  0.00     0.120 C 
ATOM     12  C   UNL     1       1.218  -7.295  -3.855  1.00  0.00     0.022 C 
ATOM     13  C   UNL     1       2.288  -6.414  -1.804  1.00  0.00     0.037 C 
ATOM     14  C   UNL     1       2.240  -7.591  -2.767  1.00  0.00     0.005 C 
BRANCH  10  15
ATOM     15  C   UNL     1       0.912  -3.833  -3.772  1.00  0.00     0.233 C 
ATOM     16  O   UNL     1      -0.158  -3.922  -3.187  1.00  0.00    -0.274 OA
BRANCH  15  17
ATOM     17  C   UNL     1       1.394  -2.623  -4.585  1.00  0.00     0.170 C 
BRANCH  17  18
ATOM     18  S   UNL     1       0.626  -1.022  -4.138  1.00  0.00    -0.146 SA
BRANCH  18  19
ATOM     19  C   UNL     1       1.211  -0.887  -2.434  1.00  0.00     0.127 C 
BRANCH  19  20
ATOM     20  C   UNL     1       0.436   0.023  -1.537  1.00  0.00     0.061 A 
ATOM     21  C   UNL     1      -2.785   0.426   0.139  1.00  0.00     0.079 C 
ATOM     22  C   UNL     1      -1.384   0.512  -0.356  1.00  0.00     0.090 A 
ATOM     23  N   UNL     1      -0.893  -0.274  -1.286  1.00  0.00    -0.246 NA
ATOM     24  S   UNL     1      -0.281   1.664   0.280  1.00  0.00    -0.127 S 
ATOM     25  C   UNL     1       0.942   1.046  -0.754  1.00  0.00     0.091 A 
ENDBRANCH  19  20
ENDBRANCH  18  19
ENDBRANCH  17  18
ENDBRANCH  15  17
ENDBRANCH  10  15
ENDBRANCH   7   9
ENDBRANCH   6   7
ENDBRANCH   5   6
ENDBRANCH   4   5
ENDBRANCH   3   4
ENDBRANCH   2   3
ENDBRANCH   1   2
BRANCH   1  26
ATOM     26  O   UNL     1       4.098  -5.433   1.972  1.00  0.00    -0.377 OA
BRANCH  26  27
ATOM     27  C   UNL     1       3.591  -4.638   3.032  1.00  0.00     0.188 C 
BRANCH  27  28
ATOM     28  C   UNL     1       4.697  -3.961   3.849  1.00  0.00     0.188 C 
BRANCH  28  29
ATOM     29  O   UNL     1       5.992  -4.381   3.437  1.00  0.00    -0.376 OA
BRANCH  29  30
ATOM     30  C   UNL     1       6.529  -5.548   4.047  1.00  0.00     0.202 C 
BRANCH  30  31
ATOM     31  C   UNL     1       5.717  -6.857   4.124  1.00  0.00     0.261 C 
BRANCH  31  32
ATOM     32  O   UNL     1       4.415  -6.829   4.735  1.00  0.00    -0.460 OA
BRANCH  32  33
ATOM     33  C   UNL     1       4.260  -6.318   5.973  1.00  0.00     0.338 C 
ATOM     34  O   UNL     1       5.140  -5.915   6.714  1.00  0.00    -0.246 OA
BRANCH  33  35
ATOM     35  C   UNL     1       2.803  -6.114   6.188  1.00  0.00     0.060 A 
ATOM     36  C   UNL     1       2.335  -4.836   6.529  1.00  0.00     0.016 A 
ATOM     37  C   UNL     1       1.898  -7.165   6.011  1.00  0.00     0.016 A 
ATOM     38  C   UNL     1       0.971  -4.620   6.745  1.00  0.00     0.010 A 
ATOM     39  C   UNL     1       0.536  -6.955   6.254  1.00  0.00     0.010 A 
ATOM     40  C   UNL     1       0.074  -5.693   6.669  1.00  0.00    -0.014 A 
BRANCH  40  41
ATOM     41  C   UNL     1      -1.260  -5.575   7.310  1.00  0.00     0.031 A 
ATOM     42  C   UNL     1      -1.376  -6.011   8.748  1.00  0.00     0.074 A 
ATOM     43  C   UNL     1      -2.340  -5.104   6.661  1.00  0.00     0.049 A 
ATOM     44  N   UNL     1      -2.423  -6.045   9.528  1.00  0.00    -0.248 NA
ATOM     45  C   UNL     1      -0.133  -6.479   9.388  1.00  0.00     0.031 C 
ATOM     46  C   UNL     1      -2.363  -4.633   5.279  1.00  0.00     0.029 A 
ATOM     47  N   UNL     1      -3.639  -4.968   7.087  1.00  0.00    -0.354 N 
ATOM     48  C   UNL     1      -1.972  -6.560  10.738  1.00  0.00     0.074 A 
ATOM     49  C   UNL     1      -0.563  -6.839  10.586  1.00  0.00     0.031 C 
ATOM     50  C   UNL     1      -3.623  -4.283   4.960  1.00  0.00     0.029 A 
ATOM     51  C   UNL     1      -4.498  -4.527   6.108  1.00  0.00     0.049 A 
ATOM     52  H   UNL     1      -3.928  -5.168   8.007  1.00  0.00     0.167 HD
ATOM     53  C   UNL     1      -2.662  -6.770  11.884  1.00  0.00     0.034 A 
ATOM     54  C   UNL     1      -5.837  -4.360   6.134  1.00  0.00     0.034 A 
ATOM     55  C   UNL     1      -4.060  -6.490  12.043  1.00  0.00     0.049 A 
ATOM     56  C   UNL     1      -6.596  -4.646   7.407  1.00  0.00     0.074 A 
ATOM     57  C   UNL     1      -4.844  -6.636  13.172  1.00  0.00     0.029 A 
ATOM     58  N   UNL     1      -4.889  -6.022  11.035  1.00  0.00    -0.354 N 
ATOM     59  N   UNL     1      -6.138  -5.025   8.577  1.00  0.00    -0.248 NA
ATOM     60  C   UNL     1      -8.054  -4.451   7.371  1.00  0.00     0.031 C 
ATOM     61  C   UNL     1      -6.156  -6.282  12.840  1.00  0.00     0.029 A 
ATOM     62  C   UNL     1      -6.181  -5.886  11.512  1.00  0.00     0.049 A 
ATOM     63  H   UNL     1      -4.602  -5.817  10.117  1.00  0.00     0.167 HD
ATOM     64  C   UNL     1      -7.243  -5.077   9.423  1.00  0.00     0.074 A 
ATOM     65  C   UNL     1      -8.390  -4.676   8.635  1.00  0.00     0.031 C 
ATOM     66  C   UNL     1      -7.305  -5.434  10.730  1.00  0.00     0.034 A 
BRANCH  53  67
ATOM     67  C   UNL     1      -1.895  -7.323  13.055  1.00  0.00     0.023 A 
ATOM     68  C   UNL     1      -0.966  -6.505  13.732  1.00  0.00     0.012 A 
ATOM     69  C   UNL     1      -2.098  -8.646  13.492  1.00  0.00     0.148 A 
ATOM     70  C   UNL     1      -0.222  -7.007  14.798  1.00  0.00     0.002 A 
ATOM     71  C   UNL     1      -1.386  -9.125  14.585  1.00  0.00     0.091 A 
ATOM     72  F   UNL     1      -2.961  -9.418  12.816  1.00  0.00    -0.205 F 
ATOM     73  C   UNL     1      -0.439  -8.313  15.230  1.00  0.00     0.022 A 
BRANCH  71  74
ATOM     74  S   UNL     1      -1.651 -10.767  15.260  1.00  0.00     0.127 S 
ATOM     75  O   UNL     1      -0.449 -11.469  14.811  1.00  0.00    -0.237 OA
ATOM     76  O   UNL     1      -1.701 -10.505  16.699  1.00  0.00    -0.237 OA
ATOM     77  O   UNL     1      -2.905 -11.237  14.688  1.00  0.00    -0.744 OA
ENDBRANCH  71  74
ENDBRANCH  53  67
BRANCH  54  78
ATOM     78  C   UNL     1      -6.551  -3.863   4.923  1.00  0.00     0.023 A 
ATOM     79  C   UNL     1      -7.113  -2.571   4.931  1.00  0.00     0.012 A 
ATOM     80  C   UNL     1      -6.670  -4.655   3.765  1.00  0.00     0.148 A 
ATOM     81  C   UNL     1      -7.798  -2.085   3.817  1.00  0.00     0.002 A 
ATOM     82  C   UNL     1      -7.310  -4.146   2.641  1.00  0.00     0.091 A 
ATOM     83  F   UNL     1      -6.147  -5.889   3.785  1.00  0.00    -0.205 F 
ATOM     84  C   UNL     1      -7.887  -2.867   2.669  1.00  0.00     0.022 A 
BRANCH  82  85
ATOM     85  S   UNL     1      -7.379  -5.034   1.081  1.00  0.00     0.127 S 
ATOM     86  O   UNL     1      -8.807  -5.319   0.962  1.00  0.00    -0.237 OA
ATOM     87  O   UNL     1      -6.870  -4.030   0.146  1.00  0.00    -0.237 OA
ATOM     88  O   UNL     1      -6.518  -6.196   1.250  1.00  0.00    -0.744 OA
ENDBRANCH  82  85
ENDBRANCH  54  78
BRANCH  66  89
ATOM     89  C   UNL     1      -8.645  -5.374  11.418  1.00  0.00     0.023 A 
ATOM     90  C   UNL     1      -9.629  -6.339  11.126  1.00  0.00     0.012 A 
ATOM     91  C   UNL     1      -8.895  -4.414  12.419  1.00  0.00     0.148 A 
ATOM     92  C   UNL     1     -10.851  -6.331  11.798  1.00  0.00     0.002 A 
ATOM     93  C   UNL     1     -10.095  -4.443  13.120  1.00  0.00     0.091 A 
ATOM     94  F   UNL     1      -7.952  -3.494  12.673  1.00  0.00    -0.205 F 
ATOM     95  C   UNL     1     -11.079  -5.393  12.802  1.00  0.00     0.022 A 
BRANCH  93  96
ATOM     96  S   UNL     1     -10.434  -3.338  14.495  1.00  0.00     0.127 S 
ATOM     97  O   UNL     1     -11.414  -2.425  13.910  1.00  0.00    -0.237 OA
ATOM     98  O   UNL     1     -10.976  -4.251  15.502  1.00  0.00    -0.237 OA
ATOM     99  O   UNL     1      -9.155  -2.737  14.852  1.00  0.00    -0.744 OA
ENDBRANCH  93  96
ENDBRANCH  66  89
ENDBRANCH  40  41
ENDBRANCH  33  35
ENDBRANCH  32  33
ENDBRANCH  31  32
ENDBRANCH  30  31
ENDBRANCH  29  30
ENDBRANCH  28  29
ENDBRANCH  27  28
ENDBRANCH  26  27
ENDBRANCH   1  26
TORSDOF 28
