REMARK SMILES COCCN1C(=O)C[C@H](C(=O)OCCOCCOCCOCCOC(=O)c2ccc(-c3c4nc(c(-c5cccc(S(=O)(=O)[O-])c5F)c5ccc([nH]5)c(-c5cccc(S(=O)(=O)[O-])c5F)c5nc(c(-c6cccc(S(=O)(=O)[O-])c6F)c6ccc3[nH]6)C=C5)C=C4)cc2)[C@@H]1c1ccccc1N1CCOCC1
REMARK SMILES IDX 18 1 17 2 16 3 15 4 14 5 13 6 12 7 10 8 11 9 9 10 5 11 6 12
REMARK SMILES IDX 90 13 7 14 8 15 4 16 3 17 2 18 1 19 91 20 92 21 96 22 93 23
REMARK SMILES IDX 95 24 94 25 97 26 98 27 102 28 99 29 101 30 100 31 19 32
REMARK SMILES IDX 20 33 21 34 22 35 23 36 24 37 25 38 26 39 27 40 28 41 89 42
REMARK SMILES IDX 29 43 88 44 30 45 31 46 32 47 82 48 33 49 87 50 81 51 83 52
REMARK SMILES IDX 34 53 86 54 80 55 79 56 35 58 67 59 47 60 66 61 48 62 51 63
REMARK SMILES IDX 65 64 84 65 49 66 50 67 64 69 85 70 52 71 36 72 37 73 45 74
REMARK SMILES IDX 38 75 40 76 46 77 39 78 41 79 42 80 43 81 44 82 68 83 69 84
REMARK SMILES IDX 77 85 70 86 72 87 78 88 71 89 73 90 74 91 75 92 76 93 53 94
REMARK SMILES IDX 54 95 62 96 55 97 57 98 63 99 56 100 58 101 59 102 60 103
REMARK SMILES IDX 61 104
REMARK H PARENT 83 57 51 68
REMARK Flexibility Score: inf
ROOT
ATOM      1  O   UNL     1       2.754  -5.097  -3.256  1.00  0.00    -0.377 OA
ENDROOT
BRANCH   1   2
ATOM      2  C   UNL     1       1.940  -4.437  -4.217  1.00  0.00     0.188 C 
BRANCH   2   3
ATOM      3  C   UNL     1       2.637  -3.446  -5.165  1.00  0.00     0.188 C 
BRANCH   3   4
ATOM      4  O   UNL     1       4.061  -3.408  -5.055  1.00  0.00    -0.376 OA
BRANCH   4   5
ATOM      5  C   UNL     1       4.634  -2.318  -4.351  1.00  0.00     0.202 C 
BRANCH   5   6
ATOM      6  C   UNL     1       4.966  -2.509  -2.856  1.00  0.00     0.261 C 
BRANCH   6   7
ATOM      7  O   UNL     1       3.960  -2.906  -1.907  1.00  0.00    -0.463 OA
BRANCH   7   8
ATOM      8  C   UNL     1       2.707  -2.438  -2.021  1.00  0.00     0.312 C 
ATOM      9  O   UNL     1       2.263  -1.830  -2.985  1.00  0.00    -0.252 OA
BRANCH   8  10
ATOM     10  C   UNL     1       1.831  -2.684  -0.841  1.00  0.00     0.136 C 
ATOM     11  N   UNL     1       1.282  -2.054   1.332  1.00  0.00    -0.332 N 
ATOM     12  C   UNL     1       1.470  -3.439   1.334  1.00  0.00     0.224 C 
ATOM     13  C   UNL     1       1.702  -1.443   0.053  1.00  0.00     0.132 C 
ATOM     14  O   UNL     1       1.087  -4.219   2.191  1.00  0.00    -0.275 OA
ATOM     15  C   UNL     1       2.203  -3.828   0.083  1.00  0.00     0.118 C 
BRANCH  11  16
ATOM     16  C   UNL     1       0.447  -1.433   2.365  1.00  0.00     0.148 C 
BRANCH  16  17
ATOM     17  C   UNL     1       0.828  -0.035   2.866  1.00  0.00     0.181 C 
BRANCH  17  18
ATOM     18  O   UNL     1      -0.186   0.942   2.592  1.00  0.00    -0.383 OA
ATOM     19  C   UNL     1      -0.201   1.341   1.235  1.00  0.00     0.194 C 
ENDBRANCH  17  18
ENDBRANCH  16  17
ENDBRANCH  11  16
BRANCH  13  20
ATOM     20  C   UNL     1       2.970  -0.579   0.116  1.00  0.00    -0.001 A 
ATOM     21  C   UNL     1       3.893  -0.886   1.153  1.00  0.00     0.008 A 
ATOM     22  C   UNL     1       3.357   0.367  -0.895  1.00  0.00     0.042 A 
ATOM     23  C   UNL     1       5.158  -0.314   1.219  1.00  0.00     0.001 A 
ATOM     24  C   UNL     1       4.651   0.930  -0.774  1.00  0.00     0.026 A 
ATOM     25  C   UNL     1       5.539   0.592   0.250  1.00  0.00     0.002 A 
BRANCH  22  26
ATOM     26  N   UNL     1       2.611   0.668  -2.040  1.00  0.00    -0.367 N 
ATOM     27  C   UNL     1       1.264   1.241  -1.990  1.00  0.00     0.145 C 
ATOM     28  C   UNL     1       3.298   1.013  -3.316  1.00  0.00     0.145 C 
ATOM     29  C   UNL     1       0.465   0.835  -3.240  1.00  0.00     0.181 C 
ATOM     30  C   UNL     1       2.401   0.754  -4.551  1.00  0.00     0.181 C 
ATOM     31  O   UNL     1       1.097   1.339  -4.426  1.00  0.00    -0.378 OA
ENDBRANCH  22  26
ENDBRANCH  13  20
ENDBRANCH   8  10
ENDBRANCH   7   8
ENDBRANCH   6   7
ENDBRANCH   5   6
ENDBRANCH   4   5
ENDBRANCH   3   4
ENDBRANCH   2   3
ENDBRANCH   1   2
BRANCH   1  32
ATOM     32  C   UNL     1       3.917  -5.777  -3.737  1.00  0.00     0.188 C 
BRANCH  32  33
ATOM     33  C   UNL     1       3.876  -6.323  -5.177  1.00  0.00     0.188 C 
BRANCH  33  34
ATOM     34  O   UNL     1       2.724  -7.069  -5.561  1.00  0.00    -0.376 OA
BRANCH  34  35
ATOM     35  C   UNL     1       2.129  -7.901  -4.572  1.00  0.00     0.202 C 
BRANCH  35  36
ATOM     36  C   UNL     1       2.898  -9.182  -4.256  1.00  0.00     0.261 C 
BRANCH  36  37
ATOM     37  O   UNL     1       4.135  -8.922  -3.569  1.00  0.00    -0.460 OA
BRANCH  37  38
ATOM     38  C   UNL     1       5.257  -9.020  -4.320  1.00  0.00     0.338 C 
ATOM     39  O   UNL     1       5.329  -9.364  -5.492  1.00  0.00    -0.246 OA
BRANCH  38  40
ATOM     40  C   UNL     1       6.409  -8.470  -3.577  1.00  0.00     0.060 A 
ATOM     41  C   UNL     1       7.276  -7.587  -4.239  1.00  0.00     0.016 A 
ATOM     42  C   UNL     1       6.687  -8.895  -2.277  1.00  0.00     0.016 A 
ATOM     43  C   UNL     1       8.474  -7.204  -3.641  1.00  0.00     0.010 A 
ATOM     44  C   UNL     1       7.894  -8.524  -1.685  1.00  0.00     0.010 A 
ATOM     45  C   UNL     1       8.818  -7.734  -2.393  1.00  0.00    -0.014 A 
BRANCH  45  46
ATOM     46  C   UNL     1      10.230  -7.698  -1.949  1.00  0.00     0.031 A 
ATOM     47  C   UNL     1      11.070  -8.926  -2.185  1.00  0.00     0.074 A 
ATOM     48  C   UNL     1      10.751  -6.616  -1.348  1.00  0.00     0.049 A 
ATOM     49  N   UNL     1      12.289  -9.187  -1.796  1.00  0.00    -0.248 NA
ATOM     50  C   UNL     1      10.442 -10.012  -2.960  1.00  0.00     0.031 C 
ATOM     51  C   UNL     1      10.037  -5.367  -1.089  1.00  0.00     0.029 A 
ATOM     52  N   UNL     1      11.997  -6.415  -0.811  1.00  0.00    -0.354 N 
ATOM     53  C   UNL     1      12.562 -10.473  -2.248  1.00  0.00     0.074 A 
ATOM     54  C   UNL     1      11.378 -10.948  -2.927  1.00  0.00     0.031 C 
ATOM     55  C   UNL     1      10.843  -4.544  -0.396  1.00  0.00     0.029 A 
ATOM     56  C   UNL     1      12.113  -5.222  -0.138  1.00  0.00     0.049 A 
ATOM     57  H   UNL     1      12.735  -7.060  -0.899  1.00  0.00     0.167 HD
ATOM     58  C   UNL     1      13.702 -11.191  -2.123  1.00  0.00     0.034 A 
ATOM     59  C   UNL     1      13.115  -4.756   0.633  1.00  0.00     0.034 A 
ATOM     60  C   UNL     1      14.878 -10.707  -1.453  1.00  0.00     0.049 A 
ATOM     61  C   UNL     1      14.363  -5.588   0.793  1.00  0.00     0.074 A 
ATOM     62  C   UNL     1      16.096 -11.341  -1.286  1.00  0.00     0.029 A 
ATOM     63  N   UNL     1      14.978  -9.473  -0.831  1.00  0.00    -0.354 N 
ATOM     64  N   UNL     1      14.642  -6.766   0.288  1.00  0.00    -0.248 NA
ATOM     65  C   UNL     1      15.447  -5.013   1.602  1.00  0.00     0.031 C 
ATOM     66  C   UNL     1      16.924 -10.499  -0.536  1.00  0.00     0.029 A 
ATOM     67  C   UNL     1      16.235  -9.325  -0.273  1.00  0.00     0.049 A 
ATOM     68  H   UNL     1      14.260  -8.800  -0.791  1.00  0.00     0.167 HD
ATOM     69  C   UNL     1      15.944  -7.055   0.684  1.00  0.00     0.074 A 
ATOM     70  C   UNL     1      16.405  -5.918   1.454  1.00  0.00     0.031 C 
ATOM     71  C   UNL     1      16.691  -8.162   0.444  1.00  0.00     0.034 A 
BRANCH  58  72
ATOM     72  C   UNL     1      13.736 -12.565  -2.739  1.00  0.00     0.023 A 
ATOM     73  C   UNL     1      13.767 -12.701  -4.142  1.00  0.00     0.012 A 
ATOM     74  C   UNL     1      13.784 -13.719  -1.933  1.00  0.00     0.148 A 
ATOM     75  C   UNL     1      13.811 -13.963  -4.734  1.00  0.00     0.002 A 
ATOM     76  C   UNL     1      13.877 -14.971  -2.528  1.00  0.00     0.091 A 
ATOM     77  F   UNL     1      13.731 -13.570  -0.602  1.00  0.00    -0.205 F 
ATOM     78  C   UNL     1      13.877 -15.096  -3.928  1.00  0.00     0.022 A 
BRANCH  76  79
ATOM     79  S   UNL     1      14.045 -16.487  -1.581  1.00  0.00     0.127 S 
ATOM     80  O   UNL     1      12.771 -17.151  -1.856  1.00  0.00    -0.237 OA
ATOM     81  O   UNL     1      15.207 -17.114  -2.211  1.00  0.00    -0.237 OA
ATOM     82  O   UNL     1      14.248 -16.079  -0.198  1.00  0.00    -0.744 OA
ENDBRANCH  76  79
ENDBRANCH  58  72
BRANCH  59  83
ATOM     83  C   UNL     1      12.984  -3.435   1.311  1.00  0.00     0.023 A 
ATOM     84  C   UNL     1      13.806  -2.361   0.920  1.00  0.00     0.012 A 
ATOM     85  C   UNL     1      12.039  -3.237   2.337  1.00  0.00     0.148 A 
ATOM     86  C   UNL     1      13.718  -1.126   1.565  1.00  0.00     0.002 A 
ATOM     87  C   UNL     1      11.912  -1.987   2.931  1.00  0.00     0.091 A 
ATOM     88  F   UNL     1      11.275  -4.275   2.706  1.00  0.00    -0.205 F 
ATOM     89  C   UNL     1      12.765  -0.936   2.563  1.00  0.00     0.022 A 
BRANCH  87  90
ATOM     90  S   UNL     1      10.618  -1.613   4.120  1.00  0.00     0.127 S 
ATOM     91  O   UNL     1      11.385  -1.437   5.351  1.00  0.00    -0.237 OA
ATOM     92  O   UNL     1      10.049  -0.384   3.565  1.00  0.00    -0.237 OA
ATOM     93  O   UNL     1       9.715  -2.755   4.093  1.00  0.00    -0.744 OA
ENDBRANCH  87  90
ENDBRANCH  59  83
BRANCH  71  94
ATOM     94  C   UNL     1      18.103  -8.183   0.970  1.00  0.00     0.023 A 
ATOM     95  C   UNL     1      18.341  -8.319   2.351  1.00  0.00     0.012 A 
ATOM     96  C   UNL     1      19.194  -8.143   0.080  1.00  0.00     0.148 A 
ATOM     97  C   UNL     1      19.645  -8.379   2.842  1.00  0.00     0.002 A 
ATOM     98  C   UNL     1      20.489  -8.257   0.570  1.00  0.00     0.091 A 
ATOM     99  F   UNL     1      18.946  -7.999  -1.230  1.00  0.00    -0.205 F 
ATOM    100  C   UNL     1      20.717  -8.360   1.952  1.00  0.00     0.022 A 
BRANCH  98 101
ATOM    101  S   UNL     1      21.924  -8.343  -0.506  1.00  0.00     0.127 S 
ATOM    102  O   UNL     1      22.563  -7.052  -0.252  1.00  0.00    -0.237 OA
ATOM    103  O   UNL     1      22.645  -9.497   0.032  1.00  0.00    -0.237 OA
ATOM    104  O   UNL     1      21.406  -8.527  -1.855  1.00  0.00    -0.744 OA
ENDBRANCH  98 101
ENDBRANCH  71  94
ENDBRANCH  45  46
ENDBRANCH  38  40
ENDBRANCH  37  38
ENDBRANCH  36  37
ENDBRANCH  35  36
ENDBRANCH  34  35
ENDBRANCH  33  34
ENDBRANCH  32  33
ENDBRANCH   1  32
TORSDOF 28
