REMARK SMILES O=Cc1c(OCc2ccc(C(=O)OCCOCCOCCOCCOC(=O)c3ccc(-c4c5nc(c(-c6cccc(S(=O)(=O)[O-])c6F)c6ccc([nH]6)c(-c6cccc(S(=O)(=O)[O-])c6F)c6nc(c(-c7cccc(S(=O)(=O)[O-])c7F)c7ccc4[nH]7)C=C6)C=C5)cc3)cc2)ccc2ccccc12
REMARK SMILES IDX 18 1 17 2 16 3 15 4 14 5 13 6 11 7 12 8 10 9 7 10 8 11 92 12
REMARK SMILES IDX 9 13 91 14 6 15 5 16 4 17 3 18 100 19 93 20 95 21 99 22
REMARK SMILES IDX 94 23 96 24 98 25 97 26 2 27 1 28 19 29 20 30 21 31 22 32
REMARK SMILES IDX 23 33 24 34 25 35 26 36 27 37 28 38 29 39 90 40 30 41 89 42
REMARK SMILES IDX 31 43 32 44 33 45 83 46 34 47 88 48 82 49 84 50 35 51 87 52
REMARK SMILES IDX 81 53 80 54 36 56 68 57 48 58 67 59 49 60 52 61 66 62 85 63
REMARK SMILES IDX 50 64 51 65 65 67 86 68 53 69 37 70 38 71 46 72 39 73 41 74
REMARK SMILES IDX 47 75 40 76 42 77 43 78 44 79 45 80 69 81 70 82 78 83 71 84
REMARK SMILES IDX 73 85 79 86 72 87 74 88 75 89 76 90 77 91 54 92 55 93 63 94
REMARK SMILES IDX 56 95 58 96 64 97 57 98 59 99 60 100 61 101 62 102
REMARK H PARENT 84 55 52 66
REMARK Flexibility Score: inf
ROOT
ATOM      1  C   UNL     1       4.948  -6.931   5.878  1.00  0.00     0.188 C 
ENDROOT
BRANCH   1   2
ATOM      2  C   UNL     1       5.192  -8.240   5.095  1.00  0.00     0.188 C 
BRANCH   2   3
ATOM      3  O   UNL     1       6.502  -8.761   5.215  1.00  0.00    -0.376 OA
BRANCH   3   4
ATOM      4  C   UNL     1       7.390  -8.704   4.117  1.00  0.00     0.202 C 
BRANCH   4   5
ATOM      5  C   UNL     1       7.737  -7.337   3.520  1.00  0.00     0.261 C 
BRANCH   5   6
ATOM      6  O   UNL     1       6.629  -6.471   3.275  1.00  0.00    -0.460 OA
BRANCH   6   7
ATOM      7  C   UNL     1       5.755  -6.805   2.295  1.00  0.00     0.338 C 
ATOM      8  O   UNL     1       5.786  -7.784   1.586  1.00  0.00    -0.246 OA
BRANCH   7   9
ATOM      9  C   UNL     1       4.629  -5.840   2.387  1.00  0.00     0.060 A 
ATOM     10  C   UNL     1       2.485  -4.022   2.679  1.00  0.00    -0.011 A 
ATOM     11  C   UNL     1       2.247  -5.374   2.376  1.00  0.00     0.008 A 
ATOM     12  C   UNL     1       3.815  -3.628   2.879  1.00  0.00     0.008 A 
ATOM     13  C   UNL     1       3.311  -6.278   2.221  1.00  0.00     0.016 A 
ATOM     14  C   UNL     1       4.876  -4.516   2.731  1.00  0.00     0.016 A 
BRANCH  10  15
ATOM     15  C   UNL     1       1.321  -3.054   2.862  1.00  0.00     0.265 C 
BRANCH  15  16
ATOM     16  O   UNL     1       1.381  -1.847   2.085  1.00  0.00    -0.488 OA
BRANCH  16  17
ATOM     17  C   UNL     1       2.253  -0.854   2.448  1.00  0.00     0.130 A 
ATOM     18  C   UNL     1       2.785  -0.042   1.427  1.00  0.00     0.064 A 
ATOM     19  C   UNL     1       3.912   0.799   1.660  1.00  0.00    -0.004 A 
ATOM     20  C   UNL     1       2.719  -0.688   3.751  1.00  0.00     0.048 A 
ATOM     21  C   UNL     1       4.474   0.801   2.959  1.00  0.00    -0.017 A 
ATOM     22  C   UNL     1       4.534   1.625   0.686  1.00  0.00     0.009 A 
ATOM     23  C   UNL     1       3.845   0.099   3.993  1.00  0.00     0.012 A 
ATOM     24  C   UNL     1       5.663   1.502   3.217  1.00  0.00     0.009 A 
ATOM     25  C   UNL     1       5.701   2.341   0.966  1.00  0.00     0.001 A 
ATOM     26  C   UNL     1       6.281   2.255   2.223  1.00  0.00     0.001 A 
BRANCH  18  27
ATOM     27  C   UNL     1       2.216  -0.132   0.060  1.00  0.00     0.264 C 
ATOM     28  O   UNL     1       1.014  -0.201  -0.167  1.00  0.00    -0.298 OA
ENDBRANCH  18  27
ENDBRANCH  16  17
ENDBRANCH  15  16
ENDBRANCH  10  15
ENDBRANCH   7   9
ENDBRANCH   6   7
ENDBRANCH   5   6
ENDBRANCH   4   5
ENDBRANCH   3   4
ENDBRANCH   2   3
ENDBRANCH   1   2
BRANCH   1  29
ATOM     29  O   UNL     1       6.035  -6.265   6.502  1.00  0.00    -0.377 OA
BRANCH  29  30
ATOM     30  C   UNL     1       7.020  -7.000   7.221  1.00  0.00     0.188 C 
BRANCH  30  31
ATOM     31  C   UNL     1       6.690  -8.353   7.895  1.00  0.00     0.188 C 
BRANCH  31  32
ATOM     32  O   UNL     1       5.319  -8.712   7.855  1.00  0.00    -0.376 OA
BRANCH  32  33
ATOM     33  C   UNL     1       4.592  -8.675   9.067  1.00  0.00     0.202 C 
BRANCH  33  34
ATOM     34  C   UNL     1       4.430  -7.305   9.737  1.00  0.00     0.261 C 
BRANCH  34  35
ATOM     35  O   UNL     1       5.638  -6.568   9.970  1.00  0.00    -0.460 OA
BRANCH  35  36
ATOM     36  C   UNL     1       6.516  -7.086  10.858  1.00  0.00     0.338 C 
ATOM     37  O   UNL     1       6.399  -8.120  11.489  1.00  0.00    -0.246 OA
BRANCH  36  38
ATOM     38  C   UNL     1       7.745  -6.270  10.785  1.00  0.00     0.060 A 
ATOM     39  C   UNL     1       8.950  -6.877  10.405  1.00  0.00     0.016 A 
ATOM     40  C   UNL     1       7.698  -4.905  11.076  1.00  0.00     0.016 A 
ATOM     41  C   UNL     1      10.123  -6.124  10.353  1.00  0.00     0.010 A 
ATOM     42  C   UNL     1       8.875  -4.157  11.044  1.00  0.00     0.010 A 
ATOM     43  C   UNL     1      10.098  -4.772  10.720  1.00  0.00    -0.014 A 
BRANCH  43  44
ATOM     44  C   UNL     1      11.369  -4.056  10.976  1.00  0.00     0.031 A 
ATOM     45  C   UNL     1      11.834  -3.926  12.400  1.00  0.00     0.074 A 
ATOM     46  C   UNL     1      12.091  -3.525   9.975  1.00  0.00     0.049 A 
ATOM     47  N   UNL     1      12.879  -3.306  12.879  1.00  0.00    -0.248 NA
ATOM     48  C   UNL     1      10.999  -4.580  13.422  1.00  0.00     0.031 C 
ATOM     49  C   UNL     1      11.748  -3.593   8.556  1.00  0.00     0.029 A 
ATOM     50  N   UNL     1      13.253  -2.795  10.009  1.00  0.00    -0.354 N 
ATOM     51  C   UNL     1      12.810  -3.464  14.258  1.00  0.00     0.074 A 
ATOM     52  C   UNL     1      11.613  -4.226  14.540  1.00  0.00     0.031 C 
ATOM     53  C   UNL     1      12.664  -2.901   7.856  1.00  0.00     0.029 A 
ATOM     54  C   UNL     1      13.637  -2.319   8.779  1.00  0.00     0.049 A 
ATOM     55  H   UNL     1      13.761  -2.628  10.836  1.00  0.00     0.167 HD
ATOM     56  C   UNL     1      13.670  -3.025  15.206  1.00  0.00     0.034 A 
ATOM     57  C   UNL     1      14.643  -1.486   8.444  1.00  0.00     0.034 A 
ATOM     58  C   UNL     1      14.860  -2.272  14.921  1.00  0.00     0.049 A 
ATOM     59  C   UNL     1      15.573  -0.982   9.518  1.00  0.00     0.074 A 
ATOM     60  C   UNL     1      15.822  -1.818  15.805  1.00  0.00     0.029 A 
ATOM     61  N   UNL     1      15.239  -1.840  13.659  1.00  0.00    -0.354 N 
ATOM     62  N   UNL     1      15.559  -1.228  10.806  1.00  0.00    -0.248 NA
ATOM     63  C   UNL     1      16.677  -0.111   9.087  1.00  0.00     0.031 C 
ATOM     64  C   UNL     1      16.761  -1.074  15.082  1.00  0.00     0.029 A 
ATOM     65  C   UNL     1      16.412  -1.109  13.741  1.00  0.00     0.049 A 
ATOM     66  H   UNL     1      14.747  -2.026  12.828  1.00  0.00     0.167 HD
ATOM     67  C   UNL     1      16.671  -0.578  11.333  1.00  0.00     0.074 A 
ATOM     68  C   UNL     1      17.343   0.062  10.221  1.00  0.00     0.031 C 
ATOM     69  C   UNL     1      17.094  -0.512  12.620  1.00  0.00     0.034 A 
BRANCH  56  70
ATOM     70  C   UNL     1      13.345  -3.351  16.641  1.00  0.00     0.023 A 
ATOM     71  C   UNL     1      13.430  -4.681  17.100  1.00  0.00     0.012 A 
ATOM     72  C   UNL     1      12.973  -2.333  17.540  1.00  0.00     0.148 A 
ATOM     73  C   UNL     1      13.106  -5.000  18.418  1.00  0.00     0.002 A 
ATOM     74  C   UNL     1      12.701  -2.651  18.865  1.00  0.00     0.091 A 
ATOM     75  F   UNL     1      12.872  -1.078  17.081  1.00  0.00    -0.205 F 
ATOM     76  C   UNL     1      12.751  -3.985  19.302  1.00  0.00     0.022 A 
BRANCH  74  77
ATOM     77  S   UNL     1      12.317  -1.404  20.098  1.00  0.00     0.127 S 
ATOM     78  O   UNL     1      10.898  -1.658  20.342  1.00  0.00    -0.237 OA
ATOM     79  O   UNL     1      13.202  -1.781  21.201  1.00  0.00    -0.237 OA
ATOM     80  O   UNL     1      12.626  -0.121  19.483  1.00  0.00    -0.744 OA
ENDBRANCH  74  77
ENDBRANCH  56  70
BRANCH  57  81
ATOM     81  C   UNL     1      14.834  -1.094   7.019  1.00  0.00     0.023 A 
ATOM     82  C   UNL     1      15.954  -1.567   6.308  1.00  0.00     0.012 A 
ATOM     83  C   UNL     1      13.895  -0.278   6.358  1.00  0.00     0.148 A 
ATOM     84  C   UNL     1      16.149  -1.213   4.972  1.00  0.00     0.002 A 
ATOM     85  C   UNL     1      14.065   0.024   5.013  1.00  0.00     0.091 A 
ATOM     86  F   UNL     1      12.843   0.172   7.057  1.00  0.00    -0.205 F 
ATOM     87  C   UNL     1      15.200  -0.427   4.322  1.00  0.00     0.022 A 
BRANCH  85  88
ATOM     88  S   UNL     1      12.834   0.921   4.060  1.00  0.00     0.127 S 
ATOM     89  O   UNL     1      13.553   2.144   3.715  1.00  0.00    -0.237 OA
ATOM     90  O   UNL     1      12.599   0.007   2.942  1.00  0.00    -0.237 OA
ATOM     91  O   UNL     1      11.691   1.095   4.946  1.00  0.00    -0.744 OA
ENDBRANCH  85  88
ENDBRANCH  57  81
BRANCH  69  92
ATOM     92  C   UNL     1      18.374   0.234  12.905  1.00  0.00     0.023 A 
ATOM     93  C   UNL     1      18.412   1.640  12.812  1.00  0.00     0.012 A 
ATOM     94  C   UNL     1      19.520  -0.460  13.343  1.00  0.00     0.148 A 
ATOM     95  C   UNL     1      19.581   2.338  13.116  1.00  0.00     0.002 A 
ATOM     96  C   UNL     1      20.663   0.247  13.696  1.00  0.00     0.091 A 
ATOM     97  F   UNL     1      19.470  -1.798  13.410  1.00  0.00    -0.205 F 
ATOM     98  C   UNL     1      20.700   1.644  13.569  1.00  0.00     0.022 A 
BRANCH  96  99
ATOM     99  S   UNL     1      22.117  -0.553  14.385  1.00  0.00     0.127 S 
ATOM    100  O   UNL     1      23.078  -0.415  13.292  1.00  0.00    -0.237 OA
ATOM    101  O   UNL     1      22.401   0.278  15.555  1.00  0.00    -0.237 OA
ATOM    102  O   UNL     1      21.718  -1.919  14.694  1.00  0.00    -0.744 OA
ENDBRANCH  96  99
ENDBRANCH  69  92
ENDBRANCH  43  44
ENDBRANCH  36  38
ENDBRANCH  35  36
ENDBRANCH  34  35
ENDBRANCH  33  34
ENDBRANCH  32  33
ENDBRANCH  31  32
ENDBRANCH  30  31
ENDBRANCH  29  30
ENDBRANCH   1  29
TORSDOF 27
