REMARK SMILES O=C(OCCOCCOCCOCCOC(=O)c1cc(S(=O)(=O)NNC(=O)[C@H]2C=C(c3ccccc3)N=N2)ccc1F)c1ccc(-c2c3nc(c(-c4cccc(S(=O)(=O)[O-])c4F)c4ccc([nH]4)c(-c4cccc(S(=O)(=O)[O-])c4F)c4nc(c(-c5cccc(S(=O)(=O)[O-])c5F)c5ccc2[nH]5)C=C4)C=C3)cc1
REMARK SMILES IDX 10 1 9 2 8 3 7 4 6 5 5 6 4 7 3 8 2 9 1 10 43 11 44 12 105 13
REMARK SMILES IDX 45 14 104 15 46 16 47 17 48 18 98 19 49 20 103 21 97 22
REMARK SMILES IDX 99 23 50 24 102 25 96 26 95 27 51 29 83 30 63 31 82 32 64 33
REMARK SMILES IDX 67 34 81 35 100 36 65 37 66 38 80 40 101 41 68 42 52 43
REMARK SMILES IDX 53 44 61 45 54 46 56 47 62 48 55 49 57 50 58 51 59 52 60 53
REMARK SMILES IDX 84 54 85 55 93 56 86 57 88 58 94 59 87 60 89 61 90 62 91 63
REMARK SMILES IDX 92 64 69 65 70 66 78 67 71 68 73 69 79 70 72 71 74 72 75 73
REMARK SMILES IDX 76 74 77 75 11 76 12 77 13 78 14 79 15 80 16 81 17 82 18 83
REMARK SMILES IDX 19 84 41 85 20 86 40 87 42 88 39 89 21 90 22 91 23 92 24 93
REMARK SMILES IDX 25 95 26 96 27 98 28 99 29 100 38 101 30 102 37 103 31 104
REMARK SMILES IDX 32 105 36 106 33 107 35 108 34 109
REMARK H PARENT 99 28 67 39 24 94 25 97
REMARK Flexibility Score: inf
ROOT
ATOM      1  C   UNL     1       5.782   1.182  12.069  1.00  0.00     0.188 C 
ENDROOT
BRANCH   1   2
ATOM      2  O   UNL     1       5.747   2.202  13.040  1.00  0.00    -0.377 OA
BRANCH   2   3
ATOM      3  C   UNL     1       5.399   3.475  12.519  1.00  0.00     0.188 C 
BRANCH   3   4
ATOM      4  C   UNL     1       4.027   3.611  11.829  1.00  0.00     0.188 C 
BRANCH   4   5
ATOM      5  O   UNL     1       3.634   2.870  10.687  1.00  0.00    -0.376 OA
BRANCH   5   6
ATOM      6  C   UNL     1       4.322   2.624   9.479  1.00  0.00     0.202 C 
BRANCH   6   7
ATOM      7  C   UNL     1       5.404   3.502   8.850  1.00  0.00     0.261 C 
BRANCH   7   8
ATOM      8  O   UNL     1       6.125   4.347   9.731  1.00  0.00    -0.460 OA
BRANCH   8   9
ATOM      9  C   UNL     1       5.831   5.590  10.159  1.00  0.00     0.338 C 
ATOM     10  O   UNL     1       6.626   6.124  10.933  1.00  0.00    -0.246 OA
BRANCH   9  11
ATOM     11  C   UNL     1       4.590   6.333   9.813  1.00  0.00     0.060 A 
ATOM     12  C   UNL     1       3.657   5.988   8.835  1.00  0.00     0.016 A 
ATOM     13  C   UNL     1       4.396   7.525  10.541  1.00  0.00     0.016 A 
ATOM     14  C   UNL     1       2.711   6.908   8.431  1.00  0.00     0.010 A 
ATOM     15  C   UNL     1       3.422   8.433  10.172  1.00  0.00     0.010 A 
ATOM     16  C   UNL     1       2.653   8.151   9.057  1.00  0.00    -0.014 A 
BRANCH  16  17
ATOM     17  C   UNL     1       1.706   9.107   8.525  1.00  0.00     0.031 A 
ATOM     18  C   UNL     1       0.297   8.674   8.648  1.00  0.00     0.074 A 
ATOM     19  C   UNL     1       2.096  10.262   7.957  1.00  0.00     0.049 A 
ATOM     20  N   UNL     1      -0.474   8.249   7.702  1.00  0.00    -0.248 NA
ATOM     21  C   UNL     1      -0.249   8.499   9.999  1.00  0.00     0.031 C 
ATOM     22  C   UNL     1       3.422  10.883   7.994  1.00  0.00     0.029 A 
ATOM     23  N   UNL     1       1.339  11.186   7.309  1.00  0.00    -0.354 N 
ATOM     24  C   UNL     1      -1.700   8.000   8.313  1.00  0.00     0.074 A 
ATOM     25  C   UNL     1      -1.435   7.955   9.725  1.00  0.00     0.031 C 
ATOM     26  C   UNL     1       3.314  12.178   7.618  1.00  0.00     0.029 A 
ATOM     27  C   UNL     1       1.954  12.425   7.173  1.00  0.00     0.049 A 
ATOM     28  H   UNL     1       0.436  10.996   6.967  1.00  0.00     0.167 HD
ATOM     29  C   UNL     1      -2.859   8.149   7.614  1.00  0.00     0.034 A 
ATOM     30  C   UNL     1       1.352  13.577   6.790  1.00  0.00     0.034 A 
ATOM     31  C   UNL     1      -2.609   8.094   6.192  1.00  0.00     0.049 A 
ATOM     32  C   UNL     1       0.136  13.195   6.036  1.00  0.00     0.074 A 
ATOM     33  C   UNL     1      -2.057   7.169   5.328  1.00  0.00     0.029 A 
ATOM     34  N   UNL     1      -2.603   9.291   5.519  1.00  0.00    -0.354 N 
ATOM     35  N   UNL     1       0.166  12.589   4.882  1.00  0.00    -0.248 NA
ATOM     36  C   UNL     1      -1.122  13.114   6.758  1.00  0.00     0.031 C 
ATOM     37  C   UNL     1      -1.339   7.941   4.368  1.00  0.00     0.029 A 
ATOM     38  C   UNL     1      -1.543   9.292   4.656  1.00  0.00     0.049 A 
ATOM     39  H   UNL     1      -3.250  10.023   5.637  1.00  0.00     0.167 HD
ATOM     40  C   UNL     1      -0.878  11.677   4.950  1.00  0.00     0.074 A 
ATOM     41  C   UNL     1      -1.705  12.130   6.068  1.00  0.00     0.031 C 
ATOM     42  C   UNL     1      -0.812  10.486   4.288  1.00  0.00     0.034 A 
BRANCH  29  43
ATOM     43  C   UNL     1      -4.119   8.796   8.173  1.00  0.00     0.023 A 
ATOM     44  C   UNL     1      -5.197   8.963   7.271  1.00  0.00     0.012 A 
ATOM     45  C   UNL     1      -4.209   9.502   9.395  1.00  0.00     0.148 A 
ATOM     46  C   UNL     1      -6.234   9.870   7.515  1.00  0.00     0.002 A 
ATOM     47  C   UNL     1      -5.274  10.354   9.664  1.00  0.00     0.091 A 
ATOM     48  F   UNL     1      -3.221   9.450  10.286  1.00  0.00    -0.205 F 
ATOM     49  C   UNL     1      -6.268  10.573   8.710  1.00  0.00     0.022 A 
BRANCH  47  50
ATOM     50  S   UNL     1      -5.397  11.253  11.218  1.00  0.00     0.127 S 
ATOM     51  O   UNL     1      -5.153  12.624  10.778  1.00  0.00    -0.237 OA
ATOM     52  O   UNL     1      -6.774  10.964  11.617  1.00  0.00    -0.237 OA
ATOM     53  O   UNL     1      -4.386  10.676  12.095  1.00  0.00    -0.744 OA
ENDBRANCH  47  50
ENDBRANCH  29  43
BRANCH  30  54
ATOM     54  C   UNL     1       1.557  14.961   7.283  1.00  0.00     0.023 A 
ATOM     55  C   UNL     1       0.990  16.035   6.566  1.00  0.00     0.012 A 
ATOM     56  C   UNL     1       2.015  15.206   8.596  1.00  0.00     0.148 A 
ATOM     57  C   UNL     1       0.830  17.294   7.157  1.00  0.00     0.002 A 
ATOM     58  C   UNL     1       1.854  16.460   9.179  1.00  0.00     0.091 A 
ATOM     59  F   UNL     1       2.520  14.190   9.307  1.00  0.00    -0.205 F 
ATOM     60  C   UNL     1       1.248  17.502   8.467  1.00  0.00     0.022 A 
BRANCH  58  61
ATOM     61  S   UNL     1       2.327  16.793  10.882  1.00  0.00     0.127 S 
ATOM     62  O   UNL     1       3.102  18.027  10.744  1.00  0.00    -0.237 OA
ATOM     63  O   UNL     1       1.028  16.955  11.528  1.00  0.00    -0.237 OA
ATOM     64  O   UNL     1       3.108  15.640  11.312  1.00  0.00    -0.744 OA
ENDBRANCH  58  61
ENDBRANCH  30  54
BRANCH  42  65
ATOM     65  C   UNL     1       0.275  10.294   3.260  1.00  0.00     0.023 A 
ATOM     66  C   UNL     1       1.643  10.254   3.604  1.00  0.00     0.012 A 
ATOM     67  C   UNL     1      -0.113   9.924   1.962  1.00  0.00     0.148 A 
ATOM     68  C   UNL     1       2.601   9.853   2.668  1.00  0.00     0.002 A 
ATOM     69  C   UNL     1       0.834   9.470   1.055  1.00  0.00     0.091 A 
ATOM     70  F   UNL     1      -1.418   9.974   1.655  1.00  0.00    -0.205 F 
ATOM     71  C   UNL     1       2.195   9.441   1.400  1.00  0.00     0.022 A 
BRANCH  69  72
ATOM     72  S   UNL     1       0.359   8.774  -0.529  1.00  0.00     0.127 S 
ATOM     73  O   UNL     1       0.825   9.796  -1.464  1.00  0.00    -0.237 OA
ATOM     74  O   UNL     1       1.119   7.523  -0.560  1.00  0.00    -0.237 OA
ATOM     75  O   UNL     1      -1.086   8.591  -0.473  1.00  0.00    -0.744 OA
ENDBRANCH  69  72
ENDBRANCH  42  65
ENDBRANCH  16  17
ENDBRANCH   9  11
ENDBRANCH   8   9
ENDBRANCH   7   8
ENDBRANCH   6   7
ENDBRANCH   5   6
ENDBRANCH   4   5
ENDBRANCH   3   4
ENDBRANCH   2   3
ENDBRANCH   1   2
BRANCH   1  76
ATOM     76  C   UNL     1       4.538   0.271  12.074  1.00  0.00     0.188 C 
BRANCH  76  77
ATOM     77  O   UNL     1       3.474   0.463  12.993  1.00  0.00    -0.376 OA
BRANCH  77  78
ATOM     78  C   UNL     1       3.734   0.894  14.318  1.00  0.00     0.202 C 
BRANCH  78  79
ATOM     79  C   UNL     1       4.741   0.139  15.202  1.00  0.00     0.261 C 
BRANCH  79  80
ATOM     80  O   UNL     1       5.945  -0.320  14.567  1.00  0.00    -0.460 OA
BRANCH  80  81
ATOM     81  C   UNL     1       6.016  -1.640  14.273  1.00  0.00     0.341 C 
ATOM     82  O   UNL     1       5.167  -2.495  14.443  1.00  0.00    -0.246 OA
BRANCH  81  83
ATOM     83  C   UNL     1       7.252  -1.870  13.510  1.00  0.00     0.097 A 
ATOM     84  C   UNL     1       7.175  -2.145  12.139  1.00  0.00     0.040 A 
ATOM     85  C   UNL     1       8.491  -1.759  14.127  1.00  0.00     0.137 A 
ATOM     86  C   UNL     1       8.350  -2.205  11.383  1.00  0.00     0.085 A 
ATOM     87  C   UNL     1       9.663  -1.900  13.381  1.00  0.00     0.041 A 
ATOM     88  F   UNL     1       8.584  -1.530  15.443  1.00  0.00    -0.206 F 
ATOM     89  C   UNL     1       9.599  -2.104  11.998  1.00  0.00     0.025 A 
BRANCH  86  90
ATOM     90  S   UNL     1       8.188  -2.388   9.631  1.00  0.00     0.257 S 
ATOM     91  O   UNL     1       7.063  -3.245   9.371  1.00  0.00    -0.205 OA
ATOM     92  O   UNL     1       8.302  -1.061   9.050  1.00  0.00    -0.205 OA
BRANCH  90  93
ATOM     93  N   UNL     1       9.577  -3.237   9.160  1.00  0.00    -0.123 NA
ATOM     94  H   UNL     1      10.367  -2.818   9.652  1.00  0.00     0.167 HD
BRANCH  93  95
ATOM     95  N   UNL     1       9.633  -4.651   9.398  1.00  0.00    -0.275 N 
ATOM     96  C   UNL     1      10.069  -5.626   8.541  1.00  0.00     0.265 C 
ATOM     97  H   UNL     1       9.322  -4.956  10.281  1.00  0.00     0.186 HD
ATOM     98  O   UNL     1      10.219  -6.761   9.014  1.00  0.00    -0.271 OA
BRANCH  96  99
ATOM     99  C   UNL     1      10.329  -5.372   7.041  1.00  0.00     0.244 C 
ATOM    100  C   UNL     1       9.916  -4.096   6.407  1.00  0.00     0.042 C 
ATOM    101  N   UNL     1      11.808  -5.360   6.854  1.00  0.00    -0.171 NA
ATOM    102  C   UNL     1      11.054  -3.521   6.013  1.00  0.00     0.091 C 
ATOM    103  N   UNL     1      12.156  -4.292   6.275  1.00  0.00    -0.155 NA
BRANCH 102 104
ATOM    104  C   UNL     1      11.168  -2.161   5.499  1.00  0.00     0.002 A 
ATOM    105  C   UNL     1      11.165  -1.902   4.125  1.00  0.00     0.010 A 
ATOM    106  C   UNL     1      11.289  -1.092   6.398  1.00  0.00     0.010 A 
ATOM    107  C   UNL     1      11.278  -0.589   3.660  1.00  0.00     0.001 A 
ATOM    108  C   UNL     1      11.388   0.219   5.933  1.00  0.00     0.001 A 
ATOM    109  C   UNL     1      11.384   0.469   4.564  1.00  0.00     0.000 A 
ENDBRANCH 102 104
ENDBRANCH  96  99
ENDBRANCH  93  95
ENDBRANCH  90  93
ENDBRANCH  86  90
ENDBRANCH  81  83
ENDBRANCH  80  81
ENDBRANCH  79  80
ENDBRANCH  78  79
ENDBRANCH  77  78
ENDBRANCH  76  77
ENDBRANCH   1  76
TORSDOF 28
