REMARK SMILES Cc1cc(NC(=O)c2sccc2/C=C/C(=O)OCCOCCOCCOCCOC(=O)c2ccc(-c3c4nc(c(-c5cccc(S(=O)(=O)[O-])c5F)c5ccc([nH]5)c(-c5cccc(S(=O)(=O)[O-])c5F)c5nc(c(-c6cccc(S(=O)(=O)[O-])c6F)c6ccc3[nH]6)C=C5)C=C4)cc2)ccn1
REMARK SMILES IDX 23 1 22 2 21 3 20 4 19 5 18 6 17 7 15 8 16 9 14 10 13 11
REMARK SMILES IDX 12 12 8 13 9 14 10 15 11 16 6 17 5 18 7 20 4 21 1 22 2 23
REMARK SMILES IDX 3 24 97 25 96 26 95 27 24 28 25 29 26 30 27 31 28 32 29 33
REMARK SMILES IDX 30 34 31 35 32 36 33 37 94 38 34 39 93 40 35 41 36 42 37 43
REMARK SMILES IDX 87 44 38 45 92 46 86 47 88 48 39 49 91 50 85 51 84 52 40 54
REMARK SMILES IDX 72 55 52 56 71 57 53 58 56 59 70 60 89 61 54 62 55 63 69 65
REMARK SMILES IDX 90 66 57 67 41 68 42 69 50 70 43 71 45 72 51 73 44 74 46 75
REMARK SMILES IDX 47 76 48 77 49 78 73 79 74 80 82 81 75 82 77 83 83 84 76 85
REMARK SMILES IDX 78 86 79 87 80 88 81 89 58 90 59 91 67 92 60 93 62 94 68 95
REMARK SMILES IDX 61 96 63 97 64 98 65 99 66 100
REMARK H PARENT 5 19 88 53 56 64
REMARK Flexibility Score: inf
ROOT
ATOM      1  O   UNL     1      -1.534  -0.609  -5.236  1.00  0.00    -0.377 OA
ENDROOT
BRANCH   1   2
ATOM      2  C   UNL     1      -2.339   0.551  -5.199  1.00  0.00     0.188 C 
BRANCH   2   3
ATOM      3  C   UNL     1      -1.543   1.861  -5.327  1.00  0.00     0.188 C 
BRANCH   3   4
ATOM      4  O   UNL     1      -0.248   1.839  -5.895  1.00  0.00    -0.376 OA
BRANCH   4   5
ATOM      5  C   UNL     1       0.855   1.131  -5.347  1.00  0.00     0.202 C 
BRANCH   5   6
ATOM      6  C   UNL     1       0.971   0.511  -3.941  1.00  0.00     0.261 C 
BRANCH   6   7
ATOM      7  O   UNL     1      -0.204   0.419  -3.151  1.00  0.00    -0.460 OA
BRANCH   7   8
ATOM      8  C   UNL     1      -0.491   1.502  -2.405  1.00  0.00     0.330 C 
ATOM      9  O   UNL     1       0.160   2.533  -2.338  1.00  0.00    -0.247 OA
BRANCH   8  10
ATOM     10  C   UNL     1      -1.815   1.367  -1.766  1.00  0.00     0.094 C 
ATOM     11  C   UNL     1      -2.550   0.240  -1.723  1.00  0.00     0.017 C 
BRANCH  11  12
ATOM     12  C   UNL     1      -3.757   0.126  -0.957  1.00  0.00    -0.002 A 
ATOM     13  C   UNL     1      -4.051  -0.958  -0.138  1.00  0.00     0.099 A 
ATOM     14  S   UNL     1      -5.568  -0.740   0.648  1.00  0.00    -0.138 S 
ATOM     15  C   UNL     1      -5.779   0.813  -0.024  1.00  0.00     0.066 A 
ATOM     16  C   UNL     1      -4.761   1.143  -0.887  1.00  0.00     0.020 A 
BRANCH  13  17
ATOM     17  C   UNL     1      -3.325  -2.193   0.144  1.00  0.00     0.266 C 
ATOM     18  N   UNL     1      -1.956  -2.183   0.354  1.00  0.00    -0.321 N 
ATOM     19  H   UNL     1      -1.531  -3.068   0.285  1.00  0.00     0.170 HD
ATOM     20  O   UNL     1      -3.885  -3.291   0.146  1.00  0.00    -0.268 OA
BRANCH  18  21
ATOM     21  C   UNL     1      -1.063  -1.135   0.649  1.00  0.00     0.044 A 
ATOM     22  C   UNL     1       2.578  -0.353  -0.016  1.00  0.00     0.067 C 
ATOM     23  C   UNL     1       1.155  -0.241   0.438  1.00  0.00     0.039 A 
ATOM     24  C   UNL     1       0.276  -1.312   0.299  1.00  0.00     0.049 A 
ATOM     25  N   UNL     1       0.764   0.966   0.912  1.00  0.00    -0.261 NA
ATOM     26  C   UNL     1      -0.516   1.088   1.310  1.00  0.00     0.113 A 
ATOM     27  C   UNL     1      -1.449   0.070   1.229  1.00  0.00     0.046 A 
ENDBRANCH  18  21
ENDBRANCH  13  17
ENDBRANCH  11  12
ENDBRANCH   8  10
ENDBRANCH   7   8
ENDBRANCH   6   7
ENDBRANCH   5   6
ENDBRANCH   4   5
ENDBRANCH   3   4
ENDBRANCH   2   3
ENDBRANCH   1   2
BRANCH   1  28
ATOM     28  C   UNL     1      -1.289  -1.196  -6.510  1.00  0.00     0.188 C 
BRANCH  28  29
ATOM     29  C   UNL     1      -1.281  -0.320  -7.784  1.00  0.00     0.188 C 
BRANCH  29  30
ATOM     30  O   UNL     1      -2.323   0.644  -7.856  1.00  0.00    -0.376 OA
BRANCH  30  31
ATOM     31  C   UNL     1      -3.454   0.370  -8.667  1.00  0.00     0.202 C 
BRANCH  31  32
ATOM     32  C   UNL     1      -4.365  -0.788  -8.232  1.00  0.00     0.261 C 
BRANCH  32  33
ATOM     33  O   UNL     1      -3.735  -2.070  -8.113  1.00  0.00    -0.460 OA
BRANCH  33  34
ATOM     34  C   UNL     1      -3.176  -2.594  -9.224  1.00  0.00     0.338 C 
ATOM     35  O   UNL     1      -3.177  -2.109 -10.344  1.00  0.00    -0.246 OA
BRANCH  34  36
ATOM     36  C   UNL     1      -2.382  -3.769  -8.816  1.00  0.00     0.060 A 
ATOM     37  C   UNL     1      -1.006  -3.784  -9.082  1.00  0.00     0.016 A 
ATOM     38  C   UNL     1      -2.991  -4.846  -8.169  1.00  0.00     0.016 A 
ATOM     39  C   UNL     1      -0.243  -4.899  -8.739  1.00  0.00     0.010 A 
ATOM     40  C   UNL     1      -2.228  -5.970  -7.844  1.00  0.00     0.010 A 
ATOM     41  C   UNL     1      -0.859  -6.016  -8.162  1.00  0.00    -0.014 A 
BRANCH  41  42
ATOM     42  C   UNL     1      -0.123  -7.301  -8.071  1.00  0.00     0.031 A 
ATOM     43  C   UNL     1      -0.380  -8.344  -9.125  1.00  0.00     0.074 A 
ATOM     44  C   UNL     1       0.747  -7.542  -7.074  1.00  0.00     0.049 A 
ATOM     45  N   UNL     1       0.097  -9.556  -9.224  1.00  0.00    -0.248 NA
ATOM     46  C   UNL     1      -1.302  -7.970 -10.211  1.00  0.00     0.031 C 
ATOM     47  C   UNL     1       1.088  -6.608  -6.004  1.00  0.00     0.029 A 
ATOM     48  N   UNL     1       1.481  -8.667  -6.788  1.00  0.00    -0.354 N 
ATOM     49  C   UNL     1      -0.492 -10.102 -10.358  1.00  0.00     0.074 A 
ATOM     50  C   UNL     1      -1.365  -9.091 -10.913  1.00  0.00     0.031 C 
ATOM     51  C   UNL     1       1.939  -7.211  -5.155  1.00  0.00     0.029 A 
ATOM     52  C   UNL     1       2.177  -8.582  -5.605  1.00  0.00     0.049 A 
ATOM     53  H   UNL     1       1.506  -9.458  -7.373  1.00  0.00     0.167 HD
ATOM     54  C   UNL     1      -0.316 -11.331 -10.896  1.00  0.00     0.034 A 
ATOM     55  C   UNL     1       2.894  -9.516  -4.947  1.00  0.00     0.034 A 
ATOM     56  C   UNL     1       0.563 -12.329 -10.352  1.00  0.00     0.049 A 
ATOM     57  C   UNL     1       3.049 -10.889  -5.553  1.00  0.00     0.074 A 
ATOM     58  C   UNL     1       0.847 -13.587 -10.852  1.00  0.00     0.029 A 
ATOM     59  N   UNL     1       1.283 -12.192  -9.177  1.00  0.00    -0.354 N 
ATOM     60  N   UNL     1       2.577 -11.352  -6.686  1.00  0.00    -0.248 NA
ATOM     61  C   UNL     1       3.862 -11.860  -4.805  1.00  0.00     0.031 C 
ATOM     62  C   UNL     1       1.708 -14.227  -9.956  1.00  0.00     0.029 A 
ATOM     63  C   UNL     1       2.000 -13.349  -8.925  1.00  0.00     0.049 A 
ATOM     64  H   UNL     1       1.286 -11.391  -8.605  1.00  0.00     0.167 HD
ATOM     65  C   UNL     1       3.073 -12.647  -6.807  1.00  0.00     0.074 A 
ATOM     66  C   UNL     1       3.894 -12.890  -5.640  1.00  0.00     0.031 C 
ATOM     67  C   UNL     1       2.860 -13.556  -7.790  1.00  0.00     0.034 A 
BRANCH  54  68
ATOM     68  C   UNL     1      -1.085 -11.669 -12.146  1.00  0.00     0.023 A 
ATOM     69  C   UNL     1      -0.729 -11.077 -13.374  1.00  0.00     0.012 A 
ATOM     70  C   UNL     1      -2.114 -12.631 -12.113  1.00  0.00     0.148 A 
ATOM     71  C   UNL     1      -1.403 -11.417 -14.546  1.00  0.00     0.002 A 
ATOM     72  C   UNL     1      -2.748 -13.000 -13.292  1.00  0.00     0.091 A 
ATOM     73  F   UNL     1      -2.451 -13.165 -10.930  1.00  0.00    -0.205 F 
ATOM     74  C   UNL     1      -2.402 -12.386 -14.507  1.00  0.00     0.022 A 
BRANCH  72  75
ATOM     75  S   UNL     1      -3.989 -14.296 -13.361  1.00  0.00     0.127 S 
ATOM     76  O   UNL     1      -5.188 -13.538 -13.716  1.00  0.00    -0.237 OA
ATOM     77  O   UNL     1      -3.473 -15.155 -14.426  1.00  0.00    -0.237 OA
ATOM     78  O   UNL     1      -4.009 -14.907 -12.039  1.00  0.00    -0.744 OA
ENDBRANCH  72  75
ENDBRANCH  54  68
BRANCH  55  79
ATOM     79  C   UNL     1       3.535  -9.190  -3.640  1.00  0.00     0.023 A 
ATOM     80  C   UNL     1       4.939  -9.162  -3.535  1.00  0.00     0.012 A 
ATOM     81  C   UNL     1       2.758  -8.919  -2.496  1.00  0.00     0.148 A 
ATOM     82  C   UNL     1       5.557  -8.915  -2.308  1.00  0.00     0.002 A 
ATOM     83  C   UNL     1       3.379  -8.610  -1.292  1.00  0.00     0.091 A 
ATOM     84  F   UNL     1       1.423  -8.966  -2.610  1.00  0.00    -0.205 F 
ATOM     85  C   UNL     1       4.778  -8.631  -1.190  1.00  0.00     0.022 A 
BRANCH  83  86
ATOM     86  S   UNL     1       2.460  -8.093   0.161  1.00  0.00     0.127 S 
ATOM     87  O   UNL     1       2.661  -9.225   1.062  1.00  0.00    -0.237 OA
ATOM     88  O   UNL     1       3.164  -6.867   0.541  1.00  0.00    -0.237 OA
ATOM     89  O   UNL     1       1.093  -7.878  -0.292  1.00  0.00    -0.744 OA
ENDBRANCH  83  86
ENDBRANCH  55  79
BRANCH  67  90
ATOM     90  C   UNL     1       3.573 -14.882  -7.693  1.00  0.00     0.023 A 
ATOM     91  C   UNL     1       3.183 -15.830  -6.727  1.00  0.00     0.012 A 
ATOM     92  C   UNL     1       4.580 -15.216  -8.621  1.00  0.00     0.148 A 
ATOM     93  C   UNL     1       3.809 -17.075  -6.663  1.00  0.00     0.002 A 
ATOM     94  C   UNL     1       5.160 -16.477  -8.587  1.00  0.00     0.091 A 
ATOM     95  F   UNL     1       4.947 -14.295  -9.525  1.00  0.00    -0.205 F 
ATOM     96  C   UNL     1       4.787 -17.403  -7.599  1.00  0.00     0.022 A 
BRANCH  94  97
ATOM     97  S   UNL     1       6.353 -17.024  -9.814  1.00  0.00     0.127 S 
ATOM     98  O   UNL     1       7.582 -17.088  -9.025  1.00  0.00    -0.237 OA
ATOM     99  O   UNL     1       5.814 -18.325 -10.210  1.00  0.00    -0.237 OA
ATOM    100  O   UNL     1       6.340 -16.017 -10.866  1.00  0.00    -0.744 OA
ENDBRANCH  94  97
ENDBRANCH  67  90
ENDBRANCH  41  42
ENDBRANCH  34  36
ENDBRANCH  33  34
ENDBRANCH  32  33
ENDBRANCH  31  32
ENDBRANCH  30  31
ENDBRANCH  29  30
ENDBRANCH  28  29
ENDBRANCH   1  28
TORSDOF 26
