REMARK SMILES O=C(OCCOCCOCCOCCOC(=O)[C@]1(NC(=O)C2CCN(C(=O)C3CC3)CC2)CCCc2ccccc21)c1ccc(-c2c3nc(c(-c4cccc(S(=O)(=O)[O-])c4F)c4ccc([nH]4)c(-c4cccc(S(=O)(=O)[O-])c4F)c4nc(c(-c5cccc(S(=O)(=O)[O-])c5F)c5ccc2[nH]5)C=C4)C=C3)cc1
REMARK SMILES IDX 9 1 8 2 7 3 6 4 5 5 4 6 3 7 2 8 1 9 42 10 43 11 104 12 44 13
REMARK SMILES IDX 103 14 45 15 46 16 47 17 97 18 48 19 102 20 96 21 98 22
REMARK SMILES IDX 49 23 101 24 95 25 94 26 50 28 82 29 62 30 81 31 63 32 66 33
REMARK SMILES IDX 80 34 99 35 64 36 65 37 79 39 100 40 67 41 51 42 52 43 60 44
REMARK SMILES IDX 53 45 55 46 61 47 54 48 56 49 57 50 58 51 59 52 83 53 84 54
REMARK SMILES IDX 92 55 85 56 87 57 93 58 86 59 88 60 89 61 90 62 91 63 68 64
REMARK SMILES IDX 69 65 77 66 70 67 72 68 78 69 71 70 73 71 74 72 75 73 76 74
REMARK SMILES IDX 10 75 11 76 12 77 13 78 14 79 15 80 16 81 17 82 18 83 33 84
REMARK SMILES IDX 41 85 34 86 36 87 40 88 35 89 37 90 39 91 38 92 19 93 20 94
REMARK SMILES IDX 21 96 22 97 23 98 32 99 24 100 31 101 25 102 26 103 27 104
REMARK SMILES IDX 28 105 29 106 30 107
REMARK H PARENT 98 27 66 38 19 95
REMARK Flexibility Score: inf
ROOT
ATOM      1  O   UNL     1       4.345   2.232  -2.188  1.00  0.00    -0.377 OA
ENDROOT
BRANCH   1   2
ATOM      2  C   UNL     1       2.949   2.043  -1.935  1.00  0.00     0.188 C 
BRANCH   2   3
ATOM      3  C   UNL     1       2.514   0.744  -1.278  1.00  0.00     0.188 C 
BRANCH   3   4
ATOM      4  O   UNL     1       3.626   0.005  -0.835  1.00  0.00    -0.376 OA
BRANCH   4   5
ATOM      5  C   UNL     1       3.909  -1.206  -1.500  1.00  0.00     0.202 C 
BRANCH   5   6
ATOM      6  C   UNL     1       4.032  -2.295  -0.435  1.00  0.00     0.261 C 
BRANCH   6   7
ATOM      7  O   UNL     1       2.808  -2.445   0.320  1.00  0.00    -0.460 OA
BRANCH   7   8
ATOM      8  C   UNL     1       2.225  -1.518   1.126  1.00  0.00     0.338 C 
ATOM      9  O   UNL     1       0.996  -1.462   1.165  1.00  0.00    -0.246 OA
BRANCH   8  10
ATOM     10  C   UNL     1       3.004  -0.686   2.106  1.00  0.00     0.060 A 
ATOM     11  C   UNL     1       4.280  -0.155   1.897  1.00  0.00     0.016 A 
ATOM     12  C   UNL     1       2.357  -0.370   3.316  1.00  0.00     0.016 A 
ATOM     13  C   UNL     1       4.909   0.639   2.853  1.00  0.00     0.010 A 
ATOM     14  C   UNL     1       2.992   0.402   4.298  1.00  0.00     0.010 A 
ATOM     15  C   UNL     1       4.288   0.878   4.075  1.00  0.00    -0.014 A 
BRANCH  15  16
ATOM     16  C   UNL     1       5.128   1.389   5.174  1.00  0.00     0.031 A 
ATOM     17  C   UNL     1       5.794   0.369   6.054  1.00  0.00     0.074 A 
ATOM     18  C   UNL     1       5.386   2.702   5.300  1.00  0.00     0.049 A 
ATOM     19  N   UNL     1       6.620   0.542   7.048  1.00  0.00    -0.248 NA
ATOM     20  C   UNL     1       5.502  -1.045   5.752  1.00  0.00     0.031 C 
ATOM     21  C   UNL     1       4.858   3.754   4.432  1.00  0.00     0.029 A 
ATOM     22  N   UNL     1       6.171   3.370   6.202  1.00  0.00    -0.354 N 
ATOM     23  C   UNL     1       6.917  -0.734   7.511  1.00  0.00     0.074 A 
ATOM     24  C   UNL     1       6.197  -1.674   6.685  1.00  0.00     0.031 C 
ATOM     25  C   UNL     1       5.330   4.942   4.853  1.00  0.00     0.029 A 
ATOM     26  C   UNL     1       6.168   4.734   6.031  1.00  0.00     0.049 A 
ATOM     27  H   UNL     1       6.689   2.916   6.907  1.00  0.00     0.167 HD
ATOM     28  C   UNL     1       7.723  -1.091   8.536  1.00  0.00     0.034 A 
ATOM     29  C   UNL     1       6.770   5.694   6.761  1.00  0.00     0.034 A 
ATOM     30  C   UNL     1       8.432  -0.144   9.347  1.00  0.00     0.049 A 
ATOM     31  C   UNL     1       7.621   5.272   7.933  1.00  0.00     0.074 A 
ATOM     32  C   UNL     1       9.248  -0.379  10.436  1.00  0.00     0.029 A 
ATOM     33  N   UNL     1       8.396   1.230   9.155  1.00  0.00    -0.354 N 
ATOM     34  N   UNL     1       7.933   4.061   8.335  1.00  0.00    -0.248 NA
ATOM     35  C   UNL     1       8.220   6.344   8.741  1.00  0.00     0.031 C 
ATOM     36  C   UNL     1       9.691   0.859  10.915  1.00  0.00     0.029 A 
ATOM     37  C   UNL     1       9.170   1.861  10.109  1.00  0.00     0.049 A 
ATOM     38  H   UNL     1       7.892   1.687   8.443  1.00  0.00     0.167 HD
ATOM     39  C   UNL     1       8.785   4.224   9.422  1.00  0.00     0.074 A 
ATOM     40  C   UNL     1       8.959   5.653   9.600  1.00  0.00     0.031 C 
ATOM     41  C   UNL     1       9.360   3.286  10.216  1.00  0.00     0.034 A 
BRANCH  28  42
ATOM     42  C   UNL     1       7.839  -2.561   8.831  1.00  0.00     0.023 A 
ATOM     43  C   UNL     1       8.597  -3.391   7.979  1.00  0.00     0.012 A 
ATOM     44  C   UNL     1       7.163  -3.127   9.927  1.00  0.00     0.148 A 
ATOM     45  C   UNL     1       8.647  -4.768   8.193  1.00  0.00     0.002 A 
ATOM     46  C   UNL     1       7.247  -4.495  10.155  1.00  0.00     0.091 A 
ATOM     47  F   UNL     1       6.418  -2.325  10.702  1.00  0.00    -0.205 F 
ATOM     48  C   UNL     1       7.978  -5.319   9.283  1.00  0.00     0.022 A 
BRANCH  46  49
ATOM     49  S   UNL     1       6.458  -5.288  11.559  1.00  0.00     0.127 S 
ATOM     50  O   UNL     1       5.346  -5.987  10.917  1.00  0.00    -0.237 OA
ATOM     51  O   UNL     1       7.521  -6.162  12.057  1.00  0.00    -0.237 OA
ATOM     52  O   UNL     1       6.084  -4.213  12.467  1.00  0.00    -0.744 OA
ENDBRANCH  46  49
ENDBRANCH  28  42
BRANCH  29  53
ATOM     53  C   UNL     1       6.622   7.133   6.390  1.00  0.00     0.023 A 
ATOM     54  C   UNL     1       7.744   7.856   5.941  1.00  0.00     0.012 A 
ATOM     55  C   UNL     1       5.375   7.787   6.465  1.00  0.00     0.148 A 
ATOM     56  C   UNL     1       7.634   9.206   5.599  1.00  0.00     0.002 A 
ATOM     57  C   UNL     1       5.261   9.116   6.070  1.00  0.00     0.091 A 
ATOM     58  F   UNL     1       4.321   7.096   6.920  1.00  0.00    -0.205 F 
ATOM     59  C   UNL     1       6.392   9.832   5.652  1.00  0.00     0.022 A 
BRANCH  57  60
ATOM     60  S   UNL     1       3.677   9.960   5.984  1.00  0.00     0.127 S 
ATOM     61  O   UNL     1       3.750  10.853   7.137  1.00  0.00    -0.237 OA
ATOM     62  O   UNL     1       3.756  10.625   4.683  1.00  0.00    -0.237 OA
ATOM     63  O   UNL     1       2.671   8.909   6.056  1.00  0.00    -0.744 OA
ENDBRANCH  57  60
ENDBRANCH  29  53
BRANCH  41  64
ATOM     64  C   UNL     1      10.250   3.769  11.327  1.00  0.00     0.023 A 
ATOM     65  C   UNL     1       9.678   4.334  12.483  1.00  0.00     0.012 A 
ATOM     66  C   UNL     1      11.642   3.568  11.266  1.00  0.00     0.148 A 
ATOM     67  C   UNL     1      10.483   4.716  13.554  1.00  0.00     0.002 A 
ATOM     68  C   UNL     1      12.433   3.907  12.357  1.00  0.00     0.091 A 
ATOM     69  F   UNL     1      12.167   3.048  10.147  1.00  0.00    -0.205 F 
ATOM     70  C   UNL     1      11.857   4.490  13.497  1.00  0.00     0.022 A 
BRANCH  68  71
ATOM     71  S   UNL     1      14.193   3.551  12.402  1.00  0.00     0.127 S 
ATOM     72  O   UNL     1      14.770   4.864  12.127  1.00  0.00    -0.237 OA
ATOM     73  O   UNL     1      14.382   3.076  13.774  1.00  0.00    -0.237 OA
ATOM     74  O   UNL     1      14.418   2.536  11.381  1.00  0.00    -0.744 OA
ENDBRANCH  68  71
ENDBRANCH  41  64
ENDBRANCH  15  16
ENDBRANCH   8  10
ENDBRANCH   7   8
ENDBRANCH   6   7
ENDBRANCH   5   6
ENDBRANCH   4   5
ENDBRANCH   3   4
ENDBRANCH   2   3
ENDBRANCH   1   2
BRANCH   1  75
ATOM     75  C   UNL     1       5.239   2.385  -1.080  1.00  0.00     0.188 C 
BRANCH  75  76
ATOM     76  C   UNL     1       5.153   3.690  -0.284  1.00  0.00     0.188 C 
BRANCH  76  77
ATOM     77  O   UNL     1       3.845   3.861   0.225  1.00  0.00    -0.376 OA
BRANCH  77  78
ATOM     78  C   UNL     1       3.083   4.969  -0.239  1.00  0.00     0.202 C 
BRANCH  78  79
ATOM     79  C   UNL     1       3.379   5.630  -1.599  1.00  0.00     0.261 C 
BRANCH  79  80
ATOM     80  O   UNL     1       3.646   4.750  -2.727  1.00  0.00    -0.461 OA
BRANCH  80  81
ATOM     81  C   UNL     1       4.856   4.948  -3.346  1.00  0.00     0.336 C 
ATOM     82  O   UNL     1       5.665   5.780  -2.926  1.00  0.00    -0.249 OA
BRANCH  81  83
ATOM     83  C   UNL     1       5.035   4.260  -4.768  1.00  0.00     0.164 C 
ATOM     84  C   UNL     1       4.072   3.120  -5.180  1.00  0.00     0.046 C 
ATOM     85  C   UNL     1       6.519   3.811  -4.828  1.00  0.00    -0.008 A 
ATOM     86  C   UNL     1       4.495   1.652  -5.046  1.00  0.00     0.008 C 
ATOM     87  C   UNL     1       6.915   2.472  -4.741  1.00  0.00    -0.042 A 
ATOM     88  C   UNL     1       7.534   4.801  -4.828  1.00  0.00     0.007 A 
ATOM     89  C   UNL     1       5.960   1.325  -4.809  1.00  0.00     0.036 C 
ATOM     90  C   UNL     1       8.281   2.162  -4.562  1.00  0.00     0.004 A 
ATOM     91  C   UNL     1       8.879   4.482  -4.655  1.00  0.00     0.000 A 
ATOM     92  C   UNL     1       9.252   3.158  -4.500  1.00  0.00     0.000 A 
BRANCH  83  93
ATOM     93  N   UNL     1       4.886   5.316  -5.844  1.00  0.00    -0.336 N 
ATOM     94  C   UNL     1       3.891   6.207  -6.119  1.00  0.00     0.224 C 
ATOM     95  H   UNL     1       5.651   5.369  -6.462  1.00  0.00     0.164 HD
ATOM     96  O   UNL     1       3.685   6.498  -7.299  1.00  0.00    -0.275 OA
BRANCH  94  97
ATOM     97  C   UNL     1       3.144   6.914  -4.999  1.00  0.00     0.082 C 
ATOM     98  C   UNL     1       1.670   6.478  -4.923  1.00  0.00     0.035 C 
ATOM     99  C   UNL     1       3.375   8.436  -5.075  1.00  0.00     0.035 C 
ATOM    100  C   UNL     1       0.736   7.334  -5.782  1.00  0.00     0.120 C 
ATOM    101  C   UNL     1       2.358   9.114  -5.971  1.00  0.00     0.120 C 
ATOM    102  N   UNL     1       1.032   8.740  -5.531  1.00  0.00    -0.342 N 
ATOM    103  C   UNL     1       0.172   9.452  -4.695  1.00  0.00     0.225 C 
ATOM    104  O   UNL     1      -0.977   9.087  -4.517  1.00  0.00    -0.275 OA
BRANCH 103 105
ATOM    105  C   UNL     1       0.620  10.624  -3.879  1.00  0.00     0.079 C 
ATOM    106  C   UNL     1       1.762  11.596  -3.968  1.00  0.00     0.014 C 
ATOM    107  C   UNL     1       0.413  12.003  -4.473  1.00  0.00     0.014 C 
ENDBRANCH 103 105
ENDBRANCH  94  97
ENDBRANCH  83  93
ENDBRANCH  81  83
ENDBRANCH  80  81
ENDBRANCH  79  80
ENDBRANCH  78  79
ENDBRANCH  77  78
ENDBRANCH  76  77
ENDBRANCH  75  76
ENDBRANCH   1  75
TORSDOF 26
