REMARK SMILES CC1(C)[C@@]2(C(=O)OCCOCCOCCOCCOC(=O)c3ccc(-c4c5nc(c(-c6cccc(S(=O)(=O)[O-])c6F)c6ccc([nH]6)c(-c6cccc(S(=O)(=O)[O-])c6F)c6nc(c(-c7cccc(S(=O)(=O)[O-])c7F)c7ccc4[nH]7)C=C6)C=C5)cc3)CC[C@]1(C)/C(=N/NC(=O)c1ccc(Cl)cc1)C2
REMARK SMILES IDX 14 1 13 2 12 3 11 4 10 5 9 6 8 7 7 8 5 9 6 10 4 11 1 12 2 13
REMARK SMILES IDX 3 14 87 15 85 16 101 17 86 18 88 19 89 20 90 21 91 22 92 23
REMARK SMILES IDX 93 25 94 26 95 27 100 28 96 29 99 30 97 31 98 32 15 33 16 34
REMARK SMILES IDX 17 35 18 36 19 37 20 38 21 39 22 40 23 41 84 42 24 43 83 44
REMARK SMILES IDX 25 45 26 46 27 47 77 48 28 49 82 50 76 51 78 52 29 53 81 54
REMARK SMILES IDX 75 55 74 56 30 58 62 59 42 60 61 61 43 62 46 63 60 64 79 65
REMARK SMILES IDX 44 66 45 67 59 69 80 70 47 71 31 72 32 73 40 74 33 75 35 76
REMARK SMILES IDX 41 77 34 78 36 79 37 80 38 81 39 82 63 83 64 84 72 85 65 86
REMARK SMILES IDX 67 87 73 88 66 89 68 90 69 91 70 92 71 93 48 94 49 95 57 96
REMARK SMILES IDX 50 97 52 98 58 99 51 100 53 101 54 102 55 103 56 104
REMARK H PARENT 91 24 78 57 46 68
REMARK Flexibility Score: inf
ROOT
ATOM      1  C   UNL     1      -6.359  -1.089  -1.282  1.00  0.00     0.188 C 
ENDROOT
BRANCH   1   2
ATOM      2  O   UNL     1      -5.335  -0.928  -2.261  1.00  0.00    -0.377 OA
BRANCH   2   3
ATOM      3  C   UNL     1      -3.988  -1.045  -1.788  1.00  0.00     0.188 C 
BRANCH   3   4
ATOM      4  C   UNL     1      -3.695  -0.460  -0.396  1.00  0.00     0.188 C 
BRANCH   4   5
ATOM      5  O   UNL     1      -4.138   0.878  -0.156  1.00  0.00    -0.376 OA
BRANCH   5   6
ATOM      6  C   UNL     1      -4.036   1.808  -1.232  1.00  0.00     0.202 C 
BRANCH   6   7
ATOM      7  C   UNL     1      -2.641   2.399  -1.407  1.00  0.00     0.261 C 
BRANCH   7   8
ATOM      8  O   UNL     1      -1.695   1.411  -1.848  1.00  0.00    -0.463 OA
BRANCH   8   9
ATOM      9  C   UNL     1      -0.802   0.971  -0.922  1.00  0.00     0.313 C 
ATOM     10  O   UNL     1      -0.778   1.305   0.254  1.00  0.00    -0.252 OA
BRANCH   9  11
ATOM     11  C   UNL     1       0.213   0.058  -1.570  1.00  0.00     0.079 C 
ATOM     12  C   UNL     1       1.913   0.047   0.409  1.00  0.00     0.013 C 
ATOM     13  C   UNL     1       1.132  -0.779  -0.635  1.00  0.00    -0.008 C 
ATOM     14  C   UNL     1       0.428  -1.917   0.141  1.00  0.00     0.013 C 
ATOM     15  C   UNL     1       1.988  -1.280  -1.842  1.00  0.00     0.014 C 
ATOM     16  C   UNL     1       1.224   0.921  -2.392  1.00  0.00     0.021 C 
ATOM     17  C   UNL     1      -0.383  -1.017  -2.520  1.00  0.00     0.073 C 
ATOM     18  C   UNL     1       2.462   0.018  -2.516  1.00  0.00     0.014 C 
ATOM     19  C   UNL     1       3.085  -2.276  -1.529  1.00  0.00     0.018 C 
ATOM     20  C   UNL     1       0.879  -1.792  -2.797  1.00  0.00     0.046 C 
ATOM     21  N   UNL     1       1.157  -2.752  -3.615  1.00  0.00    -0.181 NA
BRANCH  21  22
ATOM     22  N   UNL     1       0.332  -3.406  -4.463  1.00  0.00    -0.243 N 
ATOM     23  C   UNL     1      -0.789  -3.130  -5.208  1.00  0.00     0.271 C 
ATOM     24  H   UNL     1       0.613  -4.343  -4.579  1.00  0.00     0.194 HD
ATOM     25  O   UNL     1      -1.391  -4.075  -5.726  1.00  0.00    -0.267 OA
BRANCH  23  26
ATOM     26  C   UNL     1      -1.304  -1.777  -5.454  1.00  0.00     0.041 A 
ATOM     27  C   UNL     1      -2.687  -1.584  -5.314  1.00  0.00     0.015 A 
ATOM     28  C   UNL     1      -0.479  -0.715  -5.841  1.00  0.00     0.015 A 
ATOM     29  C   UNL     1      -3.232  -0.309  -5.455  1.00  0.00     0.021 A 
ATOM     30  C   UNL     1      -1.033   0.565  -5.985  1.00  0.00     0.021 A 
ATOM     31  C   UNL     1      -2.399   0.765  -5.762  1.00  0.00     0.041 A 
ATOM     32  Cl  UNL     1      -3.058   2.354  -5.801  1.00  0.00    -0.084 Cl
ENDBRANCH  23  26
ENDBRANCH  21  22
ENDBRANCH   9  11
ENDBRANCH   8   9
ENDBRANCH   7   8
ENDBRANCH   6   7
ENDBRANCH   5   6
ENDBRANCH   4   5
ENDBRANCH   3   4
ENDBRANCH   2   3
ENDBRANCH   1   2
BRANCH   1  33
ATOM     33  C   UNL     1      -6.524  -2.511  -0.739  1.00  0.00     0.188 C 
BRANCH  33  34
ATOM     34  O   UNL     1      -5.262  -3.130  -0.507  1.00  0.00    -0.376 OA
BRANCH  34  35
ATOM     35  C   UNL     1      -5.188  -4.486  -0.926  1.00  0.00     0.202 C 
BRANCH  35  36
ATOM     36  C   UNL     1      -5.084  -4.763  -2.442  1.00  0.00     0.261 C 
BRANCH  36  37
ATOM     37  O   UNL     1      -5.632  -3.779  -3.332  1.00  0.00    -0.460 OA
BRANCH  37  38
ATOM     38  C   UNL     1      -6.907  -3.970  -3.732  1.00  0.00     0.338 C 
ATOM     39  O   UNL     1      -7.693  -4.803  -3.297  1.00  0.00    -0.246 OA
BRANCH  38  40
ATOM     40  C   UNL     1      -7.261  -2.970  -4.755  1.00  0.00     0.060 A 
ATOM     41  C   UNL     1      -8.161  -1.946  -4.441  1.00  0.00     0.016 A 
ATOM     42  C   UNL     1      -6.777  -3.111  -6.058  1.00  0.00     0.016 A 
ATOM     43  C   UNL     1      -8.583  -1.056  -5.434  1.00  0.00     0.010 A 
ATOM     44  C   UNL     1      -7.220  -2.236  -7.055  1.00  0.00     0.010 A 
ATOM     45  C   UNL     1      -8.138  -1.216  -6.753  1.00  0.00    -0.014 A 
BRANCH  45  46
ATOM     46  C   UNL     1      -8.706  -0.396  -7.852  1.00  0.00     0.031 A 
ATOM     47  C   UNL     1      -9.899  -0.908  -8.610  1.00  0.00     0.074 A 
ATOM     48  C   UNL     1      -8.120   0.760  -8.212  1.00  0.00     0.049 A 
ATOM     49  N   UNL     1     -10.494  -0.400  -9.657  1.00  0.00    -0.248 NA
ATOM     50  C   UNL     1     -10.502  -2.159  -8.122  1.00  0.00     0.031 C 
ATOM     51  C   UNL     1      -6.964   1.360  -7.549  1.00  0.00     0.029 A 
ATOM     52  N   UNL     1      -8.394   1.612  -9.254  1.00  0.00    -0.354 N 
ATOM     53  C   UNL     1     -11.527  -1.275  -9.968  1.00  0.00     0.074 A 
ATOM     54  C   UNL     1     -11.479  -2.348  -8.997  1.00  0.00     0.031 C 
ATOM     55  C   UNL     1      -6.594   2.458  -8.231  1.00  0.00     0.029 A 
ATOM     56  C   UNL     1      -7.471   2.622  -9.390  1.00  0.00     0.049 A 
ATOM     57  H   UNL     1      -9.174   1.509  -9.845  1.00  0.00     0.167 HD
ATOM     58  C   UNL     1     -12.438  -1.190 -10.966  1.00  0.00     0.034 A 
ATOM     59  C   UNL     1      -7.330   3.550 -10.358  1.00  0.00     0.034 A 
ATOM     60  C   UNL     1     -12.481  -0.127 -11.933  1.00  0.00     0.049 A 
ATOM     61  C   UNL     1      -8.320   3.587 -11.495  1.00  0.00     0.074 A 
ATOM     62  C   UNL     1     -13.397   0.075 -12.950  1.00  0.00     0.029 A 
ATOM     63  N   UNL     1     -11.552   0.898 -12.022  1.00  0.00    -0.354 N 
ATOM     64  N   UNL     1      -9.379   2.839 -11.694  1.00  0.00    -0.248 NA
ATOM     65  C   UNL     1      -8.108   4.609 -12.532  1.00  0.00     0.031 C 
ATOM     66  C   UNL     1     -13.005   1.208 -13.672  1.00  0.00     0.029 A 
ATOM     67  C   UNL     1     -11.856   1.721 -13.092  1.00  0.00     0.049 A 
ATOM     68  H   UNL     1     -10.788   1.022 -11.414  1.00  0.00     0.167 HD
ATOM     69  C   UNL     1      -9.973   3.316 -12.859  1.00  0.00     0.074 A 
ATOM     70  C   UNL     1      -9.168   4.431 -13.311  1.00  0.00     0.031 C 
ATOM     71  C   UNL     1     -11.075   2.860 -13.505  1.00  0.00     0.034 A 
BRANCH  58  72
ATOM     72  C   UNL     1     -13.486  -2.267 -11.049  1.00  0.00     0.023 A 
ATOM     73  C   UNL     1     -14.552  -2.266 -10.127  1.00  0.00     0.012 A 
ATOM     74  C   UNL     1     -13.450  -3.240 -12.066  1.00  0.00     0.148 A 
ATOM     75  C   UNL     1     -15.555  -3.232 -10.201  1.00  0.00     0.002 A 
ATOM     76  C   UNL     1     -14.471  -4.179 -12.155  1.00  0.00     0.091 A 
ATOM     77  F   UNL     1     -12.415  -3.237 -12.918  1.00  0.00    -0.205 F 
ATOM     78  C   UNL     1     -15.519  -4.181 -11.219  1.00  0.00     0.022 A 
BRANCH  76  79
ATOM     79  S   UNL     1     -14.550  -5.401 -13.469  1.00  0.00     0.127 S 
ATOM     80  O   UNL     1     -14.202  -6.627 -12.752  1.00  0.00    -0.237 OA
ATOM     81  O   UNL     1     -15.949  -5.316 -13.888  1.00  0.00    -0.237 OA
ATOM     82  O   UNL     1     -13.589  -4.969 -14.475  1.00  0.00    -0.744 OA
ENDBRANCH  76  79
ENDBRANCH  58  72
BRANCH  59  83
ATOM     83  C   UNL     1      -6.215   4.537 -10.285  1.00  0.00     0.023 A 
ATOM     84  C   UNL     1      -6.507   5.892 -10.035  1.00  0.00     0.012 A 
ATOM     85  C   UNL     1      -4.871   4.141 -10.440  1.00  0.00     0.148 A 
ATOM     86  C   UNL     1      -5.484   6.838  -9.966  1.00  0.00     0.002 A 
ATOM     87  C   UNL     1      -3.853   5.080 -10.317  1.00  0.00     0.091 A 
ATOM     88  F   UNL     1      -4.614   2.852 -10.703  1.00  0.00    -0.205 F 
ATOM     89  C   UNL     1      -4.158   6.432 -10.096  1.00  0.00     0.022 A 
BRANCH  87  90
ATOM     90  S   UNL     1      -2.114   4.627 -10.354  1.00  0.00     0.127 S 
ATOM     91  O   UNL     1      -1.697   5.145 -11.654  1.00  0.00    -0.237 OA
ATOM     92  O   UNL     1      -1.583   5.358  -9.203  1.00  0.00    -0.237 OA
ATOM     93  O   UNL     1      -2.081   3.178 -10.208  1.00  0.00    -0.744 OA
ENDBRANCH  87  90
ENDBRANCH  59  83
BRANCH  71  94
ATOM     94  C   UNL     1     -11.496   3.566 -14.768  1.00  0.00     0.023 A 
ATOM     95  C   UNL     1     -10.765   3.359 -15.954  1.00  0.00     0.012 A 
ATOM     96  C   UNL     1     -12.668   4.347 -14.805  1.00  0.00     0.148 A 
ATOM     97  C   UNL     1     -11.182   3.934 -17.154  1.00  0.00     0.002 A 
ATOM     98  C   UNL     1     -13.103   4.881 -16.013  1.00  0.00     0.091 A 
ATOM     99  F   UNL     1     -13.342   4.543 -13.662  1.00  0.00    -0.205 F 
ATOM    100  C   UNL     1     -12.357   4.684 -17.186  1.00  0.00     0.022 A 
BRANCH  98 101
ATOM    101  S   UNL     1     -14.650   5.782 -16.173  1.00  0.00     0.127 S 
ATOM    102  O   UNL     1     -14.178   7.144 -16.417  1.00  0.00    -0.237 OA
ATOM    103  O   UNL     1     -15.268   5.134 -17.330  1.00  0.00    -0.237 OA
ATOM    104  O   UNL     1     -15.362   5.585 -14.917  1.00  0.00    -0.744 OA
ENDBRANCH  98 101
ENDBRANCH  71  94
ENDBRANCH  45  46
ENDBRANCH  38  40
ENDBRANCH  37  38
ENDBRANCH  36  37
ENDBRANCH  35  36
ENDBRANCH  34  35
ENDBRANCH  33  34
ENDBRANCH   1  33
TORSDOF 25
