REMARK SMILES CC(=O)N1[C@@H](c2c(F)cccc2Cl)SC[C@H]1C(=O)OCCOCCOCCOCCOC(=O)c1ccc(-c2c3nc(c(-c4cccc(S(=O)(=O)[O-])c4F)c4ccc([nH]4)c(-c4cccc(S(=O)(=O)[O-])c4F)c4nc(c(-c5cccc(S(=O)(=O)[O-])c5F)c5ccc2[nH]5)C=C4)C=C3)cc1
REMARK SMILES IDX 26 1 25 2 24 3 23 4 22 5 21 6 20 7 19 8 17 9 18 10 16 11
REMARK SMILES IDX 4 12 5 13 14 14 15 15 2 16 1 17 3 18 6 19 7 20 12 21 8 22
REMARK SMILES IDX 9 23 11 24 13 25 10 26 27 27 28 28 29 29 30 30 31 31 32 32
REMARK SMILES IDX 33 33 34 34 35 35 96 36 36 37 95 38 37 39 38 40 39 41 89 42
REMARK SMILES IDX 40 43 94 44 88 45 90 46 41 47 93 48 87 49 86 50 42 52 74 53
REMARK SMILES IDX 54 54 73 55 55 56 58 57 72 58 91 59 56 60 57 61 71 63 92 64
REMARK SMILES IDX 59 65 43 66 44 67 52 68 45 69 47 70 53 71 46 72 48 73 49 74
REMARK SMILES IDX 50 75 51 76 75 77 76 78 84 79 77 80 79 81 85 82 78 83 80 84
REMARK SMILES IDX 81 85 82 86 83 87 60 88 61 89 69 90 62 91 64 92 70 93 63 94
REMARK SMILES IDX 65 95 66 96 67 97 68 98
REMARK H PARENT 90 51 58 62
REMARK Flexibility Score: inf
ROOT
ATOM      1  C   UNL     1       0.950   4.389   4.075  1.00  0.00     0.188 C 
ENDROOT
BRANCH   1   2
ATOM      2  O   UNL     1       0.638   3.047   4.397  1.00  0.00    -0.377 OA
BRANCH   2   3
ATOM      3  C   UNL     1      -0.100   2.344   3.416  1.00  0.00     0.188 C 
BRANCH   3   4
ATOM      4  C   UNL     1      -1.600   2.138   3.734  1.00  0.00     0.188 C 
BRANCH   4   5
ATOM      5  O   UNL     1      -2.143   2.526   4.997  1.00  0.00    -0.376 OA
BRANCH   5   6
ATOM      6  C   UNL     1      -1.320   2.481   6.153  1.00  0.00     0.202 C 
BRANCH   6   7
ATOM      7  C   UNL     1      -0.632   1.152   6.504  1.00  0.00     0.261 C 
BRANCH   7   8
ATOM      8  O   UNL     1      -0.108   0.426   5.375  1.00  0.00    -0.462 OA
BRANCH   8   9
ATOM      9  C   UNL     1      -0.652  -0.781   5.094  1.00  0.00     0.329 C 
ATOM     10  O   UNL     1      -1.538  -1.306   5.766  1.00  0.00    -0.250 OA
BRANCH   9  11
ATOM     11  C   UNL     1      -0.066  -1.483   3.841  1.00  0.00     0.206 C 
ATOM     12  N   UNL     1       0.910  -0.899   2.886  1.00  0.00    -0.312 N 
ATOM     13  C   UNL     1       2.311  -1.220   3.184  1.00  0.00     0.179 C 
ATOM     14  S   UNL     1       2.235  -2.936   3.800  1.00  0.00    -0.129 SA
ATOM     15  C   UNL     1       0.474  -2.853   4.261  1.00  0.00     0.109 C 
BRANCH  12  16
ATOM     16  C   UNL     1       0.426  -0.442   1.668  1.00  0.00     0.221 C 
ATOM     17  C   UNL     1       1.358  -0.279   0.494  1.00  0.00     0.114 C 
ATOM     18  O   UNL     1      -0.776  -0.219   1.492  1.00  0.00    -0.275 OA
ENDBRANCH  12  16
BRANCH  13  19
ATOM     19  C   UNL     1       3.028  -0.240   4.104  1.00  0.00     0.039 A 
ATOM     20  C   UNL     1       2.785  -0.213   5.489  1.00  0.00     0.130 A 
ATOM     21  C   UNL     1       3.986   0.690   3.642  1.00  0.00     0.050 A 
ATOM     22  F   UNL     1       1.943  -1.092   6.051  1.00  0.00    -0.207 F 
ATOM     23  C   UNL     1       3.397   0.696   6.355  1.00  0.00     0.040 A 
ATOM     24  C   UNL     1       4.611   1.604   4.510  1.00  0.00     0.021 A 
ATOM     25  Cl  UNL     1       4.534   0.753   2.003  1.00  0.00    -0.084 Cl
ATOM     26  C   UNL     1       4.311   1.613   5.865  1.00  0.00     0.005 A 
ENDBRANCH  13  19
ENDBRANCH   9  11
ENDBRANCH   8   9
ENDBRANCH   7   8
ENDBRANCH   6   7
ENDBRANCH   5   6
ENDBRANCH   4   5
ENDBRANCH   3   4
ENDBRANCH   2   3
ENDBRANCH   1   2
BRANCH   1  27
ATOM     27  C   UNL     1      -0.241   5.254   3.633  1.00  0.00     0.188 C 
BRANCH  27  28
ATOM     28  O   UNL     1      -0.962   4.697   2.539  1.00  0.00    -0.376 OA
BRANCH  28  29
ATOM     29  C   UNL     1      -0.721   5.177   1.228  1.00  0.00     0.202 C 
BRANCH  29  30
ATOM     30  C   UNL     1       0.635   4.872   0.567  1.00  0.00     0.261 C 
BRANCH  30  31
ATOM     31  O   UNL     1       1.815   5.225   1.300  1.00  0.00    -0.460 OA
BRANCH  31  32
ATOM     32  C   UNL     1       1.997   6.529   1.611  1.00  0.00     0.338 C 
ATOM     33  O   UNL     1       1.281   7.458   1.305  1.00  0.00    -0.246 OA
BRANCH  32  34
ATOM     34  C   UNL     1       3.119   6.601   2.577  1.00  0.00     0.060 A 
ATOM     35  C   UNL     1       2.883   7.159   3.841  1.00  0.00     0.016 A 
ATOM     36  C   UNL     1       4.382   6.101   2.250  1.00  0.00     0.016 A 
ATOM     37  C   UNL     1       3.920   7.253   4.769  1.00  0.00     0.010 A 
ATOM     38  C   UNL     1       5.428   6.224   3.170  1.00  0.00     0.010 A 
ATOM     39  C   UNL     1       5.209   6.835   4.417  1.00  0.00    -0.014 A 
BRANCH  39  40
ATOM     40  C   UNL     1       6.361   7.245   5.256  1.00  0.00     0.031 A 
ATOM     41  C   UNL     1       7.116   8.484   4.856  1.00  0.00     0.074 A 
ATOM     42  C   UNL     1       6.726   6.548   6.346  1.00  0.00     0.049 A 
ATOM     43  N   UNL     1       8.165   9.030   5.410  1.00  0.00    -0.248 NA
ATOM     44  C   UNL     1       6.619   9.204   3.669  1.00  0.00     0.031 C 
ATOM     45  C   UNL     1       6.057   5.350   6.849  1.00  0.00     0.029 A 
ATOM     46  N   UNL     1       7.771   6.740   7.215  1.00  0.00    -0.354 N 
ATOM     47  C   UNL     1       8.477  10.131   4.621  1.00  0.00     0.074 A 
ATOM     48  C   UNL     1       7.508  10.178   3.550  1.00  0.00     0.031 C 
ATOM     49  C   UNL     1       6.727   4.896   7.924  1.00  0.00     0.029 A 
ATOM     50  C   UNL     1       7.884   5.756   8.168  1.00  0.00     0.049 A 
ATOM     51  H   UNL     1       8.382   7.511   7.160  1.00  0.00     0.167 HD
ATOM     52  C   UNL     1       9.479  11.027   4.777  1.00  0.00     0.034 A 
ATOM     53  C   UNL     1       8.829   5.564   9.112  1.00  0.00     0.034 A 
ATOM     54  C   UNL     1      10.431  10.988   5.851  1.00  0.00     0.049 A 
ATOM     55  C   UNL     1       9.956   6.560   9.237  1.00  0.00     0.074 A 
ATOM     56  C   UNL     1      11.448  11.884   6.128  1.00  0.00     0.029 A 
ATOM     57  N   UNL     1      10.500   9.992   6.810  1.00  0.00    -0.354 N 
ATOM     58  N   UNL     1      10.166   7.663   8.560  1.00  0.00    -0.248 NA
ATOM     59  C   UNL     1      10.961   6.300  10.279  1.00  0.00     0.031 C 
ATOM     60  C   UNL     1      12.163  11.402   7.229  1.00  0.00     0.029 A 
ATOM     61  C   UNL     1      11.557  10.236   7.668  1.00  0.00     0.049 A 
ATOM     62  H   UNL     1       9.887   9.223   6.872  1.00  0.00     0.167 HD
ATOM     63  C   UNL     1      11.291   8.253   9.129  1.00  0.00     0.074 A 
ATOM     64  C   UNL     1      11.711   7.391  10.213  1.00  0.00     0.031 C 
ATOM     65  C   UNL     1      11.925   9.400   8.781  1.00  0.00     0.034 A 
BRANCH  52  66
ATOM     66  C   UNL     1       9.605  12.126   3.757  1.00  0.00     0.023 A 
ATOM     67  C   UNL     1       8.676  13.185   3.737  1.00  0.00     0.012 A 
ATOM     68  C   UNL     1      10.693  12.140   2.862  1.00  0.00     0.148 A 
ATOM     69  C   UNL     1       8.814  14.230   2.824  1.00  0.00     0.002 A 
ATOM     70  C   UNL     1      10.851  13.209   1.990  1.00  0.00     0.091 A 
ATOM     71  F   UNL     1      11.549  11.109   2.882  1.00  0.00    -0.205 F 
ATOM     72  C   UNL     1       9.908  14.249   1.961  1.00  0.00     0.022 A 
BRANCH  70  73
ATOM     73  S   UNL     1      12.269  13.365   0.899  1.00  0.00     0.127 S 
ATOM     74  O   UNL     1      11.646  13.217  -0.416  1.00  0.00    -0.237 OA
ATOM     75  O   UNL     1      12.740  14.716   1.203  1.00  0.00    -0.237 OA
ATOM     76  O   UNL     1      13.187  12.300   1.274  1.00  0.00    -0.744 OA
ENDBRANCH  70  73
ENDBRANCH  52  66
BRANCH  53  77
ATOM     77  C   UNL     1       8.754   4.396  10.037  1.00  0.00     0.023 A 
ATOM     78  C   UNL     1       8.548   4.608  11.414  1.00  0.00     0.012 A 
ATOM     79  C   UNL     1       8.918   3.080   9.564  1.00  0.00     0.148 A 
ATOM     80  C   UNL     1       8.555   3.537  12.309  1.00  0.00     0.002 A 
ATOM     81  C   UNL     1       8.866   2.013  10.453  1.00  0.00     0.091 A 
ATOM     82  F   UNL     1       9.129   2.898   8.253  1.00  0.00    -0.205 F 
ATOM     83  C   UNL     1       8.707   2.240  11.828  1.00  0.00     0.022 A 
BRANCH  81  84
ATOM     84  S   UNL     1       8.921   0.304   9.905  1.00  0.00     0.127 S 
ATOM     85  O   UNL     1      10.229  -0.124  10.393  1.00  0.00    -0.237 OA
ATOM     86  O   UNL     1       7.777  -0.274  10.611  1.00  0.00    -0.237 OA
ATOM     87  O   UNL     1       8.769   0.353   8.457  1.00  0.00    -0.744 OA
ENDBRANCH  81  84
ENDBRANCH  53  77
BRANCH  65  88
ATOM     88  C   UNL     1      13.100   9.838   9.618  1.00  0.00     0.023 A 
ATOM     89  C   UNL     1      14.318   9.134   9.560  1.00  0.00     0.012 A 
ATOM     90  C   UNL     1      13.012  11.003  10.409  1.00  0.00     0.148 A 
ATOM     91  C   UNL     1      15.418   9.558  10.306  1.00  0.00     0.002 A 
ATOM     92  C   UNL     1      14.128  11.451  11.104  1.00  0.00     0.091 A 
ATOM     93  F   UNL     1      11.840  11.652  10.463  1.00  0.00    -0.205 F 
ATOM     94  C   UNL     1      15.327  10.722  11.066  1.00  0.00     0.022 A 
BRANCH  92  95
ATOM     95  S   UNL     1      14.134  12.995  12.022  1.00  0.00     0.127 S 
ATOM     96  O   UNL     1      14.170  12.519  13.404  1.00  0.00    -0.237 OA
ATOM     97  O   UNL     1      15.371  13.625  11.560  1.00  0.00    -0.237 OA
ATOM     98  O   UNL     1      12.917  13.697  11.636  1.00  0.00    -0.744 OA
ENDBRANCH  92  95
ENDBRANCH  65  88
ENDBRANCH  39  40
ENDBRANCH  32  34
ENDBRANCH  31  32
ENDBRANCH  30  31
ENDBRANCH  29  30
ENDBRANCH  28  29
ENDBRANCH  27  28
ENDBRANCH   1  27
TORSDOF 25
