REMARK SMILES C[C@@H](Sc1nc2ccccc2c(=O)n1N)C(=O)OCCOCCOCCOCCOC(=O)c1ccc(-c2c3nc(c(-c4cccc(S(=O)(=O)[O-])c4F)c4ccc([nH]4)c(-c4cccc(S(=O)(=O)[O-])c4F)c4nc(c(-c5cccc(S(=O)(=O)[O-])c5F)c5ccc2[nH]5)C=C4)C=C3)cc1
REMARK SMILES IDX 24 1 23 2 22 3 21 4 20 5 19 6 18 7 16 8 17 9 2 10 1 11 3 12
REMARK SMILES IDX 4 13 5 14 14 15 6 16 12 17 7 18 11 19 13 20 8 21 10 22 9 23
REMARK SMILES IDX 15 24 25 27 26 28 27 29 28 30 29 31 30 32 31 33 32 34 33 35
REMARK SMILES IDX 34 36 95 37 35 38 94 39 36 40 37 41 38 42 88 43 39 44 93 45
REMARK SMILES IDX 87 46 89 47 40 48 92 49 86 50 85 51 41 53 73 54 53 55 72 56
REMARK SMILES IDX 54 57 57 58 71 59 90 60 55 61 56 62 70 64 91 65 58 66 42 67
REMARK SMILES IDX 43 68 51 69 44 70 46 71 52 72 45 73 47 74 48 75 49 76 50 77
REMARK SMILES IDX 74 78 75 79 83 80 76 81 78 82 84 83 77 84 79 85 80 86 81 87
REMARK SMILES IDX 82 88 59 89 60 90 68 91 61 92 63 93 69 94 62 95 64 96 65 97
REMARK SMILES IDX 66 98 67 99
REMARK H PARENT 15 25 15 26 89 52 57 63
REMARK Flexibility Score: inf
ROOT
ATOM      1  O   UNL     1      -1.738  -0.620  -0.533  1.00  0.00    -0.377 OA
ENDROOT
BRANCH   1   2
ATOM      2  C   UNL     1      -1.269  -1.169   0.677  1.00  0.00     0.188 C 
BRANCH   2   3
ATOM      3  C   UNL     1      -2.031  -0.733   1.937  1.00  0.00     0.188 C 
BRANCH   3   4
ATOM      4  O   UNL     1      -3.379  -0.312   1.863  1.00  0.00    -0.376 OA
BRANCH   4   5
ATOM      5  C   UNL     1      -3.809   0.815   1.114  1.00  0.00     0.202 C 
BRANCH   5   6
ATOM      6  C   UNL     1      -2.954   2.028   0.711  1.00  0.00     0.261 C 
BRANCH   6   7
ATOM      7  O   UNL     1      -1.585   1.794   0.399  1.00  0.00    -0.462 OA
BRANCH   7   8
ATOM      8  C   UNL     1      -0.704   2.095   1.377  1.00  0.00     0.319 C 
ATOM      9  O   UNL     1      -1.034   2.469   2.502  1.00  0.00    -0.251 OA
BRANCH   8  10
ATOM     10  C   UNL     1       0.754   1.872   0.979  1.00  0.00     0.161 C 
ATOM     11  C   UNL     1       1.042   1.312  -0.416  1.00  0.00     0.032 C 
BRANCH  10  12
ATOM     12  S   UNL     1       1.561   3.487   1.264  1.00  0.00    -0.071 SA
BRANCH  12  13
ATOM     13  C   UNL     1       3.228   3.023   1.124  1.00  0.00     0.191 A 
ATOM     14  N   UNL     1       3.854   3.448   0.080  1.00  0.00    -0.222 NA
ATOM     15  N   UNL     1       3.824   2.304   2.154  1.00  0.00    -0.202 N 
ATOM     16  C   UNL     1       5.222   3.204  -0.016  1.00  0.00     0.079 A 
ATOM     17  C   UNL     1       5.203   2.088   2.176  1.00  0.00     0.280 A 
ATOM     18  C   UNL     1       5.892   3.657  -1.152  1.00  0.00     0.029 A 
ATOM     19  C   UNL     1       5.948   2.593   1.006  1.00  0.00     0.068 A 
ATOM     20  O   UNL     1       5.791   1.540   3.109  1.00  0.00    -0.267 OA
ATOM     21  C   UNL     1       7.278   3.540  -1.246  1.00  0.00     0.002 A 
ATOM     22  C   UNL     1       7.339   2.479   0.926  1.00  0.00     0.016 A 
ATOM     23  C   UNL     1       8.003   2.965  -0.201  1.00  0.00     0.001 A 
BRANCH  15  24
ATOM     24  N   UNL     1       3.064   1.765   3.248  1.00  0.00    -0.334 N 
ATOM     25  H   UNL     1       2.088   1.891   3.278  1.00  0.00     0.178 HD
ATOM     26  H   UNL     1       3.519   1.271   3.967  1.00  0.00     0.178 HD
ENDBRANCH  15  24
ENDBRANCH  12  13
ENDBRANCH  10  12
ENDBRANCH   8  10
ENDBRANCH   7   8
ENDBRANCH   6   7
ENDBRANCH   5   6
ENDBRANCH   4   5
ENDBRANCH   3   4
ENDBRANCH   2   3
ENDBRANCH   1   2
BRANCH   1  27
ATOM     27  C   UNL     1      -2.797  -1.272  -1.225  1.00  0.00     0.188 C 
BRANCH  27  28
ATOM     28  C   UNL     1      -3.689  -2.302  -0.500  1.00  0.00     0.188 C 
BRANCH  28  29
ATOM     29  O   UNL     1      -2.991  -3.203   0.346  1.00  0.00    -0.376 OA
BRANCH  29  30
ATOM     30  C   UNL     1      -2.658  -4.484  -0.166  1.00  0.00     0.202 C 
BRANCH  30  31
ATOM     31  C   UNL     1      -1.706  -4.541  -1.371  1.00  0.00     0.261 C 
BRANCH  31  32
ATOM     32  O   UNL     1      -2.157  -3.899  -2.575  1.00  0.00    -0.460 OA
BRANCH  32  33
ATOM     33  C   UNL     1      -3.330  -4.287  -3.116  1.00  0.00     0.338 C 
ATOM     34  O   UNL     1      -4.059  -5.184  -2.727  1.00  0.00    -0.246 OA
BRANCH  33  35
ATOM     35  C   UNL     1      -3.687  -3.295  -4.154  1.00  0.00     0.060 A 
ATOM     36  C   UNL     1      -4.848  -2.525  -3.997  1.00  0.00     0.016 A 
ATOM     37  C   UNL     1      -2.861  -3.108  -5.263  1.00  0.00     0.016 A 
ATOM     38  C   UNL     1      -5.192  -1.572  -4.959  1.00  0.00     0.010 A 
ATOM     39  C   UNL     1      -3.220  -2.173  -6.236  1.00  0.00     0.010 A 
ATOM     40  C   UNL     1      -4.397  -1.415  -6.101  1.00  0.00    -0.014 A 
BRANCH  40  41
ATOM     41  C   UNL     1      -4.854  -0.570  -7.232  1.00  0.00     0.031 A 
ATOM     42  C   UNL     1      -5.479  -1.242  -8.423  1.00  0.00     0.074 A 
ATOM     43  C   UNL     1      -4.663   0.762  -7.230  1.00  0.00     0.049 A 
ATOM     44  N   UNL     1      -5.827  -0.732  -9.574  1.00  0.00    -0.248 NA
ATOM     45  C   UNL     1      -5.740  -2.687  -8.300  1.00  0.00     0.031 C 
ATOM     46  C   UNL     1      -4.080   1.532  -6.133  1.00  0.00     0.029 A 
ATOM     47  N   UNL     1      -4.897   1.697  -8.211  1.00  0.00    -0.354 N 
ATOM     48  C   UNL     1      -6.297  -1.797 -10.332  1.00  0.00     0.074 A 
ATOM     49  C   UNL     1      -6.209  -2.980  -9.505  1.00  0.00     0.031 C 
ATOM     50  C   UNL     1      -3.951   2.813  -6.520  1.00  0.00     0.029 A 
ATOM     51  C   UNL     1      -4.404   2.945  -7.904  1.00  0.00     0.049 A 
ATOM     52  H   UNL     1      -5.372   1.494  -9.049  1.00  0.00     0.167 HD
ATOM     53  C   UNL     1      -6.756  -1.789 -11.605  1.00  0.00     0.034 A 
ATOM     54  C   UNL     1      -4.281   4.049  -8.671  1.00  0.00     0.034 A 
ATOM     55  C   UNL     1      -6.862  -0.609 -12.417  1.00  0.00     0.049 A 
ATOM     56  C   UNL     1      -4.770   4.018 -10.098  1.00  0.00     0.074 A 
ATOM     57  C   UNL     1      -7.392  -0.491 -13.690  1.00  0.00     0.029 A 
ATOM     58  N   UNL     1      -6.402   0.646 -12.056  1.00  0.00    -0.354 N 
ATOM     59  N   UNL     1      -5.346   3.040 -10.754  1.00  0.00    -0.248 NA
ATOM     60  C   UNL     1      -4.611   5.251 -10.886  1.00  0.00     0.031 C 
ATOM     61  C   UNL     1      -7.203   0.825 -14.119  1.00  0.00     0.029 A 
ATOM     62  C   UNL     1      -6.601   1.537 -13.095  1.00  0.00     0.049 A 
ATOM     63  H   UNL     1      -5.994   0.870 -11.188  1.00  0.00     0.167 HD
ATOM     64  C   UNL     1      -5.644   3.547 -12.015  1.00  0.00     0.074 A 
ATOM     65  C   UNL     1      -5.209   4.927 -12.025  1.00  0.00     0.031 C 
ATOM     66  C   UNL     1      -6.211   2.923 -13.076  1.00  0.00     0.034 A 
BRANCH  53  67
ATOM     67  C   UNL     1      -7.173  -3.098 -12.218  1.00  0.00     0.023 A 
ATOM     68  C   UNL     1      -8.380  -3.710 -11.828  1.00  0.00     0.012 A 
ATOM     69  C   UNL     1      -6.407  -3.669 -13.254  1.00  0.00     0.148 A 
ATOM     70  C   UNL     1      -8.811  -4.882 -12.450  1.00  0.00     0.002 A 
ATOM     71  C   UNL     1      -6.866  -4.809 -13.900  1.00  0.00     0.091 A 
ATOM     72  F   UNL     1      -5.251  -3.080 -13.591  1.00  0.00    -0.205 F 
ATOM     73  C   UNL     1      -8.062  -5.422 -13.493  1.00  0.00     0.022 A 
BRANCH  71  74
ATOM     74  S   UNL     1      -6.018  -5.532 -15.307  1.00  0.00     0.127 S 
ATOM     75  O   UNL     1      -5.583  -6.817 -14.761  1.00  0.00    -0.237 OA
ATOM     76  O   UNL     1      -7.092  -5.622 -16.297  1.00  0.00    -0.237 OA
ATOM     77  O   UNL     1      -4.944  -4.611 -15.651  1.00  0.00    -0.744 OA
ENDBRANCH  71  74
ENDBRANCH  53  67
BRANCH  54  78
ATOM     78  C   UNL     1      -3.640   5.280  -8.122  1.00  0.00     0.023 A 
ATOM     79  C   UNL     1      -4.402   6.452  -7.954  1.00  0.00     0.012 A 
ATOM     80  C   UNL     1      -2.270   5.300  -7.794  1.00  0.00     0.148 A 
ATOM     81  C   UNL     1      -3.803   7.632  -7.509  1.00  0.00     0.002 A 
ATOM     82  C   UNL     1      -1.694   6.461  -7.294  1.00  0.00     0.091 A 
ATOM     83  F   UNL     1      -1.555   4.181  -7.981  1.00  0.00    -0.205 F 
ATOM     84  C   UNL     1      -2.453   7.634  -7.170  1.00  0.00     0.022 A 
BRANCH  82  85
ATOM     85  S   UNL     1       0.006   6.519  -6.716  1.00  0.00     0.127 S 
ATOM     86  O   UNL     1       0.644   7.336  -7.745  1.00  0.00    -0.237 OA
ATOM     87  O   UNL     1      -0.141   7.170  -5.414  1.00  0.00    -0.237 OA
ATOM     88  O   UNL     1       0.445   5.131  -6.648  1.00  0.00    -0.744 OA
ENDBRANCH  82  85
ENDBRANCH  54  78
BRANCH  66  89
ATOM     89  C   UNL     1      -6.438   3.723 -14.334  1.00  0.00     0.023 A 
ATOM     90  C   UNL     1      -5.345   4.085 -15.145  1.00  0.00     0.012 A 
ATOM     91  C   UNL     1      -7.747   4.027 -14.760  1.00  0.00     0.148 A 
ATOM     92  C   UNL     1      -5.549   4.761 -16.348  1.00  0.00     0.002 A 
ATOM     93  C   UNL     1      -7.946   4.654 -15.985  1.00  0.00     0.091 A 
ATOM     94  F   UNL     1      -8.773   3.683 -13.968  1.00  0.00    -0.205 F 
ATOM     95  C   UNL     1      -6.847   5.033 -16.773  1.00  0.00     0.022 A 
BRANCH  93  96
ATOM     96  S   UNL     1      -9.581   4.957 -16.663  1.00  0.00     0.127 S 
ATOM     97  O   UNL     1      -9.644   6.418 -16.648  1.00  0.00    -0.237 OA
ATOM     98  O   UNL     1      -9.476   4.364 -17.996  1.00  0.00    -0.237 OA
ATOM     99  O   UNL     1     -10.520   4.288 -15.773  1.00  0.00    -0.744 OA
ENDBRANCH  93  96
ENDBRANCH  66  89
ENDBRANCH  40  41
ENDBRANCH  33  35
ENDBRANCH  32  33
ENDBRANCH  31  32
ENDBRANCH  30  31
ENDBRANCH  29  30
ENDBRANCH  28  29
ENDBRANCH  27  28
ENDBRANCH   1  27
TORSDOF 26
