REMARK SMILES CC(C)C[C@@H](NC(=O)c1cccnc1)C(=O)OCCOCCOCCOCCOC(=O)c1ccc(-c2c3nc(c(-c4cccc(S(=O)(=O)[O-])c4F)c4ccc([nH]4)c(-c4cccc(S(=O)(=O)[O-])c4F)c4nc(c(-c5cccc(S(=O)(=O)[O-])c5F)c5ccc2[nH]5)C=C4)C=C3)cc1
REMARK SMILES IDX 24 1 23 2 22 3 21 4 20 5 19 6 18 7 17 8 15 9 16 10 5 11 4 12
REMARK SMILES IDX 2 13 1 14 3 15 6 16 7 17 8 19 9 20 10 21 14 22 11 23 13 24
REMARK SMILES IDX 12 25 25 26 26 27 27 28 28 29 29 30 30 31 31 32 32 33 33 34
REMARK SMILES IDX 94 35 34 36 93 37 35 38 36 39 37 40 87 41 38 42 92 43 86 44
REMARK SMILES IDX 88 45 39 46 91 47 85 48 84 49 40 51 72 52 52 53 71 54 53 55
REMARK SMILES IDX 56 56 70 57 89 58 54 59 55 60 69 62 90 63 57 64 41 65 42 66
REMARK SMILES IDX 50 67 43 68 45 69 51 70 44 71 46 72 47 73 48 74 49 75 73 76
REMARK SMILES IDX 74 77 82 78 75 79 77 80 83 81 76 82 78 83 79 84 80 85 81 86
REMARK SMILES IDX 58 87 59 88 67 89 60 90 62 91 68 92 61 93 63 94 64 95 65 96
REMARK SMILES IDX 66 97
REMARK H PARENT 6 18 88 50 56 61
REMARK Flexibility Score: inf
ROOT
ATOM      1  C   UNL     1      -4.841  -2.239  -1.659  1.00  0.00     0.188 C 
ENDROOT
BRANCH   1   2
ATOM      2  O   UNL     1      -3.596  -1.656  -1.274  1.00  0.00    -0.377 OA
BRANCH   2   3
ATOM      3  C   UNL     1      -3.357  -1.291   0.076  1.00  0.00     0.188 C 
BRANCH   3   4
ATOM      4  C   UNL     1      -4.404  -0.439   0.807  1.00  0.00     0.188 C 
BRANCH   4   5
ATOM      5  O   UNL     1      -5.607  -0.228   0.091  1.00  0.00    -0.376 OA
BRANCH   5   6
ATOM      6  C   UNL     1      -5.739   0.965  -0.657  1.00  0.00     0.202 C 
BRANCH   6   7
ATOM      7  C   UNL     1      -4.912   1.132  -1.937  1.00  0.00     0.261 C 
BRANCH   7   8
ATOM      8  O   UNL     1      -3.482   1.052  -1.913  1.00  0.00    -0.462 OA
BRANCH   8   9
ATOM      9  C   UNL     1      -2.775   1.733  -0.991  1.00  0.00     0.328 C 
ATOM     10  O   UNL     1      -3.235   2.271   0.010  1.00  0.00    -0.250 OA
BRANCH   9  11
ATOM     11  C   UNL     1      -1.316   1.906  -1.411  1.00  0.00     0.192 C 
BRANCH  11  12
ATOM     12  C   UNL     1      -0.721   0.613  -2.032  1.00  0.00     0.040 C 
BRANCH  12  13
ATOM     13  C   UNL     1       0.774   0.315  -1.746  1.00  0.00    -0.015 C 
ATOM     14  C   UNL     1       1.124   0.258  -0.255  1.00  0.00     0.007 C 
ATOM     15  C   UNL     1       1.160  -1.037  -2.372  1.00  0.00     0.007 C 
ENDBRANCH  12  13
ENDBRANCH  11  12
BRANCH  11  16
ATOM     16  N   UNL     1      -1.042   3.097  -2.241  1.00  0.00    -0.339 N 
ATOM     17  C   UNL     1      -1.769   4.208  -2.603  1.00  0.00     0.253 C 
ATOM     18  H   UNL     1      -0.134   3.095  -2.621  1.00  0.00     0.164 HD
ATOM     19  O   UNL     1      -1.190   5.131  -3.172  1.00  0.00    -0.269 OA
BRANCH  17  20
ATOM     20  C   UNL     1      -3.218   4.348  -2.396  1.00  0.00     0.058 A 
ATOM     21  C   UNL     1      -3.772   4.696  -1.163  1.00  0.00     0.017 A 
ATOM     22  C   UNL     1      -4.076   4.234  -3.482  1.00  0.00     0.124 A 
ATOM     23  C   UNL     1      -5.160   4.793  -1.034  1.00  0.00     0.021 A 
ATOM     24  N   UNL     1      -5.430   4.352  -3.387  1.00  0.00    -0.264 NA
ATOM     25  C   UNL     1      -5.942   4.614  -2.164  1.00  0.00     0.111 A 
ENDBRANCH  17  20
ENDBRANCH  11  16
ENDBRANCH   9  11
ENDBRANCH   8   9
ENDBRANCH   7   8
ENDBRANCH   6   7
ENDBRANCH   5   6
ENDBRANCH   4   5
ENDBRANCH   3   4
ENDBRANCH   2   3
ENDBRANCH   1   2
BRANCH   1  26
ATOM     26  C   UNL     1      -5.762  -2.906  -0.620  1.00  0.00     0.188 C 
BRANCH  26  27
ATOM     27  O   UNL     1      -5.112  -3.271   0.582  1.00  0.00    -0.376 OA
BRANCH  27  28
ATOM     28  C   UNL     1      -4.614  -4.594   0.677  1.00  0.00     0.202 C 
BRANCH  28  29
ATOM     29  C   UNL     1      -3.653  -5.100  -0.411  1.00  0.00     0.261 C 
BRANCH  29  30
ATOM     30  O   UNL     1      -4.114  -5.085  -1.774  1.00  0.00    -0.460 OA
BRANCH  30  31
ATOM     31  C   UNL     1      -5.277  -5.693  -2.088  1.00  0.00     0.338 C 
ATOM     32  O   UNL     1      -5.992  -6.338  -1.337  1.00  0.00    -0.246 OA
BRANCH  31  33
ATOM     33  C   UNL     1      -5.657  -5.260  -3.453  1.00  0.00     0.060 A 
ATOM     34  C   UNL     1      -6.868  -4.576  -3.650  1.00  0.00     0.016 A 
ATOM     35  C   UNL     1      -4.814  -5.518  -4.535  1.00  0.00     0.016 A 
ATOM     36  C   UNL     1      -7.260  -4.197  -4.935  1.00  0.00     0.010 A 
ATOM     37  C   UNL     1      -5.221  -5.162  -5.825  1.00  0.00     0.010 A 
ATOM     38  C   UNL     1      -6.466  -4.542  -6.035  1.00  0.00    -0.014 A 
BRANCH  38  39
ATOM     39  C   UNL     1      -7.039  -4.490  -7.403  1.00  0.00     0.031 A 
ATOM     40  C   UNL     1      -7.593  -5.767  -7.979  1.00  0.00     0.074 A 
ATOM     41  C   UNL     1      -7.066  -3.356  -8.124  1.00  0.00     0.049 A 
ATOM     42  N   UNL     1      -8.073  -6.002  -9.171  1.00  0.00    -0.248 NA
ATOM     43  C   UNL     1      -7.599  -6.939  -7.086  1.00  0.00     0.031 C 
ATOM     44  C   UNL     1      -6.585  -2.052  -7.673  1.00  0.00     0.029 A 
ATOM     45  N   UNL     1      -7.494  -3.133  -9.411  1.00  0.00    -0.354 N 
ATOM     46  C   UNL     1      -8.400  -7.353  -9.185  1.00  0.00     0.074 A 
ATOM     47  C   UNL     1      -8.059  -7.888  -7.886  1.00  0.00     0.031 C 
ATOM     48  C   UNL     1      -6.709  -1.171  -8.682  1.00  0.00     0.029 A 
ATOM     49  C   UNL     1      -7.246  -1.856  -9.857  1.00  0.00     0.049 A 
ATOM     50  H   UNL     1      -7.934  -3.821  -9.960  1.00  0.00     0.167 HD
ATOM     51  C   UNL     1      -8.943  -8.085 -10.186  1.00  0.00     0.034 A 
ATOM     52  C   UNL     1      -7.404  -1.316 -11.083  1.00  0.00     0.034 A 
ATOM     53  C   UNL     1      -9.293  -7.550 -11.473  1.00  0.00     0.049 A 
ATOM     54  C   UNL     1      -7.973  -2.161 -12.196  1.00  0.00     0.074 A 
ATOM     55  C   UNL     1      -9.889  -8.198 -12.539  1.00  0.00     0.029 A 
ATOM     56  N   UNL     1      -9.059  -6.245 -11.876  1.00  0.00    -0.354 N 
ATOM     57  N   UNL     1      -8.373  -3.409 -12.166  1.00  0.00    -0.248 NA
ATOM     58  C   UNL     1      -8.140  -1.512 -13.506  1.00  0.00     0.031 C 
ATOM     59  C   UNL     1      -9.977  -7.295 -13.603  1.00  0.00     0.029 A 
ATOM     60  C   UNL     1      -9.482  -6.071 -13.182  1.00  0.00     0.049 A 
ATOM     61  H   UNL     1      -8.653  -5.545 -11.316  1.00  0.00     0.167 HD
ATOM     62  C   UNL     1      -8.876  -3.682 -13.435  1.00  0.00     0.074 A 
ATOM     63  C   UNL     1      -8.744  -2.464 -14.206  1.00  0.00     0.031 C 
ATOM     64  C   UNL     1      -9.392  -4.839 -13.922  1.00  0.00     0.034 A 
BRANCH  51  65
ATOM     65  C   UNL     1      -9.192  -9.547  -9.926  1.00  0.00     0.023 A 
ATOM     66  C   UNL     1     -10.217  -9.943  -9.044  1.00  0.00     0.012 A 
ATOM     67  C   UNL     1      -8.434 -10.531 -10.592  1.00  0.00     0.148 A 
ATOM     68  C   UNL     1     -10.461 -11.295  -8.800  1.00  0.00     0.002 A 
ATOM     69  C   UNL     1      -8.716 -11.875 -10.383  1.00  0.00     0.091 A 
ATOM     70  F   UNL     1      -7.448 -10.134 -11.408  1.00  0.00    -0.205 F 
ATOM     71  C   UNL     1      -9.719 -12.259  -9.478  1.00  0.00     0.022 A 
BRANCH  69  72
ATOM     72  S   UNL     1      -7.873 -13.190 -11.268  1.00  0.00     0.127 S 
ATOM     73  O   UNL     1      -7.099 -13.816 -10.197  1.00  0.00    -0.237 OA
ATOM     74  O   UNL     1      -8.992 -13.993 -11.761  1.00  0.00    -0.237 OA
ATOM     75  O   UNL     1      -7.086 -12.539 -12.306  1.00  0.00    -0.744 OA
ENDBRANCH  69  72
ENDBRANCH  51  65
BRANCH  52  76
ATOM     76  C   UNL     1      -7.023   0.105 -11.330  1.00  0.00     0.023 A 
ATOM     77  C   UNL     1      -8.020   1.058 -11.611  1.00  0.00     0.012 A 
ATOM     78  C   UNL     1      -5.675   0.513 -11.289  1.00  0.00     0.148 A 
ATOM     79  C   UNL     1      -7.680   2.385 -11.879  1.00  0.00     0.002 A 
ATOM     80  C   UNL     1      -5.348   1.847 -11.500  1.00  0.00     0.091 A 
ATOM     81  F   UNL     1      -4.739  -0.413 -11.038  1.00  0.00    -0.205 F 
ATOM     82  C   UNL     1      -6.347   2.782 -11.813  1.00  0.00     0.022 A 
BRANCH  80  83
ATOM     83  S   UNL     1      -3.674   2.470 -11.319  1.00  0.00     0.127 S 
ATOM     84  O   UNL     1      -3.342   2.838 -12.693  1.00  0.00    -0.237 OA
ATOM     85  O   UNL     1      -3.872   3.598 -10.408  1.00  0.00    -0.237 OA
ATOM     86  O   UNL     1      -2.901   1.370 -10.757  1.00  0.00    -0.744 OA
ENDBRANCH  80  83
ENDBRANCH  52  76
BRANCH  64  87
ATOM     87  C   UNL     1      -9.909  -4.841 -15.338  1.00  0.00     0.023 A 
ATOM     88  C   UNL     1      -9.011  -4.781 -16.422  1.00  0.00     0.012 A 
ATOM     89  C   UNL     1     -11.289  -4.986 -15.592  1.00  0.00     0.148 A 
ATOM     90  C   UNL     1      -9.481  -4.830 -17.735  1.00  0.00     0.002 A 
ATOM     91  C   UNL     1     -11.744  -5.089 -16.900  1.00  0.00     0.091 A 
ATOM     92  F   UNL     1     -12.129  -5.027 -14.548  1.00  0.00    -0.205 F 
ATOM     93  C   UNL     1     -10.843  -4.996 -17.974  1.00  0.00     0.022 A 
BRANCH  91  94
ATOM     94  S   UNL     1     -13.466  -5.406 -17.301  1.00  0.00     0.127 S 
ATOM     95  O   UNL     1     -13.874  -4.132 -17.891  1.00  0.00    -0.237 OA
ATOM     96  O   UNL     1     -13.363  -6.513 -18.252  1.00  0.00    -0.237 OA
ATOM     97  O   UNL     1     -14.117  -5.747 -16.044  1.00  0.00    -0.744 OA
ENDBRANCH  91  94
ENDBRANCH  64  87
ENDBRANCH  38  39
ENDBRANCH  31  33
ENDBRANCH  30  31
ENDBRANCH  29  30
ENDBRANCH  28  29
ENDBRANCH  27  28
ENDBRANCH  26  27
ENDBRANCH   1  26
TORSDOF 27
