REMARK SMILES O=C(OCCOCCOCCOCCOC(=O)[C@H]1Cc2c([nH]c3ccccc23)[C@@H](c2ccc(OC(F)(F)F)cc2)[NH2+]1)c1ccc(-c2c3nc(c(-c4cccc(S(=O)(=O)[O-])c4F)c4ccc([nH]4)c(-c4cccc(S(=O)(=O)[O-])c4F)c4nc(c(-c5cccc(S(=O)(=O)[O-])c5F)c5ccc2[nH]5)C=C4)C=C3)cc1
REMARK SMILES IDX 9 1 8 2 7 3 6 4 5 5 4 6 3 7 2 8 1 9 42 10 43 11 104 12 44 13
REMARK SMILES IDX 103 14 45 15 46 16 47 17 97 18 48 19 102 20 96 21 98 22
REMARK SMILES IDX 49 23 101 24 95 25 94 26 50 28 82 29 62 30 81 31 63 32 66 33
REMARK SMILES IDX 80 34 99 35 64 36 65 37 79 39 100 40 67 41 51 42 52 43 60 44
REMARK SMILES IDX 53 45 55 46 61 47 54 48 56 49 57 50 58 51 59 52 83 53 84 54
REMARK SMILES IDX 92 55 85 56 87 57 93 58 86 59 88 60 89 61 90 62 91 63 68 64
REMARK SMILES IDX 69 65 77 66 70 67 72 68 78 69 71 70 73 71 74 72 75 73 76 74
REMARK SMILES IDX 10 75 11 76 12 77 13 78 14 79 15 80 16 81 17 82 18 83 19 84
REMARK SMILES IDX 41 85 20 86 29 87 21 90 28 91 22 92 23 93 27 94 24 96 26 97
REMARK SMILES IDX 25 98 30 99 31 100 40 101 32 102 39 103 33 104 34 105 35 106
REMARK SMILES IDX 36 107 37 108 38 109
REMARK H PARENT 98 27 66 38 41 88 41 89 22 95
REMARK Flexibility Score: inf
ROOT
ATOM      1  O   UNL     1       3.669   0.535  -3.585  1.00  0.00    -0.377 OA
ENDROOT
BRANCH   1   2
ATOM      2  C   UNL     1       2.553   0.591  -2.715  1.00  0.00     0.188 C 
BRANCH   2   3
ATOM      3  C   UNL     1       2.762  -0.031  -1.352  1.00  0.00     0.188 C 
BRANCH   3   4
ATOM      4  O   UNL     1       4.121   0.087  -1.003  1.00  0.00    -0.376 OA
BRANCH   4   5
ATOM      5  C   UNL     1       4.801  -0.849  -0.202  1.00  0.00     0.202 C 
BRANCH   5   6
ATOM      6  C   UNL     1       3.997  -1.872   0.565  1.00  0.00     0.261 C 
BRANCH   6   7
ATOM      7  O   UNL     1       2.671  -1.532   1.048  1.00  0.00    -0.460 OA
BRANCH   7   8
ATOM      8  C   UNL     1       2.048  -0.535   1.707  1.00  0.00     0.338 C 
ATOM      9  O   UNL     1       0.836  -0.628   1.895  1.00  0.00    -0.246 OA
BRANCH   8  10
ATOM     10  C   UNL     1       2.741   0.643   2.276  1.00  0.00     0.060 A 
ATOM     11  C   UNL     1       3.721   1.361   1.614  1.00  0.00     0.016 A 
ATOM     12  C   UNL     1       2.299   1.145   3.504  1.00  0.00     0.016 A 
ATOM     13  C   UNL     1       4.472   2.327   2.238  1.00  0.00     0.010 A 
ATOM     14  C   UNL     1       2.949   2.232   4.096  1.00  0.00     0.010 A 
ATOM     15  C   UNL     1       4.104   2.755   3.498  1.00  0.00    -0.014 A 
BRANCH  15  16
ATOM     16  C   UNL     1       5.093   3.562   4.226  1.00  0.00     0.031 A 
ATOM     17  C   UNL     1       5.778   2.904   5.384  1.00  0.00     0.074 A 
ATOM     18  C   UNL     1       5.501   4.744   3.728  1.00  0.00     0.049 A 
ATOM     19  N   UNL     1       6.630   3.402   6.231  1.00  0.00    -0.248 NA
ATOM     20  C   UNL     1       5.466   1.479   5.617  1.00  0.00     0.031 C 
ATOM     21  C   UNL     1       5.010   5.361   2.489  1.00  0.00     0.029 A 
ATOM     22  N   UNL     1       6.450   5.618   4.176  1.00  0.00    -0.354 N 
ATOM     23  C   UNL     1       6.872   2.390   7.151  1.00  0.00     0.074 A 
ATOM     24  C   UNL     1       6.108   1.236   6.746  1.00  0.00     0.031 C 
ATOM     25  C   UNL     1       5.682   6.500   2.266  1.00  0.00     0.029 A 
ATOM     26  C   UNL     1       6.566   6.744   3.396  1.00  0.00     0.049 A 
ATOM     27  H   UNL     1       6.998   5.457   4.978  1.00  0.00     0.167 HD
ATOM     28  C   UNL     1       7.653   2.440   8.250  1.00  0.00     0.034 A 
ATOM     29  C   UNL     1       7.271   7.868   3.615  1.00  0.00     0.034 A 
ATOM     30  C   UNL     1       8.424   3.601   8.588  1.00  0.00     0.049 A 
ATOM     31  C   UNL     1       8.083   7.925   4.880  1.00  0.00     0.074 A 
ATOM     32  C   UNL     1       9.219   3.821   9.693  1.00  0.00     0.029 A 
ATOM     33  N   UNL     1       8.486   4.746   7.804  1.00  0.00    -0.354 N 
ATOM     34  N   UNL     1       8.263   6.991   5.786  1.00  0.00    -0.248 NA
ATOM     35  C   UNL     1       8.794   9.178   5.153  1.00  0.00     0.031 C 
ATOM     36  C   UNL     1       9.731   5.119   9.596  1.00  0.00     0.029 A 
ATOM     37  C   UNL     1       9.300   5.685   8.402  1.00  0.00     0.049 A 
ATOM     38  H   UNL     1       8.017   4.870   6.947  1.00  0.00     0.167 HD
ATOM     39  C   UNL     1       9.137   7.527   6.719  1.00  0.00     0.074 A 
ATOM     40  C   UNL     1       9.462   8.864   6.255  1.00  0.00     0.031 C 
ATOM     41  C   UNL     1       9.624   6.981   7.861  1.00  0.00     0.034 A 
BRANCH  28  42
ATOM     42  C   UNL     1       7.617   1.255   9.173  1.00  0.00     0.023 A 
ATOM     43  C   UNL     1       8.203   0.027   8.806  1.00  0.00     0.012 A 
ATOM     44  C   UNL     1       6.938   1.355  10.403  1.00  0.00     0.148 A 
ATOM     45  C   UNL     1       8.074  -1.094   9.628  1.00  0.00     0.002 A 
ATOM     46  C   UNL     1       6.858   0.251  11.240  1.00  0.00     0.091 A 
ATOM     47  F   UNL     1       6.353   2.520  10.716  1.00  0.00    -0.205 F 
ATOM     48  C   UNL     1       7.409  -0.980  10.847  1.00  0.00     0.022 A 
BRANCH  46  49
ATOM     49  S   UNL     1       6.081   0.314  12.856  1.00  0.00     0.127 S 
ATOM     50  O   UNL     1       4.930  -0.564  12.668  1.00  0.00    -0.237 OA
ATOM     51  O   UNL     1       7.130  -0.225  13.719  1.00  0.00    -0.237 OA
ATOM     52  O   UNL     1       5.758   1.719  13.094  1.00  0.00    -0.744 OA
ENDBRANCH  46  49
ENDBRANCH  28  42
BRANCH  29  53
ATOM     53  C   UNL     1       7.209   9.011   2.659  1.00  0.00     0.023 A 
ATOM     54  C   UNL     1       8.371   9.417   1.975  1.00  0.00     0.012 A 
ATOM     55  C   UNL     1       6.001   9.698   2.417  1.00  0.00     0.148 A 
ATOM     56  C   UNL     1       8.338  10.504   1.097  1.00  0.00     0.002 A 
ATOM     57  C   UNL     1       5.962  10.741   1.499  1.00  0.00     0.091 A 
ATOM     58  F   UNL     1       4.905   9.312   3.087  1.00  0.00    -0.205 F 
ATOM     59  C   UNL     1       7.134  11.159   0.853  1.00  0.00     0.022 A 
BRANCH  57  60
ATOM     60  S   UNL     1       4.434  11.564   1.034  1.00  0.00     0.127 S 
ATOM     61  O   UNL     1       4.612  12.883   1.628  1.00  0.00    -0.237 OA
ATOM     62  O   UNL     1       4.504  11.527  -0.426  1.00  0.00    -0.237 OA
ATOM     63  O   UNL     1       3.361  10.752   1.603  1.00  0.00    -0.744 OA
ENDBRANCH  57  60
ENDBRANCH  29  53
BRANCH  41  64
ATOM     64  C   UNL     1      10.613   7.801   8.637  1.00  0.00     0.023 A 
ATOM     65  C   UNL     1      10.186   8.927   9.366  1.00  0.00     0.012 A 
ATOM     66  C   UNL     1      11.958   7.392   8.700  1.00  0.00     0.148 A 
ATOM     67  C   UNL     1      11.100   9.659  10.121  1.00  0.00     0.002 A 
ATOM     68  C   UNL     1      12.846   8.087   9.504  1.00  0.00     0.091 A 
ATOM     69  F   UNL     1      12.339   6.327   7.978  1.00  0.00    -0.205 F 
ATOM     70  C   UNL     1      12.424   9.231  10.202  1.00  0.00     0.022 A 
BRANCH  68  71
ATOM     71  S   UNL     1      14.532   7.530   9.758  1.00  0.00     0.127 S 
ATOM     72  O   UNL     1      15.288   8.501   8.969  1.00  0.00    -0.237 OA
ATOM     73  O   UNL     1      14.688   7.667  11.207  1.00  0.00    -0.237 OA
ATOM     74  O   UNL     1      14.579   6.157   9.275  1.00  0.00    -0.744 OA
ENDBRANCH  68  71
ENDBRANCH  41  64
ENDBRANCH  15  16
ENDBRANCH   8  10
ENDBRANCH   7   8
ENDBRANCH   6   7
ENDBRANCH   5   6
ENDBRANCH   4   5
ENDBRANCH   3   4
ENDBRANCH   2   3
ENDBRANCH   1   2
BRANCH   1  75
ATOM     75  C   UNL     1       4.967   1.020  -3.232  1.00  0.00     0.188 C 
BRANCH  75  76
ATOM     76  C   UNL     1       5.150   2.477  -2.804  1.00  0.00     0.188 C 
BRANCH  76  77
ATOM     77  O   UNL     1       3.990   3.044  -2.245  1.00  0.00    -0.376 OA
BRANCH  77  78
ATOM     78  C   UNL     1       3.181   3.857  -3.088  1.00  0.00     0.202 C 
BRANCH  78  79
ATOM     79  C   UNL     1       3.183   3.738  -4.637  1.00  0.00     0.261 C 
BRANCH  79  80
ATOM     80  O   UNL     1       3.354   2.422  -5.224  1.00  0.00    -0.459 OA
BRANCH  80  81
ATOM     81  C   UNL     1       4.409   2.269  -6.072  1.00  0.00     0.365 C 
ATOM     82  O   UNL     1       5.151   3.203  -6.391  1.00  0.00    -0.245 OA
BRANCH  81  83
ATOM     83  C   UNL     1       4.681   0.841  -6.650  1.00  0.00     0.298 C 
ATOM     84  C   UNL     1       4.026  -0.412  -6.022  1.00  0.00     0.115 C 
ATOM     85  N   UNL     1       4.586   0.969  -8.125  1.00  0.00    -0.323 N 
ATOM     86  C   UNL     1       4.305  -1.617  -6.840  1.00  0.00    -0.006 A 
ATOM     87  C   UNL     1       4.293  -0.206  -8.950  1.00  0.00     0.262 C 
ATOM     88  H   UNL     1       5.481   1.337  -8.447  1.00  0.00     0.347 HD
ATOM     89  H   UNL     1       3.760   1.554  -8.255  1.00  0.00     0.347 HD
ATOM     90  C   UNL     1       4.451  -1.481  -8.194  1.00  0.00     0.083 A 
ATOM     91  C   UNL     1       4.478  -2.984  -6.498  1.00  0.00     0.003 A 
ATOM     92  N   UNL     1       4.677  -2.727  -8.715  1.00  0.00    -0.353 N 
ATOM     93  C   UNL     1       4.649  -3.670  -7.705  1.00  0.00     0.046 A 
ATOM     94  C   UNL     1       4.482  -3.718  -5.294  1.00  0.00     0.010 A 
ATOM     95  H   UNL     1       4.837  -2.921  -9.666  1.00  0.00     0.166 HD
ATOM     96  C   UNL     1       4.755  -5.065  -7.765  1.00  0.00     0.026 A 
ATOM     97  C   UNL     1       4.612  -5.112  -5.338  1.00  0.00     0.001 A 
ATOM     98  C   UNL     1       4.726  -5.774  -6.559  1.00  0.00     0.002 A 
BRANCH  87  99
ATOM     99  C   UNL     1       2.905  -0.015  -9.555  1.00  0.00     0.016 A 
ATOM    100  C   UNL     1       1.893  -0.985  -9.506  1.00  0.00     0.014 A 
ATOM    101  C   UNL     1       2.611   1.207 -10.185  1.00  0.00     0.014 A 
ATOM    102  C   UNL     1       0.652  -0.752 -10.099  1.00  0.00     0.047 A 
ATOM    103  C   UNL     1       1.362   1.450 -10.755  1.00  0.00     0.047 A 
ATOM    104  C   UNL     1       0.383   0.460 -10.737  1.00  0.00     0.129 A 
BRANCH 104 105
ATOM    105  O   UNL     1      -0.859   0.544 -11.296  1.00  0.00    -0.406 OA
BRANCH 105 106
ATOM    106  C   UNL     1      -1.172   1.738 -11.990  1.00  0.00     0.573 C 
ATOM    107  F   UNL     1      -1.218   2.792 -11.149  1.00  0.00    -0.132 F 
ATOM    108  F   UNL     1      -0.285   1.984 -12.979  1.00  0.00    -0.132 F 
ATOM    109  F   UNL     1      -2.392   1.598 -12.558  1.00  0.00    -0.132 F 
ENDBRANCH 105 106
ENDBRANCH 104 105
ENDBRANCH  87  99
ENDBRANCH  81  83
ENDBRANCH  80  81
ENDBRANCH  79  80
ENDBRANCH  78  79
ENDBRANCH  77  78
ENDBRANCH  76  77
ENDBRANCH  75  76
ENDBRANCH   1  75
TORSDOF 26
