REMARK SMILES CCN1C(=O)c2ccccc2[S@@](=O)c2ccc(C(=O)OCCOCCOCCOCCOC(=O)c3ccc(-c4c5nc(c(-c6cccc(S(=O)(=O)[O-])c6F)c6ccc([nH]6)c(-c6cccc(S(=O)(=O)[O-])c6F)c6nc(c(-c7cccc(S(=O)(=O)[O-])c7F)c7ccc4[nH]7)C=C6)C=C5)cc3)cc21
REMARK SMILES IDX 27 1 26 2 25 3 24 4 23 5 22 6 21 7 20 8 18 9 19 10 17 11
REMARK SMILES IDX 3 12 4 13 99 14 5 15 6 16 14 17 98 18 7 19 11 20 12 21 15 22
REMARK SMILES IDX 8 23 10 24 13 25 16 26 9 27 2 28 1 29 28 30 29 31 30 32
REMARK SMILES IDX 31 33 32 34 33 35 34 36 35 37 36 38 97 39 37 40 96 41 38 42
REMARK SMILES IDX 39 43 40 44 90 45 41 46 95 47 89 48 91 49 42 50 94 51 88 52
REMARK SMILES IDX 87 53 43 55 75 56 55 57 74 58 56 59 59 60 73 61 92 62 57 63
REMARK SMILES IDX 58 64 72 66 93 67 60 68 44 69 45 70 53 71 46 72 48 73 54 74
REMARK SMILES IDX 47 75 49 76 50 77 51 78 52 79 76 80 77 81 85 82 78 83 80 84
REMARK SMILES IDX 86 85 79 86 81 87 82 88 83 89 84 90 61 91 62 92 70 93 63 94
REMARK SMILES IDX 65 95 71 96 64 97 66 98 67 99 68 100 69 101
REMARK H PARENT 91 54 59 65
REMARK Flexibility Score: inf
ROOT
ATOM      1  C   UNL     1       5.982   1.109   2.124  1.00  0.00     0.188 C 
ENDROOT
BRANCH   1   2
ATOM      2  O   UNL     1       5.345   0.700   0.916  1.00  0.00    -0.377 OA
BRANCH   2   3
ATOM      3  C   UNL     1       6.013  -0.206   0.059  1.00  0.00     0.188 C 
BRANCH   3   4
ATOM      4  C   UNL     1       7.293   0.324  -0.608  1.00  0.00     0.188 C 
BRANCH   4   5
ATOM      5  O   UNL     1       7.694   1.614  -0.154  1.00  0.00    -0.376 OA
BRANCH   5   6
ATOM      6  C   UNL     1       7.475   2.694  -1.055  1.00  0.00     0.202 C 
BRANCH   6   7
ATOM      7  C   UNL     1       6.016   3.156  -1.165  1.00  0.00     0.261 C 
BRANCH   7   8
ATOM      8  O   UNL     1       5.111   2.162  -1.676  1.00  0.00    -0.460 OA
BRANCH   8   9
ATOM      9  C   UNL     1       5.340   1.708  -2.924  1.00  0.00     0.338 C 
ATOM     10  O   UNL     1       6.199   2.087  -3.701  1.00  0.00    -0.246 OA
BRANCH   9  11
ATOM     11  C   UNL     1       4.490   0.517  -3.161  1.00  0.00     0.062 A 
ATOM     12  N   UNL     1       0.932  -0.554  -2.561  1.00  0.00    -0.307 N 
ATOM     13  C   UNL     1      -0.115  -1.373  -2.989  1.00  0.00     0.259 C 
ATOM     14  C   UNL     1       2.307  -0.646  -2.997  1.00  0.00     0.061 A 
ATOM     15  O   UNL     1      -1.236  -0.951  -3.273  1.00  0.00    -0.269 OA
ATOM     16  C   UNL     1       0.004  -2.806  -2.687  1.00  0.00     0.056 A 
ATOM     17  C   UNL     1       2.858  -1.681  -3.788  1.00  0.00     0.068 A 
ATOM     18  C   UNL     1       3.172   0.438  -2.690  1.00  0.00     0.043 A 
ATOM     19  C   UNL     1      -0.956  -3.350  -1.816  1.00  0.00     0.015 A 
ATOM     20  C   UNL     1       0.990  -3.606  -3.239  1.00  0.00     0.057 A 
ATOM     21  S   UNL     1       2.009  -3.057  -4.585  1.00  0.00     0.088 S 
ATOM     22  C   UNL     1       4.226  -1.631  -4.165  1.00  0.00     0.021 A 
ATOM     23  C   UNL     1      -0.914  -4.699  -1.475  1.00  0.00     0.001 A 
ATOM     24  C   UNL     1       1.039  -4.962  -2.873  1.00  0.00     0.019 A 
ATOM     25  O   UNL     1       1.083  -2.420  -5.576  1.00  0.00    -0.249 OA
ATOM     26  C   UNL     1       5.032  -0.539  -3.873  1.00  0.00     0.017 A 
ATOM     27  C   UNL     1       0.095  -5.504  -1.993  1.00  0.00     0.001 A 
BRANCH  12  28
ATOM     28  C   UNL     1       0.513   0.476  -1.596  1.00  0.00     0.122 C 
ATOM     29  C   UNL     1       0.953   0.122  -0.176  1.00  0.00     0.028 C 
ENDBRANCH  12  28
ENDBRANCH   9  11
ENDBRANCH   8   9
ENDBRANCH   7   8
ENDBRANCH   6   7
ENDBRANCH   5   6
ENDBRANCH   4   5
ENDBRANCH   3   4
ENDBRANCH   2   3
ENDBRANCH   1   2
BRANCH   1  30
ATOM     30  C   UNL     1       7.365   0.575   2.558  1.00  0.00     0.188 C 
BRANCH  30  31
ATOM     31  O   UNL     1       7.609  -0.789   2.224  1.00  0.00    -0.376 OA
BRANCH  31  32
ATOM     32  C   UNL     1       7.661  -1.698   3.317  1.00  0.00     0.202 C 
BRANCH  32  33
ATOM     33  C   UNL     1       6.271  -2.146   3.781  1.00  0.00     0.261 C 
BRANCH  33  34
ATOM     34  O   UNL     1       5.463  -1.096   4.330  1.00  0.00    -0.460 OA
BRANCH  34  35
ATOM     35  C   UNL     1       5.940  -0.470   5.431  1.00  0.00     0.338 C 
ATOM     36  O   UNL     1       6.955  -0.744   6.047  1.00  0.00    -0.246 OA
BRANCH  35  37
ATOM     37  C   UNL     1       5.119   0.738   5.647  1.00  0.00     0.060 A 
ATOM     38  C   UNL     1       3.723   0.658   5.638  1.00  0.00     0.016 A 
ATOM     39  C   UNL     1       5.761   1.969   5.832  1.00  0.00     0.016 A 
ATOM     40  C   UNL     1       2.967   1.808   5.861  1.00  0.00     0.010 A 
ATOM     41  C   UNL     1       5.002   3.121   6.046  1.00  0.00     0.010 A 
ATOM     42  C   UNL     1       3.603   3.040   6.096  1.00  0.00    -0.014 A 
BRANCH  42  43
ATOM     43  C   UNL     1       2.813   4.169   6.638  1.00  0.00     0.031 A 
ATOM     44  C   UNL     1       2.335   5.304   5.790  1.00  0.00     0.074 A 
ATOM     45  C   UNL     1       2.551   4.150   7.959  1.00  0.00     0.049 A 
ATOM     46  N   UNL     1       1.534   6.282   6.124  1.00  0.00    -0.248 NA
ATOM     47  C   UNL     1       2.815   5.362   4.402  1.00  0.00     0.031 C 
ATOM     48  C   UNL     1       3.027   3.123   8.890  1.00  0.00     0.029 A 
ATOM     49  N   UNL     1       1.830   5.008   8.746  1.00  0.00    -0.354 N 
ATOM     50  C   UNL     1       1.415   7.081   4.996  1.00  0.00     0.074 A 
ATOM     51  C   UNL     1       2.239   6.478   3.967  1.00  0.00     0.031 C 
ATOM     52  C   UNL     1       2.572   3.402  10.119  1.00  0.00     0.029 A 
ATOM     53  C   UNL     1       1.776   4.624  10.064  1.00  0.00     0.049 A 
ATOM     54  H   UNL     1       1.394   5.821   8.402  1.00  0.00     0.167 HD
ATOM     55  C   UNL     1       0.669   8.200   4.837  1.00  0.00     0.034 A 
ATOM     56  C   UNL     1       1.138   5.176  11.113  1.00  0.00     0.034 A 
ATOM     57  C   UNL     1      -0.163   8.776   5.862  1.00  0.00     0.049 A 
ATOM     58  C   UNL     1       0.293   6.394  10.899  1.00  0.00     0.074 A 
ATOM     59  C   UNL     1      -1.030   9.850   5.758  1.00  0.00     0.029 A 
ATOM     60  N   UNL     1      -0.218   8.344   7.178  1.00  0.00    -0.354 N 
ATOM     61  N   UNL     1       0.051   7.034   9.782  1.00  0.00    -0.248 NA
ATOM     62  C   UNL     1      -0.393   6.947  12.075  1.00  0.00     0.031 C 
ATOM     63  C   UNL     1      -1.599  10.077   7.016  1.00  0.00     0.029 A 
ATOM     64  C   UNL     1      -1.092   9.139   7.900  1.00  0.00     0.049 A 
ATOM     65  H   UNL     1       0.290   7.585   7.545  1.00  0.00     0.167 HD
ATOM     66  C   UNL     1      -0.834   8.052  10.112  1.00  0.00     0.074 A 
ATOM     67  C   UNL     1      -1.092   7.939  11.534  1.00  0.00     0.031 C 
ATOM     68  C   UNL     1      -1.374   8.997   9.306  1.00  0.00     0.034 A 
BRANCH  55  69
ATOM     69  C   UNL     1       0.646   8.856   3.484  1.00  0.00     0.023 A 
ATOM     70  C   UNL     1      -0.174   8.311   2.477  1.00  0.00     0.012 A 
ATOM     71  C   UNL     1       1.316  10.073   3.252  1.00  0.00     0.148 A 
ATOM     72  C   UNL     1      -0.324   8.964   1.254  1.00  0.00     0.002 A 
ATOM     73  C   UNL     1       1.142  10.732   2.040  1.00  0.00     0.091 A 
ATOM     74  F   UNL     1       2.099  10.566   4.223  1.00  0.00    -0.205 F 
ATOM     75  C   UNL     1       0.324  10.178   1.041  1.00  0.00     0.022 A 
BRANCH  73  76
ATOM     76  S   UNL     1       1.886  12.329   1.685  1.00  0.00     0.127 S 
ATOM     77  O   UNL     1       2.873  11.972   0.666  1.00  0.00    -0.237 OA
ATOM     78  O   UNL     1       0.745  13.097   1.187  1.00  0.00    -0.237 OA
ATOM     79  O   UNL     1       2.438  12.805   2.946  1.00  0.00    -0.744 OA
ENDBRANCH  73  76
ENDBRANCH  55  69
BRANCH  56  80
ATOM     80  C   UNL     1       1.200   4.485  12.427  1.00  0.00     0.023 A 
ATOM     81  C   UNL     1       0.107   3.697  12.832  1.00  0.00     0.012 A 
ATOM     82  C   UNL     1       2.372   4.503  13.206  1.00  0.00     0.148 A 
ATOM     83  C   UNL     1       0.179   2.935  13.996  1.00  0.00     0.002 A 
ATOM     84  C   UNL     1       2.451   3.712  14.345  1.00  0.00     0.091 A 
ATOM     85  F   UNL     1       3.399   5.256  12.788  1.00  0.00    -0.205 F 
ATOM     86  C   UNL     1       1.353   2.933  14.746  1.00  0.00     0.022 A 
BRANCH  84  87
ATOM     87  S   UNL     1       3.954   3.553  15.316  1.00  0.00     0.127 S 
ATOM     88  O   UNL     1       3.529   4.081  16.610  1.00  0.00    -0.237 OA
ATOM     89  O   UNL     1       4.177   2.108  15.283  1.00  0.00    -0.237 OA
ATOM     90  O   UNL     1       4.962   4.341  14.620  1.00  0.00    -0.744 OA
ENDBRANCH  84  87
ENDBRANCH  56  80
BRANCH  68  91
ATOM     91  C   UNL     1      -2.307  10.001   9.921  1.00  0.00     0.023 A 
ATOM     92  C   UNL     1      -1.771  11.097  10.624  1.00  0.00     0.012 A 
ATOM     93  C   UNL     1      -3.695   9.930   9.693  1.00  0.00     0.148 A 
ATOM     94  C   UNL     1      -2.605  12.110  11.094  1.00  0.00     0.002 A 
ATOM     95  C   UNL     1      -4.517  10.959  10.137  1.00  0.00     0.091 A 
ATOM     96  F   UNL     1      -4.178   8.870   9.029  1.00  0.00    -0.205 F 
ATOM     97  C   UNL     1      -3.974  12.047  10.841  1.00  0.00     0.022 A 
BRANCH  95  98
ATOM     98  S   UNL     1      -6.280  11.008   9.799  1.00  0.00     0.127 S 
ATOM     99  O   UNL     1      -6.845  10.909  11.144  1.00  0.00    -0.237 OA
ATOM    100  O   UNL     1      -6.435  12.318   9.167  1.00  0.00    -0.237 OA
ATOM    101  O   UNL     1      -6.558   9.874   8.928  1.00  0.00    -0.744 OA
ENDBRANCH  95  98
ENDBRANCH  68  91
ENDBRANCH  42  43
ENDBRANCH  35  37
ENDBRANCH  34  35
ENDBRANCH  33  34
ENDBRANCH  32  33
ENDBRANCH  31  32
ENDBRANCH  30  31
ENDBRANCH   1  30
TORSDOF 24
