REMARK SMILES C[N@@H+](CC(=O)OCCOCCOCCOCCOC(=O)c1ccc(-c2c3nc(c(-c4cccc(S(=O)(=O)[O-])c4F)c4ccc([nH]4)c(-c4cccc(S(=O)(=O)[O-])c4F)c4nc(c(-c5cccc(S(=O)(=O)[O-])c5F)c5ccc2[nH]5)C=C4)C=C3)cc1)Cc1noc(-c2ccccc2Cl)n1
REMARK SMILES IDX 11 1 10 2 9 3 8 4 7 5 6 6 4 7 5 8 3 9 2 10 1 11 84 13 85 14
REMARK SMILES IDX 86 15 96 16 87 17 88 18 89 19 90 20 94 21 91 22 93 23 95 24
REMARK SMILES IDX 92 25 12 26 13 27 14 28 15 29 16 30 17 31 18 32 19 33 20 34
REMARK SMILES IDX 21 35 22 36 83 37 23 38 82 39 24 40 25 41 26 42 76 43 27 44
REMARK SMILES IDX 81 45 75 46 77 47 28 48 80 49 74 50 73 51 29 53 61 54 41 55
REMARK SMILES IDX 60 56 42 57 45 58 59 59 78 60 43 61 44 62 58 64 79 65 46 66
REMARK SMILES IDX 30 67 31 68 39 69 32 70 34 71 40 72 33 73 35 74 36 75 37 76
REMARK SMILES IDX 38 77 62 78 63 79 71 80 64 81 66 82 72 83 65 84 67 85 68 86
REMARK SMILES IDX 69 87 70 88 47 89 48 90 56 91 49 92 51 93 57 94 50 95 52 96
REMARK SMILES IDX 53 97 54 98 55 99
REMARK H PARENT 2 12 77 52 45 63
REMARK Flexibility Score: inf
ROOT
ATOM      1  C   UNL     1      -0.017  -1.389  -3.465  1.00  0.00     0.188 C 
ENDROOT
BRANCH   1   2
ATOM      2  C   UNL     1      -2.099  -0.807  -2.810  1.00  0.00     0.188 C 
BRANCH   2   3
ATOM      3  O   UNL     1      -2.976   0.331  -3.346  1.00  0.00    -0.376 OA
BRANCH   3   4
ATOM      4  C   UNL     1      -3.229   1.499  -2.562  1.00  0.00     0.202 C 
BRANCH   4   5
ATOM      5  C   UNL     1      -3.120   1.654  -1.028  1.00  0.00     0.261 C 
BRANCH   5   6
ATOM      6  O   UNL     1      -2.120   0.934  -0.291  1.00  0.00    -0.459 OA
BRANCH   6   7
ATOM      7  C   UNL     1      -2.565  -0.128   0.430  1.00  0.00     0.361 C 
ATOM      8  O   UNL     1      -3.741  -0.493   0.450  1.00  0.00    -0.245 OA
BRANCH   7   9
ATOM      9  C   UNL     1      -1.512  -0.843   1.271  1.00  0.00     0.386 C 
BRANCH   9  10
ATOM     10  N   UNL     1      -0.185  -1.152   0.714  1.00  0.00    -0.322 N 
ATOM     11  C   UNL     1       0.710  -0.005   0.610  1.00  0.00     0.333 C 
ATOM     12  H   UNL     1       0.231  -1.715   1.455  1.00  0.00     0.348 HD
BRANCH  10  13
ATOM     13  C   UNL     1      -0.127  -2.127  -0.389  1.00  0.00     0.345 C 
BRANCH  13  14
ATOM     14  C   UNL     1      -0.726  -1.642  -1.662  1.00  0.00     0.226 A 
ATOM     15  N   UNL     1      -1.396  -2.531  -2.966  1.00  0.00    -0.056 NA
ATOM     16  N   UNL     1      -0.479   0.072  -2.140  1.00  0.00    -0.186 NA
ATOM     17  O   UNL     1      -1.481  -1.124  -4.393  1.00  0.00    -0.334 OA
ATOM     18  C   UNL     1      -0.762   0.413  -3.599  1.00  0.00     0.259 A 
BRANCH  18  19
ATOM     19  C   UNL     1      -0.572   1.674  -4.330  1.00  0.00     0.058 A 
ATOM     20  C   UNL     1      -1.287   1.959  -5.501  1.00  0.00     0.015 A 
ATOM     21  C   UNL     1       0.257   2.694  -3.804  1.00  0.00     0.053 A 
ATOM     22  C   UNL     1      -1.159   3.205  -6.135  1.00  0.00     0.001 A 
ATOM     23  C   UNL     1       0.426   3.900  -4.485  1.00  0.00     0.021 A 
ATOM     24  Cl  UNL     1       1.111   2.596  -2.295  1.00  0.00    -0.083 Cl
ATOM     25  C   UNL     1      -0.277   4.162  -5.647  1.00  0.00     0.002 A 
ENDBRANCH  18  19
ENDBRANCH  13  14
ENDBRANCH  10  13
ENDBRANCH   9  10
ENDBRANCH   7   9
ENDBRANCH   6   7
ENDBRANCH   5   6
ENDBRANCH   4   5
ENDBRANCH   3   4
ENDBRANCH   2   3
ENDBRANCH   1   2
BRANCH   1  26
ATOM     26  O   UNL     1       1.292  -0.720  -3.139  1.00  0.00    -0.377 OA
BRANCH  26  27
ATOM     27  C   UNL     1       2.085  -0.205  -4.196  1.00  0.00     0.188 C 
BRANCH  27  28
ATOM     28  C   UNL     1       1.780  -0.626  -5.643  1.00  0.00     0.188 C 
BRANCH  28  29
ATOM     29  O   UNL     1       2.146  -1.937  -6.068  1.00  0.00    -0.376 OA
BRANCH  29  30
ATOM     30  C   UNL     1       2.972  -2.704  -5.208  1.00  0.00     0.202 C 
BRANCH  30  31
ATOM     31  C   UNL     1       4.472  -2.339  -5.147  1.00  0.00     0.261 C 
BRANCH  31  32
ATOM     32  O   UNL     1       4.794  -0.938  -5.057  1.00  0.00    -0.460 OA
BRANCH  32  33
ATOM     33  C   UNL     1       4.748  -0.197  -6.194  1.00  0.00     0.338 C 
ATOM     34  O   UNL     1       4.614  -0.622  -7.328  1.00  0.00    -0.246 OA
BRANCH  33  35
ATOM     35  C   UNL     1       4.651   1.251  -5.821  1.00  0.00     0.060 A 
ATOM     36  C   UNL     1       3.804   2.095  -6.559  1.00  0.00     0.016 A 
ATOM     37  C   UNL     1       5.355   1.776  -4.732  1.00  0.00     0.016 A 
ATOM     38  C   UNL     1       3.693   3.454  -6.240  1.00  0.00     0.010 A 
ATOM     39  C   UNL     1       5.284   3.146  -4.442  1.00  0.00     0.010 A 
ATOM     40  C   UNL     1       4.490   4.001  -5.223  1.00  0.00    -0.014 A 
BRANCH  40  41
ATOM     41  C   UNL     1       4.763   5.465  -5.234  1.00  0.00     0.031 A 
ATOM     42  C   UNL     1       5.825   5.946  -6.185  1.00  0.00     0.074 A 
ATOM     43  C   UNL     1       4.135   6.351  -4.439  1.00  0.00     0.049 A 
ATOM     44  N   UNL     1       6.276   7.155  -6.383  1.00  0.00    -0.248 NA
ATOM     45  C   UNL     1       6.498   4.912  -6.991  1.00  0.00     0.031 C 
ATOM     46  C   UNL     1       3.164   6.011  -3.412  1.00  0.00     0.029 A 
ATOM     47  N   UNL     1       4.221   7.723  -4.372  1.00  0.00    -0.354 N 
ATOM     48  C   UNL     1       7.319   7.019  -7.289  1.00  0.00     0.074 A 
ATOM     49  C   UNL     1       7.423   5.617  -7.619  1.00  0.00     0.031 C 
ATOM     50  C   UNL     1       2.665   7.140  -2.880  1.00  0.00     0.029 A 
ATOM     51  C   UNL     1       3.381   8.287  -3.436  1.00  0.00     0.049 A 
ATOM     52  H   UNL     1       4.825   8.253  -4.940  1.00  0.00     0.167 HD
ATOM     53  C   UNL     1       8.138   7.971  -7.788  1.00  0.00     0.034 A 
ATOM     54  C   UNL     1       3.248   9.569  -3.031  1.00  0.00     0.034 A 
ATOM     55  C   UNL     1       8.066   9.359  -7.431  1.00  0.00     0.049 A 
ATOM     56  C   UNL     1       4.176  10.612  -3.604  1.00  0.00     0.074 A 
ATOM     57  C   UNL     1       8.841  10.404  -7.899  1.00  0.00     0.029 A 
ATOM     58  N   UNL     1       7.194   9.892  -6.496  1.00  0.00    -0.354 N 
ATOM     59  N   UNL     1       5.096  10.481  -4.530  1.00  0.00    -0.248 NA
ATOM     60  C   UNL     1       4.063  11.976  -3.064  1.00  0.00     0.031 C 
ATOM     61  C   UNL     1       8.472  11.561  -7.208  1.00  0.00     0.029 A 
ATOM     62  C   UNL     1       7.419  11.250  -6.363  1.00  0.00     0.049 A 
ATOM     63  H   UNL     1       6.514   9.380  -6.000  1.00  0.00     0.167 HD
ATOM     64  C   UNL     1       5.656  11.744  -4.694  1.00  0.00     0.074 A 
ATOM     65  C   UNL     1       4.949  12.635  -3.799  1.00  0.00     0.031 C 
ATOM     66  C   UNL     1       6.677  12.130  -5.499  1.00  0.00     0.034 A 
BRANCH  53  67
ATOM     67  C   UNL     1       9.207   7.525  -8.747  1.00  0.00     0.023 A 
ATOM     68  C   UNL     1       8.857   7.074 -10.036  1.00  0.00     0.012 A 
ATOM     69  C   UNL     1      10.564   7.574  -8.373  1.00  0.00     0.148 A 
ATOM     70  C   UNL     1       9.840   6.640 -10.924  1.00  0.00     0.002 A 
ATOM     71  C   UNL     1      11.540   7.194  -9.283  1.00  0.00     0.091 A 
ATOM     72  F   UNL     1      10.871   7.979  -7.132  1.00  0.00    -0.205 F 
ATOM     73  C   UNL     1      11.180   6.712 -10.553  1.00  0.00     0.022 A 
BRANCH  71  74
ATOM     74  S   UNL     1      13.295   7.325  -8.931  1.00  0.00     0.127 S 
ATOM     75  O   UNL     1      13.705   5.922  -8.951  1.00  0.00    -0.237 OA
ATOM     76  O   UNL     1      13.771   8.117 -10.065  1.00  0.00    -0.237 OA
ATOM     77  O   UNL     1      13.401   7.982  -7.637  1.00  0.00    -0.744 OA
ENDBRANCH  71  74
ENDBRANCH  53  67
BRANCH  54  78
ATOM     78  C   UNL     1       2.243   9.954  -1.991  1.00  0.00     0.023 A 
ATOM     79  C   UNL     1       1.212  10.863  -2.308  1.00  0.00     0.012 A 
ATOM     80  C   UNL     1       2.322   9.451  -0.679  1.00  0.00     0.148 A 
ATOM     81  C   UNL     1       0.304  11.285  -1.333  1.00  0.00     0.002 A 
ATOM     82  C   UNL     1       1.371   9.816   0.267  1.00  0.00     0.091 A 
ATOM     83  F   UNL     1       3.330   8.621  -0.378  1.00  0.00    -0.205 F 
ATOM     84  C   UNL     1       0.375  10.751  -0.049  1.00  0.00     0.022 A 
BRANCH  82  85
ATOM     85  S   UNL     1       1.305   9.067   1.897  1.00  0.00     0.127 S 
ATOM     86  O   UNL     1       1.650  10.194   2.759  1.00  0.00    -0.237 OA
ATOM     87  O   UNL     1      -0.092   8.637   1.970  1.00  0.00    -0.237 OA
ATOM     88  O   UNL     1       2.269   7.976   1.869  1.00  0.00    -0.744 OA
ENDBRANCH  82  85
ENDBRANCH  54  78
BRANCH  66  89
ATOM     89  C   UNL     1       7.049  13.590  -5.510  1.00  0.00     0.023 A 
ATOM     90  C   UNL     1       7.686  14.178  -4.399  1.00  0.00     0.012 A 
ATOM     91  C   UNL     1       6.823  14.361  -6.667  1.00  0.00     0.148 A 
ATOM     92  C   UNL     1       8.053  15.523  -4.426  1.00  0.00     0.002 A 
ATOM     93  C   UNL     1       7.245  15.683  -6.708  1.00  0.00     0.091 A 
ATOM     94  F   UNL     1       6.205  13.785  -7.707  1.00  0.00    -0.205 F 
ATOM     95  C   UNL     1       7.845  16.271  -5.583  1.00  0.00     0.022 A 
BRANCH  93  96
ATOM     96  S   UNL     1       7.109  16.690  -8.188  1.00  0.00     0.127 S 
ATOM     97  O   UNL     1       6.119  17.686  -7.779  1.00  0.00    -0.237 OA
ATOM     98  O   UNL     1       8.470  17.206  -8.335  1.00  0.00    -0.237 OA
ATOM     99  O   UNL     1       6.681  15.792  -9.252  1.00  0.00    -0.744 OA
ENDBRANCH  93  96
ENDBRANCH  66  89
ENDBRANCH  40  41
ENDBRANCH  33  35
ENDBRANCH  32  33
ENDBRANCH  31  32
ENDBRANCH  30  31
ENDBRANCH  29  30
ENDBRANCH  28  29
ENDBRANCH  27  28
ENDBRANCH  26  27
ENDBRANCH   1  26
TORSDOF 27
