REMARK SMILES Cc1c(CC(=O)OCCOCCOCCOCCOC(=O)c2ccc(-c3c4nc(c(-c5cccc(S(=O)(=O)[O-])c5F)c5ccc([nH]5)c(-c5cccc(S(=O)(=O)[O-])c5F)c5nc(c(-c6cccc(S(=O)(=O)[O-])c6F)c6ccc3[nH]6)C=C5)C=C4)cc2)cc(-c2ccc(S(C)(=O)=O)cc2)n1-c1ccccc1
REMARK SMILES IDX 13 1 12 2 11 3 10 4 9 5 8 6 7 7 5 8 6 9 4 10 3 11 1 12 2 13
REMARK SMILES IDX 97 14 85 15 86 16 98 17 99 18 103 19 100 20 102 21 101 22
REMARK SMILES IDX 87 23 88 24 96 25 89 26 95 27 90 28 91 29 92 30 93 31 94 32
REMARK SMILES IDX 14 33 15 34 16 35 17 36 18 37 19 38 20 39 21 40 22 41 23 42
REMARK SMILES IDX 84 43 24 44 83 45 25 46 26 47 27 48 77 49 28 50 82 51 76 52
REMARK SMILES IDX 78 53 29 54 81 55 75 56 74 57 30 59 62 60 42 61 61 62 43 63
REMARK SMILES IDX 46 64 60 65 79 66 44 67 45 68 59 70 80 71 47 72 31 73 32 74
REMARK SMILES IDX 40 75 33 76 35 77 41 78 34 79 36 80 37 81 38 82 39 83 63 84
REMARK SMILES IDX 64 85 72 86 65 87 67 88 73 89 66 90 68 91 69 92 70 93 71 94
REMARK SMILES IDX 48 95 49 96 57 97 50 98 52 99 58 100 51 101 53 102 54 103
REMARK SMILES IDX 55 104 56 105
REMARK H PARENT 78 58 46 69
REMARK Flexibility Score: inf
ROOT
ATOM      1  O   UNL     1       3.640   1.042  -1.379  1.00  0.00    -0.377 OA
ENDROOT
BRANCH   1   2
ATOM      2  C   UNL     1       3.158  -0.182  -0.865  1.00  0.00     0.188 C 
BRANCH   2   3
ATOM      3  C   UNL     1       3.542  -0.490   0.588  1.00  0.00     0.188 C 
BRANCH   3   4
ATOM      4  O   UNL     1       4.183  -1.736   0.883  1.00  0.00    -0.376 OA
BRANCH   4   5
ATOM      5  C   UNL     1       5.074  -2.258  -0.086  1.00  0.00     0.202 C 
BRANCH   5   6
ATOM      6  C   UNL     1       4.456  -3.431  -0.863  1.00  0.00     0.261 C 
BRANCH   6   7
ATOM      7  O   UNL     1       3.103  -3.189  -1.314  1.00  0.00    -0.463 OA
BRANCH   7   8
ATOM      8  C   UNL     1       2.111  -3.628  -0.492  1.00  0.00     0.310 C 
ATOM      9  O   UNL     1       2.312  -4.268   0.539  1.00  0.00    -0.252 OA
BRANCH   8  10
ATOM     10  C   UNL     1       0.705  -3.420  -1.024  1.00  0.00     0.160 C 
BRANCH  10  11
ATOM     11  C   UNL     1       0.379  -2.186  -1.826  1.00  0.00    -0.015 A 
ATOM     12  C   UNL     1      -0.456  -0.530   0.021  1.00  0.00     0.065 C 
ATOM     13  C   UNL     1      -0.136  -0.970  -1.369  1.00  0.00     0.024 A 
ATOM     14  N   UNL     1      -0.299  -0.131  -2.467  1.00  0.00    -0.314 N 
ATOM     15  C   UNL     1       0.355  -2.110  -3.251  1.00  0.00     0.033 A 
ATOM     16  C   UNL     1      -0.155  -0.879  -3.625  1.00  0.00     0.053 A 
BRANCH  14  17
ATOM     17  C   UNL     1      -0.532   1.265  -2.445  1.00  0.00     0.046 A 
ATOM     18  C   UNL     1      -1.834   1.764  -2.396  1.00  0.00     0.026 A 
ATOM     19  C   UNL     1       0.559   2.120  -2.649  1.00  0.00     0.026 A 
ATOM     20  C   UNL     1      -2.037   3.138  -2.555  1.00  0.00     0.002 A 
ATOM     21  C   UNL     1       0.346   3.488  -2.801  1.00  0.00     0.002 A 
ATOM     22  C   UNL     1      -0.952   3.996  -2.759  1.00  0.00     0.000 A 
ENDBRANCH  14  17
BRANCH  16  23
ATOM     23  C   UNL     1      -0.603  -0.417  -4.942  1.00  0.00    -0.001 A 
ATOM     24  C   UNL     1       0.142   0.496  -5.698  1.00  0.00     0.011 A 
ATOM     25  C   UNL     1      -1.839  -0.865  -5.431  1.00  0.00     0.011 A 
ATOM     26  C   UNL     1      -0.341   0.959  -6.928  1.00  0.00     0.021 A 
ATOM     27  C   UNL     1      -2.327  -0.408  -6.657  1.00  0.00     0.021 A 
ATOM     28  C   UNL     1      -1.576   0.505  -7.399  1.00  0.00     0.067 A 
BRANCH  28  29
ATOM     29  S   UNL     1      -2.148   1.034  -8.998  1.00  0.00     0.175 S 
ATOM     30  C   UNL     1      -2.372   2.788  -8.854  1.00  0.00     0.163 C 
ATOM     31  O   UNL     1      -1.091   0.760  -9.933  1.00  0.00    -0.224 OA
ATOM     32  O   UNL     1      -3.476   0.444  -9.192  1.00  0.00    -0.224 OA
ENDBRANCH  28  29
ENDBRANCH  16  23
ENDBRANCH  10  11
ENDBRANCH   8  10
ENDBRANCH   7   8
ENDBRANCH   6   7
ENDBRANCH   5   6
ENDBRANCH   4   5
ENDBRANCH   3   4
ENDBRANCH   2   3
ENDBRANCH   1   2
BRANCH   1  33
ATOM     33  C   UNL     1       4.995   1.134  -1.790  1.00  0.00     0.188 C 
BRANCH  33  34
ATOM     34  C   UNL     1       5.746   2.112  -0.884  1.00  0.00     0.188 C 
BRANCH  34  35
ATOM     35  O   UNL     1       4.973   3.201  -0.384  1.00  0.00    -0.376 OA
BRANCH  35  36
ATOM     36  C   UNL     1       4.148   3.906  -1.320  1.00  0.00     0.202 C 
BRANCH  36  37
ATOM     37  C   UNL     1       4.815   5.117  -2.015  1.00  0.00     0.261 C 
BRANCH  37  38
ATOM     38  O   UNL     1       5.443   4.930  -3.335  1.00  0.00    -0.460 OA
BRANCH  38  39
ATOM     39  C   UNL     1       6.767   5.304  -3.510  1.00  0.00     0.338 C 
ATOM     40  O   UNL     1       7.599   5.218  -2.617  1.00  0.00    -0.246 OA
BRANCH  39  41
ATOM     41  C   UNL     1       7.120   5.859  -4.912  1.00  0.00     0.060 A 
ATOM     42  C   UNL     1       8.402   5.967  -5.531  1.00  0.00     0.016 A 
ATOM     43  C   UNL     1       6.138   6.347  -5.710  1.00  0.00     0.016 A 
ATOM     44  C   UNL     1       8.670   6.476  -6.956  1.00  0.00     0.010 A 
ATOM     45  C   UNL     1       6.466   6.829  -7.032  1.00  0.00     0.010 A 
ATOM     46  C   UNL     1       7.669   6.962  -7.819  1.00  0.00    -0.014 A 
BRANCH  46  47
ATOM     47  C   UNL     1       7.522   6.965  -9.588  1.00  0.00     0.031 A 
ATOM     48  C   UNL     1       6.781   5.663  -9.839  1.00  0.00     0.074 A 
ATOM     49  C   UNL     1       7.529   7.806 -10.789  1.00  0.00     0.049 A 
ATOM     50  N   UNL     1       5.875   5.302  -8.967  1.00  0.00    -0.248 NA
ATOM     51  C   UNL     1       6.507   5.035 -11.129  1.00  0.00     0.031 C 
ATOM     52  C   UNL     1       8.043   9.181 -11.028  1.00  0.00     0.029 A 
ATOM     53  N   UNL     1       6.920   7.635 -12.150  1.00  0.00    -0.354 N 
ATOM     54  C   UNL     1       4.769   5.525  -9.723  1.00  0.00     0.074 A 
ATOM     55  C   UNL     1       5.172   4.921 -11.002  1.00  0.00     0.031 C 
ATOM     56  C   UNL     1       7.843   9.645 -12.317  1.00  0.00     0.029 A 
ATOM     57  C   UNL     1       7.070   8.712 -13.161  1.00  0.00     0.049 A 
ATOM     58  H   UNL     1       6.423   6.814 -12.371  1.00  0.00     0.167 HD
ATOM     59  C   UNL     1       3.951   6.616  -9.546  1.00  0.00     0.034 A 
ATOM     60  C   UNL     1       6.486   8.852 -14.471  1.00  0.00     0.034 A 
ATOM     61  C   UNL     1       3.081   6.907 -10.603  1.00  0.00     0.049 A 
ATOM     62  C   UNL     1       5.069   8.780 -14.079  1.00  0.00     0.074 A 
ATOM     63  C   UNL     1       2.180   6.274 -11.409  1.00  0.00     0.029 A 
ATOM     64  N   UNL     1       3.132   8.214 -10.949  1.00  0.00    -0.354 N 
ATOM     65  N   UNL     1       4.415   9.878 -13.819  1.00  0.00    -0.248 NA
ATOM     66  C   UNL     1       4.298   7.569 -14.372  1.00  0.00     0.031 C 
ATOM     67  C   UNL     1       1.519   7.314 -12.124  1.00  0.00     0.029 A 
ATOM     68  C   UNL     1       2.174   8.515 -11.848  1.00  0.00     0.049 A 
ATOM     69  H   UNL     1       3.784   8.860 -10.591  1.00  0.00     0.167 HD
ATOM     70  C   UNL     1       3.130   9.439 -13.675  1.00  0.00     0.074 A 
ATOM     71  C   UNL     1       3.084   8.125 -14.313  1.00  0.00     0.031 C 
ATOM     72  C   UNL     1       2.486   9.743 -12.522  1.00  0.00     0.034 A 
BRANCH  59  73
ATOM     73  C   UNL     1       3.980   7.793  -8.491  1.00  0.00     0.023 A 
ATOM     74  C   UNL     1       4.989   8.807  -8.480  1.00  0.00     0.012 A 
ATOM     75  C   UNL     1       2.889   8.033  -7.649  1.00  0.00     0.148 A 
ATOM     76  C   UNL     1       5.035   9.841  -7.531  1.00  0.00     0.002 A 
ATOM     77  C   UNL     1       2.875   9.147  -6.789  1.00  0.00     0.091 A 
ATOM     78  F   UNL     1       1.853   7.184  -7.697  1.00  0.00    -0.205 F 
ATOM     79  C   UNL     1       3.966  10.017  -6.681  1.00  0.00     0.022 A 
BRANCH  77  80
ATOM     80  S   UNL     1       1.384   9.541  -5.880  1.00  0.00     0.127 S 
ATOM     81  O   UNL     1       1.435   8.584  -4.776  1.00  0.00    -0.237 OA
ATOM     82  O   UNL     1       1.571  10.936  -5.478  1.00  0.00    -0.237 OA
ATOM     83  O   UNL     1       0.314   9.340  -6.852  1.00  0.00    -0.744 OA
ENDBRANCH  77  80
ENDBRANCH  59  73
BRANCH  60  84
ATOM     84  C   UNL     1       6.270   9.511 -16.052  1.00  0.00     0.023 A 
ATOM     85  C   UNL     1       7.189  10.233 -16.823  1.00  0.00     0.012 A 
ATOM     86  C   UNL     1       5.044   9.253 -16.865  1.00  0.00     0.148 A 
ATOM     87  C   UNL     1       6.921  10.589 -18.214  1.00  0.00     0.002 A 
ATOM     88  C   UNL     1       4.840   9.462 -18.242  1.00  0.00     0.091 A 
ATOM     89  F   UNL     1       3.889   8.997 -16.280  1.00  0.00    -0.205 F 
ATOM     90  C   UNL     1       5.787  10.169 -18.934  1.00  0.00     0.022 A 
BRANCH  88  91
ATOM     91  S   UNL     1       3.328   8.873 -19.117  1.00  0.00     0.127 S 
ATOM     92  O   UNL     1       2.920  10.042 -19.896  1.00  0.00    -0.237 OA
ATOM     93  O   UNL     1       3.857   7.769 -19.919  1.00  0.00    -0.237 OA
ATOM     94  O   UNL     1       2.370   8.461 -18.097  1.00  0.00    -0.744 OA
ENDBRANCH  88  91
ENDBRANCH  60  84
BRANCH  72  95
ATOM     95  C   UNL     1       2.957  11.051 -11.883  1.00  0.00     0.023 A 
ATOM     96  C   UNL     1       2.200  12.187 -12.195  1.00  0.00     0.012 A 
ATOM     97  C   UNL     1       4.189  11.247 -11.184  1.00  0.00     0.148 A 
ATOM     98  C   UNL     1       2.632  13.465 -11.828  1.00  0.00     0.002 A 
ATOM     99  C   UNL     1       4.618  12.525 -10.815  1.00  0.00     0.091 A 
ATOM    100  F   UNL     1       4.971  10.183 -10.956  1.00  0.00    -0.205 F 
ATOM    101  C   UNL     1       3.831  13.635 -11.137  1.00  0.00     0.022 A 
BRANCH  99 102
ATOM    102  S   UNL     1       6.184  12.874  -9.985  1.00  0.00     0.127 S 
ATOM    103  O   UNL     1       6.971  13.510 -11.041  1.00  0.00    -0.237 OA
ATOM    104  O   UNL     1       5.784  13.778  -8.907  1.00  0.00    -0.237 OA
ATOM    105  O   UNL     1       6.712  11.596  -9.526  1.00  0.00    -0.744 OA
ENDBRANCH  99 102
ENDBRANCH  72  95
ENDBRANCH  46  47
ENDBRANCH  39  41
ENDBRANCH  38  39
ENDBRANCH  37  38
ENDBRANCH  36  37
ENDBRANCH  35  36
ENDBRANCH  34  35
ENDBRANCH  33  34
ENDBRANCH   1  33
TORSDOF 27
