REMARK SMILES Cc1ccccc1NC(=S)NN1C(=O)CS[C@H]1c1ccccc1C(=O)OCCOCCOCCOCCOC(=O)c1ccc(-c2c3nc(c(-c4cccc(S(=O)(=O)[O-])c4F)c4ccc([nH]4)c(-c4cccc(S(=O)(=O)[O-])c4F)c4nc(c(-c5cccc(S(=O)(=O)[O-])c5F)c5ccc2[nH]5)C=C4)C=C3)cc1
REMARK SMILES IDX 31 1 30 2 29 3 28 4 27 5 26 6 24 7 25 8 23 9 18 10 19 11
REMARK SMILES IDX 20 12 22 13 21 14 17 15 12 16 13 17 14 18 15 19 16 20 11 21
REMARK SMILES IDX 9 23 10 24 8 25 7 27 1 28 2 29 3 30 4 31 6 32 5 33 32 34
REMARK SMILES IDX 33 35 34 36 35 37 36 38 37 39 38 40 39 41 40 42 41 43 42 44
REMARK SMILES IDX 103 45 43 46 102 47 44 48 45 49 46 50 96 51 47 52 101 53
REMARK SMILES IDX 95 54 97 55 48 56 100 57 94 58 93 59 49 61 81 62 61 63 80 64
REMARK SMILES IDX 62 65 65 66 79 67 98 68 63 69 64 70 78 72 99 73 66 74 50 75
REMARK SMILES IDX 51 76 59 77 52 78 54 79 60 80 53 81 55 82 56 83 57 84 58 85
REMARK SMILES IDX 82 86 83 87 91 88 84 89 86 90 92 91 85 92 87 93 88 94 89 95
REMARK SMILES IDX 90 96 67 97 68 98 76 99 69 100 71 101 77 102 70 103 72 104
REMARK SMILES IDX 73 105 74 106 75 107
REMARK H PARENT 11 22 8 26 97 60 65 71
REMARK Flexibility Score: inf
ROOT
ATOM      1  C   UNL     1      -3.626   5.876  -3.398  1.00  0.00     0.188 C 
ENDROOT
BRANCH   1   2
ATOM      2  C   UNL     1      -2.420   5.834  -2.450  1.00  0.00     0.188 C 
BRANCH   2   3
ATOM      3  O   UNL     1      -2.686   4.712  -1.589  1.00  0.00    -0.376 OA
BRANCH   3   4
ATOM      4  C   UNL     1      -1.530   3.975  -1.116  1.00  0.00     0.202 C 
BRANCH   4   5
ATOM      5  C   UNL     1      -1.709   2.963   0.329  1.00  0.00     0.261 C 
BRANCH   5   6
ATOM      6  O   UNL     1      -2.234   3.383   2.049  1.00  0.00    -0.460 OA
BRANCH   6   7
ATOM      7  C   UNL     1      -3.073   4.360   2.904  1.00  0.00     0.338 C 
ATOM      8  O   UNL     1      -3.260   4.086   4.095  1.00  0.00    -0.246 OA
BRANCH   7   9
ATOM      9  C   UNL     1      -4.093   5.600   2.391  1.00  0.00     0.066 A 
ATOM     10  C   UNL     1      -5.240   5.245   1.648  1.00  0.00     0.001 A 
ATOM     11  C   UNL     1      -6.128   6.112   0.976  1.00  0.00     0.008 A 
ATOM     12  C   UNL     1      -5.768   7.424   0.845  1.00  0.00     0.000 A 
ATOM     13  C   UNL     1      -3.825   6.974   2.333  1.00  0.00     0.016 A 
ATOM     14  C   UNL     1      -4.614   7.848   1.507  1.00  0.00     0.001 A 
BRANCH  10  15
ATOM     15  C   UNL     1      -5.281   3.868   1.199  1.00  0.00     0.197 C 
ATOM     16  N   UNL     1      -3.991   3.514   0.656  1.00  0.00    -0.236 N 
ATOM     17  C   UNL     1      -4.002   2.058   0.879  1.00  0.00     0.252 C 
ATOM     18  O   UNL     1      -4.038   1.227  -0.041  1.00  0.00    -0.272 OA
ATOM     19  C   UNL     1      -4.505   1.663   2.272  1.00  0.00     0.174 C 
ATOM     20  S   UNL     1      -5.902   2.754   2.491  1.00  0.00    -0.120 SA
BRANCH  16  21
ATOM     21  N   UNL     1      -2.657   4.810   0.670  1.00  0.00    -0.270 N 
ATOM     22  H   UNL     1      -3.019   5.631   0.266  1.00  0.00     0.191 HD
BRANCH  21  23
ATOM     23  C   UNL     1      -1.058   5.101   1.116  1.00  0.00     0.189 C 
ATOM     24  S   UNL     1      -0.752   6.788   0.837  1.00  0.00    -0.039 S 
BRANCH  23  25
ATOM     25  N   UNL     1       0.238   4.157   1.332  1.00  0.00    -0.331 N 
ATOM     26  H   UNL     1       0.897   4.883   1.238  1.00  0.00     0.169 HD
BRANCH  25  27
ATOM     27  C   UNL     1       1.446   2.868   1.603  1.00  0.00     0.043 A 
ATOM     28  C   UNL     1       4.129   3.460   1.077  1.00  0.00     0.046 C 
ATOM     29  C   UNL     1       2.934   2.651   1.551  1.00  0.00    -0.028 A 
ATOM     30  C   UNL     1       3.618   1.327   1.801  1.00  0.00     0.005 A 
ATOM     31  C   UNL     1       2.995   0.166   2.110  1.00  0.00     0.000 A 
ATOM     32  C   UNL     1       1.044   1.618   1.937  1.00  0.00     0.026 A 
ATOM     33  C   UNL     1       1.668   0.324   2.160  1.00  0.00     0.002 A 
ENDBRANCH  25  27
ENDBRANCH  23  25
ENDBRANCH  21  23
ENDBRANCH  16  21
ENDBRANCH  10  15
ENDBRANCH   7   9
ENDBRANCH   6   7
ENDBRANCH   5   6
ENDBRANCH   4   5
ENDBRANCH   3   4
ENDBRANCH   2   3
ENDBRANCH   1   2
BRANCH   1  34
ATOM     34  O   UNL     1      -3.478   5.200  -4.655  1.00  0.00    -0.377 OA
BRANCH  34  35
ATOM     35  C   UNL     1      -2.748   3.976  -4.606  1.00  0.00     0.188 C 
BRANCH  35  36
ATOM     36  C   UNL     1      -1.511   4.064  -5.495  1.00  0.00     0.188 C 
BRANCH  36  37
ATOM     37  O   UNL     1      -0.893   5.348  -5.431  1.00  0.00    -0.376 OA
BRANCH  37  38
ATOM     38  C   UNL     1      -1.052   6.133  -6.615  1.00  0.00     0.202 C 
BRANCH  38  39
ATOM     39  C   UNL     1      -0.247   5.588  -7.808  1.00  0.00     0.261 C 
BRANCH  39  40
ATOM     40  O   UNL     1       1.158   5.654  -7.510  1.00  0.00    -0.460 OA
BRANCH  40  41
ATOM     41  C   UNL     1       1.736   4.448  -7.278  1.00  0.00     0.338 C 
ATOM     42  O   UNL     1       1.673   3.487  -8.037  1.00  0.00    -0.246 OA
BRANCH  41  43
ATOM     43  C   UNL     1       2.246   4.396  -5.885  1.00  0.00     0.060 A 
ATOM     44  C   UNL     1       2.721   3.182  -5.382  1.00  0.00     0.016 A 
ATOM     45  C   UNL     1       1.965   5.457  -5.014  1.00  0.00     0.016 A 
ATOM     46  C   UNL     1       2.768   2.992  -4.006  1.00  0.00     0.010 A 
ATOM     47  C   UNL     1       1.867   5.217  -3.658  1.00  0.00     0.010 A 
ATOM     48  C   UNL     1       2.221   3.969  -3.152  1.00  0.00    -0.014 A 
BRANCH  48  49
ATOM     49  C   UNL     1       1.914   3.652  -1.736  1.00  0.00     0.031 A 
ATOM     50  C   UNL     1       2.437   4.806  -0.719  1.00  0.00     0.074 A 
ATOM     51  C   UNL     1       1.169   2.479  -1.606  1.00  0.00     0.049 A 
ATOM     52  N   UNL     1       2.078   5.060   0.506  1.00  0.00    -0.248 NA
ATOM     53  C   UNL     1       3.420   5.837  -1.080  1.00  0.00     0.031 C 
ATOM     54  C   UNL     1       0.291   1.899  -2.656  1.00  0.00     0.029 A 
ATOM     55  N   UNL     1       0.837   1.618  -0.568  1.00  0.00    -0.354 N 
ATOM     56  C   UNL     1       2.669   6.144   1.133  1.00  0.00     0.074 A 
ATOM     57  C   UNL     1       3.516   6.597   0.034  1.00  0.00     0.031 C 
ATOM     58  C   UNL     1      -0.597   1.031  -2.113  1.00  0.00     0.029 A 
ATOM     59  C   UNL     1      -0.298   0.789  -0.688  1.00  0.00     0.049 A 
ATOM     60  H   UNL     1       1.390   1.587   0.246  1.00  0.00     0.167 HD
ATOM     61  C   UNL     1       2.344   6.536   2.446  1.00  0.00     0.034 A 
ATOM     62  C   UNL     1      -0.981  -0.085   0.195  1.00  0.00     0.034 A 
ATOM     63  C   UNL     1       1.367   5.644   3.361  1.00  0.00     0.049 A 
ATOM     64  C   UNL     1      -1.259   0.073   1.926  1.00  0.00     0.074 A 
ATOM     65  C   UNL     1       0.163   5.982   3.989  1.00  0.00     0.029 A 
ATOM     66  N   UNL     1       1.489   4.270   3.808  1.00  0.00    -0.354 N 
ATOM     67  N   UNL     1      -1.467   1.211   2.618  1.00  0.00    -0.248 NA
ATOM     68  C   UNL     1      -1.136  -0.983   2.952  1.00  0.00     0.031 C 
ATOM     69  C   UNL     1      -0.505   4.825   4.490  1.00  0.00     0.029 A 
ATOM     70  C   UNL     1       0.191   3.664   4.180  1.00  0.00     0.049 A 
ATOM     71  H   UNL     1       2.347   3.789   3.858  1.00  0.00     0.167 HD
ATOM     72  C   UNL     1      -0.833   1.174   3.917  1.00  0.00     0.074 A 
ATOM     73  C   UNL     1      -0.924  -0.292   4.112  1.00  0.00     0.031 C 
ATOM     74  C   UNL     1      -0.063   2.181   4.637  1.00  0.00     0.034 A 
BRANCH  61  75
ATOM     75  C   UNL     1       2.502   8.067   2.856  1.00  0.00     0.023 A 
ATOM     76  C   UNL     1       1.912   8.484   4.072  1.00  0.00     0.012 A 
ATOM     77  C   UNL     1       2.982   9.144   2.064  1.00  0.00     0.148 A 
ATOM     78  C   UNL     1       1.561   9.818   4.344  1.00  0.00     0.002 A 
ATOM     79  C   UNL     1       2.682  10.487   2.352  1.00  0.00     0.091 A 
ATOM     80  F   UNL     1       3.807   8.920   1.049  1.00  0.00    -0.205 F 
ATOM     81  C   UNL     1       1.908  10.821   3.458  1.00  0.00     0.022 A 
BRANCH  79  82
ATOM     82  S   UNL     1       3.276  11.864   1.342  1.00  0.00     0.127 S 
ATOM     83  O   UNL     1       2.030  12.502   0.916  1.00  0.00    -0.237 OA
ATOM     84  O   UNL     1       4.055  12.640   2.308  1.00  0.00    -0.237 OA
ATOM     85  O   UNL     1       4.059  11.280   0.259  1.00  0.00    -0.744 OA
ENDBRANCH  79  82
ENDBRANCH  61  75
BRANCH  62  86
ATOM     86  C   UNL     1      -0.946  -1.423  -0.597  1.00  0.00     0.023 A 
ATOM     87  C   UNL     1      -1.982  -1.658  -1.533  1.00  0.00     0.012 A 
ATOM     88  C   UNL     1       0.383  -1.771  -1.009  1.00  0.00     0.148 A 
ATOM     89  C   UNL     1      -1.673  -1.949  -2.885  1.00  0.00     0.002 A 
ATOM     90  C   UNL     1       0.688  -1.889  -2.372  1.00  0.00     0.091 A 
ATOM     91  F   UNL     1       1.366  -1.672  -0.102  1.00  0.00    -0.205 F 
ATOM     92  C   UNL     1      -0.341  -1.976  -3.317  1.00  0.00     0.022 A 
BRANCH  90  93
ATOM     93  S   UNL     1       2.360  -1.460  -2.957  1.00  0.00     0.127 S 
ATOM     94  O   UNL     1       3.004  -2.768  -3.005  1.00  0.00    -0.237 OA
ATOM     95  O   UNL     1       2.113  -0.849  -4.266  1.00  0.00    -0.237 OA
ATOM     96  O   UNL     1       2.879  -0.527  -1.962  1.00  0.00    -0.744 OA
ENDBRANCH  90  93
ENDBRANCH  62  86
BRANCH  74  97
ATOM     97  C   UNL     1       0.683   1.929   6.000  1.00  0.00     0.023 A 
ATOM     98  C   UNL     1       1.258   0.700   6.357  1.00  0.00     0.012 A 
ATOM     99  C   UNL     1       0.976   3.018   6.894  1.00  0.00     0.148 A 
ATOM    100  C   UNL     1       2.042   0.553   7.522  1.00  0.00     0.002 A 
ATOM    101  C   UNL     1       1.855   2.897   7.972  1.00  0.00     0.091 A 
ATOM    102  F   UNL     1       0.352   4.194   6.765  1.00  0.00    -0.205 F 
ATOM    103  C   UNL     1       2.372   1.654   8.309  1.00  0.00     0.022 A 
BRANCH 101 104
ATOM    104  S   UNL     1       2.443   4.357   8.864  1.00  0.00     0.127 S 
ATOM    105  O   UNL     1       1.470   4.476   9.947  1.00  0.00    -0.237 OA
ATOM    106  O   UNL     1       3.782   3.949   9.297  1.00  0.00    -0.237 OA
ATOM    107  O   UNL     1       2.447   5.432   7.879  1.00  0.00    -0.744 OA
ENDBRANCH 101 104
ENDBRANCH  74  97
ENDBRANCH  48  49
ENDBRANCH  41  43
ENDBRANCH  40  41
ENDBRANCH  39  40
ENDBRANCH  38  39
ENDBRANCH  37  38
ENDBRANCH  36  37
ENDBRANCH  35  36
ENDBRANCH  34  35
ENDBRANCH   1  34
TORSDOF 28
