REMARK SMILES C[C@@H](C(=O)OCCOCCOCCOCCOC(=O)c1ccc(-c2c3nc(c(-c4cccc(S(=O)(=O)[O-])c4F)c4ccc([nH]4)c(-c4cccc(S(=O)(=O)[O-])c4F)c4nc(c(-c5cccc(S(=O)(=O)[O-])c5F)c5ccc2[nH]5)C=C4)C=C3)cc1)c1ccc(-c2ccccc2)cc1
REMARK SMILES IDX 12 1 11 2 10 3 9 4 8 5 7 6 6 7 5 8 3 9 4 10 2 11 1 12 83 13
REMARK SMILES IDX 84 14 94 15 85 16 93 17 86 18 87 19 88 20 92 21 89 22 91 23
REMARK SMILES IDX 90 24 13 25 14 26 15 27 16 28 17 29 18 30 19 31 20 32 21 33
REMARK SMILES IDX 82 34 22 35 81 36 23 37 24 38 25 39 75 40 26 41 80 42 74 43
REMARK SMILES IDX 76 44 27 45 79 46 73 47 72 48 28 50 60 51 40 52 59 53 41 54
REMARK SMILES IDX 44 55 58 56 77 57 42 58 43 59 57 61 78 62 45 63 29 64 30 65
REMARK SMILES IDX 38 66 31 67 33 68 39 69 32 70 34 71 35 72 36 73 37 74 61 75
REMARK SMILES IDX 62 76 70 77 63 78 65 79 71 80 64 81 66 82 67 83 68 84 69 85
REMARK SMILES IDX 46 86 47 87 55 88 48 89 50 90 56 91 49 92 51 93 52 94 53 95
REMARK SMILES IDX 54 96
REMARK H PARENT 76 49 44 60
REMARK Flexibility Score: inf
ROOT
ATOM      1  C   UNL     1       3.098   4.148   0.504  1.00  0.00     0.188 C 
ENDROOT
BRANCH   1   2
ATOM      2  O   UNL     1       2.554   2.913   0.937  1.00  0.00    -0.377 OA
BRANCH   2   3
ATOM      3  C   UNL     1       1.153   2.779   0.872  1.00  0.00     0.188 C 
BRANCH   3   4
ATOM      4  C   UNL     1       0.409   3.188   2.159  1.00  0.00     0.188 C 
BRANCH   4   5
ATOM      5  O   UNL     1       1.129   3.779   3.225  1.00  0.00    -0.376 OA
BRANCH   5   6
ATOM      6  C   UNL     1       2.324   3.161   3.686  1.00  0.00     0.202 C 
BRANCH   6   7
ATOM      7  C   UNL     1       2.504   1.627   3.770  1.00  0.00     0.261 C 
BRANCH   7   8
ATOM      8  O   UNL     1       2.008   0.821   2.682  1.00  0.00    -0.463 OA
BRANCH   8   9
ATOM      9  C   UNL     1       0.942   0.018   2.941  1.00  0.00     0.313 C 
ATOM     10  O   UNL     1       0.380  -0.029   4.032  1.00  0.00    -0.252 OA
BRANCH   9  11
ATOM     11  C   UNL     1       0.485  -0.842   1.741  1.00  0.00     0.126 C 
ATOM     12  C   UNL     1       1.255  -0.739   0.419  1.00  0.00     0.025 C 
BRANCH  11  13
ATOM     13  C   UNL     1      -1.028  -0.733   1.524  1.00  0.00    -0.034 A 
ATOM     14  C   UNL     1      -1.657   0.479   1.213  1.00  0.00     0.005 A 
ATOM     15  C   UNL     1      -1.845  -1.851   1.707  1.00  0.00     0.005 A 
ATOM     16  C   UNL     1      -3.047   0.611   1.216  1.00  0.00     0.009 A 
ATOM     17  C   UNL     1      -3.241  -1.730   1.670  1.00  0.00     0.009 A 
ATOM     18  C   UNL     1      -3.868  -0.490   1.468  1.00  0.00    -0.018 A 
BRANCH  18  19
ATOM     19  C   UNL     1      -5.330  -0.330   1.556  1.00  0.00    -0.018 A 
ATOM     20  C   UNL     1      -6.045   0.420   0.607  1.00  0.00     0.009 A 
ATOM     21  C   UNL     1      -6.049  -0.888   2.626  1.00  0.00     0.009 A 
ATOM     22  C   UNL     1      -7.427   0.600   0.719  1.00  0.00     0.001 A 
ATOM     23  C   UNL     1      -7.431  -0.714   2.739  1.00  0.00     0.001 A 
ATOM     24  C   UNL     1      -8.119   0.029   1.784  1.00  0.00     0.000 A 
ENDBRANCH  18  19
ENDBRANCH  11  13
ENDBRANCH   9  11
ENDBRANCH   8   9
ENDBRANCH   7   8
ENDBRANCH   6   7
ENDBRANCH   5   6
ENDBRANCH   4   5
ENDBRANCH   3   4
ENDBRANCH   2   3
ENDBRANCH   1   2
BRANCH   1  25
ATOM     25  C   UNL     1       2.243   5.423   0.651  1.00  0.00     0.188 C 
BRANCH  25  26
ATOM     26  O   UNL     1       0.921   5.313   0.131  1.00  0.00    -0.376 OA
BRANCH  26  27
ATOM     27  C   UNL     1       0.658   5.788  -1.182  1.00  0.00     0.202 C 
BRANCH  27  28
ATOM     28  C   UNL     1       1.302   5.034  -2.357  1.00  0.00     0.261 C 
BRANCH  28  29
ATOM     29  O   UNL     1       2.736   4.983  -2.378  1.00  0.00    -0.460 OA
BRANCH  29  30
ATOM     30  C   UNL     1       3.418   6.146  -2.335  1.00  0.00     0.338 C 
ATOM     31  O   UNL     1       2.949   7.273  -2.360  1.00  0.00    -0.246 OA
BRANCH  30  32
ATOM     32  C   UNL     1       4.827   5.826  -2.025  1.00  0.00     0.060 A 
ATOM     33  C   UNL     1       5.404   6.367  -0.867  1.00  0.00     0.016 A 
ATOM     34  C   UNL     1       5.563   4.975  -2.852  1.00  0.00     0.016 A 
ATOM     35  C   UNL     1       6.733   6.085  -0.552  1.00  0.00     0.010 A 
ATOM     36  C   UNL     1       6.903   4.717  -2.550  1.00  0.00     0.010 A 
ATOM     37  C   UNL     1       7.502   5.301  -1.420  1.00  0.00    -0.014 A 
BRANCH  37  38
ATOM     38  C   UNL     1       8.976   5.278  -1.268  1.00  0.00     0.031 A 
ATOM     39  C   UNL     1       9.789   6.206  -2.129  1.00  0.00     0.074 A 
ATOM     40  C   UNL     1       9.582   4.461  -0.388  1.00  0.00     0.049 A 
ATOM     41  N   UNL     1      11.085   6.342  -2.210  1.00  0.00    -0.248 NA
ATOM     42  C   UNL     1       9.033   7.101  -3.023  1.00  0.00     0.031 C 
ATOM     43  C   UNL     1       8.904   3.535   0.515  1.00  0.00     0.029 A 
ATOM     44  N   UNL     1      10.917   4.268  -0.132  1.00  0.00    -0.354 N 
ATOM     45  C   UNL     1      11.303   7.307  -3.186  1.00  0.00     0.074 A 
ATOM     46  C   UNL     1      10.006   7.720  -3.674  1.00  0.00     0.031 C 
ATOM     47  C   UNL     1       9.829   2.848   1.208  1.00  0.00     0.029 A 
ATOM     48  C   UNL     1      11.163   3.265   0.776  1.00  0.00     0.049 A 
ATOM     49  H   UNL     1      11.630   4.797  -0.557  1.00  0.00     0.167 HD
ATOM     50  C   UNL     1      12.476   7.811  -3.632  1.00  0.00     0.034 A 
ATOM     51  C   UNL     1      12.330   2.729   1.186  1.00  0.00     0.034 A 
ATOM     52  C   UNL     1      13.763   7.407  -3.137  1.00  0.00     0.049 A 
ATOM     53  C   UNL     1      13.625   3.282   0.643  1.00  0.00     0.074 A 
ATOM     54  C   UNL     1      15.010   7.892  -3.489  1.00  0.00     0.029 A 
ATOM     55  N   UNL     1      13.972   6.407  -2.200  1.00  0.00    -0.354 N 
ATOM     56  N   UNL     1      13.816   4.270  -0.197  1.00  0.00    -0.248 NA
ATOM     57  C   UNL     1      14.868   2.664   1.130  1.00  0.00     0.031 C 
ATOM     58  C   UNL     1      15.975   7.154  -2.798  1.00  0.00     0.029 A 
ATOM     59  C   UNL     1      15.328   6.245  -1.977  1.00  0.00     0.049 A 
ATOM     60  H   UNL     1      13.260   5.889  -1.759  1.00  0.00     0.167 HD
ATOM     61  C   UNL     1      15.196   4.420  -0.306  1.00  0.00     0.074 A 
ATOM     62  C   UNL     1      15.792   3.431   0.568  1.00  0.00     0.031 C 
ATOM     63  C   UNL     1      15.906   5.291  -1.065  1.00  0.00     0.034 A 
BRANCH  50  64
ATOM     64  C   UNL     1      12.423   8.854  -4.716  1.00  0.00     0.023 A 
ATOM     65  C   UNL     1      11.957  10.152  -4.425  1.00  0.00     0.012 A 
ATOM     66  C   UNL     1      12.885   8.560  -6.014  1.00  0.00     0.148 A 
ATOM     67  C   UNL     1      11.921  11.132  -5.417  1.00  0.00     0.002 A 
ATOM     68  C   UNL     1      12.892   9.554  -6.983  1.00  0.00     0.091 A 
ATOM     69  F   UNL     1      13.300   7.312  -6.276  1.00  0.00    -0.205 F 
ATOM     70  C   UNL     1      12.398  10.836  -6.691  1.00  0.00     0.022 A 
BRANCH  68  71
ATOM     71  S   UNL     1      13.562   9.296  -8.629  1.00  0.00     0.127 S 
ATOM     72  O   UNL     1      12.356   9.365  -9.453  1.00  0.00    -0.237 OA
ATOM     73  O   UNL     1      14.466  10.438  -8.773  1.00  0.00    -0.237 OA
ATOM     74  O   UNL     1      14.220   7.998  -8.598  1.00  0.00    -0.744 OA
ENDBRANCH  68  71
ENDBRANCH  50  64
BRANCH  51  75
ATOM     75  C   UNL     1      12.339   1.617   2.179  1.00  0.00     0.023 A 
ATOM     76  C   UNL     1      12.867   1.836   3.467  1.00  0.00     0.012 A 
ATOM     77  C   UNL     1      11.837   0.342   1.851  1.00  0.00     0.148 A 
ATOM     78  C   UNL     1      12.927   0.797   4.397  1.00  0.00     0.002 A 
ATOM     79  C   UNL     1      11.848  -0.672   2.801  1.00  0.00     0.091 A 
ATOM     80  F   UNL     1      11.355   0.149   0.616  1.00  0.00    -0.205 F 
ATOM     81  C   UNL     1      12.410  -0.453   4.068  1.00  0.00     0.022 A 
BRANCH  79  82
ATOM     82  S   UNL     1      11.095  -2.276   2.510  1.00  0.00     0.127 S 
ATOM     83  O   UNL     1      12.261  -3.156   2.498  1.00  0.00    -0.237 OA
ATOM     84  O   UNL     1      10.228  -2.417   3.680  1.00  0.00    -0.237 OA
ATOM     85  O   UNL     1      10.384  -2.156   1.245  1.00  0.00    -0.744 OA
ENDBRANCH  79  82
ENDBRANCH  51  75
BRANCH  63  86
ATOM     86  C   UNL     1      17.409   5.264  -0.951  1.00  0.00     0.023 A 
ATOM     87  C   UNL     1      18.142   4.186  -1.486  1.00  0.00     0.012 A 
ATOM     88  C   UNL     1      18.100   6.352  -0.381  1.00  0.00     0.148 A 
ATOM     89  C   UNL     1      19.535   4.174  -1.420  1.00  0.00     0.002 A 
ATOM     90  C   UNL     1      19.489   6.360  -0.369  1.00  0.00     0.091 A 
ATOM     91  F   UNL     1      17.385   7.363   0.135  1.00  0.00    -0.205 F 
ATOM     92  C   UNL     1      20.208   5.265  -0.874  1.00  0.00     0.022 A 
BRANCH  90  93
ATOM     93  S   UNL     1      20.441   7.765   0.220  1.00  0.00     0.127 S 
ATOM     94  O   UNL     1      21.022   7.235   1.452  1.00  0.00    -0.237 OA
ATOM     95  O   UNL     1      21.398   7.967  -0.869  1.00  0.00    -0.237 OA
ATOM     96  O   UNL     1      19.488   8.852   0.398  1.00  0.00    -0.744 OA
ENDBRANCH  90  93
ENDBRANCH  63  86
ENDBRANCH  37  38
ENDBRANCH  30  32
ENDBRANCH  29  30
ENDBRANCH  28  29
ENDBRANCH  27  28
ENDBRANCH  26  27
ENDBRANCH  25  26
ENDBRANCH   1  25
TORSDOF 25
