REMARK SMILES C#CC[N@H+](CC(=O)OCCOCCOCCOCCOC(=O)c1ccc(-c2c3nc(c(-c4cccc(S(=O)(=O)[O-])c4F)c4ccc([nH]4)c(-c4cccc(S(=O)(=O)[O-])c4F)c4nc(c(-c5cccc(S(=O)(=O)[O-])c5F)c5ccc2[nH]5)C=C4)C=C3)cc1)[C@H](C)c1nc2ccccc2s1
REMARK SMILES IDX 14 1 13 2 12 3 11 4 10 5 9 6 8 7 6 8 7 9 5 10 4 11 3 13 2 14
REMARK SMILES IDX 1 15 86 16 87 17 88 18 89 19 96 20 90 21 95 22 91 23 94 24
REMARK SMILES IDX 92 25 93 26 15 27 16 28 17 29 18 30 19 31 20 32 21 33 22 34
REMARK SMILES IDX 23 35 24 36 85 37 25 38 84 39 26 40 27 41 28 42 78 43 29 44
REMARK SMILES IDX 83 45 77 46 79 47 30 48 82 49 76 50 75 51 31 53 63 54 43 55
REMARK SMILES IDX 62 56 44 57 47 58 61 59 80 60 45 61 46 62 60 64 81 65 48 66
REMARK SMILES IDX 32 67 33 68 41 69 34 70 36 71 42 72 35 73 37 74 38 75 39 76
REMARK SMILES IDX 40 77 64 78 65 79 73 80 66 81 68 82 74 83 67 84 69 85 70 86
REMARK SMILES IDX 71 87 72 88 49 89 50 90 58 91 51 92 53 93 59 94 52 95 54 96
REMARK SMILES IDX 55 97 56 98 57 99
REMARK H PARENT 4 12 79 52 47 63
REMARK Flexibility Score: inf
ROOT
ATOM      1  O   UNL     1      -2.274  -2.015   4.620  1.00  0.00    -0.377 OA
ENDROOT
BRANCH   1   2
ATOM      2  C   UNL     1      -2.791  -0.821   5.158  1.00  0.00     0.188 C 
BRANCH   2   3
ATOM      3  C   UNL     1      -4.273  -0.807   5.565  1.00  0.00     0.188 C 
BRANCH   3   4
ATOM      4  O   UNL     1      -4.884  -2.000   6.010  1.00  0.00    -0.376 OA
BRANCH   4   5
ATOM      5  C   UNL     1      -5.259  -3.039   5.118  1.00  0.00     0.202 C 
BRANCH   5   6
ATOM      6  C   UNL     1      -5.240  -2.966   3.581  1.00  0.00     0.261 C 
BRANCH   6   7
ATOM      7  O   UNL     1      -4.347  -2.028   2.981  1.00  0.00    -0.459 OA
BRANCH   7   8
ATOM      8  C   UNL     1      -4.910  -0.939   2.420  1.00  0.00     0.361 C 
ATOM      9  O   UNL     1      -6.122  -0.717   2.431  1.00  0.00    -0.245 OA
BRANCH   8  10
ATOM     10  C   UNL     1      -3.956   0.062   1.778  1.00  0.00     0.387 C 
BRANCH  10  11
ATOM     11  N   UNL     1      -2.482  -0.052   1.973  1.00  0.00    -0.308 N 
ATOM     12  H   UNL     1      -2.277  -0.185   2.963  1.00  0.00     0.350 HD
BRANCH  11  13
ATOM     13  C   UNL     1      -1.933  -1.257   1.312  1.00  0.00     0.355 C 
BRANCH  13  14
ATOM     14  C   UNL     1      -0.647  -1.695   1.888  1.00  0.00    -0.047 C 
ATOM     15  C   UNL     1       0.426  -2.044   2.315  1.00  0.00     0.010 C 
ENDBRANCH  13  14
ENDBRANCH  11  13
BRANCH  11  16
ATOM     16  C   UNL     1      -1.818   1.237   1.551  1.00  0.00     0.242 C 
ATOM     17  C   UNL     1      -2.292   1.778   0.184  1.00  0.00     0.083 C 
BRANCH  16  18
ATOM     18  C   UNL     1      -0.294   1.224   1.540  1.00  0.00     0.151 A 
ATOM     19  N   UNL     1       0.406   0.906   0.470  1.00  0.00    -0.235 NA
ATOM     20  S   UNL     1       0.644   1.652   2.920  1.00  0.00    -0.113 S 
ATOM     21  C   UNL     1       1.728   0.727   0.809  1.00  0.00     0.082 A 
ATOM     22  C   UNL     1       2.070   1.100   2.110  1.00  0.00     0.055 A 
ATOM     23  C   UNL     1       2.710   0.167  -0.029  1.00  0.00     0.030 A 
ATOM     24  C   UNL     1       3.385   0.964   2.588  1.00  0.00     0.021 A 
ATOM     25  C   UNL     1       4.004  -0.026   0.455  1.00  0.00     0.002 A 
ATOM     26  C   UNL     1       4.338   0.378   1.744  1.00  0.00     0.002 A 
ENDBRANCH  16  18
ENDBRANCH  11  16
ENDBRANCH  10  11
ENDBRANCH   8  10
ENDBRANCH   7   8
ENDBRANCH   6   7
ENDBRANCH   5   6
ENDBRANCH   4   5
ENDBRANCH   3   4
ENDBRANCH   2   3
ENDBRANCH   1   2
BRANCH   1  27
ATOM     27  C   UNL     1      -2.039  -3.146   5.438  1.00  0.00     0.188 C 
BRANCH  27  28
ATOM     28  C   UNL     1      -2.271  -3.108   6.963  1.00  0.00     0.188 C 
BRANCH  28  29
ATOM     29  O   UNL     1      -2.264  -1.823   7.555  1.00  0.00    -0.376 OA
BRANCH  29  30
ATOM     30  C   UNL     1      -1.062  -1.345   8.136  1.00  0.00     0.202 C 
BRANCH  30  31
ATOM     31  C   UNL     1       0.239  -1.327   7.313  1.00  0.00     0.261 C 
BRANCH  31  32
ATOM     32  O   UNL     1       0.604  -2.538   6.635  1.00  0.00    -0.460 OA
BRANCH  32  33
ATOM     33  C   UNL     1       0.925  -3.616   7.383  1.00  0.00     0.338 C 
ATOM     34  O   UNL     1       0.958  -3.677   8.598  1.00  0.00    -0.246 OA
BRANCH  33  35
ATOM     35  C   UNL     1       1.049  -4.775   6.468  1.00  0.00     0.060 A 
ATOM     36  C   UNL     1       0.099  -5.805   6.533  1.00  0.00     0.016 A 
ATOM     37  C   UNL     1       2.080  -4.830   5.529  1.00  0.00     0.016 A 
ATOM     38  C   UNL     1       0.182  -6.895   5.664  1.00  0.00     0.010 A 
ATOM     39  C   UNL     1       2.180  -5.938   4.682  1.00  0.00     0.010 A 
ATOM     40  C   UNL     1       1.243  -6.985   4.756  1.00  0.00    -0.014 A 
BRANCH  40  41
ATOM     41  C   UNL     1       1.454  -8.224   3.967  1.00  0.00     0.031 A 
ATOM     42  C   UNL     1       2.504  -9.201   4.416  1.00  0.00     0.074 A 
ATOM     43  C   UNL     1       0.746  -8.464   2.849  1.00  0.00     0.049 A 
ATOM     44  N   UNL     1       2.934 -10.286   3.827  1.00  0.00    -0.248 NA
ATOM     45  C   UNL     1       3.159  -8.911   5.702  1.00  0.00     0.031 C 
ATOM     46  C   UNL     1      -0.318  -7.611   2.325  1.00  0.00     0.029 A 
ATOM     47  N   UNL     1       0.846  -9.483   1.933  1.00  0.00    -0.354 N 
ATOM     48  C   UNL     1       3.938 -10.787   4.646  1.00  0.00     0.074 A 
ATOM     49  C   UNL     1       4.053  -9.887   5.774  1.00  0.00     0.031 C 
ATOM     50  C   UNL     1      -0.749  -8.122   1.158  1.00  0.00     0.029 A 
ATOM     51  C   UNL     1       0.040  -9.309   0.833  1.00  0.00     0.049 A 
ATOM     52  H   UNL     1       1.437 -10.262   2.053  1.00  0.00     0.167 HD
ATOM     53  C   UNL     1       4.696 -11.897   4.476  1.00  0.00     0.034 A 
ATOM     54  C   UNL     1      -0.022 -10.001  -0.324  1.00  0.00     0.034 A 
ATOM     55  C   UNL     1       4.580 -12.787   3.351  1.00  0.00     0.049 A 
ATOM     56  C   UNL     1       0.882 -11.191  -0.524  1.00  0.00     0.074 A 
ATOM     57  C   UNL     1       5.270 -13.962   3.112  1.00  0.00     0.029 A 
ATOM     58  N   UNL     1       3.745 -12.586   2.263  1.00  0.00    -0.354 N 
ATOM     59  N   UNL     1       1.749 -11.720   0.305  1.00  0.00    -0.248 NA
ATOM     60  C   UNL     1       0.785 -11.892  -1.814  1.00  0.00     0.031 C 
ATOM     61  C   UNL     1       4.895 -14.440   1.852  1.00  0.00     0.029 A 
ATOM     62  C   UNL     1       3.929 -13.594   1.332  1.00  0.00     0.049 A 
ATOM     63  H   UNL     1       3.114 -11.837   2.167  1.00  0.00     0.167 HD
ATOM     64  C   UNL     1       2.281 -12.826  -0.350  1.00  0.00     0.074 A 
ATOM     65  C   UNL     1       1.618 -12.909  -1.635  1.00  0.00     0.031 C 
ATOM     66  C   UNL     1       3.242 -13.688   0.068  1.00  0.00     0.034 A 
BRANCH  53  67
ATOM     67  C   UNL     1       5.732 -12.204   5.526  1.00  0.00     0.023 A 
ATOM     68  C   UNL     1       5.334 -12.616   6.815  1.00  0.00     0.012 A 
ATOM     69  C   UNL     1       7.105 -12.124   5.221  1.00  0.00     0.148 A 
ATOM     70  C   UNL     1       6.285 -12.899   7.795  1.00  0.00     0.002 A 
ATOM     71  C   UNL     1       8.047 -12.457   6.187  1.00  0.00     0.091 A 
ATOM     72  F   UNL     1       7.465 -11.715   3.997  1.00  0.00    -0.205 F 
ATOM     73  C   UNL     1       7.639 -12.829   7.478  1.00  0.00     0.022 A 
BRANCH  71  74
ATOM     74  S   UNL     1       9.811 -12.476   5.856  1.00  0.00     0.127 S 
ATOM     75  O   UNL     1      10.278 -11.365   6.684  1.00  0.00    -0.237 OA
ATOM     76  O   UNL     1      10.198 -13.802   6.340  1.00  0.00    -0.237 OA
ATOM     77  O   UNL     1       9.956 -12.285   4.420  1.00  0.00    -0.744 OA
ENDBRANCH  71  74
ENDBRANCH  53  67
BRANCH  54  78
ATOM     78  C   UNL     1      -0.972  -9.581  -1.394  1.00  0.00     0.023 A 
ATOM     79  C   UNL     1      -2.057 -10.415  -1.727  1.00  0.00     0.012 A 
ATOM     80  C   UNL     1      -0.810  -8.359  -2.076  1.00  0.00     0.148 A 
ATOM     81  C   UNL     1      -2.947 -10.053  -2.739  1.00  0.00     0.002 A 
ATOM     82  C   UNL     1      -1.733  -7.977  -3.042  1.00  0.00     0.091 A 
ATOM     83  F   UNL     1       0.238  -7.588  -1.754  1.00  0.00    -0.205 F 
ATOM     84  C   UNL     1      -2.792  -8.831  -3.388  1.00  0.00     0.022 A 
BRANCH  82  85
ATOM     85  S   UNL     1      -1.685  -6.373  -3.848  1.00  0.00     0.127 S 
ATOM     86  O   UNL     1      -1.454  -6.745  -5.241  1.00  0.00    -0.237 OA
ATOM     87  O   UNL     1      -3.024  -5.857  -3.560  1.00  0.00    -0.237 OA
ATOM     88  O   UNL     1      -0.603  -5.638  -3.208  1.00  0.00    -0.744 OA
ENDBRANCH  82  85
ENDBRANCH  54  78
BRANCH  66  89
ATOM     89  C   UNL     1       3.630 -14.816  -0.856  1.00  0.00     0.023 A 
ATOM     90  C   UNL     1       4.361 -14.544  -2.030  1.00  0.00     0.012 A 
ATOM     91  C   UNL     1       3.345 -16.154  -0.516  1.00  0.00     0.148 A 
ATOM     92  C   UNL     1       4.775 -15.582  -2.865  1.00  0.00     0.002 A 
ATOM     93  C   UNL     1       3.806 -17.186  -1.325  1.00  0.00     0.091 A 
ATOM     94  F   UNL     1       2.641 -16.393   0.600  1.00  0.00    -0.205 F 
ATOM     95  C   UNL     1       4.509 -16.902  -2.506  1.00  0.00     0.022 A 
BRANCH  93  96
ATOM     96  S   UNL     1       3.594 -18.920  -0.903  1.00  0.00     0.127 S 
ATOM     97  O   UNL     1       2.727 -19.386  -1.985  1.00  0.00    -0.237 OA
ATOM     98  O   UNL     1       4.967 -19.420  -0.963  1.00  0.00    -0.237 OA
ATOM     99  O   UNL     1       2.992 -18.945   0.423  1.00  0.00    -0.744 OA
ENDBRANCH  93  96
ENDBRANCH  66  89
ENDBRANCH  40  41
ENDBRANCH  33  35
ENDBRANCH  32  33
ENDBRANCH  31  32
ENDBRANCH  30  31
ENDBRANCH  29  30
ENDBRANCH  28  29
ENDBRANCH  27  28
ENDBRANCH   1  27
TORSDOF 28
