REMARK SMILES O=C(Cc1c(C(=O)c2cc3c(cn2)CCCC3)[nH]c2cc(Cl)ccc12)OCCOCCOCCOCCOC(=O)c1ccc(-c2c3nc(c(-c4cccc(S(=O)(=O)[O-])c4F)c4ccc([nH]4)c(-c4cccc(S(=O)(=O)[O-])c4F)c4nc(c(-c5cccc(S(=O)(=O)[O-])c5F)c5ccc2[nH]5)C=C4)C=C3)cc1
REMARK SMILES IDX 32 1 31 2 30 3 29 4 28 5 27 6 26 7 2 8 1 9 3 10 4 11 5 12
REMARK SMILES IDX 25 13 18 14 19 15 24 16 20 18 23 19 21 20 22 21 6 22 7 23
REMARK SMILES IDX 8 24 9 25 13 26 10 27 12 28 11 29 17 30 14 31 16 32 15 33
REMARK SMILES IDX 33 34 34 35 35 36 36 37 37 38 38 39 39 40 40 41 41 42 42 43
REMARK SMILES IDX 103 44 43 45 102 46 44 47 45 48 46 49 96 50 47 51 101 52
REMARK SMILES IDX 95 53 97 54 48 55 100 56 94 57 93 58 49 60 81 61 61 62 80 63
REMARK SMILES IDX 62 64 65 65 79 66 98 67 63 68 64 69 78 71 99 72 66 73 50 74
REMARK SMILES IDX 51 75 59 76 52 77 54 78 60 79 53 80 55 81 56 82 57 83 58 84
REMARK SMILES IDX 82 85 83 86 91 87 84 88 86 89 92 90 85 91 87 92 88 93 89 94
REMARK SMILES IDX 90 95 67 96 68 97 76 98 69 99 71 100 77 101 70 102 72 103
REMARK SMILES IDX 73 104 74 105 75 106
REMARK H PARENT 18 17 97 59 65 70
REMARK Flexibility Score: inf
ROOT
ATOM      1  O   UNL     1       2.700  -0.583   3.703  1.00  0.00    -0.377 OA
ENDROOT
BRANCH   1   2
ATOM      2  C   UNL     1       2.139  -0.718   2.400  1.00  0.00     0.188 C 
BRANCH   2   3
ATOM      3  C   UNL     1       2.856  -1.756   1.526  1.00  0.00     0.188 C 
BRANCH   3   4
ATOM      4  O   UNL     1       4.225  -1.466   1.302  1.00  0.00    -0.376 OA
BRANCH   4   5
ATOM      5  C   UNL     1       4.650  -0.651   0.228  1.00  0.00     0.202 C 
BRANCH   5   6
ATOM      6  C   UNL     1       3.950   0.680  -0.035  1.00  0.00     0.261 C 
BRANCH   6   7
ATOM      7  O   UNL     1       2.524   0.659  -0.271  1.00  0.00    -0.463 OA
BRANCH   7   8
ATOM      8  C   UNL     1       1.740  -0.202  -0.943  1.00  0.00     0.310 C 
ATOM      9  O   UNL     1       0.552  -0.293  -0.616  1.00  0.00    -0.252 OA
BRANCH   8  10
ATOM     10  C   UNL     1       2.294  -1.157  -1.970  1.00  0.00     0.161 C 
BRANCH  10  11
ATOM     11  C   UNL     1       3.456  -0.740  -2.810  1.00  0.00     0.000 A 
ATOM     12  C   UNL     1       3.719   0.521  -3.321  1.00  0.00     0.093 A 
ATOM     13  C   UNL     1       4.470  -1.623  -3.300  1.00  0.00     0.004 A 
ATOM     14  N   UNL     1       4.923   0.445  -3.986  1.00  0.00    -0.351 N 
ATOM     15  C   UNL     1       5.336  -0.865  -4.081  1.00  0.00     0.048 A 
ATOM     16  C   UNL     1       4.710  -3.007  -3.160  1.00  0.00     0.012 A 
ATOM     17  H   UNL     1       5.417   1.218  -4.343  1.00  0.00     0.167 HD
ATOM     18  C   UNL     1       6.399  -1.435  -4.793  1.00  0.00     0.047 A 
ATOM     19  C   UNL     1       5.765  -3.596  -3.864  1.00  0.00     0.021 A 
ATOM     20  C   UNL     1       6.578  -2.819  -4.683  1.00  0.00     0.043 A 
ATOM     21  Cl  UNL     1       7.824  -3.583  -5.596  1.00  0.00    -0.084 Cl
BRANCH  12  22
ATOM     22  C   UNL     1       2.872   1.693  -3.209  1.00  0.00     0.227 C 
ATOM     23  O   UNL     1       1.669   1.631  -2.965  1.00  0.00    -0.285 OA
BRANCH  22  24
ATOM     24  C   UNL     1       3.416   3.003  -3.566  1.00  0.00     0.113 A 
ATOM     25  C   UNL     1       3.062   3.458  -4.818  1.00  0.00     0.036 A 
ATOM     26  N   UNL     1       4.198   3.658  -2.676  1.00  0.00    -0.252 NA
ATOM     27  C   UNL     1       3.514   4.708  -5.200  1.00  0.00    -0.041 A 
ATOM     28  C   UNL     1       4.582   4.900  -3.054  1.00  0.00     0.115 A 
ATOM     29  C   UNL     1       4.284   5.460  -4.299  1.00  0.00    -0.026 A 
ATOM     30  C   UNL     1       3.197   5.175  -6.590  1.00  0.00     0.036 C 
ATOM     31  C   UNL     1       4.709   6.865  -4.632  1.00  0.00     0.037 C 
ATOM     32  C   UNL     1       3.377   6.674  -6.759  1.00  0.00     0.005 C 
ATOM     33  C   UNL     1       4.697   7.126  -6.141  1.00  0.00     0.005 C 
ENDBRANCH  22  24
ENDBRANCH  12  22
ENDBRANCH  10  11
ENDBRANCH   8  10
ENDBRANCH   7   8
ENDBRANCH   6   7
ENDBRANCH   5   6
ENDBRANCH   4   5
ENDBRANCH   3   4
ENDBRANCH   2   3
ENDBRANCH   1   2
BRANCH   1  34
ATOM     34  C   UNL     1       4.052  -0.147   3.714  1.00  0.00     0.188 C 
BRANCH  34  35
ATOM     35  C   UNL     1       5.119  -1.241   3.959  1.00  0.00     0.188 C 
BRANCH  35  36
ATOM     36  O   UNL     1       4.792  -2.609   4.181  1.00  0.00    -0.376 OA
BRANCH  36  37
ATOM     37  C   UNL     1       3.566  -2.989   4.780  1.00  0.00     0.202 C 
BRANCH  37  38
ATOM     38  C   UNL     1       3.235  -2.538   6.205  1.00  0.00     0.261 C 
BRANCH  38  39
ATOM     39  O   UNL     1       3.463  -1.153   6.472  1.00  0.00    -0.460 OA
BRANCH  39  40
ATOM     40  C   UNL     1       4.651  -0.860   7.051  1.00  0.00     0.338 C 
ATOM     41  O   UNL     1       5.514  -1.649   7.401  1.00  0.00    -0.246 OA
BRANCH  40  42
ATOM     42  C   UNL     1       4.834   0.608   7.017  1.00  0.00     0.060 A 
ATOM     43  C   UNL     1       3.781   1.471   7.332  1.00  0.00     0.016 A 
ATOM     44  C   UNL     1       6.073   1.119   6.605  1.00  0.00     0.016 A 
ATOM     45  C   UNL     1       3.987   2.848   7.283  1.00  0.00     0.010 A 
ATOM     46  C   UNL     1       6.273   2.497   6.538  1.00  0.00     0.010 A 
ATOM     47  C   UNL     1       5.242   3.367   6.917  1.00  0.00    -0.014 A 
BRANCH  47  48
ATOM     48  C   UNL     1       5.544   4.785   7.206  1.00  0.00     0.031 A 
ATOM     49  C   UNL     1       5.543   5.846   6.155  1.00  0.00     0.074 A 
ATOM     50  C   UNL     1       5.842   5.087   8.484  1.00  0.00     0.049 A 
ATOM     51  N   UNL     1       5.644   7.140   6.311  1.00  0.00    -0.248 NA
ATOM     52  C   UNL     1       5.425   5.413   4.755  1.00  0.00     0.031 C 
ATOM     53  C   UNL     1       5.948   4.106   9.569  1.00  0.00     0.029 A 
ATOM     54  N   UNL     1       6.102   6.286   9.090  1.00  0.00    -0.354 N 
ATOM     55  C   UNL     1       5.605   7.683   5.036  1.00  0.00     0.074 A 
ATOM     56  C   UNL     1       5.490   6.574   4.111  1.00  0.00     0.031 C 
ATOM     57  C   UNL     1       6.219   4.747  10.713  1.00  0.00     0.029 A 
ATOM     58  C   UNL     1       6.312   6.177  10.443  1.00  0.00     0.049 A 
ATOM     59  H   UNL     1       6.135   7.142   8.604  1.00  0.00     0.167 HD
ATOM     60  C   UNL     1       5.641   8.990   4.683  1.00  0.00     0.034 A 
ATOM     61  C   UNL     1       6.527   7.124  11.373  1.00  0.00     0.034 A 
ATOM     62  C   UNL     1       5.741  10.078   5.621  1.00  0.00     0.049 A 
ATOM     63  C   UNL     1       6.519   8.564  10.961  1.00  0.00     0.074 A 
ATOM     64  C   UNL     1       5.694  11.438   5.365  1.00  0.00     0.029 A 
ATOM     65  N   UNL     1       5.925   9.935   6.988  1.00  0.00    -0.354 N 
ATOM     66  N   UNL     1       6.312   9.072   9.771  1.00  0.00    -0.248 NA
ATOM     67  C   UNL     1       6.740   9.562  12.015  1.00  0.00     0.031 C 
ATOM     68  C   UNL     1       5.870  12.117   6.575  1.00  0.00     0.029 A 
ATOM     69  C   UNL     1       6.010  11.181   7.587  1.00  0.00     0.049 A 
ATOM     70  H   UNL     1       5.986   9.075   7.463  1.00  0.00     0.167 HD
ATOM     71  C   UNL     1       6.358  10.449   9.932  1.00  0.00     0.074 A 
ATOM     72  C   UNL     1       6.602  10.697  11.340  1.00  0.00     0.031 C 
ATOM     73  C   UNL     1       6.219  11.415   8.994  1.00  0.00     0.034 A 
BRANCH  60  74
ATOM     74  C   UNL     1       5.502   9.337   3.226  1.00  0.00     0.023 A 
ATOM     75  C   UNL     1       4.224   9.291   2.633  1.00  0.00     0.012 A 
ATOM     76  C   UNL     1       6.597   9.813   2.479  1.00  0.00     0.148 A 
ATOM     77  C   UNL     1       4.038   9.705   1.315  1.00  0.00     0.002 A 
ATOM     78  C   UNL     1       6.399  10.245   1.172  1.00  0.00     0.091 A 
ATOM     79  F   UNL     1       7.804   9.840   3.061  1.00  0.00    -0.205 F 
ATOM     80  C   UNL     1       5.122  10.191   0.589  1.00  0.00     0.022 A 
BRANCH  78  81
ATOM     81  S   UNL     1       7.718  10.918   0.154  1.00  0.00     0.127 S 
ATOM     82  O   UNL     1       7.839   9.892  -0.882  1.00  0.00    -0.237 OA
ATOM     83  O   UNL     1       7.139  12.180  -0.306  1.00  0.00    -0.237 OA
ATOM     84  O   UNL     1       8.874  11.056   1.028  1.00  0.00    -0.744 OA
ENDBRANCH  78  81
ENDBRANCH  60  74
BRANCH  61  85
ATOM     85  C   UNL     1       6.654   6.709  12.793  1.00  0.00     0.023 A 
ATOM     86  C   UNL     1       5.547   6.851  13.649  1.00  0.00     0.012 A 
ATOM     87  C   UNL     1       7.813   6.058  13.257  1.00  0.00     0.148 A 
ATOM     88  C   UNL     1       5.591   6.351  14.950  1.00  0.00     0.002 A 
ATOM     89  C   UNL     1       7.837   5.530  14.542  1.00  0.00     0.091 A 
ATOM     90  F   UNL     1       8.845   5.925  12.412  1.00  0.00    -0.205 F 
ATOM     91  C   UNL     1       6.730   5.682  15.392  1.00  0.00     0.022 A 
BRANCH  89  92
ATOM     92  S   UNL     1       9.215   4.564  15.169  1.00  0.00     0.127 S 
ATOM     93  O   UNL     1       9.650   5.369  16.308  1.00  0.00    -0.237 OA
ATOM     94  O   UNL     1       8.559   3.304  15.519  1.00  0.00    -0.237 OA
ATOM     95  O   UNL     1      10.169   4.471  14.072  1.00  0.00    -0.744 OA
ENDBRANCH  89  92
ENDBRANCH  61  85
BRANCH  73  96
ATOM     96  C   UNL     1       6.328  12.848   9.436  1.00  0.00     0.023 A 
ATOM     97  C   UNL     1       7.601  13.407   9.653  1.00  0.00     0.012 A 
ATOM     98  C   UNL     1       5.185  13.669   9.497  1.00  0.00     0.148 A 
ATOM     99  C   UNL     1       7.737  14.767   9.927  1.00  0.00     0.002 A 
ATOM    100  C   UNL     1       5.331  15.030   9.735  1.00  0.00     0.091 A 
ATOM    101  F   UNL     1       3.985  13.107   9.293  1.00  0.00    -0.205 F 
ATOM    102  C   UNL     1       6.605  15.580   9.954  1.00  0.00     0.022 A 
BRANCH 100 103
ATOM    103  S   UNL     1       3.945  16.173   9.713  1.00  0.00     0.127 S 
ATOM    104  O   UNL     1       3.932  16.651  11.095  1.00  0.00    -0.237 OA
ATOM    105  O   UNL     1       4.380  17.163   8.729  1.00  0.00    -0.237 OA
ATOM    106  O   UNL     1       2.780  15.392   9.321  1.00  0.00    -0.744 OA
ENDBRANCH 100 103
ENDBRANCH  73  96
ENDBRANCH  47  48
ENDBRANCH  40  42
ENDBRANCH  39  40
ENDBRANCH  38  39
ENDBRANCH  37  38
ENDBRANCH  36  37
ENDBRANCH  35  36
ENDBRANCH  34  35
ENDBRANCH   1  34
TORSDOF 26
