REMARK SMILES Cc1ccc([C@H](C)Nc2ccc(C(=O)OCCOCCOCCOCCOC(=O)c3ccc(-c4c5nc(c(-c6cccc(S(=O)(=O)[O-])c6F)c6ccc([nH]6)c(-c6cccc(S(=O)(=O)[O-])c6F)c6nc(c(-c7cccc(S(=O)(=O)[O-])c7F)c7ccc4[nH]7)C=C6)C=C5)cc3)cc2Cl)cc1F
REMARK SMILES IDX 21 1 20 2 19 3 18 4 17 5 16 6 15 7 13 8 14 9 12 10 9 11
REMARK SMILES IDX 10 12 94 13 11 14 93 15 95 16 8 17 6 19 7 20 5 21 1 22 2 23
REMARK SMILES IDX 3 24 97 25 4 26 96 27 98 28 22 29 23 30 24 31 25 32 26 33
REMARK SMILES IDX 27 34 28 35 29 36 30 37 31 38 92 39 32 40 91 41 33 42 34 43
REMARK SMILES IDX 35 44 85 45 36 46 90 47 84 48 86 49 37 50 89 51 83 52 82 53
REMARK SMILES IDX 38 55 70 56 50 57 69 58 51 59 54 60 68 61 87 62 52 63 53 64
REMARK SMILES IDX 67 66 88 67 55 68 39 69 40 70 48 71 41 72 43 73 49 74 42 75
REMARK SMILES IDX 44 76 45 77 46 78 47 79 71 80 72 81 80 82 73 83 75 84 81 85
REMARK SMILES IDX 74 86 76 87 77 88 78 89 79 90 56 91 57 92 65 93 58 94 60 95
REMARK SMILES IDX 66 96 59 97 61 98 62 99 63 100 64 101
REMARK H PARENT 8 18 86 54 54 65
REMARK Flexibility Score: inf
ROOT
ATOM      1  O   UNL     1      -8.816  -3.746   5.419  1.00  0.00    -0.377 OA
ENDROOT
BRANCH   1   2
ATOM      2  C   UNL     1      -7.421  -3.592   5.635  1.00  0.00     0.188 C 
BRANCH   2   3
ATOM      3  C   UNL     1      -6.938  -2.655   6.760  1.00  0.00     0.188 C 
BRANCH   3   4
ATOM      4  O   UNL     1      -7.965  -2.088   7.553  1.00  0.00    -0.376 OA
BRANCH   4   5
ATOM      5  C   UNL     1      -8.511  -0.826   7.224  1.00  0.00     0.202 C 
BRANCH   5   6
ATOM      6  C   UNL     1      -8.984  -0.531   5.792  1.00  0.00     0.261 C 
BRANCH   6   7
ATOM      7  O   UNL     1      -8.044  -0.799   4.750  1.00  0.00    -0.460 OA
BRANCH   7   8
ATOM      8  C   UNL     1      -6.863  -0.143   4.789  1.00  0.00     0.338 C 
ATOM      9  O   UNL     1      -6.515   0.711   5.571  1.00  0.00    -0.246 OA
BRANCH   8  10
ATOM     10  C   UNL     1      -5.980  -0.802   3.802  1.00  0.00     0.061 A 
ATOM     11  C   UNL     1      -4.300  -2.123   1.973  1.00  0.00     0.053 A 
ATOM     12  C   UNL     1      -3.862  -1.830   3.275  1.00  0.00     0.028 A 
ATOM     13  C   UNL     1      -5.622  -1.770   1.624  1.00  0.00     0.065 A 
ATOM     14  C   UNL     1      -4.684  -1.158   4.180  1.00  0.00     0.018 A 
ATOM     15  C   UNL     1      -6.461  -1.134   2.538  1.00  0.00     0.038 A 
ATOM     16  Cl  UNL     1      -6.330  -2.148   0.091  1.00  0.00    -0.082 Cl
BRANCH  11  17
ATOM     17  N   UNL     1      -3.367  -2.658   1.092  1.00  0.00    -0.377 N 
ATOM     18  H   UNL     1      -2.958  -3.532   1.288  1.00  0.00     0.161 HD
BRANCH  17  19
ATOM     19  C   UNL     1      -2.986  -1.937  -0.123  1.00  0.00     0.106 C 
ATOM     20  C   UNL     1      -1.795  -1.033   0.228  1.00  0.00     0.036 C 
BRANCH  19  21
ATOM     21  C   UNL     1      -2.788  -2.936  -1.258  1.00  0.00    -0.023 A 
ATOM     22  C   UNL     1      -2.801  -5.516  -4.743  1.00  0.00     0.047 C 
ATOM     23  C   UNL     1      -2.746  -4.648  -3.525  1.00  0.00    -0.015 A 
ATOM     24  C   UNL     1      -1.806  -3.623  -3.388  1.00  0.00     0.007 A 
ATOM     25  C   UNL     1      -3.685  -4.825  -2.514  1.00  0.00     0.126 A 
ATOM     26  C   UNL     1      -1.829  -2.776  -2.270  1.00  0.00     0.006 A 
ATOM     27  C   UNL     1      -3.704  -3.996  -1.399  1.00  0.00     0.045 A 
ATOM     28  F   UNL     1      -4.613  -5.785  -2.625  1.00  0.00    -0.207 F 
ENDBRANCH  19  21
ENDBRANCH  17  19
ENDBRANCH  11  17
ENDBRANCH   8  10
ENDBRANCH   7   8
ENDBRANCH   6   7
ENDBRANCH   5   6
ENDBRANCH   4   5
ENDBRANCH   3   4
ENDBRANCH   2   3
ENDBRANCH   1   2
BRANCH   1  29
ATOM     29  C   UNL     1      -9.706  -3.862   6.526  1.00  0.00     0.188 C 
BRANCH  29  30
ATOM     30  C   UNL     1      -9.308  -4.499   7.887  1.00  0.00     0.188 C 
BRANCH  30  31
ATOM     31  O   UNL     1      -7.953  -4.823   8.103  1.00  0.00    -0.376 OA
BRANCH  31  32
ATOM     32  C   UNL     1      -7.429  -6.082   7.742  1.00  0.00     0.202 C 
BRANCH  32  33
ATOM     33  C   UNL     1      -8.163  -7.042   6.831  1.00  0.00     0.261 C 
BRANCH  33  34
ATOM     34  O   UNL     1      -8.945  -6.537   5.746  1.00  0.00    -0.460 OA
BRANCH  34  35
ATOM     35  C   UNL     1     -10.287  -6.646   5.925  1.00  0.00     0.338 C 
ATOM     36  O   UNL     1     -10.871  -6.725   6.998  1.00  0.00    -0.246 OA
BRANCH  35  37
ATOM     37  C   UNL     1     -11.018  -6.919   4.670  1.00  0.00     0.060 A 
ATOM     38  C   UNL     1     -12.338  -7.349   4.890  1.00  0.00     0.016 A 
ATOM     39  C   UNL     1     -10.272  -7.370   3.579  1.00  0.00     0.016 A 
ATOM     40  C   UNL     1     -12.738  -8.517   4.277  1.00  0.00     0.010 A 
ATOM     41  C   UNL     1     -10.689  -8.524   2.950  1.00  0.00     0.010 A 
ATOM     42  C   UNL     1     -11.851  -9.150   3.395  1.00  0.00    -0.014 A 
BRANCH  42  43
ATOM     43  C   UNL     1     -12.156 -10.489   2.921  1.00  0.00     0.031 A 
ATOM     44  C   UNL     1     -13.375 -10.572   2.114  1.00  0.00     0.074 A 
ATOM     45  C   UNL     1     -11.544 -11.595   3.405  1.00  0.00     0.049 A 
ATOM     46  N   UNL     1     -14.398 -11.293   2.409  1.00  0.00    -0.248 NA
ATOM     47  C   UNL     1     -13.594  -9.666   0.989  1.00  0.00     0.031 C 
ATOM     48  C   UNL     1     -11.840 -12.983   3.081  1.00  0.00     0.029 A 
ATOM     49  N   UNL     1     -10.647 -11.690   4.464  1.00  0.00    -0.354 N 
ATOM     50  C   UNL     1     -15.211 -11.250   1.302  1.00  0.00     0.074 A 
ATOM     51  C   UNL     1     -14.789 -10.082   0.561  1.00  0.00     0.031 C 
ATOM     52  C   UNL     1     -11.350 -13.777   4.052  1.00  0.00     0.029 A 
ATOM     53  C   UNL     1     -10.772 -12.942   5.096  1.00  0.00     0.049 A 
ATOM     54  H   UNL     1     -10.016 -10.983   4.733  1.00  0.00     0.167 HD
ATOM     55  C   UNL     1     -15.966 -12.340   0.984  1.00  0.00     0.034 A 
ATOM     56  C   UNL     1     -11.017 -13.083   6.441  1.00  0.00     0.034 A 
ATOM     57  C   UNL     1     -15.762 -13.407   1.962  1.00  0.00     0.049 A 
ATOM     58  C   UNL     1     -12.445 -13.514   6.689  1.00  0.00     0.074 A 
ATOM     59  C   UNL     1     -14.915 -14.505   1.944  1.00  0.00     0.029 A 
ATOM     60  N   UNL     1     -16.130 -13.222   3.293  1.00  0.00    -0.354 N 
ATOM     61  N   UNL     1     -13.373 -13.505   5.775  1.00  0.00    -0.248 NA
ATOM     62  C   UNL     1     -12.943 -13.925   7.997  1.00  0.00     0.031 C 
ATOM     63  C   UNL     1     -14.712 -14.931   3.277  1.00  0.00     0.029 A 
ATOM     64  C   UNL     1     -15.452 -14.111   4.109  1.00  0.00     0.049 A 
ATOM     65  H   UNL     1     -16.779 -12.554   3.608  1.00  0.00     0.167 HD
ATOM     66  C   UNL     1     -14.544 -13.959   6.315  1.00  0.00     0.074 A 
ATOM     67  C   UNL     1     -14.226 -14.203   7.711  1.00  0.00     0.031 C 
ATOM     68  C   UNL     1     -15.663 -14.130   5.552  1.00  0.00     0.034 A 
BRANCH  55  69
ATOM     69  C   UNL     1     -16.489 -12.521  -0.424  1.00  0.00     0.023 A 
ATOM     70  C   UNL     1     -16.966 -11.429  -1.184  1.00  0.00     0.012 A 
ATOM     71  C   UNL     1     -16.464 -13.771  -1.078  1.00  0.00     0.148 A 
ATOM     72  C   UNL     1     -17.238 -11.535  -2.555  1.00  0.00     0.002 A 
ATOM     73  C   UNL     1     -16.784 -13.885  -2.432  1.00  0.00     0.091 A 
ATOM     74  F   UNL     1     -16.119 -14.877  -0.409  1.00  0.00    -0.205 F 
ATOM     75  C   UNL     1     -17.135 -12.766  -3.186  1.00  0.00     0.022 A 
BRANCH  73  76
ATOM     76  S   UNL     1     -16.754 -15.509  -3.199  1.00  0.00     0.127 S 
ATOM     77  O   UNL     1     -15.346 -15.884  -3.114  1.00  0.00    -0.237 OA
ATOM     78  O   UNL     1     -17.691 -16.276  -2.385  1.00  0.00    -0.237 OA
ATOM     79  O   UNL     1     -17.224 -15.243  -4.560  1.00  0.00    -0.744 OA
ENDBRANCH  73  76
ENDBRANCH  55  69
BRANCH  56  80
ATOM     80  C   UNL     1     -10.341 -12.084   7.346  1.00  0.00     0.023 A 
ATOM     81  C   UNL     1     -10.952 -10.834   7.301  1.00  0.00     0.012 A 
ATOM     82  C   UNL     1      -8.929 -12.154   7.416  1.00  0.00     0.148 A 
ATOM     83  C   UNL     1     -10.211  -9.833   6.707  1.00  0.00     0.002 A 
ATOM     84  C   UNL     1      -8.181 -11.093   6.938  1.00  0.00     0.091 A 
ATOM     85  F   UNL     1      -8.356 -13.297   7.818  1.00  0.00    -0.205 F 
ATOM     86  C   UNL     1      -8.861 -10.007   6.415  1.00  0.00     0.022 A 
BRANCH  84  87
ATOM     87  S   UNL     1      -6.397 -11.138   6.814  1.00  0.00     0.127 S 
ATOM     88  O   UNL     1      -5.984 -10.868   8.188  1.00  0.00    -0.237 OA
ATOM     89  O   UNL     1      -6.109 -12.468   6.294  1.00  0.00    -0.237 OA
ATOM     90  O   UNL     1      -6.097 -10.051   5.878  1.00  0.00    -0.744 OA
ENDBRANCH  84  87
ENDBRANCH  56  80
BRANCH  68  91
ATOM     91  C   UNL     1     -17.015 -14.550   6.061  1.00  0.00     0.023 A 
ATOM     92  C   UNL     1     -17.907 -15.156   5.140  1.00  0.00     0.012 A 
ATOM     93  C   UNL     1     -17.483 -14.364   7.366  1.00  0.00     0.148 A 
ATOM     94  C   UNL     1     -19.185 -15.576   5.501  1.00  0.00     0.002 A 
ATOM     95  C   UNL     1     -18.707 -14.904   7.755  1.00  0.00     0.091 A 
ATOM     96  F   UNL     1     -16.785 -13.625   8.238  1.00  0.00    -0.205 F 
ATOM     97  C   UNL     1     -19.576 -15.483   6.826  1.00  0.00     0.022 A 
BRANCH  95  98
ATOM     98  S   UNL     1     -19.070 -15.008   9.507  1.00  0.00     0.127 S 
ATOM     99  O   UNL     1     -17.954 -15.807  10.010  1.00  0.00    -0.237 OA
ATOM    100  O   UNL     1     -19.111 -13.613   9.931  1.00  0.00    -0.237 OA
ATOM    101  O   UNL     1     -20.363 -15.692   9.546  1.00  0.00    -0.744 OA
ENDBRANCH  95  98
ENDBRANCH  68  91
ENDBRANCH  42  43
ENDBRANCH  35  37
ENDBRANCH  34  35
ENDBRANCH  33  34
ENDBRANCH  32  33
ENDBRANCH  31  32
ENDBRANCH  30  31
ENDBRANCH  29  30
ENDBRANCH   1  29
TORSDOF 26
