REMARK SMILES C[C@@H](C(=O)OCCOCCOCCOCCOC(=O)c1ccc(-c2c3nc(c(-c4cccc(S(=O)(=O)[O-])c4F)c4ccc([nH]4)c(-c4cccc(S(=O)(=O)[O-])c4F)c4nc(c(-c5cccc(S(=O)(=O)[O-])c5F)c5ccc2[nH]5)C=C4)C=C3)cc1)c1ccc(-c2ccc3[nH]ccc3c2)cc1
REMARK SMILES IDX 12 1 11 2 10 3 9 4 8 5 7 6 6 7 5 8 3 9 4 10 2 11 1 12 83 13
REMARK SMILES IDX 84 14 97 15 85 16 96 17 86 18 87 19 88 20 95 21 89 22 94 23
REMARK SMILES IDX 90 24 93 25 91 26 92 27 13 29 14 30 15 31 16 32 17 33 18 34
REMARK SMILES IDX 19 35 20 36 21 37 82 38 22 39 81 40 23 41 24 42 25 43 75 44
REMARK SMILES IDX 26 45 80 46 74 47 76 48 27 49 79 50 73 51 72 52 28 54 60 55
REMARK SMILES IDX 40 56 59 57 41 58 44 59 58 60 77 61 42 62 43 63 57 65 78 66
REMARK SMILES IDX 45 67 29 68 30 69 38 70 31 71 33 72 39 73 32 74 34 75 35 76
REMARK SMILES IDX 36 77 37 78 61 79 62 80 70 81 63 82 65 83 71 84 64 85 66 86
REMARK SMILES IDX 67 87 68 88 69 89 46 90 47 91 55 92 48 93 50 94 56 95 49 96
REMARK SMILES IDX 51 97 52 98 53 99 54 100
REMARK H PARENT 91 28 76 53 44 64
REMARK Flexibility Score: inf
ROOT
ATOM      1  C   UNL     1       2.832  -0.291  -4.005  1.00  0.00     0.188 C 
ENDROOT
BRANCH   1   2
ATOM      2  O   UNL     1       2.167   0.122  -2.820  1.00  0.00    -0.377 OA
BRANCH   2   3
ATOM      3  C   UNL     1       0.756   0.128  -2.788  1.00  0.00     0.188 C 
BRANCH   3   4
ATOM      4  C   UNL     1       0.078   1.388  -3.343  1.00  0.00     0.188 C 
BRANCH   4   5
ATOM      5  O   UNL     1       0.774   2.160  -4.299  1.00  0.00    -0.376 OA
BRANCH   5   6
ATOM      6  C   UNL     1       1.934   2.903  -3.951  1.00  0.00     0.202 C 
BRANCH   6   7
ATOM      7  C   UNL     1       2.447   3.178  -2.521  1.00  0.00     0.261 C 
BRANCH   7   8
ATOM      8  O   UNL     1       1.955   2.343  -1.468  1.00  0.00    -0.463 OA
BRANCH   8   9
ATOM      9  C   UNL     1       1.163   2.927  -0.539  1.00  0.00     0.313 C 
ATOM     10  O   UNL     1       0.855   4.115  -0.559  1.00  0.00    -0.252 OA
BRANCH   9  11
ATOM     11  C   UNL     1       0.610   1.934   0.504  1.00  0.00     0.126 C 
ATOM     12  C   UNL     1       1.500   0.703   0.741  1.00  0.00     0.025 C 
BRANCH  11  13
ATOM     13  C   UNL     1      -0.893   1.683   0.312  1.00  0.00    -0.034 A 
ATOM     14  C   UNL     1      -1.745   2.800   0.274  1.00  0.00     0.005 A 
ATOM     15  C   UNL     1      -1.489   0.418   0.182  1.00  0.00     0.005 A 
ATOM     16  C   UNL     1      -3.120   2.669   0.084  1.00  0.00     0.009 A 
ATOM     17  C   UNL     1      -2.879   0.284  -0.001  1.00  0.00     0.009 A 
ATOM     18  C   UNL     1      -3.710   1.410  -0.052  1.00  0.00    -0.018 A 
BRANCH  18  19
ATOM     19  C   UNL     1      -5.166   1.319  -0.198  1.00  0.00    -0.018 A 
ATOM     20  C   UNL     1      -5.785   1.622  -1.420  1.00  0.00     0.011 A 
ATOM     21  C   UNL     1      -5.968   1.056   0.929  1.00  0.00     0.019 A 
ATOM     22  C   UNL     1      -7.178   1.654  -1.556  1.00  0.00     0.027 A 
ATOM     23  C   UNL     1      -7.370   1.149   0.833  1.00  0.00    -0.000 A 
ATOM     24  C   UNL     1      -7.942   1.421  -0.409  1.00  0.00     0.045 A 
ATOM     25  C   UNL     1      -8.432   1.077   1.776  1.00  0.00     0.028 A 
ATOM     26  N   UNL     1      -9.308   1.421  -0.232  1.00  0.00    -0.361 N 
ATOM     27  C   UNL     1      -9.611   1.283   1.097  1.00  0.00     0.083 A 
ATOM     28  H   UNL     1      -9.970   1.507  -0.956  1.00  0.00     0.166 HD
ENDBRANCH  18  19
ENDBRANCH  11  13
ENDBRANCH   9  11
ENDBRANCH   8   9
ENDBRANCH   7   8
ENDBRANCH   6   7
ENDBRANCH   5   6
ENDBRANCH   4   5
ENDBRANCH   3   4
ENDBRANCH   2   3
ENDBRANCH   1   2
BRANCH   1  29
ATOM     29  C   UNL     1       2.070  -0.410  -5.341  1.00  0.00     0.188 C 
BRANCH  29  30
ATOM     30  O   UNL     1       0.750  -0.924  -5.242  1.00  0.00    -0.376 OA
BRANCH  30  31
ATOM     31  C   UNL     1       0.541  -2.308  -5.475  1.00  0.00     0.202 C 
BRANCH  31  32
ATOM     32  C   UNL     1       1.204  -3.305  -4.510  1.00  0.00     0.261 C 
BRANCH  32  33
ATOM     33  O   UNL     1       2.638  -3.268  -4.442  1.00  0.00    -0.460 OA
BRANCH  33  34
ATOM     34  C   UNL     1       3.331  -3.459  -5.583  1.00  0.00     0.338 C 
ATOM     35  O   UNL     1       2.874  -3.726  -6.683  1.00  0.00    -0.246 OA
BRANCH  34  36
ATOM     36  C   UNL     1       4.737  -3.090  -5.325  1.00  0.00     0.060 A 
ATOM     37  C   UNL     1       5.313  -2.053  -6.070  1.00  0.00     0.016 A 
ATOM     38  C   UNL     1       5.482  -3.761  -4.352  1.00  0.00     0.016 A 
ATOM     39  C   UNL     1       6.651  -1.712  -5.876  1.00  0.00     0.010 A 
ATOM     40  C   UNL     1       6.829  -3.433  -4.173  1.00  0.00     0.010 A 
ATOM     41  C   UNL     1       7.429  -2.434  -4.962  1.00  0.00    -0.014 A 
BRANCH  41  42
ATOM     42  C   UNL     1       8.904  -2.287  -4.976  1.00  0.00     0.031 A 
ATOM     43  C   UNL     1       9.717  -3.321  -5.707  1.00  0.00     0.074 A 
ATOM     44  C   UNL     1       9.514  -1.258  -4.360  1.00  0.00     0.049 A 
ATOM     45  N   UNL     1      11.014  -3.432  -5.817  1.00  0.00    -0.248 NA
ATOM     46  C   UNL     1       8.961  -4.373  -6.408  1.00  0.00     0.031 C 
ATOM     47  C   UNL     1       8.839  -0.186  -3.633  1.00  0.00     0.029 A 
ATOM     48  N   UNL     1      10.850  -0.968  -4.228  1.00  0.00    -0.354 N 
ATOM     49  C   UNL     1      11.232  -4.580  -6.569  1.00  0.00     0.074 A 
ATOM     50  C   UNL     1       9.934  -5.138  -6.879  1.00  0.00     0.031 C 
ATOM     51  C   UNL     1       9.767   0.628  -3.099  1.00  0.00     0.029 A 
ATOM     52  C   UNL     1      11.098   0.117  -3.422  1.00  0.00     0.049 A 
ATOM     53  H   UNL     1      11.561  -1.487  -4.669  1.00  0.00     0.167 HD
ATOM     54  C   UNL     1      12.406  -5.117  -6.978  1.00  0.00     0.034 A 
ATOM     55  C   UNL     1      12.266   0.619  -2.971  1.00  0.00     0.034 A 
ATOM     56  C   UNL     1      13.695  -4.558  -6.675  1.00  0.00     0.049 A 
ATOM     57  C   UNL     1      13.561  -0.019  -3.405  1.00  0.00     0.074 A 
ATOM     58  C   UNL     1      14.941  -5.007  -7.072  1.00  0.00     0.029 A 
ATOM     59  N   UNL     1      13.905  -3.439  -5.885  1.00  0.00    -0.354 N 
ATOM     60  N   UNL     1      13.752  -1.044  -4.200  1.00  0.00    -0.248 NA
ATOM     61  C   UNL     1      14.804   0.588  -2.905  1.00  0.00     0.031 C 
ATOM     62  C   UNL     1      15.908  -4.182  -6.489  1.00  0.00     0.029 A 
ATOM     63  C   UNL     1      15.262  -3.190  -5.769  1.00  0.00     0.049 A 
ATOM     64  H   UNL     1      13.195  -2.900  -5.467  1.00  0.00     0.167 HD
ATOM     65  C   UNL     1      15.132  -1.179  -4.327  1.00  0.00     0.074 A 
ATOM     66  C   UNL     1      15.728  -0.119  -3.541  1.00  0.00     0.031 C 
ATOM     67  C   UNL     1      15.842  -2.102  -5.024  1.00  0.00     0.034 A 
BRANCH  54  68
ATOM     68  C   UNL     1      12.348  -6.374  -7.806  1.00  0.00     0.023 A 
ATOM     69  C   UNL     1      11.873  -6.320  -9.133  1.00  0.00     0.012 A 
ATOM     70  C   UNL     1      12.806  -7.600  -7.286  1.00  0.00     0.148 A 
ATOM     71  C   UNL     1      11.822  -7.473  -9.916  1.00  0.00     0.002 A 
ATOM     72  C   UNL     1      12.798  -8.734  -8.088  1.00  0.00     0.091 A 
ATOM     73  F   UNL     1      13.233  -7.635  -6.016  1.00  0.00    -0.205 F 
ATOM     74  C   UNL     1      12.294  -8.676  -9.398  1.00  0.00     0.022 A 
BRANCH  72  75
ATOM     75  S   UNL     1      13.459 -10.312  -7.542  1.00  0.00     0.127 S 
ATOM     76  O   UNL     1      12.246 -11.124  -7.452  1.00  0.00    -0.237 OA
ATOM     77  O   UNL     1      14.350 -10.668  -8.646  1.00  0.00    -0.237 OA
ATOM     78  O   UNL     1      14.130 -10.053  -6.277  1.00  0.00    -0.744 OA
ENDBRANCH  72  75
ENDBRANCH  54  68
BRANCH  55  79
ATOM     79  C   UNL     1      12.269   1.799  -2.058  1.00  0.00     0.023 A 
ATOM     80  C   UNL     1      12.786   3.030  -2.505  1.00  0.00     0.012 A 
ATOM     81  C   UNL     1      11.761   1.702  -0.748  1.00  0.00     0.148 A 
ATOM     82  C   UNL     1      12.829   4.135  -1.652  1.00  0.00     0.002 A 
ATOM     83  C   UNL     1      11.753   2.821   0.076  1.00  0.00     0.091 A 
ATOM     84  F   UNL     1      11.289   0.517  -0.336  1.00  0.00    -0.205 F 
ATOM     85  C   UNL     1      12.304   4.033  -0.366  1.00  0.00     0.022 A 
BRANCH  83  86
ATOM     86  S   UNL     1      10.985   2.818   1.700  1.00  0.00     0.127 S 
ATOM     87  O   UNL     1      12.140   2.980   2.578  1.00  0.00    -0.237 OA
ATOM     88  O   UNL     1      10.105   3.984   1.615  1.00  0.00    -0.237 OA
ATOM     89  O   UNL     1      10.287   1.543   1.805  1.00  0.00    -0.744 OA
ENDBRANCH  83  86
ENDBRANCH  55  79
BRANCH  67  90
ATOM     90  C   UNL     1      17.345  -1.984  -5.020  1.00  0.00     0.023 A 
ATOM     91  C   UNL     1      18.078  -2.285  -3.855  1.00  0.00     0.012 A 
ATOM     92  C   UNL     1      18.036  -1.647  -6.202  1.00  0.00     0.148 A 
ATOM     93  C   UNL     1      19.471  -2.216  -3.857  1.00  0.00     0.002 A 
ATOM     94  C   UNL     1      19.425  -1.633  -6.211  1.00  0.00     0.091 A 
ATOM     95  F   UNL     1      17.321  -1.350  -7.297  1.00  0.00    -0.205 F 
ATOM     96  C   UNL     1      20.144  -1.903  -5.035  1.00  0.00     0.022 A 
BRANCH  94  97
ATOM     97  S   UNL     1      20.379  -1.340  -7.705  1.00  0.00     0.127 S 
ATOM     98  O   UNL     1      20.962  -0.027  -7.432  1.00  0.00    -0.237 OA
ATOM     99  O   UNL     1      21.334  -2.447  -7.684  1.00  0.00    -0.237 OA
ATOM    100  O   UNL     1      19.427  -1.381  -8.806  1.00  0.00    -0.744 OA
ENDBRANCH  94  97
ENDBRANCH  67  90
ENDBRANCH  41  42
ENDBRANCH  34  36
ENDBRANCH  33  34
ENDBRANCH  32  33
ENDBRANCH  31  32
ENDBRANCH  30  31
ENDBRANCH  29  30
ENDBRANCH   1  29
TORSDOF 25
