REMARK SMILES Cc1oc2c(C)c3oc(=O)c(CCC(=O)N[C@H](Cc4ccc(Cl)cc4)C(=O)OCCOCCOCCOCCOC(=O)c4ccc(-c5c6nc(c(-c7cccc(S(=O)(=O)[O-])c7F)c7ccc([nH]7)c(-c7cccc(S(=O)(=O)[O-])c7F)c7nc(c(-c8cccc(S(=O)(=O)[O-])c8F)c8ccc5[nH]8)C=C7)C=C6)cc4)c(C)c3cc2c1C
REMARK SMILES IDX 33 1 32 2 31 3 30 4 29 5 28 6 26 7 27 8 17 9 16 10 14 11
REMARK SMILES IDX 15 12 13 14 12 15 11 16 1 17 2 18 3 19 111 20 4 21 110 22
REMARK SMILES IDX 112 23 5 24 109 25 6 26 7 27 108 28 8 29 106 30 9 31 107 32
REMARK SMILES IDX 10 33 18 34 19 35 20 36 25 37 21 38 24 39 22 40 23 41 34 42
REMARK SMILES IDX 35 43 36 44 37 45 38 46 39 47 40 48 41 49 42 50 43 51 44 52
REMARK SMILES IDX 105 53 45 54 104 55 46 56 47 57 48 58 98 59 49 60 103 61
REMARK SMILES IDX 97 62 99 63 50 64 102 65 96 66 95 67 51 69 83 70 63 71 82 72
REMARK SMILES IDX 64 73 67 74 81 75 100 76 65 77 66 78 80 80 101 81 68 82
REMARK SMILES IDX 52 83 53 84 61 85 54 86 56 87 62 88 55 89 57 90 58 91 59 92
REMARK SMILES IDX 60 93 84 94 85 95 93 96 86 97 88 98 94 99 87 100 89 101
REMARK SMILES IDX 90 102 91 103 92 104 69 105 70 106 78 107 71 108 73 109
REMARK SMILES IDX 79 110 72 111 74 112 75 113 76 114 77 115
REMARK H PARENT 16 13 99 68 67 79
REMARK Flexibility Score: inf
ROOT
ATOM      1  C   UNL     1       0.416   1.275   8.195  1.00  0.00     0.188 C 
ENDROOT
BRANCH   1   2
ATOM      2  C   UNL     1       1.472   0.246   7.784  1.00  0.00     0.188 C 
BRANCH   2   3
ATOM      3  O   UNL     1       2.624   0.671   7.064  1.00  0.00    -0.376 OA
BRANCH   3   4
ATOM      4  C   UNL     1       2.476   1.471   5.897  1.00  0.00     0.202 C 
BRANCH   4   5
ATOM      5  C   UNL     1       1.575   0.899   4.811  1.00  0.00     0.261 C 
BRANCH   5   6
ATOM      6  O   UNL     1       0.227   0.778   5.292  1.00  0.00    -0.462 OA
BRANCH   6   7
ATOM      7  C   UNL     1      -0.453  -0.288   4.811  1.00  0.00     0.329 C 
ATOM      8  O   UNL     1      -0.080  -0.970   3.860  1.00  0.00    -0.250 OA
BRANCH   7   9
ATOM      9  C   UNL     1      -1.678  -0.634   5.677  1.00  0.00     0.196 C 
BRANCH   9  10
ATOM     10  N   UNL     1      -2.294  -1.778   4.977  1.00  0.00    -0.342 N 
ATOM     11  C   UNL     1      -2.753  -2.965   5.446  1.00  0.00     0.221 C 
ATOM     12  O   UNL     1      -3.037  -3.841   4.627  1.00  0.00    -0.275 OA
ATOM     13  H   UNL     1      -2.387  -1.659   4.004  1.00  0.00     0.164 HD
BRANCH  11  14
ATOM     14  C   UNL     1      -2.927  -3.201   6.930  1.00  0.00     0.105 C 
BRANCH  14  15
ATOM     15  C   UNL     1      -2.088  -4.380   7.426  1.00  0.00     0.053 C 
BRANCH  15  16
ATOM     16  C   UNL     1      -0.672  -3.968   7.783  1.00  0.00     0.042 A 
ATOM     17  C   UNL     1       6.608  -0.010   7.328  1.00  0.00     0.088 C 
ATOM     18  C   UNL     1       5.563  -1.055   7.320  1.00  0.00     0.105 A 
ATOM     19  O   UNL     1       5.037  -1.371   8.536  1.00  0.00    -0.461 OA
ATOM     20  C   UNL     1       4.906  -1.739   6.313  1.00  0.00    -0.002 A 
ATOM     21  C   UNL     1       3.945  -2.155   8.313  1.00  0.00     0.141 A 
ATOM     22  C   UNL     1       3.829  -2.423   6.957  1.00  0.00     0.025 A 
ATOM     23  C   UNL     1       5.146  -1.643   4.853  1.00  0.00     0.049 C 
ATOM     24  C   UNL     1       3.012  -2.530   9.286  1.00  0.00     0.036 A 
ATOM     25  C   UNL     1       2.710  -3.146   6.504  1.00  0.00     0.024 A 
ATOM     26  C   UNL     1       3.147  -2.101  10.715  1.00  0.00     0.052 C 
ATOM     27  C   UNL     1       1.851  -3.139   8.757  1.00  0.00     0.145 A 
ATOM     28  C   UNL     1       1.679  -3.464   7.405  1.00  0.00     0.022 A 
ATOM     29  O   UNL     1       0.768  -3.296   9.650  1.00  0.00    -0.422 OA
ATOM     30  C   UNL     1       0.385  -4.012   6.946  1.00  0.00    -0.030 A 
ATOM     31  C   UNL     1      -0.520  -3.481   9.185  1.00  0.00     0.339 A 
ATOM     32  C   UNL     1       0.316  -4.522   5.528  1.00  0.00     0.046 C 
ATOM     33  O   UNL     1      -1.492  -3.291   9.909  1.00  0.00    -0.246 OA
ENDBRANCH  15  16
ENDBRANCH  14  15
ENDBRANCH  11  14
ENDBRANCH   9  10
BRANCH   9  34
ATOM     34  C   UNL     1      -2.640   0.561   5.858  1.00  0.00     0.072 C 
BRANCH  34  35
ATOM     35  C   UNL     1      -3.967   0.136   6.452  1.00  0.00    -0.045 A 
ATOM     36  C   UNL     1      -4.998  -0.254   5.585  1.00  0.00     0.005 A 
ATOM     37  C   UNL     1      -4.137  -0.024   7.835  1.00  0.00     0.005 A 
ATOM     38  C   UNL     1      -6.138  -0.883   6.080  1.00  0.00     0.021 A 
ATOM     39  C   UNL     1      -5.284  -0.652   8.331  1.00  0.00     0.021 A 
ATOM     40  C   UNL     1      -6.267  -1.100   7.449  1.00  0.00     0.041 A 
ATOM     41  Cl  UNL     1      -7.625  -1.974   8.043  1.00  0.00    -0.084 Cl
ENDBRANCH  34  35
ENDBRANCH   9  34
ENDBRANCH   7   9
ENDBRANCH   6   7
ENDBRANCH   5   6
ENDBRANCH   4   5
ENDBRANCH   3   4
ENDBRANCH   2   3
ENDBRANCH   1   2
BRANCH   1  42
ATOM     42  O   UNL     1       0.748   2.624   7.967  1.00  0.00    -0.377 OA
BRANCH  42  43
ATOM     43  C   UNL     1       1.768   3.215   8.774  1.00  0.00     0.188 C 
BRANCH  43  44
ATOM     44  C   UNL     1       2.479   2.363   9.839  1.00  0.00     0.188 C 
BRANCH  44  45
ATOM     45  O   UNL     1       1.563   1.727  10.727  1.00  0.00    -0.376 OA
BRANCH  45  46
ATOM     46  C   UNL     1       1.333   2.381  11.974  1.00  0.00     0.202 C 
BRANCH  46  47
ATOM     47  C   UNL     1       0.681   3.771  11.890  1.00  0.00     0.261 C 
BRANCH  47  48
ATOM     48  O   UNL     1       1.496   4.824  11.346  1.00  0.00    -0.460 OA
BRANCH  48  49
ATOM     49  C   UNL     1       2.743   4.987  11.840  1.00  0.00     0.338 C 
ATOM     50  O   UNL     1       3.272   4.357  12.735  1.00  0.00    -0.246 OA
BRANCH  49  51
ATOM     51  C   UNL     1       3.473   5.877  10.925  1.00  0.00     0.060 A 
ATOM     52  C   UNL     1       4.681   5.428  10.377  1.00  0.00     0.016 A 
ATOM     53  C   UNL     1       3.000   7.159  10.666  1.00  0.00     0.016 A 
ATOM     54  C   UNL     1       5.459   6.296   9.620  1.00  0.00     0.010 A 
ATOM     55  C   UNL     1       3.802   8.039   9.948  1.00  0.00     0.010 A 
ATOM     56  C   UNL     1       5.058   7.632   9.465  1.00  0.00    -0.014 A 
BRANCH  56  57
ATOM     57  C   UNL     1       6.049   8.621   8.969  1.00  0.00     0.031 A 
ATOM     58  C   UNL     1       5.512   9.757   8.163  1.00  0.00     0.074 A 
ATOM     59  C   UNL     1       7.154   8.843   9.723  1.00  0.00     0.049 A 
ATOM     60  N   UNL     1       4.866  10.735   8.727  1.00  0.00    -0.248 NA
ATOM     61  C   UNL     1       5.421   9.762   6.704  1.00  0.00     0.031 C 
ATOM     62  C   UNL     1       7.241   8.466  11.148  1.00  0.00     0.029 A 
ATOM     63  N   UNL     1       8.277   9.614   9.518  1.00  0.00    -0.354 N 
ATOM     64  C   UNL     1       4.171  11.399   7.739  1.00  0.00     0.074 A 
ATOM     65  C   UNL     1       4.596  10.804   6.490  1.00  0.00     0.031 C 
ATOM     66  C   UNL     1       8.245   9.148  11.726  1.00  0.00     0.029 A 
ATOM     67  C   UNL     1       8.961   9.896  10.705  1.00  0.00     0.049 A 
ATOM     68  H   UNL     1       8.566   9.932   8.633  1.00  0.00     0.167 HD
ATOM     69  C   UNL     1       3.249  12.356   8.026  1.00  0.00     0.034 A 
ATOM     70  C   UNL     1       9.654  11.038  10.970  1.00  0.00     0.034 A 
ATOM     71  C   UNL     1       3.020  12.590   9.425  1.00  0.00     0.049 A 
ATOM     72  C   UNL     1       8.544  12.058  11.023  1.00  0.00     0.074 A 
ATOM     73  C   UNL     1       2.106  12.169  10.368  1.00  0.00     0.029 A 
ATOM     74  N   UNL     1       3.937  13.328  10.135  1.00  0.00    -0.354 N 
ATOM     75  N   UNL     1       7.726  12.245  12.029  1.00  0.00    -0.248 NA
ATOM     76  C   UNL     1       8.096  12.640   9.760  1.00  0.00     0.031 C 
ATOM     77  C   UNL     1       2.762  12.307  11.633  1.00  0.00     0.029 A 
ATOM     78  C   UNL     1       4.057  12.758  11.381  1.00  0.00     0.049 A 
ATOM     79  H   UNL     1       4.420  14.122   9.811  1.00  0.00     0.167 HD
ATOM     80  C   UNL     1       6.531  12.691  11.456  1.00  0.00     0.074 A 
ATOM     81  C   UNL     1       6.841  12.943  10.063  1.00  0.00     0.031 C 
ATOM     82  C   UNL     1       5.320  12.671  12.091  1.00  0.00     0.034 A 
BRANCH  69  83
ATOM     83  C   UNL     1       2.561  13.191   7.018  1.00  0.00     0.023 A 
ATOM     84  C   UNL     1       3.033  14.511   6.877  1.00  0.00     0.012 A 
ATOM     85  C   UNL     1       1.390  12.796   6.352  1.00  0.00     0.148 A 
ATOM     86  C   UNL     1       2.333  15.442   6.117  1.00  0.00     0.002 A 
ATOM     87  C   UNL     1       0.696  13.733   5.587  1.00  0.00     0.091 A 
ATOM     88  F   UNL     1       0.949  11.540   6.514  1.00  0.00    -0.205 F 
ATOM     89  C   UNL     1       1.162  15.055   5.478  1.00  0.00     0.022 A 
BRANCH  87  90
ATOM     90  S   UNL     1      -0.824  13.349   4.710  1.00  0.00     0.127 S 
ATOM     91  O   UNL     1      -1.819  14.079   5.493  1.00  0.00    -0.237 OA
ATOM     92  O   UNL     1      -0.560  13.910   3.384  1.00  0.00    -0.237 OA
ATOM     93  O   UNL     1      -0.942  11.898   4.736  1.00  0.00    -0.744 OA
ENDBRANCH  87  90
ENDBRANCH  69  83
BRANCH  70  94
ATOM     94  C   UNL     1      10.915  11.176  10.171  1.00  0.00     0.023 A 
ATOM     95  C   UNL     1      11.797  10.066  10.180  1.00  0.00     0.012 A 
ATOM     96  C   UNL     1      11.287  12.290   9.402  1.00  0.00     0.148 A 
ATOM     97  C   UNL     1      12.931  10.016   9.368  1.00  0.00     0.002 A 
ATOM     98  C   UNL     1      12.376  12.210   8.536  1.00  0.00     0.091 A 
ATOM     99  F   UNL     1      10.589  13.425   9.516  1.00  0.00    -0.205 F 
ATOM    100  C   UNL     1      13.200  11.076   8.516  1.00  0.00     0.022 A 
BRANCH  98 101
ATOM    101  S   UNL     1      12.727  13.480   7.314  1.00  0.00     0.127 S 
ATOM    102  O   UNL     1      14.117  13.816   7.615  1.00  0.00    -0.237 OA
ATOM    103  O   UNL     1      12.525  12.743   6.067  1.00  0.00    -0.237 OA
ATOM    104  O   UNL     1      11.763  14.543   7.560  1.00  0.00    -0.744 OA
ENDBRANCH  98 101
ENDBRANCH  70  94
BRANCH  82 105
ATOM    105  C   UNL     1       5.333  12.368  13.564  1.00  0.00     0.023 A 
ATOM    106  C   UNL     1       5.940  13.300  14.429  1.00  0.00     0.012 A 
ATOM    107  C   UNL     1       4.688  11.244  14.120  1.00  0.00     0.148 A 
ATOM    108  C   UNL     1       5.887  13.137  15.813  1.00  0.00     0.002 A 
ATOM    109  C   UNL     1       4.595  11.112  15.504  1.00  0.00     0.091 A 
ATOM    110  F   UNL     1       4.160  10.326  13.298  1.00  0.00    -0.205 F 
ATOM    111  C   UNL     1       5.200  12.054  16.351  1.00  0.00     0.022 A 
BRANCH 109 112
ATOM    112  S   UNL     1       3.652   9.805  16.302  1.00  0.00     0.127 S 
ATOM    113  O   UNL     1       4.666   9.163  17.138  1.00  0.00    -0.237 OA
ATOM    114  O   UNL     1       2.649  10.570  17.044  1.00  0.00    -0.237 OA
ATOM    115  O   UNL     1       3.116   8.973  15.233  1.00  0.00    -0.744 OA
ENDBRANCH 109 112
ENDBRANCH  82 105
ENDBRANCH  56  57
ENDBRANCH  49  51
ENDBRANCH  48  49
ENDBRANCH  47  48
ENDBRANCH  46  47
ENDBRANCH  45  46
ENDBRANCH  44  45
ENDBRANCH  43  44
ENDBRANCH  42  43
ENDBRANCH   1  42
TORSDOF 29
