REMARK SMILES COc1ccc(C2=NN(C(=O)CCC(=O)OCCOCCOCCOCCOC(=O)c3ccc(-c4c5nc(c(-c6cccc(S(=O)(=O)[O-])c6F)c6ccc([nH]6)c(-c6cccc(S(=O)(=O)[O-])c6F)c6nc(c(-c7cccc(S(=O)(=O)[O-])c7F)c7ccc4[nH]7)C=C6)C=C5)cc3)[C@H](c3ccc(Cl)cc3Cl)C2)cc1
REMARK SMILES IDX 21 1 20 2 19 3 18 4 17 5 16 6 14 7 15 8 13 9 12 10 10 11
REMARK SMILES IDX 11 12 9 13 7 14 8 15 103 16 94 17 6 18 3 19 4 20 105 21 5 22
REMARK SMILES IDX 104 23 2 24 1 25 95 26 96 27 101 28 97 29 100 30 102 31
REMARK SMILES IDX 98 32 99 33 22 34 23 35 24 36 25 37 26 38 27 39 28 40 29 41
REMARK SMILES IDX 30 42 31 43 32 44 93 45 33 46 92 47 34 48 35 49 36 50 86 51
REMARK SMILES IDX 37 52 91 53 85 54 87 55 38 56 90 57 84 58 83 59 39 61 71 62
REMARK SMILES IDX 51 63 70 64 52 65 55 66 69 67 88 68 53 69 54 70 68 72 89 73
REMARK SMILES IDX 56 74 40 75 41 76 49 77 42 78 44 79 50 80 43 81 45 82 46 83
REMARK SMILES IDX 47 84 48 85 72 86 73 87 81 88 74 89 76 90 82 91 75 92 77 93
REMARK SMILES IDX 78 94 79 95 80 96 57 97 58 98 66 99 59 100 61 101 67 102
REMARK SMILES IDX 60 103 62 104 63 105 64 106 65 107
REMARK H PARENT 87 60 55 71
REMARK Flexibility Score: inf
ROOT
ATOM      1  C   UNL     1       0.789  -8.662  -5.825  1.00  0.00     0.188 C 
ENDROOT
BRANCH   1   2
ATOM      2  C   UNL     1       2.561  -8.980  -6.616  1.00  0.00     0.188 C 
BRANCH   2   3
ATOM      3  O   UNL     1       3.988  -9.417  -6.002  1.00  0.00    -0.376 OA
BRANCH   3   4
ATOM      4  C   UNL     1       5.074  -8.527  -5.371  1.00  0.00     0.202 C 
BRANCH   4   5
ATOM      5  C   UNL     1       5.446  -7.092  -5.927  1.00  0.00     0.261 C 
BRANCH   5   6
ATOM      6  O   UNL     1       4.426  -6.533  -6.762  1.00  0.00    -0.463 OA
BRANCH   6   7
ATOM      7  C   UNL     1       4.613  -6.781  -8.072  1.00  0.00     0.306 C 
ATOM      8  O   UNL     1       5.693  -7.104  -8.556  1.00  0.00    -0.252 OA
BRANCH   7   9
ATOM      9  C   UNL     1       3.354  -6.773  -8.907  1.00  0.00     0.132 C 
BRANCH   9  10
ATOM     10  C   UNL     1       1.926  -6.722  -8.361  1.00  0.00     0.114 C 
BRANCH  10  11
ATOM     11  C   UNL     1       1.562  -6.042  -7.054  1.00  0.00     0.243 C 
ATOM     12  O   UNL     1       0.949  -4.972  -7.253  1.00  0.00    -0.273 OA
BRANCH  11  13
ATOM     13  N   UNL     1       1.732  -6.545  -5.743  1.00  0.00    -0.225 N 
ATOM     14  C   UNL     1       1.864  -5.628  -3.813  1.00  0.00     0.071 C 
ATOM     15  N   UNL     1       1.230  -5.606  -4.920  1.00  0.00    -0.174 NA
ATOM     16  C   UNL     1       2.969  -6.656  -3.641  1.00  0.00     0.091 C 
ATOM     17  C   UNL     1       2.488  -7.760  -4.672  1.00  0.00     0.149 C 
BRANCH  14  18
ATOM     18  C   UNL     1       1.425  -4.652  -2.840  1.00  0.00    -0.002 A 
ATOM     19  C   UNL     1       0.420  -2.370  -1.836  1.00  0.00     0.118 A 
ATOM     20  C   UNL     1      -0.478  -3.369  -2.153  1.00  0.00     0.047 A 
ATOM     21  C   UNL     1       1.817  -2.540  -1.922  1.00  0.00     0.047 A 
ATOM     22  C   UNL     1       0.028  -4.520  -2.691  1.00  0.00     0.014 A 
ATOM     23  C   UNL     1       2.338  -3.710  -2.420  1.00  0.00     0.014 A 
BRANCH  19  24
ATOM     24  O   UNL     1      -0.182  -1.234  -1.413  1.00  0.00    -0.497 OA
ATOM     25  C   UNL     1       0.539  -0.104  -1.838  1.00  0.00     0.278 C 
ENDBRANCH  19  24
ENDBRANCH  14  18
BRANCH  17  26
ATOM     26  C   UNL     1       2.045  -9.664  -4.408  1.00  0.00    -0.004 A 
ATOM     27  C   UNL     1       1.487  -9.768  -2.933  1.00  0.00     0.009 A 
ATOM     28  C   UNL     1       1.808 -11.268  -5.193  1.00  0.00     0.047 A 
ATOM     29  C   UNL     1       0.814 -11.217  -1.854  1.00  0.00     0.021 A 
ATOM     30  C   UNL     1       1.211 -12.745  -4.370  1.00  0.00     0.041 A 
ATOM     31  Cl  UNL     1       1.656 -11.697  -6.899  1.00  0.00    -0.084 Cl
ATOM     32  C   UNL     1       0.699 -12.775  -2.692  1.00  0.00     0.042 A 
ATOM     33  Cl  UNL     1       0.080 -14.209  -2.005  1.00  0.00    -0.084 Cl
ENDBRANCH  17  26
ENDBRANCH  11  13
ENDBRANCH  10  11
ENDBRANCH   9  10
ENDBRANCH   7   9
ENDBRANCH   6   7
ENDBRANCH   5   6
ENDBRANCH   4   5
ENDBRANCH   3   4
ENDBRANCH   2   3
ENDBRANCH   1   2
BRANCH   1  34
ATOM     34  O   UNL     1       0.301  -8.098  -4.169  1.00  0.00    -0.377 OA
BRANCH  34  35
ATOM     35  C   UNL     1       0.842  -7.869  -2.462  1.00  0.00     0.188 C 
BRANCH  35  36
ATOM     36  C   UNL     1       1.830  -8.915  -1.102  1.00  0.00     0.188 C 
BRANCH  36  37
ATOM     37  O   UNL     1       2.843 -10.379  -1.558  1.00  0.00    -0.376 OA
BRANCH  37  38
ATOM     38  C   UNL     1       2.271 -11.411  -3.023  1.00  0.00     0.202 C 
BRANCH  38  39
ATOM     39  C   UNL     1       0.211 -10.984  -3.648  1.00  0.00     0.261 C 
BRANCH  39  40
ATOM     40  O   UNL     1      -0.834  -9.826  -2.702  1.00  0.00    -0.460 OA
BRANCH  40  41
ATOM     41  C   UNL     1      -1.472  -9.773  -1.451  1.00  0.00     0.338 C 
ATOM     42  O   UNL     1      -1.726 -10.772  -0.788  1.00  0.00    -0.246 OA
BRANCH  41  43
ATOM     43  C   UNL     1      -1.579  -8.357  -0.731  1.00  0.00     0.060 A 
ATOM     44  C   UNL     1      -0.725  -8.036   0.364  1.00  0.00     0.016 A 
ATOM     45  C   UNL     1      -2.408  -7.301  -1.128  1.00  0.00     0.016 A 
ATOM     46  C   UNL     1      -0.569  -6.723   0.921  1.00  0.00     0.010 A 
ATOM     47  C   UNL     1      -2.339  -6.003  -0.482  1.00  0.00     0.010 A 
ATOM     48  C   UNL     1      -1.403  -5.675   0.543  1.00  0.00    -0.014 A 
BRANCH  48  49
ATOM     49  C   UNL     1      -1.536  -4.428   1.437  1.00  0.00     0.031 A 
ATOM     50  C   UNL     1      -2.692  -4.456   2.424  1.00  0.00     0.074 A 
ATOM     51  C   UNL     1      -0.669  -3.381   1.585  1.00  0.00     0.049 A 
ATOM     52  N   UNL     1      -3.037  -3.576   3.328  1.00  0.00    -0.248 NA
ATOM     53  C   UNL     1      -3.498  -5.690   2.463  1.00  0.00     0.031 C 
ATOM     54  C   UNL     1       0.688  -3.300   1.055  1.00  0.00     0.029 A 
ATOM     55  N   UNL     1      -0.807  -2.136   2.209  1.00  0.00    -0.354 N 
ATOM     56  C   UNL     1      -4.062  -4.162   4.061  1.00  0.00     0.074 A 
ATOM     57  C   UNL     1      -4.329  -5.450   3.465  1.00  0.00     0.031 C 
ATOM     58  C   UNL     1       1.174  -2.046   1.213  1.00  0.00     0.029 A 
ATOM     59  C   UNL     1       0.173  -1.204   1.852  1.00  0.00     0.049 A 
ATOM     60  H   UNL     1      -1.532  -1.933   2.844  1.00  0.00     0.167 HD
ATOM     61  C   UNL     1      -4.692  -3.690   5.162  1.00  0.00     0.034 A 
ATOM     62  C   UNL     1       0.224   0.153   1.986  1.00  0.00     0.034 A 
ATOM     63  C   UNL     1      -4.429  -2.400   5.740  1.00  0.00     0.049 A 
ATOM     64  C   UNL     1      -0.724   0.755   2.978  1.00  0.00     0.074 A 
ATOM     65  C   UNL     1      -4.971  -1.846   6.886  1.00  0.00     0.029 A 
ATOM     66  N   UNL     1      -3.592  -1.443   5.189  1.00  0.00    -0.354 N 
ATOM     67  N   UNL     1      -1.674   0.170   3.660  1.00  0.00    -0.248 NA
ATOM     68  C   UNL     1      -0.467   2.152   3.352  1.00  0.00     0.031 C 
ATOM     69  C   UNL     1      -4.536  -0.520   6.973  1.00  0.00     0.029 A 
ATOM     70  C   UNL     1      -3.654  -0.278   5.934  1.00  0.00     0.049 A 
ATOM     71  H   UNL     1      -3.037  -1.572   4.386  1.00  0.00     0.167 HD
ATOM     72  C   UNL     1      -2.051   1.087   4.626  1.00  0.00     0.074 A 
ATOM     73  C   UNL     1      -1.266   2.285   4.398  1.00  0.00     0.031 C 
ATOM     74  C   UNL     1      -2.908   0.921   5.660  1.00  0.00     0.034 A 
BRANCH  61  75
ATOM     75  C   UNL     1      -5.753  -4.555   5.790  1.00  0.00     0.023 A 
ATOM     76  C   UNL     1      -5.412  -5.747   6.463  1.00  0.00     0.012 A 
ATOM     77  C   UNL     1      -7.101  -4.150   5.746  1.00  0.00     0.148 A 
ATOM     78  C   UNL     1      -6.402  -6.539   7.048  1.00  0.00     0.002 A 
ATOM     79  C   UNL     1      -8.073  -4.915   6.375  1.00  0.00     0.091 A 
ATOM     80  F   UNL     1      -7.406  -3.027   5.082  1.00  0.00    -0.205 F 
ATOM     81  C   UNL     1      -7.729  -6.117   7.014  1.00  0.00     0.022 A 
BRANCH  79  82
ATOM     82  S   UNL     1      -9.793  -4.410   6.452  1.00  0.00     0.127 S 
ATOM     83  O   UNL     1     -10.436  -5.428   5.623  1.00  0.00    -0.237 OA
ATOM     84  O   UNL     1     -10.079  -4.519   7.883  1.00  0.00    -0.237 OA
ATOM     85  O   UNL     1      -9.842  -3.055   5.922  1.00  0.00    -0.744 OA
ENDBRANCH  79  82
ENDBRANCH  61  75
BRANCH  62  86
ATOM     86  C   UNL     1       1.202   1.087   1.294  1.00  0.00     0.023 A 
ATOM     87  C   UNL     1       2.557   1.135   1.660  1.00  0.00     0.012 A 
ATOM     88  C   UNL     1       0.774   1.964   0.256  1.00  0.00     0.148 A 
ATOM     89  C   UNL     1       3.471   1.925   0.943  1.00  0.00     0.002 A 
ATOM     90  C   UNL     1       1.710   2.636  -0.545  1.00  0.00     0.091 A 
ATOM     91  F   UNL     1      -0.541   2.069   0.014  1.00  0.00    -0.205 F 
ATOM     92  C   UNL     1       3.062   2.624  -0.190  1.00  0.00     0.022 A 
BRANCH  90  93
ATOM     93  S   UNL     1       1.362   3.185  -2.250  1.00  0.00     0.127 S 
ATOM     94  O   UNL     1       1.650   4.614  -2.193  1.00  0.00    -0.237 OA
ATOM     95  O   UNL     1       2.336   2.387  -3.001  1.00  0.00    -0.237 OA
ATOM     96  O   UNL     1      -0.026   2.840  -2.516  1.00  0.00    -0.744 OA
ENDBRANCH  90  93
ENDBRANCH  62  86
BRANCH  74  97
ATOM     97  C   UNL     1      -2.984   2.055   6.641  1.00  0.00     0.023 A 
ATOM     98  C   UNL     1      -3.522   3.299   6.259  1.00  0.00     0.012 A 
ATOM     99  C   UNL     1      -2.460   1.888   7.937  1.00  0.00     0.148 A 
ATOM    100  C   UNL     1      -3.461   4.386   7.128  1.00  0.00     0.002 A 
ATOM    101  C   UNL     1      -2.475   2.953   8.823  1.00  0.00     0.091 A 
ATOM    102  F   UNL     1      -1.928   0.703   8.268  1.00  0.00    -0.205 F 
ATOM    103  C   UNL     1      -2.946   4.210   8.411  1.00  0.00     0.022 A 
BRANCH 101 104
ATOM    104  S   UNL     1      -1.937   2.788  10.525  1.00  0.00     0.127 S 
ATOM    105  O   UNL     1      -0.722   3.602  10.535  1.00  0.00    -0.237 OA
ATOM    106  O   UNL     1      -3.065   3.365  11.257  1.00  0.00    -0.237 OA
ATOM    107  O   UNL     1      -1.733   1.364  10.752  1.00  0.00    -0.744 OA
ENDBRANCH 101 104
ENDBRANCH  74  97
ENDBRANCH  48  49
ENDBRANCH  41  43
ENDBRANCH  40  41
ENDBRANCH  39  40
ENDBRANCH  38  39
ENDBRANCH  37  38
ENDBRANCH  36  37
ENDBRANCH  35  36
ENDBRANCH  34  35
ENDBRANCH   1  34
TORSDOF 29
