REMARK SMILES Cc1oc(CNC(=O)c2ccnn2C)cc1C(=O)OCCOCCOCCOCCOC(=O)c1ccc(-c2c3nc(c(-c4cccc(S(=O)(=O)[O-])c4F)c4ccc([nH]4)c(-c4cccc(S(=O)(=O)[O-])c4F)c4nc(c(-c5cccc(S(=O)(=O)[O-])c5F)c5ccc2[nH]5)C=C4)C=C3)cc1
REMARK SMILES IDX 25 1 24 2 23 3 22 4 21 5 20 6 19 7 17 8 18 9 16 10 1 11 2 12
REMARK SMILES IDX 3 13 4 14 15 15 5 16 6 17 7 18 8 20 9 21 10 22 13 23 11 24
REMARK SMILES IDX 12 25 14 26 26 27 27 28 28 29 29 30 30 31 31 32 32 33 33 34
REMARK SMILES IDX 34 35 35 36 96 37 36 38 95 39 37 40 38 41 39 42 89 43 40 44
REMARK SMILES IDX 94 45 88 46 90 47 41 48 93 49 87 50 86 51 42 53 74 54 54 55
REMARK SMILES IDX 73 56 55 57 58 58 72 59 91 60 56 61 57 62 71 64 92 65 59 66
REMARK SMILES IDX 43 67 44 68 52 69 45 70 47 71 53 72 46 73 48 74 49 75 50 76
REMARK SMILES IDX 51 77 75 78 76 79 84 80 77 81 79 82 85 83 78 84 80 85 81 86
REMARK SMILES IDX 82 87 83 88 60 89 61 90 69 91 62 92 64 93 70 94 63 95 65 96
REMARK SMILES IDX 66 97 67 98 68 99
REMARK H PARENT 6 19 90 52 58 63
REMARK Flexibility Score: inf
ROOT
ATOM      1  O   UNL     1       1.471  -3.216   2.018  1.00  0.00    -0.377 OA
ENDROOT
BRANCH   1   2
ATOM      2  C   UNL     1       0.093  -2.908   1.938  1.00  0.00     0.188 C 
BRANCH   2   3
ATOM      3  C   UNL     1      -0.710  -3.909   1.094  1.00  0.00     0.188 C 
BRANCH   3   4
ATOM      4  O   UNL     1       0.013  -5.098   0.776  1.00  0.00    -0.376 OA
BRANCH   4   5
ATOM      5  C   UNL     1       0.472  -5.228  -0.565  1.00  0.00     0.202 C 
BRANCH   5   6
ATOM      6  C   UNL     1       1.675  -4.355  -0.964  1.00  0.00     0.261 C 
BRANCH   6   7
ATOM      7  O   UNL     1       1.462  -2.942  -0.852  1.00  0.00    -0.460 OA
BRANCH   7   8
ATOM      8  C   UNL     1       0.484  -2.398  -1.618  1.00  0.00     0.341 C 
ATOM      9  O   UNL     1      -0.126  -2.990  -2.492  1.00  0.00    -0.246 OA
BRANCH   8  10
ATOM     10  C   UNL     1       0.079  -1.092  -1.125  1.00  0.00     0.101 A 
ATOM     11  C   UNL     1       2.275   0.013  -0.151  1.00  0.00     0.088 C 
ATOM     12  C   UNL     1       0.840  -0.122  -0.492  1.00  0.00     0.115 A 
ATOM     13  O   UNL     1       0.050   0.938  -0.137  1.00  0.00    -0.464 OA
ATOM     14  C   UNL     1      -1.218   0.648  -0.534  1.00  0.00     0.124 A 
ATOM     15  C   UNL     1      -1.249  -0.584  -1.146  1.00  0.00     0.063 A 
BRANCH  14  16
ATOM     16  C   UNL     1      -2.269   1.673  -0.382  1.00  0.00     0.191 C 
BRANCH  16  17
ATOM     17  N   UNL     1      -2.117   2.490   0.797  1.00  0.00    -0.343 N 
ATOM     18  C   UNL     1      -2.087   3.857   0.886  1.00  0.00     0.269 C 
ATOM     19  H   UNL     1      -2.022   2.003   1.647  1.00  0.00     0.164 HD
ATOM     20  O   UNL     1      -1.972   4.370   1.997  1.00  0.00    -0.268 OA
BRANCH  18  21
ATOM     21  C   UNL     1      -2.137   4.636  -0.323  1.00  0.00     0.125 A 
ATOM     22  C   UNL     1      -1.202   5.562  -0.752  1.00  0.00     0.055 A 
ATOM     23  N   UNL     1      -3.125   4.671  -1.275  1.00  0.00    -0.263 N 
ATOM     24  C   UNL     1      -1.655   5.996  -2.006  1.00  0.00     0.136 A 
ATOM     25  N   UNL     1      -2.824   5.446  -2.338  1.00  0.00    -0.181 NA
ATOM     26  C   UNL     1      -4.393   3.978  -1.281  1.00  0.00     0.174 C 
ENDBRANCH  18  21
ENDBRANCH  16  17
ENDBRANCH  14  16
ENDBRANCH   8  10
ENDBRANCH   7   8
ENDBRANCH   6   7
ENDBRANCH   5   6
ENDBRANCH   4   5
ENDBRANCH   3   4
ENDBRANCH   2   3
ENDBRANCH   1   2
BRANCH   1  27
ATOM     27  C   UNL     1       1.886  -4.235   2.925  1.00  0.00     0.188 C 
BRANCH  27  28
ATOM     28  C   UNL     1       0.886  -5.224   3.565  1.00  0.00     0.188 C 
BRANCH  28  29
ATOM     29  O   UNL     1      -0.320  -4.633   4.048  1.00  0.00    -0.376 OA
BRANCH  29  30
ATOM     30  C   UNL     1      -0.438  -4.501   5.460  1.00  0.00     0.202 C 
BRANCH  30  31
ATOM     31  C   UNL     1       0.359  -3.327   6.041  1.00  0.00     0.261 C 
BRANCH  31  32
ATOM     32  O   UNL     1       1.784  -3.464   5.945  1.00  0.00    -0.460 OA
BRANCH  32  33
ATOM     33  C   UNL     1       2.341  -4.535   6.549  1.00  0.00     0.338 C 
ATOM     34  O   UNL     1       1.778  -5.374   7.229  1.00  0.00    -0.246 OA
BRANCH  33  35
ATOM     35  C   UNL     1       3.740  -4.633   6.092  1.00  0.00     0.060 A 
ATOM     36  C   UNL     1       4.178  -5.832   5.515  1.00  0.00     0.016 A 
ATOM     37  C   UNL     1       4.608  -3.549   6.235  1.00  0.00     0.016 A 
ATOM     38  C   UNL     1       5.509  -5.964   5.122  1.00  0.00     0.010 A 
ATOM     39  C   UNL     1       5.942  -3.688   5.854  1.00  0.00     0.010 A 
ATOM     40  C   UNL     1       6.405  -4.907   5.332  1.00  0.00    -0.014 A 
BRANCH  40  41
ATOM     41  C   UNL     1       7.862  -5.132   5.196  1.00  0.00     0.031 A 
ATOM     42  C   UNL     1       8.644  -5.487   6.430  1.00  0.00     0.074 A 
ATOM     43  C   UNL     1       8.482  -4.991   4.012  1.00  0.00     0.049 A 
ATOM     44  N   UNL     1       9.926  -5.697   6.566  1.00  0.00    -0.248 NA
ATOM     45  C   UNL     1       7.875  -5.616   7.681  1.00  0.00     0.031 C 
ATOM     46  C   UNL     1       7.832  -4.637   2.752  1.00  0.00     0.029 A 
ATOM     47  N   UNL     1       9.812  -5.101   3.689  1.00  0.00    -0.354 N 
ATOM     48  C   UNL     1      10.122  -5.963   7.916  1.00  0.00     0.074 A 
ATOM     49  C   UNL     1       8.831  -5.874   8.561  1.00  0.00     0.031 C 
ATOM     50  C   UNL     1       8.771  -4.526   1.796  1.00  0.00     0.029 A 
ATOM     51  C   UNL     1      10.087  -4.786   2.380  1.00  0.00     0.049 A 
ATOM     52  H   UNL     1      10.502  -5.379   4.333  1.00  0.00     0.167 HD
ATOM     53  C   UNL     1      11.271  -6.272   8.559  1.00  0.00     0.034 A 
ATOM     54  C   UNL     1      11.268  -4.702   1.736  1.00  0.00     0.034 A 
ATOM     55  C   UNL     1      12.552  -6.370   7.917  1.00  0.00     0.049 A 
ATOM     56  C   UNL     1      12.538  -5.032   2.481  1.00  0.00     0.074 A 
ATOM     57  C   UNL     1      13.768  -6.722   8.473  1.00  0.00     0.029 A 
ATOM     58  N   UNL     1      12.785  -6.100   6.578  1.00  0.00    -0.354 N 
ATOM     59  N   UNL     1      12.690  -5.422   3.724  1.00  0.00    -0.248 NA
ATOM     60  C   UNL     1      13.796  -4.942   1.724  1.00  0.00     0.031 C 
ATOM     61  C   UNL     1      14.742  -6.648   7.472  1.00  0.00     0.029 A 
ATOM     62  C   UNL     1      14.128  -6.267   6.289  1.00  0.00     0.049 A 
ATOM     63  H   UNL     1      12.097  -5.829   5.928  1.00  0.00     0.167 HD
ATOM     64  C   UNL     1      14.052  -5.659   3.887  1.00  0.00     0.074 A 
ATOM     65  C   UNL     1      14.678  -5.386   2.610  1.00  0.00     0.031 C 
ATOM     66  C   UNL     1      14.726  -6.051   4.997  1.00  0.00     0.034 A 
BRANCH  53  67
ATOM     67  C   UNL     1      11.183  -6.564  10.032  1.00  0.00     0.023 A 
ATOM     68  C   UNL     1      10.629  -7.787  10.462  1.00  0.00     0.012 A 
ATOM     69  C   UNL     1      11.679  -5.654  10.984  1.00  0.00     0.148 A 
ATOM     70  C   UNL     1      10.545  -8.089  11.820  1.00  0.00     0.002 A 
ATOM     71  C   UNL     1      11.627  -5.979  12.335  1.00  0.00     0.091 A 
ATOM     72  F   UNL     1      12.173  -4.485  10.555  1.00  0.00    -0.205 F 
ATOM     73  C   UNL     1      11.053  -7.191  12.754  1.00  0.00     0.022 A 
BRANCH  71  74
ATOM     74  S   UNL     1      12.316  -4.918  13.609  1.00  0.00     0.127 S 
ATOM     75  O   UNL     1      11.107  -4.373  14.224  1.00  0.00    -0.237 OA
ATOM     76  O   UNL     1      13.048  -5.871  14.444  1.00  0.00    -0.237 OA
ATOM     77  O   UNL     1      13.156  -3.953  12.914  1.00  0.00    -0.744 OA
ENDBRANCH  71  74
ENDBRANCH  53  67
BRANCH  54  78
ATOM     78  C   UNL     1      11.307  -4.332   0.293  1.00  0.00     0.023 A 
ATOM     79  C   UNL     1      11.669  -5.303  -0.661  1.00  0.00     0.012 A 
ATOM     80  C   UNL     1      10.976  -3.034  -0.141  1.00  0.00     0.148 A 
ATOM     81  C   UNL     1      11.730  -4.981  -2.017  1.00  0.00     0.002 A 
ATOM     82  C   UNL     1      10.986  -2.733  -1.498  1.00  0.00     0.091 A 
ATOM     83  F   UNL     1      10.654  -2.118   0.783  1.00  0.00    -0.205 F 
ATOM     84  C   UNL     1      11.379  -3.700  -2.437  1.00  0.00     0.022 A 
BRANCH  82  85
ATOM     85  S   UNL     1      10.429  -1.150  -2.137  1.00  0.00     0.127 S 
ATOM     86  O   UNL     1      11.688  -0.532  -2.547  1.00  0.00    -0.237 OA
ATOM     87  O   UNL     1       9.555  -1.558  -3.238  1.00  0.00    -0.237 OA
ATOM     88  O   UNL     1       9.736  -0.504  -1.030  1.00  0.00    -0.744 OA
ENDBRANCH  82  85
ENDBRANCH  54  78
BRANCH  66  89
ATOM     89  C   UNL     1      16.215  -6.245   4.884  1.00  0.00     0.023 A 
ATOM     90  C   UNL     1      17.062  -5.122   4.807  1.00  0.00     0.012 A 
ATOM     91  C   UNL     1      16.780  -7.535   4.948  1.00  0.00     0.148 A 
ATOM     92  C   UNL     1      18.447  -5.280   4.769  1.00  0.00     0.002 A 
ATOM     93  C   UNL     1      18.163  -7.682   4.955  1.00  0.00     0.091 A 
ATOM     94  F   UNL     1      15.957  -8.593   5.002  1.00  0.00    -0.205 F 
ATOM     95  C   UNL     1      18.997  -6.558   4.856  1.00  0.00     0.022 A 
BRANCH  93  96
ATOM     96  S   UNL     1      18.955  -9.282   5.160  1.00  0.00     0.127 S 
ATOM     97  O   UNL     1      19.411  -9.566   3.801  1.00  0.00    -0.237 OA
ATOM     98  O   UNL     1      20.025  -8.982   6.112  1.00  0.00    -0.237 OA
ATOM     99  O   UNL     1      17.925 -10.174   5.676  1.00  0.00    -0.744 OA
ENDBRANCH  93  96
ENDBRANCH  66  89
ENDBRANCH  40  41
ENDBRANCH  33  35
ENDBRANCH  32  33
ENDBRANCH  31  32
ENDBRANCH  30  31
ENDBRANCH  29  30
ENDBRANCH  28  29
ENDBRANCH  27  28
ENDBRANCH   1  27
TORSDOF 26
