REMARK SMILES CCc1ccc(C[N@H+]2CC[C@@H](C(=O)OCCOCCOCCOCCOC(=O)c3ccc(-c4c5nc(c(-c6cccc(S(=O)(=O)[O-])c6F)c6ccc([nH]6)c(-c6cccc(S(=O)(=O)[O-])c6F)c6nc(c(-c7cccc(S(=O)(=O)[O-])c7F)c7ccc4[nH]7)C=C6)C=C5)cc3)[C@@H]2C)s1
REMARK SMILES IDX 20 1 19 2 18 3 17 4 16 5 15 6 14 7 12 8 13 9 11 10 8 11 9 12
REMARK SMILES IDX 92 13 10 15 93 16 7 17 6 18 3 19 4 20 94 21 5 22 2 23 1 24
REMARK SMILES IDX 21 25 22 26 23 27 24 28 25 29 26 30 27 31 28 32 29 33 30 34
REMARK SMILES IDX 91 35 31 36 90 37 32 38 33 39 34 40 84 41 35 42 89 43 83 44
REMARK SMILES IDX 85 45 36 46 88 47 82 48 81 49 37 51 69 52 49 53 68 54 50 55
REMARK SMILES IDX 53 56 67 57 86 58 51 59 52 60 66 62 87 63 54 64 38 65 39 66
REMARK SMILES IDX 47 67 40 68 42 69 48 70 41 71 43 72 44 73 45 74 46 75 70 76
REMARK SMILES IDX 71 77 79 78 72 79 74 80 80 81 73 82 75 83 76 84 77 85 78 86
REMARK SMILES IDX 55 87 56 88 64 89 57 90 59 91 65 92 58 93 60 94 61 95 62 96
REMARK SMILES IDX 63 97
REMARK H PARENT 8 14 85 50 53 61
REMARK Flexibility Score: inf
ROOT
ATOM      1  O   UNL     1      -0.428  -6.657  -0.613  1.00  0.00    -0.377 OA
ENDROOT
BRANCH   1   2
ATOM      2  C   UNL     1      -1.370  -6.192   0.314  1.00  0.00     0.188 C 
BRANCH   2   3
ATOM      3  C   UNL     1      -2.841  -6.063  -0.085  1.00  0.00     0.188 C 
BRANCH   3   4
ATOM      4  O   UNL     1      -3.264  -5.032  -0.959  1.00  0.00    -0.376 OA
BRANCH   4   5
ATOM      5  C   UNL     1      -2.808  -3.697  -0.858  1.00  0.00     0.202 C 
BRANCH   5   6
ATOM      6  C   UNL     1      -2.620  -2.950   0.475  1.00  0.00     0.261 C 
BRANCH   6   7
ATOM      7  O   UNL     1      -1.949  -3.641   1.545  1.00  0.00    -0.463 OA
BRANCH   7   8
ATOM      8  C   UNL     1      -2.723  -4.071   2.569  1.00  0.00     0.315 C 
ATOM      9  O   UNL     1      -3.941  -3.916   2.604  1.00  0.00    -0.252 OA
BRANCH   8  10
ATOM     10  C   UNL     1      -1.979  -4.716   3.732  1.00  0.00     0.162 C 
ATOM     11  N   UNL     1       0.238  -5.259   4.558  1.00  0.00    -0.328 N 
ATOM     12  C   UNL     1      -0.413  -4.346   5.491  1.00  0.00     0.263 C 
ATOM     13  C   UNL     1      -0.743  -5.609   3.516  1.00  0.00     0.195 C 
ATOM     14  H   UNL     1       0.511  -6.103   5.062  1.00  0.00     0.348 HD
ATOM     15  C   UNL     1      -1.504  -3.649   4.702  1.00  0.00     0.083 C 
ATOM     16  C   UNL     1      -1.081  -7.095   3.720  1.00  0.00     0.076 C 
BRANCH  11  17
ATOM     17  C   UNL     1       1.558  -4.822   4.055  1.00  0.00     0.310 C 
BRANCH  17  18
ATOM     18  C   UNL     1       1.586  -3.534   3.274  1.00  0.00     0.059 A 
ATOM     19  C   UNL     1       1.390  -1.824   1.488  1.00  0.00     0.005 A 
ATOM     20  C   UNL     1       1.667  -1.268   2.720  1.00  0.00     0.016 A 
ATOM     21  S   UNL     1       1.460  -3.534   1.564  1.00  0.00    -0.139 S 
ATOM     22  C   UNL     1       1.791  -2.252   3.744  1.00  0.00     0.021 A 
BRANCH  19  23
ATOM     23  C   UNL     1       1.039  -1.164   0.186  1.00  0.00     0.043 C 
ATOM     24  C   UNL     1       1.618   0.227   0.004  1.00  0.00     0.010 C 
ENDBRANCH  19  23
ENDBRANCH  17  18
ENDBRANCH  11  17
ENDBRANCH   8  10
ENDBRANCH   7   8
ENDBRANCH   6   7
ENDBRANCH   5   6
ENDBRANCH   4   5
ENDBRANCH   3   4
ENDBRANCH   2   3
ENDBRANCH   1   2
BRANCH   1  25
ATOM     25  C   UNL     1      -0.165  -5.771  -1.673  1.00  0.00     0.188 C 
BRANCH  25  26
ATOM     26  C   UNL     1      -0.823  -6.244  -2.967  1.00  0.00     0.188 C 
BRANCH  26  27
ATOM     27  O   UNL     1      -1.457  -7.514  -3.052  1.00  0.00    -0.376 OA
BRANCH  27  28
ATOM     28  C   UNL     1      -1.088  -8.611  -2.231  1.00  0.00     0.202 C 
BRANCH  28  29
ATOM     29  C   UNL     1       0.373  -9.058  -1.998  1.00  0.00     0.261 C 
BRANCH  29  30
ATOM     30  O   UNL     1       1.418  -8.095  -2.141  1.00  0.00    -0.460 OA
BRANCH  30  31
ATOM     31  C   UNL     1       1.895  -7.916  -3.389  1.00  0.00     0.338 C 
ATOM     32  O   UNL     1       1.522  -8.473  -4.409  1.00  0.00    -0.246 OA
BRANCH  31  33
ATOM     33  C   UNL     1       2.864  -6.801  -3.357  1.00  0.00     0.060 A 
ATOM     34  C   UNL     1       2.608  -5.668  -4.140  1.00  0.00     0.016 A 
ATOM     35  C   UNL     1       4.017  -6.873  -2.571  1.00  0.00     0.016 A 
ATOM     36  C   UNL     1       3.519  -4.616  -4.168  1.00  0.00     0.010 A 
ATOM     37  C   UNL     1       4.949  -5.833  -2.628  1.00  0.00     0.010 A 
ATOM     38  C   UNL     1       4.720  -4.720  -3.457  1.00  0.00    -0.014 A 
BRANCH  38  39
ATOM     39  C   UNL     1       5.826  -3.786  -3.773  1.00  0.00     0.031 A 
ATOM     40  C   UNL     1       6.865  -4.239  -4.764  1.00  0.00     0.074 A 
ATOM     41  C   UNL     1       5.894  -2.562  -3.221  1.00  0.00     0.049 A 
ATOM     42  N   UNL     1       7.951  -3.633  -5.163  1.00  0.00    -0.248 NA
ATOM     43  C   UNL     1       6.647  -5.556  -5.391  1.00  0.00     0.031 C 
ATOM     44  C   UNL     1       4.931  -2.002  -2.274  1.00  0.00     0.029 A 
ATOM     45  N   UNL     1       6.838  -1.576  -3.365  1.00  0.00    -0.354 N 
ATOM     46  C   UNL     1       8.553  -4.497  -6.070  1.00  0.00     0.074 A 
ATOM     47  C   UNL     1       7.725  -5.678  -6.150  1.00  0.00     0.031 C 
ATOM     48  C   UNL     1       5.355  -0.784  -1.892  1.00  0.00     0.029 A 
ATOM     49  C   UNL     1       6.630  -0.492  -2.545  1.00  0.00     0.049 A 
ATOM     50  H   UNL     1       7.592  -1.639  -3.995  1.00  0.00     0.167 HD
ATOM     51  C   UNL     1       9.685  -4.316  -6.788  1.00  0.00     0.034 A 
ATOM     52  C   UNL     1       7.402   0.592  -2.326  1.00  0.00     0.034 A 
ATOM     53  C   UNL     1      10.504  -3.139  -6.710  1.00  0.00     0.049 A 
ATOM     54  C   UNL     1       8.695   0.737  -3.093  1.00  0.00     0.074 A 
ATOM     55  C   UNL     1      11.672  -2.857  -7.395  1.00  0.00     0.029 A 
ATOM     56  N   UNL     1      10.244  -2.050  -5.894  1.00  0.00    -0.354 N 
ATOM     57  N   UNL     1       9.209  -0.049  -4.009  1.00  0.00    -0.248 NA
ATOM     58  C   UNL     1       9.501   1.937  -2.819  1.00  0.00     0.031 C 
ATOM     59  C   UNL     1      12.132  -1.606  -6.976  1.00  0.00     0.029 A 
ATOM     60  C   UNL     1      11.229  -1.093  -6.058  1.00  0.00     0.049 A 
ATOM     61  H   UNL     1       9.473  -1.970  -5.287  1.00  0.00     0.167 HD
ATOM     62  C   UNL     1      10.365   0.586  -4.454  1.00  0.00     0.074 A 
ATOM     63  C   UNL     1      10.467   1.829  -3.721  1.00  0.00     0.031 C 
ATOM     64  C   UNL     1      11.271   0.173  -5.375  1.00  0.00     0.034 A 
BRANCH  51  65
ATOM     65  C   UNL     1      10.089  -5.402  -7.747  1.00  0.00     0.023 A 
ATOM     66  C   UNL     1       9.359  -5.582  -8.940  1.00  0.00     0.012 A 
ATOM     67  C   UNL     1      11.229  -6.194  -7.507  1.00  0.00     0.148 A 
ATOM     68  C   UNL     1       9.744  -6.547  -9.869  1.00  0.00     0.002 A 
ATOM     69  C   UNL     1      11.633  -7.122  -8.459  1.00  0.00     0.091 A 
ATOM     70  F   UNL     1      11.897  -6.019  -6.358  1.00  0.00    -0.205 F 
ATOM     71  C   UNL     1      10.886  -7.307  -9.634  1.00  0.00     0.022 A 
BRANCH  69  72
ATOM     72  S   UNL     1      13.132  -8.098  -8.291  1.00  0.00     0.127 S 
ATOM     73  O   UNL     1      12.592  -9.454  -8.197  1.00  0.00    -0.237 OA
ATOM     74  O   UNL     1      13.828  -7.804  -9.544  1.00  0.00    -0.237 OA
ATOM     75  O   UNL     1      13.799  -7.613  -7.091  1.00  0.00    -0.744 OA
ENDBRANCH  69  72
ENDBRANCH  51  65
BRANCH  52  76
ATOM     76  C   UNL     1       6.989   1.640  -1.347  1.00  0.00     0.023 A 
ATOM     77  C   UNL     1       6.707   2.945  -1.799  1.00  0.00     0.012 A 
ATOM     78  C   UNL     1       6.920   1.365   0.033  1.00  0.00     0.148 A 
ATOM     79  C   UNL     1       6.425   3.968  -0.892  1.00  0.00     0.002 A 
ATOM     80  C   UNL     1       6.576   2.374   0.925  1.00  0.00     0.091 A 
ATOM     81  F   UNL     1       7.206   0.124   0.450  1.00  0.00    -0.205 F 
ATOM     82  C   UNL     1       6.353   3.682   0.468  1.00  0.00     0.022 A 
BRANCH  80  83
ATOM     83  S   UNL     1       6.334   2.068   2.678  1.00  0.00     0.127 S 
ATOM     84  O   UNL     1       7.499   2.727   3.261  1.00  0.00    -0.237 OA
ATOM     85  O   UNL     1       5.056   2.737   2.928  1.00  0.00    -0.237 OA
ATOM     86  O   UNL     1       6.287   0.619   2.821  1.00  0.00    -0.744 OA
ENDBRANCH  80  83
ENDBRANCH  52  76
BRANCH  64  87
ATOM     87  C   UNL     1      12.412   1.101  -5.707  1.00  0.00     0.023 A 
ATOM     88  C   UNL     1      13.451   1.307  -4.779  1.00  0.00     0.012 A 
ATOM     89  C   UNL     1      12.489   1.705  -6.978  1.00  0.00     0.148 A 
ATOM     90  C   UNL     1      14.531   2.130  -5.097  1.00  0.00     0.002 A 
ATOM     91  C   UNL     1      13.594   2.479  -7.308  1.00  0.00     0.091 A 
ATOM     92  F   UNL     1      11.483   1.506  -7.842  1.00  0.00    -0.205 F 
ATOM     93  C   UNL     1      14.608   2.705  -6.364  1.00  0.00     0.022 A 
BRANCH  91  94
ATOM     94  S   UNL     1      13.830   3.177  -8.946  1.00  0.00     0.127 S 
ATOM     95  O   UNL     1      13.649   4.605  -8.690  1.00  0.00    -0.237 OA
ATOM     96  O   UNL     1      15.205   2.782  -9.254  1.00  0.00    -0.237 OA
ATOM     97  O   UNL     1      12.818   2.564  -9.796  1.00  0.00    -0.744 OA
ENDBRANCH  91  94
ENDBRANCH  64  87
ENDBRANCH  38  39
ENDBRANCH  31  33
ENDBRANCH  30  31
ENDBRANCH  29  30
ENDBRANCH  28  29
ENDBRANCH  27  28
ENDBRANCH  26  27
ENDBRANCH  25  26
ENDBRANCH   1  25
TORSDOF 26
