REMARK SMILES CCc1ccc(-c2cc(Cl)cc3c2O[C@@H](C(F)(F)F)C(C(=O)OCCOCCOCCOCCOC(=O)c2ccc(-c4c5nc(c(-c6cccc(S(=O)(=O)[O-])c6F)c6ccc([nH]6)c(-c6cccc(S(=O)(=O)[O-])c6F)c6nc(c(-c7cccc(S(=O)(=O)[O-])c7F)c7ccc4[nH]7)C=C6)C=C5)cc2)=C3)cc1
REMARK SMILES IDX 30 1 29 2 28 3 27 4 26 5 25 6 24 7 23 8 21 9 22 10 20 11
REMARK SMILES IDX 7 12 8 13 13 14 9 15 12 16 14 17 10 18 11 19 101 20 15 21
REMARK SMILES IDX 6 22 3 23 4 24 103 25 5 26 102 27 2 28 1 29 16 30 17 31
REMARK SMILES IDX 18 32 19 33 31 34 32 35 33 36 34 37 35 38 36 39 37 40 38 41
REMARK SMILES IDX 39 42 100 43 40 44 99 45 41 46 42 47 43 48 93 49 44 50 98 51
REMARK SMILES IDX 92 52 94 53 45 54 97 55 91 56 90 57 46 59 78 60 58 61 77 62
REMARK SMILES IDX 59 63 62 64 76 65 95 66 60 67 61 68 75 70 96 71 63 72 47 73
REMARK SMILES IDX 48 74 56 75 49 76 51 77 57 78 50 79 52 80 53 81 54 82 55 83
REMARK SMILES IDX 79 84 80 85 88 86 81 87 83 88 89 89 82 90 84 91 85 92 86 93
REMARK SMILES IDX 87 94 64 95 65 96 73 97 66 98 68 99 74 100 67 101 69 102
REMARK SMILES IDX 70 103 71 104 72 105
REMARK H PARENT 94 58 62 69
REMARK Flexibility Score: inf
ROOT
ATOM      1  C   UNL     1      -0.417 -11.389   8.107  1.00  0.00     0.188 C 
ENDROOT
BRANCH   1   2
ATOM      2  O   UNL     1      -0.286 -10.050   8.572  1.00  0.00    -0.377 OA
BRANCH   2   3
ATOM      3  C   UNL     1      -0.374  -9.017   7.613  1.00  0.00     0.188 C 
BRANCH   3   4
ATOM      4  C   UNL     1       0.971  -8.730   6.932  1.00  0.00     0.188 C 
BRANCH   4   5
ATOM      5  O   UNL     1       1.989  -9.681   7.228  1.00  0.00    -0.376 OA
BRANCH   5   6
ATOM      6  C   UNL     1       2.859  -9.408   8.327  1.00  0.00     0.202 C 
BRANCH   6   7
ATOM      7  C   UNL     1       2.240  -8.931   9.649  1.00  0.00     0.261 C 
BRANCH   7   8
ATOM      8  O   UNL     1       1.652  -7.618   9.492  1.00  0.00    -0.460 OA
BRANCH   8   9
ATOM      9  C   UNL     1       2.485  -6.581   9.667  1.00  0.00     0.338 C 
ATOM     10  O   UNL     1       3.639  -6.670  10.071  1.00  0.00    -0.246 OA
BRANCH   9  11
ATOM     11  C   UNL     1       1.936  -5.309   9.132  1.00  0.00     0.087 C 
ATOM     12  C   UNL     1       1.244  -5.338   5.043  1.00  0.00     0.026 A 
ATOM     13  C   UNL     1       2.194  -6.213   4.460  1.00  0.00     0.033 A 
ATOM     14  C   UNL     1       1.387  -5.103   6.425  1.00  0.00     0.135 A 
ATOM     15  C   UNL     1       3.357  -6.576   5.136  1.00  0.00     0.042 A 
ATOM     16  C   UNL     1       2.655  -5.269   7.007  1.00  0.00     0.019 A 
ATOM     17  O   UNL     1       0.279  -4.933   7.249  1.00  0.00    -0.475 OA
ATOM     18  Cl  UNL     1       4.487  -7.629   4.386  1.00  0.00    -0.084 Cl
ATOM     19  C   UNL     1       3.640  -6.020   6.373  1.00  0.00     0.032 A 
ATOM     20  C   UNL     1       2.874  -4.725   8.364  1.00  0.00     0.027 C 
ATOM     21  C   UNL     1       0.509  -4.974   8.730  1.00  0.00     0.316 C 
BRANCH  12  22
ATOM     22  C   UNL     1       0.604  -4.386   4.074  1.00  0.00    -0.015 A 
ATOM     23  C   UNL     1       0.392  -2.609   1.824  1.00  0.00    -0.048 A 
ATOM     24  C   UNL     1       0.006  -3.954   1.732  1.00  0.00     0.004 A 
ATOM     25  C   UNL     1       0.772  -2.135   3.082  1.00  0.00     0.004 A 
ATOM     26  C   UNL     1       0.098  -4.823   2.836  1.00  0.00     0.009 A 
ATOM     27  C   UNL     1       0.870  -3.006   4.186  1.00  0.00     0.009 A 
BRANCH  23  28
ATOM     28  C   UNL     1       0.400  -1.772   0.560  1.00  0.00     0.032 C 
ATOM     29  C   UNL     1       1.031  -0.383   0.628  1.00  0.00     0.009 C 
ENDBRANCH  23  28
ENDBRANCH  12  22
BRANCH  21  30
ATOM     30  C   UNL     1      -0.650  -5.561   9.575  1.00  0.00     0.430 C 
ATOM     31  F   UNL     1      -0.684  -4.936  10.784  1.00  0.00    -0.167 F 
ATOM     32  F   UNL     1      -1.849  -5.322   8.990  1.00  0.00    -0.167 F 
ATOM     33  F   UNL     1      -0.590  -6.873   9.830  1.00  0.00    -0.167 F 
ENDBRANCH  21  30
ENDBRANCH   9  11
ENDBRANCH   8   9
ENDBRANCH   7   8
ENDBRANCH   6   7
ENDBRANCH   5   6
ENDBRANCH   4   5
ENDBRANCH   3   4
ENDBRANCH   2   3
ENDBRANCH   1   2
BRANCH   1  34
ATOM     34  C   UNL     1      -0.012 -11.769   6.666  1.00  0.00     0.188 C 
BRANCH  34  35
ATOM     35  O   UNL     1      -0.533 -10.905   5.654  1.00  0.00    -0.376 OA
BRANCH  35  36
ATOM     36  C   UNL     1      -1.628 -11.392   4.890  1.00  0.00     0.202 C 
BRANCH  36  37
ATOM     37  C   UNL     1      -2.985 -11.305   5.602  1.00  0.00     0.261 C 
BRANCH  37  38
ATOM     38  O   UNL     1      -3.104 -12.130   6.770  1.00  0.00    -0.460 OA
BRANCH  38  39
ATOM     39  C   UNL     1      -2.932 -13.458   6.597  1.00  0.00     0.338 C 
ATOM     40  O   UNL     1      -2.786 -14.045   5.537  1.00  0.00    -0.246 OA
BRANCH  39  41
ATOM     41  C   UNL     1      -2.738 -14.075   7.923  1.00  0.00     0.060 A 
ATOM     42  C   UNL     1      -1.608 -14.877   8.123  1.00  0.00     0.016 A 
ATOM     43  C   UNL     1      -3.653 -13.863   8.958  1.00  0.00     0.016 A 
ATOM     44  C   UNL     1      -1.423 -15.523   9.343  1.00  0.00     0.010 A 
ATOM     45  C   UNL     1      -3.475 -14.523  10.175  1.00  0.00     0.010 A 
ATOM     46  C   UNL     1      -2.385 -15.392  10.354  1.00  0.00    -0.014 A 
BRANCH  46  47
ATOM     47  C   UNL     1      -2.366 -16.342  11.490  1.00  0.00     0.031 A 
ATOM     48  C   UNL     1      -3.204 -17.588  11.382  1.00  0.00     0.074 A 
ATOM     49  C   UNL     1      -1.617 -16.118  12.584  1.00  0.00     0.049 A 
ATOM     50  N   UNL     1      -3.313 -18.587  12.216  1.00  0.00    -0.248 NA
ATOM     51  C   UNL     1      -4.032 -17.724  10.170  1.00  0.00     0.031 C 
ATOM     52  C   UNL     1      -0.784 -14.941  12.816  1.00  0.00     0.029 A 
ATOM     53  N   UNL     1      -1.460 -16.873  13.720  1.00  0.00    -0.354 N 
ATOM     54  C   UNL     1      -4.233 -19.457  11.644  1.00  0.00     0.074 A 
ATOM     55  C   UNL     1      -4.663 -18.865  10.397  1.00  0.00     0.031 C 
ATOM     56  C   UNL     1      -0.225 -15.037  14.036  1.00  0.00     0.029 A 
ATOM     57  C   UNL     1      -0.667 -16.279  14.671  1.00  0.00     0.049 A 
ATOM     58  H   UNL     1      -1.877 -17.757  13.841  1.00  0.00     0.167 HD
ATOM     59  C   UNL     1      -4.667 -20.652  12.104  1.00  0.00     0.034 A 
ATOM     60  C   UNL     1      -0.346 -16.689  15.916  1.00  0.00     0.034 A 
ATOM     61  C   UNL     1      -4.223 -21.252  13.330  1.00  0.00     0.049 A 
ATOM     62  C   UNL     1      -0.844 -18.028  16.402  1.00  0.00     0.074 A 
ATOM     63  C   UNL     1      -4.549 -22.494  13.845  1.00  0.00     0.029 A 
ATOM     64  N   UNL     1      -3.374 -20.648  14.242  1.00  0.00    -0.354 N 
ATOM     65  N   UNL     1      -1.575 -18.917  15.774  1.00  0.00    -0.248 NA
ATOM     66  C   UNL     1      -0.438 -18.437  17.756  1.00  0.00     0.031 C 
ATOM     67  C   UNL     1      -3.918 -22.628  15.085  1.00  0.00     0.029 A 
ATOM     68  C   UNL     1      -3.179 -21.481  15.328  1.00  0.00     0.049 A 
ATOM     69  H   UNL     1      -2.969 -19.757  14.133  1.00  0.00     0.167 HD
ATOM     70  C   UNL     1      -1.688 -20.001  16.640  1.00  0.00     0.074 A 
ATOM     71  C   UNL     1      -0.929 -19.667  17.827  1.00  0.00     0.031 C 
ATOM     72  C   UNL     1      -2.373 -21.160  16.477  1.00  0.00     0.034 A 
BRANCH  59  73
ATOM     73  C   UNL     1      -5.654 -21.409  11.259  1.00  0.00     0.023 A 
ATOM     74  C   UNL     1      -5.215 -22.057  10.087  1.00  0.00     0.012 A 
ATOM     75  C   UNL     1      -6.997 -21.533  11.661  1.00  0.00     0.148 A 
ATOM     76  C   UNL     1      -6.105 -22.801   9.315  1.00  0.00     0.002 A 
ATOM     77  C   UNL     1      -7.869 -22.310  10.908  1.00  0.00     0.091 A 
ATOM     78  F   UNL     1      -7.397 -20.886  12.764  1.00  0.00    -0.205 F 
ATOM     79  C   UNL     1      -7.427 -22.937   9.731  1.00  0.00     0.022 A 
BRANCH  77  80
ATOM     80  S   UNL     1      -9.571 -22.606  11.396  1.00  0.00     0.127 S 
ATOM     81  O   UNL     1     -10.305 -21.868  10.369  1.00  0.00    -0.237 OA
ATOM     82  O   UNL     1      -9.671 -24.062  11.290  1.00  0.00    -0.237 OA
ATOM     83  O   UNL     1      -9.699 -22.084  12.749  1.00  0.00    -0.744 OA
ENDBRANCH  77  80
ENDBRANCH  59  73
BRANCH  60  84
ATOM     84  C   UNL     1       0.518 -15.840  16.785  1.00  0.00     0.023 A 
ATOM     85  C   UNL     1       1.819 -16.270  17.109  1.00  0.00     0.012 A 
ATOM     86  C   UNL     1       0.053 -14.614  17.298  1.00  0.00     0.148 A 
ATOM     87  C   UNL     1       2.628 -15.513  17.959  1.00  0.00     0.002 A 
ATOM     88  C   UNL     1       0.883 -13.839  18.100  1.00  0.00     0.091 A 
ATOM     89  F   UNL     1      -1.196 -14.232  16.998  1.00  0.00    -0.205 F 
ATOM     90  C   UNL     1       2.164 -14.294  18.446  1.00  0.00     0.022 A 
BRANCH  88  91
ATOM     91  S   UNL     1       0.408 -12.202  18.669  1.00  0.00     0.127 S 
ATOM     92  O   UNL     1       0.108 -12.450  20.076  1.00  0.00    -0.237 OA
ATOM     93  O   UNL     1       1.626 -11.429  18.425  1.00  0.00    -0.237 OA
ATOM     94  O   UNL     1      -0.722 -11.815  17.835  1.00  0.00    -0.744 OA
ENDBRANCH  88  91
ENDBRANCH  60  84
BRANCH  72  95
ATOM     95  C   UNL     1      -2.320 -22.174  17.591  1.00  0.00     0.023 A 
ATOM     96  C   UNL     1      -3.026 -21.935  18.786  1.00  0.00     0.012 A 
ATOM     97  C   UNL     1      -1.645 -23.399  17.419  1.00  0.00     0.148 A 
ATOM     98  C   UNL     1      -3.036 -22.887  19.806  1.00  0.00     0.002 A 
ATOM     99  C   UNL     1      -1.700 -24.363  18.419  1.00  0.00     0.091 A 
ATOM    100  F   UNL     1      -0.966 -23.602  16.281  1.00  0.00    -0.205 F 
ATOM    101  C   UNL     1      -2.385 -24.104  19.617  1.00  0.00     0.022 A 
BRANCH  99 102
ATOM    102  S   UNL     1      -0.976 -25.995  18.221  1.00  0.00     0.127 S 
ATOM    103  O   UNL     1       0.216 -25.896  19.061  1.00  0.00    -0.237 OA
ATOM    104  O   UNL     1      -2.023 -26.869  18.749  1.00  0.00    -0.237 OA
ATOM    105  O   UNL     1      -0.726 -26.150  16.794  1.00  0.00    -0.744 OA
ENDBRANCH  99 102
ENDBRANCH  72  95
ENDBRANCH  46  47
ENDBRANCH  39  41
ENDBRANCH  38  39
ENDBRANCH  37  38
ENDBRANCH  36  37
ENDBRANCH  35  36
ENDBRANCH  34  35
ENDBRANCH   1  34
TORSDOF 26
