REMARK SMILES C[NH+]1CCC([N@@H+](CC(=O)OCCOCCOCCOCCOC(=O)c2ccc(-c3c4nc(c(-c5cccc(S(=O)(=O)[O-])c5F)c5ccc([nH]5)c(-c5cccc(S(=O)(=O)[O-])c5F)c5nc(c(-c6cccc(S(=O)(=O)[O-])c6F)c6ccc3[nH]6)C=C5)C=C4)cc2)C(C)(C)C)CC1
REMARK SMILES IDX 17 1 16 2 15 3 14 4 13 5 12 6 11 7 10 8 8 9 9 10 7 11 6 12
REMARK SMILES IDX 5 14 1 15 2 16 3 17 93 18 4 20 92 21 88 22 89 23 90 24 91 25
REMARK SMILES IDX 18 26 19 27 20 28 21 29 22 30 23 31 24 32 25 33 26 34 87 35
REMARK SMILES IDX 27 36 86 37 28 38 29 39 30 40 80 41 31 42 85 43 79 44 81 45
REMARK SMILES IDX 32 46 84 47 78 48 77 49 33 51 65 52 45 53 64 54 46 55 49 56
REMARK SMILES IDX 63 57 82 58 47 59 48 60 62 62 83 63 50 64 34 65 35 66 43 67
REMARK SMILES IDX 36 68 38 69 44 70 37 71 39 72 40 73 41 74 42 75 66 76 67 77
REMARK SMILES IDX 75 78 68 79 70 80 76 81 69 82 71 83 72 84 73 85 74 86 51 87
REMARK SMILES IDX 52 88 60 89 53 90 55 91 61 92 54 93 56 94 57 95 58 96 59 97
REMARK H PARENT 6 13 2 19 81 50 49 61
REMARK Flexibility Score: inf
ROOT
ATOM      1  C   UNL     1       0.748   2.962   3.549  1.00  0.00     0.188 C 
ENDROOT
BRANCH   1   2
ATOM      2  O   UNL     1       1.977   3.100   2.845  1.00  0.00    -0.377 OA
BRANCH   2   3
ATOM      3  C   UNL     1       3.012   3.877   3.435  1.00  0.00     0.188 C 
BRANCH   3   4
ATOM      4  C   UNL     1       4.032   4.262   2.357  1.00  0.00     0.188 C 
BRANCH   4   5
ATOM      5  O   UNL     1       3.624   5.358   1.533  1.00  0.00    -0.376 OA
BRANCH   5   6
ATOM      6  C   UNL     1       2.397   5.180   0.827  1.00  0.00     0.202 C 
BRANCH   6   7
ATOM      7  C   UNL     1       2.455   4.248  -0.387  1.00  0.00     0.261 C 
BRANCH   7   8
ATOM      8  O   UNL     1       2.795   2.871  -0.113  1.00  0.00    -0.459 OA
BRANCH   8   9
ATOM      9  C   UNL     1       3.856   2.372  -0.797  1.00  0.00     0.361 C 
ATOM     10  O   UNL     1       4.747   3.083  -1.262  1.00  0.00    -0.245 OA
BRANCH   9  11
ATOM     11  C   UNL     1       3.808   0.874  -1.135  1.00  0.00     0.387 C 
BRANCH  11  12
ATOM     12  N   UNL     1       3.041  -0.081  -0.300  1.00  0.00    -0.319 N 
ATOM     13  H   UNL     1       3.288  -1.061  -0.432  1.00  0.00     0.349 HD
BRANCH  12  14
ATOM     14  C   UNL     1       1.620  -0.266  -0.717  1.00  0.00     0.196 C 
ATOM     15  C   UNL     1      -2.709  -0.474  -0.405  1.00  0.00     0.332 C 
ATOM     16  N   UNL     1      -1.269  -0.364  -0.176  1.00  0.00    -0.337 N 
ATOM     17  C   UNL     1      -0.730   0.799  -0.881  1.00  0.00     0.268 C 
ATOM     18  C   UNL     1      -0.577  -1.567  -0.637  1.00  0.00     0.268 C 
ATOM     19  H   UNL     1      -1.119  -0.255   0.827  1.00  0.00     0.347 HD
ATOM     20  C   UNL     1       0.750   0.996  -0.551  1.00  0.00     0.126 C 
ATOM     21  C   UNL     1       0.873  -1.492  -0.163  1.00  0.00     0.126 C 
ENDBRANCH  12  14
BRANCH  12  22
ATOM     22  C   UNL     1       3.606  -0.540   0.989  1.00  0.00     0.090 C 
ATOM     23  C   UNL     1       2.941   0.186   2.151  1.00  0.00     0.078 C 
ATOM     24  C   UNL     1       3.472  -2.067   1.233  1.00  0.00     0.078 C 
ATOM     25  C   UNL     1       5.131  -0.268   1.136  1.00  0.00     0.078 C 
ENDBRANCH  12  22
ENDBRANCH  11  12
ENDBRANCH   9  11
ENDBRANCH   8   9
ENDBRANCH   7   8
ENDBRANCH   6   7
ENDBRANCH   5   6
ENDBRANCH   4   5
ENDBRANCH   3   4
ENDBRANCH   2   3
ENDBRANCH   1   2
BRANCH   1  26
ATOM     26  C   UNL     1       0.759   3.173   5.069  1.00  0.00     0.188 C 
BRANCH  26  27
ATOM     27  O   UNL     1       1.710   2.448   5.847  1.00  0.00    -0.376 OA
BRANCH  27  28
ATOM     28  C   UNL     1       2.003   1.109   5.463  1.00  0.00     0.202 C 
BRANCH  28  29
ATOM     29  C   UNL     1       0.986   0.041   5.863  1.00  0.00     0.261 C 
BRANCH  29  30
ATOM     30  O   UNL     1      -0.186   0.092   5.036  1.00  0.00    -0.460 OA
BRANCH  30  31
ATOM     31  C   UNL     1      -1.276   0.627   5.628  1.00  0.00     0.338 C 
ATOM     32  O   UNL     1      -1.368   1.046   6.768  1.00  0.00    -0.246 OA
BRANCH  31  33
ATOM     33  C   UNL     1      -2.346   0.793   4.633  1.00  0.00     0.060 A 
ATOM     34  C   UNL     1      -2.891   2.074   4.472  1.00  0.00     0.016 A 
ATOM     35  C   UNL     1      -2.892  -0.308   3.972  1.00  0.00     0.016 A 
ATOM     36  C   UNL     1      -4.032   2.249   3.700  1.00  0.00     0.010 A 
ATOM     37  C   UNL     1      -4.047  -0.134   3.211  1.00  0.00     0.010 A 
ATOM     38  C   UNL     1      -4.646   1.136   3.118  1.00  0.00    -0.014 A 
BRANCH  38  39
ATOM     39  C   UNL     1      -6.023   1.267   2.597  1.00  0.00     0.031 A 
ATOM     40  C   UNL     1      -7.163   0.847   3.481  1.00  0.00     0.074 A 
ATOM     41  C   UNL     1      -6.250   1.756   1.367  1.00  0.00     0.049 A 
ATOM     42  N   UNL     1      -8.444   0.836   3.229  1.00  0.00    -0.248 NA
ATOM     43  C   UNL     1      -6.811   0.389   4.837  1.00  0.00     0.031 C 
ATOM     44  C   UNL     1      -5.221   2.238   0.449  1.00  0.00     0.029 A 
ATOM     45  N   UNL     1      -7.419   1.885   0.665  1.00  0.00    -0.354 N 
ATOM     46  C   UNL     1      -9.050   0.357   4.384  1.00  0.00     0.074 A 
ATOM     47  C   UNL     1      -7.997   0.068   5.331  1.00  0.00     0.031 C 
ATOM     48  C   UNL     1      -5.793   2.527  -0.732  1.00  0.00     0.029 A 
ATOM     49  C   UNL     1      -7.226   2.259  -0.642  1.00  0.00     0.049 A 
ATOM     50  H   UNL     1      -8.308   1.727   1.058  1.00  0.00     0.167 HD
ATOM     51  C   UNL     1     -10.369   0.194   4.638  1.00  0.00     0.034 A 
ATOM     52  C   UNL     1      -8.108   2.350  -1.657  1.00  0.00     0.034 A 
ATOM     53  C   UNL     1     -11.406   0.493   3.689  1.00  0.00     0.049 A 
ATOM     54  C   UNL     1      -9.565   2.111  -1.372  1.00  0.00     0.074 A 
ATOM     55  C   UNL     1     -12.776   0.416   3.855  1.00  0.00     0.029 A 
ATOM     56  N   UNL     1     -11.181   0.909   2.385  1.00  0.00    -0.354 N 
ATOM     57  N   UNL     1     -10.139   1.779  -0.240  1.00  0.00    -0.248 NA
ATOM     58  C   UNL     1     -10.502   2.308  -2.486  1.00  0.00     0.031 C 
ATOM     59  C   UNL     1     -13.380   0.756   2.639  1.00  0.00     0.029 A 
ATOM     60  C   UNL     1     -12.386   1.073   1.725  1.00  0.00     0.049 A 
ATOM     61  H   UNL     1     -10.295   1.065   1.987  1.00  0.00     0.167 HD
ATOM     62  C   UNL     1     -11.506   1.769  -0.492  1.00  0.00     0.074 A 
ATOM     63  C   UNL     1     -11.672   2.137  -1.885  1.00  0.00     0.031 C 
ATOM     64  C   UNL     1     -12.530   1.480   0.350  1.00  0.00     0.034 A 
BRANCH  51  65
ATOM     65  C   UNL     1     -10.755  -0.318   6.001  1.00  0.00     0.023 A 
ATOM     66  C   UNL     1     -10.621   0.521   7.127  1.00  0.00     0.012 A 
ATOM     67  C   UNL     1     -11.265  -1.619   6.166  1.00  0.00     0.148 A 
ATOM     68  C   UNL     1     -10.954   0.060   8.400  1.00  0.00     0.002 A 
ATOM     69  C   UNL     1     -11.635  -2.057   7.433  1.00  0.00     0.091 A 
ATOM     70  F   UNL     1     -11.356  -2.412   5.090  1.00  0.00    -0.205 F 
ATOM     71  C   UNL     1     -11.469  -1.225   8.552  1.00  0.00     0.022 A 
BRANCH  69  72
ATOM     72  S   UNL     1     -12.373  -3.670   7.715  1.00  0.00     0.127 S 
ATOM     73  O   UNL     1     -11.267  -4.397   8.336  1.00  0.00    -0.237 OA
ATOM     74  O   UNL     1     -13.477  -3.351   8.622  1.00  0.00    -0.237 OA
ATOM     75  O   UNL     1     -12.787  -4.154   6.406  1.00  0.00    -0.744 OA
ENDBRANCH  69  72
ENDBRANCH  51  65
BRANCH  52  76
ATOM     76  C   UNL     1      -7.624   2.725  -3.013  1.00  0.00     0.023 A 
ATOM     77  C   UNL     1      -7.912   4.002  -3.529  1.00  0.00     0.012 A 
ATOM     78  C   UNL     1      -6.823   1.841  -3.764  1.00  0.00     0.148 A 
ATOM     79  C   UNL     1      -7.426   4.386  -4.779  1.00  0.00     0.002 A 
ATOM     80  C   UNL     1      -6.301   2.249  -4.986  1.00  0.00     0.091 A 
ATOM     81  F   UNL     1      -6.569   0.628  -3.255  1.00  0.00    -0.205 F 
ATOM     82  C   UNL     1      -6.614   3.516  -5.502  1.00  0.00     0.022 A 
BRANCH  80  83
ATOM     83  S   UNL     1      -5.140   1.248  -5.922  1.00  0.00     0.127 S 
ATOM     84  O   UNL     1      -5.927   0.899  -7.101  1.00  0.00    -0.237 OA
ATOM     85  O   UNL     1      -4.053   2.198  -6.163  1.00  0.00    -0.237 OA
ATOM     86  O   UNL     1      -4.782   0.137  -5.050  1.00  0.00    -0.744 OA
ENDBRANCH  80  83
ENDBRANCH  52  76
BRANCH  64  87
ATOM     87  C   UNL     1     -13.929   1.577  -0.199  1.00  0.00     0.023 A 
ATOM     88  C   UNL     1     -14.402   0.594  -1.089  1.00  0.00     0.012 A 
ATOM     89  C   UNL     1     -14.799   2.598   0.233  1.00  0.00     0.148 A 
ATOM     90  C   UNL     1     -15.711   0.642  -1.565  1.00  0.00     0.002 A 
ATOM     91  C   UNL     1     -16.116   2.611  -0.207  1.00  0.00     0.091 A 
ATOM     92  F   UNL     1     -14.322   3.536   1.065  1.00  0.00    -0.205 F 
ATOM     93  C   UNL     1     -16.571   1.642  -1.115  1.00  0.00     0.022 A 
BRANCH  91  94
ATOM     94  S   UNL     1     -17.318   3.802   0.397  1.00  0.00     0.127 S 
ATOM     95  O   UNL     1     -17.470   4.684  -0.759  1.00  0.00    -0.237 OA
ATOM     96  O   UNL     1     -18.480   2.957   0.676  1.00  0.00    -0.237 OA
ATOM     97  O   UNL     1     -16.720   4.412   1.576  1.00  0.00    -0.744 OA
ENDBRANCH  91  94
ENDBRANCH  64  87
ENDBRANCH  38  39
ENDBRANCH  31  33
ENDBRANCH  30  31
ENDBRANCH  29  30
ENDBRANCH  28  29
ENDBRANCH  27  28
ENDBRANCH  26  27
ENDBRANCH   1  26
TORSDOF 26
