REMARK SMILES CCCC[C@H](NS(=O)(=O)c1cccc(Br)c1)C(=O)OCCOCCOCCOCCOC(=O)c1ccc(-c2c3nc(c(-c4cccc(S(=O)(=O)[O-])c4F)c4ccc([nH]4)c(-c4cccc(S(=O)(=O)[O-])c4F)c4nc(c(-c5cccc(S(=O)(=O)[O-])c5F)c5ccc2[nH]5)C=C4)C=C3)cc1
REMARK SMILES IDX 25 1 24 2 23 3 22 4 21 5 20 6 19 7 17 8 18 9 5 10 4 11 3 12
REMARK SMILES IDX 2 13 1 14 6 15 7 17 8 18 9 19 10 20 11 21 16 22 12 23 14 24
REMARK SMILES IDX 13 25 15 26 26 27 27 28 28 29 29 30 30 31 31 32 32 33 33 34
REMARK SMILES IDX 34 35 35 36 96 37 36 38 95 39 37 40 38 41 39 42 89 43 40 44
REMARK SMILES IDX 94 45 88 46 90 47 41 48 93 49 87 50 86 51 42 53 74 54 54 55
REMARK SMILES IDX 73 56 55 57 58 58 72 59 91 60 56 61 57 62 71 64 92 65 59 66
REMARK SMILES IDX 43 67 44 68 52 69 45 70 47 71 53 72 46 73 48 74 49 75 50 76
REMARK SMILES IDX 51 77 75 78 76 79 84 80 77 81 79 82 85 83 78 84 80 85 81 86
REMARK SMILES IDX 82 87 83 88 60 89 61 90 69 91 62 92 64 93 70 94 63 95 65 96
REMARK SMILES IDX 66 97 67 98 68 99
REMARK H PARENT 6 16 90 52 58 63
REMARK Flexibility Score: inf
ROOT
ATOM      1  O   UNL     1      -0.156   2.749   4.293  1.00  0.00    -0.377 OA
ENDROOT
BRANCH   1   2
ATOM      2  C   UNL     1      -0.977   3.034   3.191  1.00  0.00     0.188 C 
BRANCH   2   3
ATOM      3  C   UNL     1      -2.462   3.241   3.472  1.00  0.00     0.188 C 
BRANCH   3   4
ATOM      4  O   UNL     1      -2.899   3.367   4.812  1.00  0.00    -0.376 OA
BRANCH   4   5
ATOM      5  C   UNL     1      -2.741   2.274   5.716  1.00  0.00     0.202 C 
BRANCH   5   6
ATOM      6  C   UNL     1      -3.113   0.848   5.282  1.00  0.00     0.261 C 
BRANCH   6   7
ATOM      7  O   UNL     1      -1.993   0.059   4.785  1.00  0.00    -0.462 OA
BRANCH   7   8
ATOM      8  C   UNL     1      -1.999  -0.251   3.471  1.00  0.00     0.324 C 
ATOM      9  O   UNL     1      -2.826   0.219   2.689  1.00  0.00    -0.250 OA
BRANCH   8  10
ATOM     10  C   UNL     1      -1.051  -1.350   3.022  1.00  0.00     0.179 C 
BRANCH  10  11
ATOM     11  C   UNL     1      -1.779  -2.718   3.147  1.00  0.00     0.032 C 
BRANCH  11  12
ATOM     12  C   UNL     1      -3.204  -2.857   2.611  1.00  0.00     0.002 C 
BRANCH  12  13
ATOM     13  C   UNL     1      -3.422  -2.483   1.145  1.00  0.00    -0.003 C 
ATOM     14  C   UNL     1      -2.568  -3.273   0.170  1.00  0.00     0.004 C 
ENDBRANCH  12  13
ENDBRANCH  11  12
ENDBRANCH  10  11
BRANCH  10  15
ATOM     15  N   UNL     1       0.308  -1.682   3.482  1.00  0.00    -0.197 NA
ATOM     16  H   UNL     1       0.753  -2.107   2.668  1.00  0.00     0.142 HD
BRANCH  15  17
ATOM     17  S   UNL     1       1.469  -0.685   4.112  1.00  0.00     0.241 S 
ATOM     18  O   UNL     1       2.702  -1.414   3.926  1.00  0.00    -0.207 OA
ATOM     19  O   UNL     1       1.301   0.622   3.518  1.00  0.00    -0.207 OA
BRANCH  17  20
ATOM     20  C   UNL     1       1.111  -0.684   5.843  1.00  0.00     0.083 A 
ATOM     21  C   UNL     1       0.363   0.346   6.397  1.00  0.00     0.022 A 
ATOM     22  C   UNL     1       1.590  -1.704   6.662  1.00  0.00     0.037 A 
ATOM     23  C   UNL     1      -0.009   0.331   7.738  1.00  0.00     0.003 A 
ATOM     24  C   UNL     1       1.241  -1.704   8.014  1.00  0.00     0.019 A 
ATOM     25  C   UNL     1       0.422  -0.709   8.549  1.00  0.00     0.016 A 
ATOM     26  Br  UNL     1       1.884  -3.071   9.141  1.00  0.00    -0.051 Br
ENDBRANCH  17  20
ENDBRANCH  15  17
ENDBRANCH  10  15
ENDBRANCH   8  10
ENDBRANCH   7   8
ENDBRANCH   6   7
ENDBRANCH   5   6
ENDBRANCH   4   5
ENDBRANCH   3   4
ENDBRANCH   2   3
ENDBRANCH   1   2
BRANCH   1  27
ATOM     27  C   UNL     1       0.357   3.755   5.144  1.00  0.00     0.188 C 
BRANCH  27  28
ATOM     28  C   UNL     1       0.616   5.169   4.637  1.00  0.00     0.188 C 
BRANCH  28  29
ATOM     29  O   UNL     1       1.227   5.394   3.375  1.00  0.00    -0.376 OA
BRANCH  29  30
ATOM     30  C   UNL     1       2.101   4.421   2.817  1.00  0.00     0.202 C 
BRANCH  30  31
ATOM     31  C   UNL     1       3.527   4.375   3.357  1.00  0.00     0.261 C 
BRANCH  31  32
ATOM     32  O   UNL     1       3.618   3.730   4.635  1.00  0.00    -0.460 OA
BRANCH  32  33
ATOM     33  C   UNL     1       3.828   4.561   5.677  1.00  0.00     0.338 C 
ATOM     34  O   UNL     1       3.884   5.779   5.654  1.00  0.00    -0.246 OA
BRANCH  33  35
ATOM     35  C   UNL     1       3.903   3.792   6.928  1.00  0.00     0.060 A 
ATOM     36  C   UNL     1       3.024   4.141   7.958  1.00  0.00     0.016 A 
ATOM     37  C   UNL     1       4.928   2.868   7.140  1.00  0.00     0.016 A 
ATOM     38  C   UNL     1       3.225   3.630   9.236  1.00  0.00     0.010 A 
ATOM     39  C   UNL     1       5.126   2.356   8.424  1.00  0.00     0.010 A 
ATOM     40  C   UNL     1       4.313   2.783   9.488  1.00  0.00    -0.014 A 
BRANCH  40  41
ATOM     41  C   UNL     1       4.694   2.489  10.890  1.00  0.00     0.031 A 
ATOM     42  C   UNL     1       5.860   3.222  11.501  1.00  0.00     0.074 A 
ATOM     43  C   UNL     1       3.997   1.599  11.616  1.00  0.00     0.049 A 
ATOM     44  N   UNL     1       6.366   3.118  12.702  1.00  0.00    -0.248 NA
ATOM     45  C   UNL     1       6.549   4.200  10.643  1.00  0.00     0.031 C 
ATOM     46  C   UNL     1       2.848   0.836  11.133  1.00  0.00     0.029 A 
ATOM     47  N   UNL     1       4.167   1.173  12.908  1.00  0.00    -0.354 N 
ATOM     48  C   UNL     1       7.449   3.990  12.735  1.00  0.00     0.074 A 
ATOM     49  C   UNL     1       7.535   4.606  11.430  1.00  0.00     0.031 C 
ATOM     50  C   UNL     1       2.430   0.013  12.109  1.00  0.00     0.029 A 
ATOM     51  C   UNL     1       3.297   0.173  13.274  1.00  0.00     0.049 A 
ATOM     52  H   UNL     1       4.846   1.546  13.515  1.00  0.00     0.167 HD
ATOM     53  C   UNL     1       8.288   4.262  13.763  1.00  0.00     0.034 A 
ATOM     54  C   UNL     1       3.228  -0.546  14.411  1.00  0.00     0.034 A 
ATOM     55  C   UNL     1       8.189   3.654  15.063  1.00  0.00     0.049 A 
ATOM     56  C   UNL     1       4.189  -0.241  15.530  1.00  0.00     0.074 A 
ATOM     57  C   UNL     1       8.960   3.893  16.186  1.00  0.00     0.029 A 
ATOM     58  N   UNL     1       7.274   2.671  15.409  1.00  0.00    -0.354 N 
ATOM     59  N   UNL     1       5.135   0.666  15.586  1.00  0.00    -0.248 NA
ATOM     60  C   UNL     1       4.048  -1.035  16.760  1.00  0.00     0.031 C 
ATOM     61  C   UNL     1       8.538   3.026  17.199  1.00  0.00     0.029 A 
ATOM     62  C   UNL     1       7.471   2.281  16.723  1.00  0.00     0.049 A 
ATOM     63  H   UNL     1       6.586   2.304  14.809  1.00  0.00     0.167 HD
ATOM     64  C   UNL     1       5.675   0.579  16.865  1.00  0.00     0.074 A 
ATOM     65  C   UNL     1       4.934  -0.456  17.558  1.00  0.00     0.031 C 
ATOM     66  C   UNL     1       6.696   1.282  17.414  1.00  0.00     0.034 A 
BRANCH  53  67
ATOM     67  C   UNL     1       9.385   5.269  13.527  1.00  0.00     0.023 A 
ATOM     68  C   UNL     1       9.067   6.636  13.386  1.00  0.00     0.012 A 
ATOM     69  C   UNL     1      10.735   4.869  13.499  1.00  0.00     0.148 A 
ATOM     70  C   UNL     1      10.072   7.582  13.184  1.00  0.00     0.002 A 
ATOM     71  C   UNL     1      11.734   5.824  13.346  1.00  0.00     0.091 A 
ATOM     72  F   UNL     1      11.018   3.564  13.615  1.00  0.00    -0.205 F 
ATOM     73  C   UNL     1      11.404   7.178  13.175  1.00  0.00     0.022 A 
BRANCH  71  74
ATOM     74  S   UNL     1      13.483   5.416  13.403  1.00  0.00     0.127 S 
ATOM     75  O   UNL     1      13.889   5.663  12.020  1.00  0.00    -0.237 OA
ATOM     76  O   UNL     1      13.992   6.388  14.370  1.00  0.00    -0.237 OA
ATOM     77  O   UNL     1      13.560   4.028  13.836  1.00  0.00    -0.744 OA
ENDBRANCH  71  74
ENDBRANCH  53  67
BRANCH  54  78
ATOM     78  C   UNL     1       2.191  -1.606  14.561  1.00  0.00     0.023 A 
ATOM     79  C   UNL     1       1.145  -1.430  15.487  1.00  0.00     0.012 A 
ATOM     80  C   UNL     1       2.234  -2.784  13.787  1.00  0.00     0.148 A 
ATOM     81  C   UNL     1       0.181  -2.421  15.668  1.00  0.00     0.002 A 
ATOM     82  C   UNL     1       1.241  -3.744  13.936  1.00  0.00     0.091 A 
ATOM     83  F   UNL     1       3.237  -2.930  12.911  1.00  0.00    -0.205 F 
ATOM     84  C   UNL     1       0.225  -3.574  14.889  1.00  0.00     0.022 A 
BRANCH  82  85
ATOM     85  S   UNL     1       1.149  -5.217  12.913  1.00  0.00     0.127 S 
ATOM     86  O   UNL     1       1.244  -6.281  13.910  1.00  0.00    -0.237 OA
ATOM     87  O   UNL     1      -0.170  -5.065  12.298  1.00  0.00    -0.237 OA
ATOM     88  O   UNL     1       2.270  -5.133  11.989  1.00  0.00    -0.744 OA
ENDBRANCH  82  85
ENDBRANCH  54  78
BRANCH  66  89
ATOM     89  C   UNL     1       7.047   0.998  18.854  1.00  0.00     0.023 A 
ATOM     90  C   UNL     1       7.660  -0.222  19.207  1.00  0.00     0.012 A 
ATOM     91  C   UNL     1       6.822   1.970  19.849  1.00  0.00     0.148 A 
ATOM     92  C   UNL     1       8.001  -0.486  20.533  1.00  0.00     0.002 A 
ATOM     93  C   UNL     1       7.215   1.722  21.158  1.00  0.00     0.091 A 
ATOM     94  F   UNL     1       6.224   3.118  19.498  1.00  0.00    -0.205 F 
ATOM     95  C   UNL     1       7.790   0.489  21.506  1.00  0.00     0.022 A 
BRANCH  93  96
ATOM     96  S   UNL     1       7.074   2.955  22.457  1.00  0.00     0.127 S 
ATOM     97  O   UNL     1       5.991   2.408  23.271  1.00  0.00    -0.237 OA
ATOM     98  O   UNL     1       8.396   2.899  23.082  1.00  0.00    -0.237 OA
ATOM     99  O   UNL     1       6.776   4.214  21.786  1.00  0.00    -0.744 OA
ENDBRANCH  93  96
ENDBRANCH  66  89
ENDBRANCH  40  41
ENDBRANCH  33  35
ENDBRANCH  32  33
ENDBRANCH  31  32
ENDBRANCH  30  31
ENDBRANCH  29  30
ENDBRANCH  28  29
ENDBRANCH  27  28
ENDBRANCH   1  27
TORSDOF 29
