REMARK SMILES O=C(OCCOCCOCCOCCOC(=O)c1ccc(S(=O)(=O)N[C@@H]2CC[N@@H+]3CCC[C@H]23)cc1)c1ccc(-c2c3nc(c(-c4cccc(S(=O)(=O)[O-])c4F)c4ccc([nH]4)c(-c4cccc(S(=O)(=O)[O-])c4F)c4nc(c(-c5cccc(S(=O)(=O)[O-])c5F)c5ccc2[nH]5)C=C4)C=C3)cc1
REMARK SMILES IDX 9 1 8 2 7 3 6 4 5 5 4 6 3 7 2 8 1 9 36 10 37 11 98 12 38 13
REMARK SMILES IDX 97 14 39 15 40 16 41 17 91 18 42 19 96 20 90 21 92 22 43 23
REMARK SMILES IDX 95 24 89 25 88 26 44 28 76 29 56 30 75 31 57 32 60 33 74 34
REMARK SMILES IDX 93 35 58 36 59 37 73 39 94 40 61 41 45 42 46 43 54 44 47 45
REMARK SMILES IDX 49 46 55 47 48 48 50 49 51 50 52 51 53 52 77 53 78 54 86 55
REMARK SMILES IDX 79 56 81 57 87 58 80 59 82 60 83 61 84 62 85 63 62 64 63 65
REMARK SMILES IDX 71 66 64 67 66 68 72 69 65 70 67 71 68 72 69 73 70 74 10 75
REMARK SMILES IDX 11 76 12 77 13 78 14 79 15 80 16 81 17 82 18 83 19 84 35 85
REMARK SMILES IDX 20 86 34 87 21 88 22 89 23 90 24 91 25 92 26 94 27 95 33 96
REMARK SMILES IDX 28 97 29 98 32 99 30 100 31 102
REMARK H PARENT 92 27 60 38 25 93 29 101
REMARK Flexibility Score: inf
ROOT
ATOM      1  O   UNL     1       2.692   4.014  -0.033  1.00  0.00    -0.377 OA
ENDROOT
BRANCH   1   2
ATOM      2  C   UNL     1       1.901   2.839   0.173  1.00  0.00     0.188 C 
BRANCH   2   3
ATOM      3  C   UNL     1       2.280   1.654  -0.719  1.00  0.00     0.188 C 
BRANCH   3   4
ATOM      4  O   UNL     1       3.556   1.147  -0.327  1.00  0.00    -0.376 OA
BRANCH   4   5
ATOM      5  C   UNL     1       4.322   0.520  -1.350  1.00  0.00     0.202 C 
BRANCH   5   6
ATOM      6  C   UNL     1       3.924  -0.926  -1.659  1.00  0.00     0.261 C 
BRANCH   6   7
ATOM      7  O   UNL     1       2.525  -1.179  -1.437  1.00  0.00    -0.460 OA
BRANCH   7   8
ATOM      8  C   UNL     1       1.973  -1.785  -0.351  1.00  0.00     0.338 C 
ATOM      9  O   UNL     1       0.778  -2.070  -0.363  1.00  0.00    -0.246 OA
BRANCH   8  10
ATOM     10  C   UNL     1       2.789  -2.171   0.835  1.00  0.00     0.060 A 
ATOM     11  C   UNL     1       3.827  -1.391   1.338  1.00  0.00     0.016 A 
ATOM     12  C   UNL     1       2.463  -3.353   1.512  1.00  0.00     0.016 A 
ATOM     13  C   UNL     1       4.647  -1.848   2.354  1.00  0.00     0.010 A 
ATOM     14  C   UNL     1       3.224  -3.773   2.611  1.00  0.00     0.010 A 
ATOM     15  C   UNL     1       4.359  -3.047   2.999  1.00  0.00    -0.014 A 
BRANCH  15  16
ATOM     16  C   UNL     1       5.341  -3.554   3.982  1.00  0.00     0.031 A 
ATOM     17  C   UNL     1       6.107  -4.802   3.652  1.00  0.00     0.074 A 
ATOM     18  C   UNL     1       5.635  -2.823   5.075  1.00  0.00     0.049 A 
ATOM     19  N   UNL     1       6.991  -5.441   4.369  1.00  0.00    -0.248 NA
ATOM     20  C   UNL     1       5.851  -5.411   2.334  1.00  0.00     0.031 C 
ATOM     21  C   UNL     1       5.001  -1.551   5.436  1.00  0.00     0.029 A 
ATOM     22  N   UNL     1       6.561  -3.022   6.066  1.00  0.00    -0.354 N 
ATOM     23  C   UNL     1       7.348  -6.554   3.618  1.00  0.00     0.074 A 
ATOM     24  C   UNL     1       6.594  -6.505   2.388  1.00  0.00     0.031 C 
ATOM     25  C   UNL     1       5.579  -1.069   6.547  1.00  0.00     0.029 A 
ATOM     26  C   UNL     1       6.566  -2.031   7.021  1.00  0.00     0.049 A 
ATOM     27  H   UNL     1       7.164  -3.800   6.093  1.00  0.00     0.167 HD
ATOM     28  C   UNL     1       8.236  -7.527   3.927  1.00  0.00     0.034 A 
ATOM     29  C   UNL     1       7.268  -1.932   8.167  1.00  0.00     0.034 A 
ATOM     30  C   UNL     1       9.003  -7.535   5.140  1.00  0.00     0.049 A 
ATOM     31  C   UNL     1       8.234  -3.038   8.495  1.00  0.00     0.074 A 
ATOM     32  C   UNL     1       9.883  -8.495   5.601  1.00  0.00     0.029 A 
ATOM     33  N   UNL     1       8.987  -6.515   6.081  1.00  0.00    -0.354 N 
ATOM     34  N   UNL     1       8.547  -4.097   7.784  1.00  0.00    -0.248 NA
ATOM     35  C   UNL     1       8.950  -2.938   9.773  1.00  0.00     0.031 C 
ATOM     36  C   UNL     1      10.396  -8.056   6.827  1.00  0.00     0.029 A 
ATOM     37  C   UNL     1       9.849  -6.814   7.119  1.00  0.00     0.049 A 
ATOM     38  H   UNL     1       8.441  -5.698   6.019  1.00  0.00     0.167 HD
ATOM     39  C   UNL     1       9.499  -4.785   8.523  1.00  0.00     0.074 A 
ATOM     40  C   UNL     1       9.744  -3.998   9.716  1.00  0.00     0.031 C 
ATOM     41  C   UNL     1      10.096  -5.975   8.264  1.00  0.00     0.034 A 
BRANCH  28  42
ATOM     42  C   UNL     1       8.400  -8.645   2.935  1.00  0.00     0.023 A 
ATOM     43  C   UNL     1       9.116  -8.423   1.741  1.00  0.00     0.012 A 
ATOM     44  C   UNL     1       7.822  -9.907   3.171  1.00  0.00     0.148 A 
ATOM     45  C   UNL     1       9.223  -9.428   0.780  1.00  0.00     0.002 A 
ATOM     46  C   UNL     1       7.963 -10.915   2.225  1.00  0.00     0.091 A 
ATOM     47  F   UNL     1       7.123 -10.087   4.300  1.00  0.00    -0.205 F 
ATOM     48  C   UNL     1       8.652 -10.675   1.025  1.00  0.00     0.022 A 
BRANCH  46  49
ATOM     49  S   UNL     1       7.301 -12.568   2.461  1.00  0.00     0.127 S 
ATOM     50  O   UNL     1       6.252 -12.614   1.443  1.00  0.00    -0.237 OA
ATOM     51  O   UNL     1       8.465 -13.407   2.175  1.00  0.00    -0.237 OA
ATOM     52  O   UNL     1       6.833 -12.623   3.839  1.00  0.00    -0.744 OA
ENDBRANCH  46  49
ENDBRANCH  28  42
BRANCH  29  53
ATOM     53  C   UNL     1       7.073  -0.765   9.077  1.00  0.00     0.023 A 
ATOM     54  C   UNL     1       8.131   0.134   9.309  1.00  0.00     0.012 A 
ATOM     55  C   UNL     1       5.832  -0.528   9.703  1.00  0.00     0.148 A 
ATOM     56  C   UNL     1       7.966   1.227  10.164  1.00  0.00     0.002 A 
ATOM     57  C   UNL     1       5.654   0.597  10.501  1.00  0.00     0.091 A 
ATOM     58  F   UNL     1       4.838  -1.407   9.505  1.00  0.00    -0.205 F 
ATOM     59  C   UNL     1       6.725   1.467  10.748  1.00  0.00     0.022 A 
BRANCH  57  60
ATOM     60  S   UNL     1       4.041   1.042  11.156  1.00  0.00     0.127 S 
ATOM     61  O   UNL     1       4.122   0.539  12.524  1.00  0.00    -0.237 OA
ATOM     62  O   UNL     1       4.047   2.501  11.035  1.00  0.00    -0.237 OA
ATOM     63  O   UNL     1       3.081   0.381  10.282  1.00  0.00    -0.744 OA
ENDBRANCH  57  60
ENDBRANCH  29  53
BRANCH  41  64
ATOM     64  C   UNL     1      11.075  -6.483   9.284  1.00  0.00     0.023 A 
ATOM     65  C   UNL     1      10.598  -7.016  10.498  1.00  0.00     0.012 A 
ATOM     66  C   UNL     1      12.454  -6.502   9.008  1.00  0.00     0.148 A 
ATOM     67  C   UNL     1      11.486  -7.534  11.437  1.00  0.00     0.002 A 
ATOM     68  C   UNL     1      13.329  -7.064   9.929  1.00  0.00     0.091 A 
ATOM     69  F   UNL     1      12.886  -5.966   7.857  1.00  0.00    -0.205 F 
ATOM     70  C   UNL     1      12.848  -7.571  11.147  1.00  0.00     0.022 A 
BRANCH  68  71
ATOM     71  S   UNL     1      15.082  -7.237   9.586  1.00  0.00     0.127 S 
ATOM     72  O   UNL     1      15.647  -6.125  10.348  1.00  0.00    -0.237 OA
ATOM     73  O   UNL     1      15.379  -8.563  10.131  1.00  0.00    -0.237 OA
ATOM     74  O   UNL     1      15.212  -7.142   8.138  1.00  0.00    -0.744 OA
ENDBRANCH  68  71
ENDBRANCH  41  64
ENDBRANCH  15  16
ENDBRANCH   8  10
ENDBRANCH   7   8
ENDBRANCH   6   7
ENDBRANCH   5   6
ENDBRANCH   4   5
ENDBRANCH   3   4
ENDBRANCH   2   3
ENDBRANCH   1   2
BRANCH   1  75
ATOM     75  C   UNL     1       4.104   3.825   0.004  1.00  0.00     0.188 C 
BRANCH  75  76
ATOM     76  C   UNL     1       4.758   3.375   1.327  1.00  0.00     0.188 C 
BRANCH  76  77
ATOM     77  O   UNL     1       3.848   2.983   2.346  1.00  0.00    -0.376 OA
BRANCH  77  78
ATOM     78  C   UNL     1       3.906   3.769   3.539  1.00  0.00     0.202 C 
BRANCH  78  79
ATOM     79  C   UNL     1       3.047   5.037   3.464  1.00  0.00     0.261 C 
BRANCH  79  80
ATOM     80  O   UNL     1       3.375   5.897   2.360  1.00  0.00    -0.460 OA
BRANCH  80  81
ATOM     81  C   UNL     1       4.553   6.554   2.410  1.00  0.00     0.338 C 
ATOM     82  O   UNL     1       5.335   6.602   3.341  1.00  0.00    -0.246 OA
BRANCH  81  83
ATOM     83  C   UNL     1       4.857   7.018   1.035  1.00  0.00     0.060 A 
ATOM     84  C   UNL     1       6.162   6.830   0.552  1.00  0.00     0.017 A 
ATOM     85  C   UNL     1       3.844   7.474   0.178  1.00  0.00     0.017 A 
ATOM     86  C   UNL     1       6.449   7.077  -0.790  1.00  0.00     0.022 A 
ATOM     87  C   UNL     1       4.129   7.725  -1.165  1.00  0.00     0.022 A 
ATOM     88  C   UNL     1       5.433   7.530  -1.637  1.00  0.00     0.082 A 
BRANCH  88  89
ATOM     89  S   UNL     1       5.850   8.036  -3.286  1.00  0.00     0.241 S 
ATOM     90  O   UNL     1       7.288   8.132  -3.381  1.00  0.00    -0.207 OA
ATOM     91  O   UNL     1       5.069   7.249  -4.213  1.00  0.00    -0.207 OA
BRANCH  89  92
ATOM     92  N   UNL     1       5.242   9.592  -3.355  1.00  0.00    -0.202 NA
ATOM     93  H   UNL     1       4.225   9.506  -3.364  1.00  0.00     0.141 HD
BRANCH  92  94
ATOM     94  C   UNL     1       5.566  10.577  -2.319  1.00  0.00     0.133 C 
ATOM     95  C   UNL     1       4.518  11.692  -2.298  1.00  0.00     0.087 C 
ATOM     96  C   UNL     1       6.915  11.282  -2.492  1.00  0.00     0.202 C 
ATOM     97  C   UNL     1       5.284  12.963  -2.617  1.00  0.00     0.264 C 
ATOM     98  N   UNL     1       6.638  12.689  -2.131  1.00  0.00    -0.331 N 
ATOM     99  C   UNL     1       7.507  11.339  -3.893  1.00  0.00     0.072 C 
ATOM    100  C   UNL     1       7.655  13.502  -2.798  1.00  0.00     0.262 C 
ATOM    101  H   UNL     1       6.679  12.890  -1.132  1.00  0.00     0.348 HD
ATOM    102  C   UNL     1       8.212  12.683  -3.955  1.00  0.00     0.068 C 
ENDBRANCH  92  94
ENDBRANCH  89  92
ENDBRANCH  88  89
ENDBRANCH  81  83
ENDBRANCH  80  81
ENDBRANCH  79  80
ENDBRANCH  78  79
ENDBRANCH  77  78
ENDBRANCH  76  77
ENDBRANCH  75  76
ENDBRANCH   1  75
TORSDOF 26
