REMARK SMILES Cc1ccc(C(=O)N2CCC3(CCC(=O)N(CC(=O)OCCOCCOCCOCCOC(=O)c4ccc(-c5c6nc(c(-c7cccc(S(=O)(=O)[O-])c7F)c7ccc([nH]7)c(-c7cccc(S(=O)(=O)[O-])c7F)c7nc(c(-c8cccc(S(=O)(=O)[O-])c8F)c8ccc5[nH]8)C=C7)C=C6)cc4)C3)CC2)cc1O
REMARK SMILES IDX 26 1 25 2 24 3 23 4 22 5 21 6 20 7 18 8 19 9 17 10 16 11
REMARK SMILES IDX 6 12 7 13 8 14 9 15 100 16 10 17 99 18 11 19 12 20 98 21
REMARK SMILES IDX 13 22 14 23 15 24 5 25 1 26 2 27 3 28 102 29 4 30 101 31
REMARK SMILES IDX 103 32 27 34 28 35 29 36 30 37 31 38 32 39 33 40 34 41 35 42
REMARK SMILES IDX 36 43 97 44 37 45 96 46 38 47 39 48 40 49 90 50 41 51 95 52
REMARK SMILES IDX 89 53 91 54 42 55 94 56 88 57 87 58 43 60 75 61 55 62 74 63
REMARK SMILES IDX 56 64 59 65 73 66 92 67 57 68 58 69 72 71 93 72 60 73 44 74
REMARK SMILES IDX 45 75 53 76 46 77 48 78 54 79 47 80 49 81 50 82 51 83 52 84
REMARK SMILES IDX 76 85 77 86 85 87 78 88 80 89 86 90 79 91 81 92 82 93 83 94
REMARK SMILES IDX 84 95 61 96 62 97 70 98 63 99 65 100 71 101 64 102 66 103
REMARK SMILES IDX 67 104 68 105 69 106
REMARK H PARENT 103 33 91 59 59 70
REMARK Flexibility Score: inf
ROOT
ATOM      1  O   UNL     1      10.883  -3.822   3.002  1.00  0.00    -0.377 OA
ENDROOT
BRANCH   1   2
ATOM      2  C   UNL     1      10.897  -2.615   3.724  1.00  0.00     0.188 C 
BRANCH   2   3
ATOM      3  C   UNL     1      11.117  -2.814   5.223  1.00  0.00     0.188 C 
BRANCH   3   4
ATOM      4  O   UNL     1      11.470  -4.099   5.718  1.00  0.00    -0.376 OA
BRANCH   4   5
ATOM      5  C   UNL     1      10.819  -5.262   5.203  1.00  0.00     0.202 C 
BRANCH   5   6
ATOM      6  C   UNL     1       9.275  -5.303   5.105  1.00  0.00     0.261 C 
BRANCH   6   7
ATOM      7  O   UNL     1       8.668  -4.412   4.129  1.00  0.00    -0.462 OA
BRANCH   7   8
ATOM      8  C   UNL     1       7.827  -3.456   4.585  1.00  0.00     0.325 C 
ATOM      9  O   UNL     1       7.497  -3.345   5.767  1.00  0.00    -0.250 OA
BRANCH   8  10
ATOM     10  C   UNL     1       7.367  -2.395   3.549  1.00  0.00     0.242 C 
BRANCH  10  11
ATOM     11  N   UNL     1       7.622  -2.429   2.093  1.00  0.00    -0.331 N 
ATOM     12  C   UNL     1       2.864   1.579   0.121  1.00  0.00     0.253 C 
ATOM     13  O   UNL     1       2.748   2.746   0.492  1.00  0.00    -0.269 OA
ATOM     14  N   UNL     1       4.095   0.945   0.066  1.00  0.00    -0.339 N 
ATOM     15  C   UNL     1       5.047   1.232   1.117  1.00  0.00     0.120 C 
ATOM     16  C   UNL     1       4.574   0.140  -1.057  1.00  0.00     0.120 C 
ATOM     17  C   UNL     1       5.526  -0.099   1.694  1.00  0.00     0.030 C 
ATOM     18  C   UNL     1       5.217  -1.167  -0.588  1.00  0.00     0.030 C 
ATOM     19  C   UNL     1       6.186  -0.994   0.609  1.00  0.00    -0.008 C 
ATOM     20  C   UNL     1       7.508  -0.339   0.112  1.00  0.00     0.019 C 
ATOM     21  C   UNL     1       6.489  -2.420   1.185  1.00  0.00     0.127 C 
ATOM     22  C   UNL     1       8.572  -0.385   1.202  1.00  0.00     0.101 C 
ATOM     23  C   UNL     1       8.745  -1.851   1.505  1.00  0.00     0.223 C 
ATOM     24  O   UNL     1       9.630  -2.482   0.943  1.00  0.00    -0.275 OA
BRANCH  12  25
ATOM     25  C   UNL     1       1.639   0.750  -0.065  1.00  0.00     0.043 A 
ATOM     26  C   UNL     1      -1.987  -1.597  -0.045  1.00  0.00     0.048 C 
ATOM     27  C   UNL     1      -0.745  -0.758  -0.076  1.00  0.00    -0.009 A 
ATOM     28  C   UNL     1       0.495  -1.391   0.035  1.00  0.00     0.008 A 
ATOM     29  C   UNL     1      -0.772   0.640  -0.169  1.00  0.00     0.119 A 
ATOM     30  C   UNL     1       1.669  -0.642   0.068  1.00  0.00     0.014 A 
ATOM     31  C   UNL     1       0.404   1.390  -0.178  1.00  0.00     0.060 A 
BRANCH  29  32
ATOM     32  O   UNL     1      -1.938   1.351  -0.220  1.00  0.00    -0.508 OA
ATOM     33  H   UNL     1      -2.760   0.902  -0.217  1.00  0.00     0.293 HD
ENDBRANCH  29  32
ENDBRANCH  12  25
ENDBRANCH  10  11
ENDBRANCH   8  10
ENDBRANCH   7   8
ENDBRANCH   6   7
ENDBRANCH   5   6
ENDBRANCH   4   5
ENDBRANCH   3   4
ENDBRANCH   2   3
ENDBRANCH   1   2
BRANCH   1  34
ATOM     34  C   UNL     1      11.922  -4.091   2.081  1.00  0.00     0.188 C 
BRANCH  34  35
ATOM     35  C   UNL     1      13.327  -3.706   2.543  1.00  0.00     0.188 C 
BRANCH  35  36
ATOM     36  O   UNL     1      13.464  -2.318   2.820  1.00  0.00    -0.376 OA
BRANCH  36  37
ATOM     37  C   UNL     1      13.843  -1.437   1.770  1.00  0.00     0.202 C 
BRANCH  37  38
ATOM     38  C   UNL     1      13.014  -1.343   0.474  1.00  0.00     0.261 C 
BRANCH  38  39
ATOM     39  O   UNL     1      12.844  -2.529  -0.316  1.00  0.00    -0.460 OA
BRANCH  39  40
ATOM     40  C   UNL     1      13.913  -3.269  -0.652  1.00  0.00     0.338 C 
ATOM     41  O   UNL     1      15.087  -3.011  -0.429  1.00  0.00    -0.246 OA
BRANCH  40  42
ATOM     42  C   UNL     1      13.417  -4.560  -1.175  1.00  0.00     0.060 A 
ATOM     43  C   UNL     1      13.788  -5.747  -0.528  1.00  0.00     0.016 A 
ATOM     44  C   UNL     1      12.598  -4.599  -2.306  1.00  0.00     0.016 A 
ATOM     45  C   UNL     1      13.380  -6.981  -1.038  1.00  0.00     0.010 A 
ATOM     46  C   UNL     1      12.210  -5.835  -2.828  1.00  0.00     0.010 A 
ATOM     47  C   UNL     1      12.633  -7.032  -2.220  1.00  0.00    -0.014 A 
BRANCH  47  48
ATOM     48  C   UNL     1      12.468  -8.315  -2.946  1.00  0.00     0.031 A 
ATOM     49  C   UNL     1      13.374  -8.585  -4.116  1.00  0.00     0.074 A 
ATOM     50  C   UNL     1      11.521  -9.205  -2.601  1.00  0.00     0.049 A 
ATOM     51  N   UNL     1      13.344  -9.562  -4.982  1.00  0.00    -0.248 NA
ATOM     52  C   UNL     1      14.458  -7.612  -4.343  1.00  0.00     0.031 C 
ATOM     53  C   UNL     1      10.604  -9.071  -1.471  1.00  0.00     0.029 A 
ATOM     54  N   UNL     1      11.150 -10.385  -3.199  1.00  0.00    -0.354 N 
ATOM     55  C   UNL     1      14.371  -9.300  -5.881  1.00  0.00     0.074 A 
ATOM     56  C   UNL     1      15.008  -8.073  -5.457  1.00  0.00     0.031 C 
ATOM     57  C   UNL     1       9.745 -10.106  -1.484  1.00  0.00     0.029 A 
ATOM     58  C   UNL     1      10.027 -10.951  -2.643  1.00  0.00     0.049 A 
ATOM     59  H   UNL     1      11.642 -10.787  -3.952  1.00  0.00     0.167 HD
ATOM     60  C   UNL     1      14.750 -10.018  -6.964  1.00  0.00     0.034 A 
ATOM     61  C   UNL     1       9.287 -12.003  -3.051  1.00  0.00     0.034 A 
ATOM     62  C   UNL     1      14.122 -11.242  -7.374  1.00  0.00     0.049 A 
ATOM     63  C   UNL     1       9.706 -12.765  -4.285  1.00  0.00     0.074 A 
ATOM     64  C   UNL     1      14.459 -12.068  -8.431  1.00  0.00     0.029 A 
ATOM     65  N   UNL     1      13.017 -11.808  -6.757  1.00  0.00    -0.354 N 
ATOM     66  N   UNL     1      10.731 -12.557  -5.076  1.00  0.00    -0.248 NA
ATOM     67  C   UNL     1       8.883 -13.923  -4.668  1.00  0.00     0.031 C 
ATOM     68  C   UNL     1      13.529 -13.110  -8.482  1.00  0.00     0.029 A 
ATOM     69  C   UNL     1      12.649 -12.964  -7.421  1.00  0.00     0.049 A 
ATOM     70  H   UNL     1      12.562 -11.441  -5.965  1.00  0.00     0.167 HD
ATOM     71  C   UNL     1      10.706 -13.585  -6.014  1.00  0.00     0.074 A 
ATOM     72  C   UNL     1       9.565 -14.416  -5.693  1.00  0.00     0.031 C 
ATOM     73  C   UNL     1      11.550 -13.817  -7.049  1.00  0.00     0.034 A 
BRANCH  60  74
ATOM     74  C   UNL     1      15.897  -9.496  -7.788  1.00  0.00     0.023 A 
ATOM     75  C   UNL     1      17.211  -9.544  -7.281  1.00  0.00     0.012 A 
ATOM     76  C   UNL     1      15.677  -9.017  -9.095  1.00  0.00     0.148 A 
ATOM     77  C   UNL     1      18.285  -9.094  -8.049  1.00  0.00     0.002 A 
ATOM     78  C   UNL     1      16.756  -8.618  -9.872  1.00  0.00     0.091 A 
ATOM     79  F   UNL     1      14.418  -8.960  -9.550  1.00  0.00    -0.205 F 
ATOM     80  C   UNL     1      18.058  -8.643  -9.347  1.00  0.00     0.022 A 
BRANCH  78  81
ATOM     81  S   UNL     1      16.578  -8.101 -11.583  1.00  0.00     0.127 S 
ATOM     82  O   UNL     1      16.920  -6.681 -11.499  1.00  0.00    -0.237 OA
ATOM     83  O   UNL     1      17.577  -8.930 -12.258  1.00  0.00    -0.237 OA
ATOM     84  O   UNL     1      15.199  -8.387 -11.951  1.00  0.00    -0.744 OA
ENDBRANCH  78  81
ENDBRANCH  60  74
BRANCH  61  85
ATOM     85  C   UNL     1       8.072 -12.406  -2.286  1.00  0.00     0.023 A 
ATOM     86  C   UNL     1       8.057 -13.635  -1.598  1.00  0.00     0.012 A 
ATOM     87  C   UNL     1       6.932 -11.580  -2.240  1.00  0.00     0.148 A 
ATOM     88  C   UNL     1       6.916 -14.051  -0.909  1.00  0.00     0.002 A 
ATOM     89  C   UNL     1       5.820 -11.973  -1.504  1.00  0.00     0.091 A 
ATOM     90  F   UNL     1       6.959 -10.422  -2.914  1.00  0.00    -0.205 F 
ATOM     91  C   UNL     1       5.802 -13.217  -0.854  1.00  0.00     0.022 A 
BRANCH  89  92
ATOM     92  S   UNL     1       4.388 -10.912  -1.276  1.00  0.00     0.127 S 
ATOM     93  O   UNL     1       3.358 -11.633  -2.020  1.00  0.00    -0.237 OA
ATOM     94  O   UNL     1       4.226 -10.934   0.178  1.00  0.00    -0.237 OA
ATOM     95  O   UNL     1       4.764  -9.614  -1.819  1.00  0.00    -0.744 OA
ENDBRANCH  89  92
ENDBRANCH  61  85
BRANCH  73  96
ATOM     96  C   UNL     1      11.342 -15.060  -7.875  1.00  0.00     0.023 A 
ATOM     97  C   UNL     1      10.272 -15.142  -8.786  1.00  0.00     0.012 A 
ATOM     98  C   UNL     1      12.290 -16.103  -7.824  1.00  0.00     0.148 A 
ATOM     99  C   UNL     1      10.136 -16.253  -9.618  1.00  0.00     0.002 A 
ATOM    100  C   UNL     1      12.180 -17.180  -8.694  1.00  0.00     0.091 A 
ATOM    101  F   UNL     1      13.293 -16.010  -6.939  1.00  0.00    -0.205 F 
ATOM    102  C   UNL     1      11.097 -17.263  -9.583  1.00  0.00     0.022 A 
BRANCH 100 103
ATOM    103  S   UNL     1      13.424 -18.472  -8.793  1.00  0.00     0.127 S 
ATOM    104  O   UNL     1      12.690 -19.631  -8.287  1.00  0.00    -0.237 OA
ATOM    105  O   UNL     1      13.712 -18.511 -10.227  1.00  0.00    -0.237 OA
ATOM    106  O   UNL     1      14.535 -18.030  -7.962  1.00  0.00    -0.744 OA
ENDBRANCH 100 103
ENDBRANCH  73  96
ENDBRANCH  47  48
ENDBRANCH  40  42
ENDBRANCH  39  40
ENDBRANCH  38  39
ENDBRANCH  37  38
ENDBRANCH  36  37
ENDBRANCH  35  36
ENDBRANCH  34  35
ENDBRANCH   1  34
TORSDOF 26
