REMARK SMILES Cc1ccc(C(=O)NC2CC2)cc1NC(=O)[C@@H]1[C@@H](C(=O)OCCOCCOCCOCCOC(=O)c2ccc(-c3c4nc(c(-c5cccc(S(=O)(=O)[O-])c5F)c5ccc([nH]5)c(-c5cccc(S(=O)(=O)[O-])c5F)c5nc(c(-c6cccc(S(=O)(=O)[O-])c6F)c6ccc3[nH]6)C=C5)C=C4)cc2)[C@H]2C=C[C@@H]1C2
REMARK SMILES IDX 26 1 25 2 24 3 23 4 22 5 21 6 19 7 20 8 18 9 17 10 102 11
REMARK SMILES IDX 99 12 101 13 103 14 100 15 15 16 14 17 16 19 13 20 1 21 2 22
REMARK SMILES IDX 3 23 4 24 12 25 5 26 6 27 7 28 8 29 9 31 10 32 11 33 27 34
REMARK SMILES IDX 28 35 29 36 30 37 31 38 32 39 33 40 34 41 35 42 36 43 37 44
REMARK SMILES IDX 98 45 38 46 97 47 39 48 40 49 41 50 91 51 42 52 96 53 90 54
REMARK SMILES IDX 92 55 43 56 95 57 89 58 88 59 44 61 76 62 56 63 75 64 57 65
REMARK SMILES IDX 60 66 74 67 93 68 58 69 59 70 73 72 94 73 61 74 45 75 46 76
REMARK SMILES IDX 54 77 47 78 49 79 55 80 48 81 50 82 51 83 52 84 53 85 77 86
REMARK SMILES IDX 78 87 86 88 79 89 81 90 87 91 80 92 82 93 83 94 84 95 85 96
REMARK SMILES IDX 62 97 63 98 71 99 64 100 66 101 72 102 65 103 67 104 68 105
REMARK SMILES IDX 69 106 70 107
REMARK H PARENT 14 18 8 30 92 60 60 71
REMARK Flexibility Score: inf
ROOT
ATOM      1  C   UNL     1       0.766   7.178  -1.078  1.00  0.00     0.188 C 
ENDROOT
BRANCH   1   2
ATOM      2  C   UNL     1       0.160   5.870  -1.559  1.00  0.00     0.188 C 
BRANCH   2   3
ATOM      3  O   UNL     1      -0.128   5.630  -2.927  1.00  0.00    -0.376 OA
BRANCH   3   4
ATOM      4  C   UNL     1      -1.480   5.208  -3.188  1.00  0.00     0.202 C 
BRANCH   4   5
ATOM      5  C   UNL     1      -2.164   4.087  -2.380  1.00  0.00     0.261 C 
BRANCH   5   6
ATOM      6  O   UNL     1      -2.253   4.337  -0.949  1.00  0.00    -0.463 OA
BRANCH   6   7
ATOM      7  C   UNL     1      -1.251   3.764  -0.276  1.00  0.00     0.310 C 
ATOM      8  O   UNL     1      -0.418   3.054  -0.841  1.00  0.00    -0.252 OA
BRANCH   7   9
ATOM      9  C   UNL     1      -1.016   4.175   1.157  1.00  0.00     0.119 C 
ATOM     10  C   UNL     1      -0.556   2.839   1.815  1.00  0.00     0.100 C 
ATOM     11  C   UNL     1      -1.039   2.979   3.262  1.00  0.00     0.025 C 
ATOM     12  C   UNL     1      -1.942   4.776   2.238  1.00  0.00     0.027 C 
ATOM     13  C   UNL     1      -2.551   2.791   3.225  1.00  0.00    -0.027 C 
ATOM     14  C   UNL     1      -1.050   4.492   3.479  1.00  0.00     0.017 C 
ATOM     15  C   UNL     1      -3.080   3.872   2.627  1.00  0.00    -0.027 C 
BRANCH  10  16
ATOM     16  C   UNL     1       0.911   2.648   1.496  1.00  0.00     0.228 C 
ATOM     17  N   UNL     1       1.395   1.558   0.820  1.00  0.00    -0.326 N 
ATOM     18  H   UNL     1       2.336   1.675   0.555  1.00  0.00     0.169 HD
ATOM     19  O   UNL     1       1.727   3.528   1.805  1.00  0.00    -0.274 OA
BRANCH  17  20
ATOM     20  C   UNL     1       0.875   0.301   0.406  1.00  0.00     0.044 A 
ATOM     21  C   UNL     1       3.247  -0.625   0.174  1.00  0.00     0.046 C 
ATOM     22  C   UNL     1       1.753  -0.768   0.216  1.00  0.00    -0.027 A 
ATOM     23  C   UNL     1       1.225  -2.068   0.071  1.00  0.00     0.006 A 
ATOM     24  C   UNL     1      -0.152  -2.308   0.031  1.00  0.00     0.014 A 
ATOM     25  C   UNL     1      -0.480   0.036   0.175  1.00  0.00     0.040 A 
ATOM     26  C   UNL     1      -1.047  -1.248   0.044  1.00  0.00     0.041 A 
BRANCH  26  27
ATOM     27  C   UNL     1      -2.526  -1.605  -0.075  1.00  0.00     0.251 C 
ATOM     28  O   UNL     1      -2.849  -2.771  -0.308  1.00  0.00    -0.269 OA
ATOM     29  N   UNL     1      -3.533  -0.676   0.122  1.00  0.00    -0.349 N 
ATOM     30  H   UNL     1      -4.462  -0.999   0.140  1.00  0.00     0.164 HD
BRANCH  29  31
ATOM     31  C   UNL     1      -3.310   0.696   0.297  1.00  0.00     0.082 C 
ATOM     32  C   UNL     1      -3.293   1.386  -1.047  1.00  0.00     0.027 C 
ATOM     33  C   UNL     1      -4.101   1.921   0.073  1.00  0.00     0.027 C 
ENDBRANCH  29  31
ENDBRANCH  26  27
ENDBRANCH  17  20
ENDBRANCH  10  16
ENDBRANCH   7   9
ENDBRANCH   6   7
ENDBRANCH   5   6
ENDBRANCH   4   5
ENDBRANCH   3   4
ENDBRANCH   2   3
ENDBRANCH   1   2
BRANCH   1  34
ATOM     34  O   UNL     1      -0.213   8.128  -0.629  1.00  0.00    -0.377 OA
BRANCH  34  35
ATOM     35  C   UNL     1      -0.967   8.756  -1.672  1.00  0.00     0.188 C 
BRANCH  35  36
ATOM     36  C   UNL     1      -0.063   9.557  -2.592  1.00  0.00     0.188 C 
BRANCH  36  37
ATOM     37  O   UNL     1       0.505   8.656  -3.542  1.00  0.00    -0.376 OA
BRANCH  37  38
ATOM     38  C   UNL     1       1.779   9.007  -4.061  1.00  0.00     0.202 C 
BRANCH  38  39
ATOM     39  C   UNL     1       1.804  10.378  -4.736  1.00  0.00     0.261 C 
BRANCH  39  40
ATOM     40  O   UNL     1       1.027  10.316  -5.948  1.00  0.00    -0.460 OA
BRANCH  40  41
ATOM     41  C   UNL     1      -0.129  11.029  -5.918  1.00  0.00     0.338 C 
ATOM     42  O   UNL     1      -0.169  12.250  -5.766  1.00  0.00    -0.246 OA
BRANCH  41  43
ATOM     43  C   UNL     1      -1.309  10.122  -5.897  1.00  0.00     0.060 A 
ATOM     44  C   UNL     1      -2.589  10.620  -5.620  1.00  0.00     0.016 A 
ATOM     45  C   UNL     1      -1.106   8.749  -5.873  1.00  0.00     0.016 A 
ATOM     46  C   UNL     1      -3.593   9.772  -5.118  1.00  0.00     0.010 A 
ATOM     47  C   UNL     1      -2.065   7.947  -5.283  1.00  0.00     0.010 A 
ATOM     48  C   UNL     1      -3.296   8.452  -4.827  1.00  0.00    -0.014 A 
BRANCH  48  49
ATOM     49  C   UNL     1      -4.133   7.517  -4.036  1.00  0.00     0.031 A 
ATOM     50  C   UNL     1      -4.446   6.180  -4.666  1.00  0.00     0.074 A 
ATOM     51  C   UNL     1      -4.179   7.660  -2.683  1.00  0.00     0.049 A 
ATOM     52  N   UNL     1      -4.958   5.144  -4.086  1.00  0.00    -0.248 NA
ATOM     53  C   UNL     1      -4.168   5.925  -6.075  1.00  0.00     0.031 C 
ATOM     54  C   UNL     1      -4.101   6.552  -1.743  1.00  0.00     0.029 A 
ATOM     55  N   UNL     1      -4.200   8.757  -1.823  1.00  0.00    -0.354 N 
ATOM     56  C   UNL     1      -4.886   4.051  -4.947  1.00  0.00     0.074 A 
ATOM     57  C   UNL     1      -4.390   4.614  -6.175  1.00  0.00     0.031 C 
ATOM     58  C   UNL     1      -4.162   6.951  -0.475  1.00  0.00     0.029 A 
ATOM     59  C   UNL     1      -4.577   8.315  -0.537  1.00  0.00     0.049 A 
ATOM     60  H   UNL     1      -3.988   9.686  -2.072  1.00  0.00     0.167 HD
ATOM     61  C   UNL     1      -5.186   2.786  -4.506  1.00  0.00     0.034 A 
ATOM     62  C   UNL     1      -5.624   8.748   0.212  1.00  0.00     0.034 A 
ATOM     63  C   UNL     1      -5.949   2.812  -3.195  1.00  0.00     0.049 A 
ATOM     64  C   UNL     1      -6.733   7.683   0.241  1.00  0.00     0.074 A 
ATOM     65  C   UNL     1      -6.237   1.921  -2.176  1.00  0.00     0.029 A 
ATOM     66  N   UNL     1      -6.678   3.974  -2.793  1.00  0.00    -0.354 N 
ATOM     67  N   UNL     1      -6.816   6.673  -0.606  1.00  0.00    -0.248 NA
ATOM     68  C   UNL     1      -7.742   7.585   1.297  1.00  0.00     0.031 C 
ATOM     69  C   UNL     1      -6.864   2.601  -1.104  1.00  0.00     0.029 A 
ATOM     70  C   UNL     1      -7.198   3.870  -1.521  1.00  0.00     0.049 A 
ATOM     71  H   UNL     1      -6.797   4.766  -3.366  1.00  0.00     0.167 HD
ATOM     72  C   UNL     1      -7.862   5.849  -0.266  1.00  0.00     0.074 A 
ATOM     73  C   UNL     1      -8.385   6.452   0.955  1.00  0.00     0.031 C 
ATOM     74  C   UNL     1      -8.240   4.713  -0.941  1.00  0.00     0.034 A 
BRANCH  61  75
ATOM     75  C   UNL     1      -4.632   1.453  -5.197  1.00  0.00     0.023 A 
ATOM     76  C   UNL     1      -4.675   0.242  -4.464  1.00  0.00     0.012 A 
ATOM     77  C   UNL     1      -3.993   1.282  -6.463  1.00  0.00     0.148 A 
ATOM     78  C   UNL     1      -4.101  -0.983  -4.858  1.00  0.00     0.002 A 
ATOM     79  C   UNL     1      -3.434   0.048  -6.886  1.00  0.00     0.091 A 
ATOM     80  F   UNL     1      -3.918   2.292  -7.322  1.00  0.00    -0.205 F 
ATOM     81  C   UNL     1      -3.468  -1.081  -6.072  1.00  0.00     0.022 A 
BRANCH  79  82
ATOM     82  S   UNL     1      -2.640  -0.203  -8.495  1.00  0.00     0.127 S 
ATOM     83  O   UNL     1      -1.328  -0.730  -8.116  1.00  0.00    -0.237 OA
ATOM     84  O   UNL     1      -3.525  -1.182  -9.125  1.00  0.00    -0.237 OA
ATOM     85  O   UNL     1      -2.603   1.103  -9.141  1.00  0.00    -0.744 OA
ENDBRANCH  79  82
ENDBRANCH  61  75
BRANCH  62  86
ATOM     86  C   UNL     1      -5.604  10.239   0.323  1.00  0.00     0.023 A 
ATOM     87  C   UNL     1      -4.424  10.718   0.968  1.00  0.00     0.012 A 
ATOM     88  C   UNL     1      -6.110  10.968  -0.757  1.00  0.00     0.148 A 
ATOM     89  C   UNL     1      -3.603  11.663   0.340  1.00  0.00     0.002 A 
ATOM     90  C   UNL     1      -5.270  11.886  -1.398  1.00  0.00     0.091 A 
ATOM     91  F   UNL     1      -7.282  10.590  -1.284  1.00  0.00    -0.205 F 
ATOM     92  C   UNL     1      -3.999  12.195  -0.881  1.00  0.00     0.022 A 
BRANCH  90  93
ATOM     93  S   UNL     1      -5.630  12.344  -3.101  1.00  0.00     0.127 S 
ATOM     94  O   UNL     1      -6.469  13.522  -2.937  1.00  0.00    -0.237 OA
ATOM     95  O   UNL     1      -4.301  12.597  -3.654  1.00  0.00    -0.237 OA
ATOM     96  O   UNL     1      -6.270  11.150  -3.639  1.00  0.00    -0.744 OA
ENDBRANCH  90  93
ENDBRANCH  62  86
BRANCH  74  97
ATOM     97  C   UNL     1      -9.618   4.034  -0.843  1.00  0.00     0.023 A 
ATOM     98  C   UNL     1     -10.707   4.624  -0.192  1.00  0.00     0.012 A 
ATOM     99  C   UNL     1      -9.890   2.788  -1.494  1.00  0.00     0.148 A 
ATOM    100  C   UNL     1     -11.930   3.954  -0.049  1.00  0.00     0.002 A 
ATOM    101  C   UNL     1     -11.072   2.092  -1.296  1.00  0.00     0.091 A 
ATOM    102  F   UNL     1      -9.051   2.308  -2.419  1.00  0.00    -0.205 F 
ATOM    103  C   UNL     1     -12.098   2.671  -0.560  1.00  0.00     0.022 A 
BRANCH 101 104
ATOM    104  S   UNL     1     -11.318   0.436  -1.958  1.00  0.00     0.127 S 
ATOM    105  O   UNL     1     -11.892  -0.263  -0.806  1.00  0.00    -0.237 OA
ATOM    106  O   UNL     1     -12.256   0.687  -3.049  1.00  0.00    -0.237 OA
ATOM    107  O   UNL     1     -10.001  -0.052  -2.344  1.00  0.00    -0.744 OA
ENDBRANCH 101 104
ENDBRANCH  74  97
ENDBRANCH  48  49
ENDBRANCH  41  43
ENDBRANCH  40  41
ENDBRANCH  39  40
ENDBRANCH  38  39
ENDBRANCH  37  38
ENDBRANCH  36  37
ENDBRANCH  35  36
ENDBRANCH  34  35
ENDBRANCH   1  34
TORSDOF 27
