REMARK SMILES Cc1c(CCC(=O)NCCCC(=O)OCCOCCOCCOCCOC(=O)c2ccc(-c3c4nc(c(-c5cccc(S(=O)(=O)[O-])c5F)c5ccc([nH]5)c(-c5cccc(S(=O)(=O)[O-])c5F)c5nc(c(-c6cccc(S(=O)(=O)[O-])c6F)c6ccc3[nH]6)C=C5)C=C4)cc2)c(=O)oc2cc3c(cc12)CCC(C)(C)O3
REMARK SMILES IDX 18 1 17 2 16 3 15 4 14 5 12 6 13 7 11 8 10 9 9 10 8 11 6 12
REMARK SMILES IDX 7 13 5 15 4 16 3 17 1 18 2 19 100 20 92 21 95 22 99 23 93 24
REMARK SMILES IDX 94 25 96 26 98 27 97 28 101 29 106 30 102 31 103 32 104 33
REMARK SMILES IDX 105 34 19 35 20 36 21 37 22 38 23 39 24 40 25 41 26 42 27 43
REMARK SMILES IDX 28 44 29 45 30 46 91 47 31 48 90 49 32 50 33 51 34 52 84 53
REMARK SMILES IDX 35 54 89 55 83 56 85 57 36 58 88 59 82 60 81 61 37 63 69 64
REMARK SMILES IDX 49 65 68 66 50 67 53 68 67 69 86 70 51 71 52 72 66 74 87 75
REMARK SMILES IDX 54 76 38 77 39 78 47 79 40 80 42 81 48 82 41 83 43 84 44 85
REMARK SMILES IDX 45 86 46 87 70 88 71 89 79 90 72 91 74 92 80 93 73 94 75 95
REMARK SMILES IDX 76 96 77 97 78 98 55 99 56 100 64 101 57 102 59 103 65 104
REMARK SMILES IDX 58 105 60 106 61 107 62 108 63 109
REMARK H PARENT 8 14 85 62 53 73
REMARK Flexibility Score: inf
ROOT
ATOM      1  C   UNL     1      -2.049  -4.189  -2.217  1.00  0.00     0.188 C 
ENDROOT
BRANCH   1   2
ATOM      2  O   UNL     1      -3.167  -5.008  -1.909  1.00  0.00    -0.376 OA
BRANCH   2   3
ATOM      3  C   UNL     1      -4.010  -4.687  -0.809  1.00  0.00     0.202 C 
BRANCH   3   4
ATOM      4  C   UNL     1      -3.431  -4.348   0.569  1.00  0.00     0.261 C 
BRANCH   4   5
ATOM      5  O   UNL     1      -2.510  -3.248   0.607  1.00  0.00    -0.463 OA
BRANCH   5   6
ATOM      6  C   UNL     1      -1.276  -3.537   1.094  1.00  0.00     0.305 C 
ATOM      7  O   UNL     1      -0.866  -4.659   1.366  1.00  0.00    -0.252 OA
BRANCH   6   8
ATOM      8  C   UNL     1      -0.440  -2.304   1.326  1.00  0.00     0.124 C 
BRANCH   8   9
ATOM      9  C   UNL     1      -0.504  -1.278   0.209  1.00  0.00     0.033 C 
BRANCH   9  10
ATOM     10  C   UNL     1      -1.567  -0.194   0.356  1.00  0.00     0.116 C 
BRANCH  10  11
ATOM     11  N   UNL     1      -1.004   0.889   1.147  1.00  0.00    -0.356 N 
ATOM     12  C   UNL     1      -0.237   1.931   0.708  1.00  0.00     0.220 C 
ATOM     13  O   UNL     1       0.584   2.424   1.482  1.00  0.00    -0.275 OA
ATOM     14  H   UNL     1      -1.197   0.869   2.112  1.00  0.00     0.163 HD
BRANCH  12  15
ATOM     15  C   UNL     1      -0.441   2.495  -0.687  1.00  0.00     0.105 C 
BRANCH  15  16
ATOM     16  C   UNL     1       0.813   2.440  -1.572  1.00  0.00     0.053 C 
BRANCH  16  17
ATOM     17  C   UNL     1       0.991   1.115  -2.294  1.00  0.00     0.042 A 
ATOM     18  C   UNL     1       2.814   0.214  -0.783  1.00  0.00     0.046 C 
ATOM     19  C   UNL     1       1.826   0.119  -1.919  1.00  0.00    -0.030 A 
ATOM     20  C   UNL     1       1.679  -1.186  -2.598  1.00  0.00     0.021 A 
ATOM     21  C   UNL     1       0.189   0.996  -3.554  1.00  0.00     0.339 A 
ATOM     22  C   UNL     1       1.033  -1.234  -3.827  1.00  0.00     0.142 A 
ATOM     23  C   UNL     1       2.011  -2.412  -2.001  1.00  0.00     0.019 A 
ATOM     24  O   UNL     1      -0.616   1.857  -3.891  1.00  0.00    -0.246 OA
ATOM     25  O   UNL     1       0.471  -0.079  -4.386  1.00  0.00    -0.422 OA
ATOM     26  C   UNL     1       0.788  -2.437  -4.496  1.00  0.00     0.094 A 
ATOM     27  C   UNL     1       1.645  -3.638  -2.590  1.00  0.00    -0.005 A 
ATOM     28  C   UNL     1       1.079  -3.645  -3.864  1.00  0.00     0.127 A 
ATOM     29  C   UNL     1       1.812  -4.911  -1.812  1.00  0.00     0.043 C 
ATOM     30  O   UNL     1       0.684  -4.776  -4.518  1.00  0.00    -0.487 OA
ATOM     31  C   UNL     1       0.960  -6.032  -2.388  1.00  0.00     0.053 C 
ATOM     32  C   UNL     1       0.998  -6.050  -3.922  1.00  0.00     0.104 C 
ATOM     33  C   UNL     1       2.370  -6.504  -4.431  1.00  0.00     0.056 C 
ATOM     34  C   UNL     1      -0.070  -7.030  -4.439  1.00  0.00     0.056 C 
ENDBRANCH  16  17
ENDBRANCH  15  16
ENDBRANCH  12  15
ENDBRANCH  10  11
ENDBRANCH   9  10
ENDBRANCH   8   9
ENDBRANCH   6   8
ENDBRANCH   5   6
ENDBRANCH   4   5
ENDBRANCH   3   4
ENDBRANCH   2   3
ENDBRANCH   1   2
BRANCH   1  35
ATOM     35  C   UNL     1      -2.233  -2.740  -2.658  1.00  0.00     0.188 C 
BRANCH  35  36
ATOM     36  O   UNL     1      -3.296  -2.110  -1.988  1.00  0.00    -0.377 OA
BRANCH  36  37
ATOM     37  C   UNL     1      -4.505  -1.987  -2.733  1.00  0.00     0.188 C 
BRANCH  37  38
ATOM     38  C   UNL     1      -4.876  -3.016  -3.834  1.00  0.00     0.188 C 
BRANCH  38  39
ATOM     39  O   UNL     1      -3.862  -3.304  -4.795  1.00  0.00    -0.376 OA
BRANCH  39  40
ATOM     40  C   UNL     1      -3.941  -2.656  -6.060  1.00  0.00     0.202 C 
BRANCH  40  41
ATOM     41  C   UNL     1      -3.517  -1.180  -6.075  1.00  0.00     0.261 C 
BRANCH  41  42
ATOM     42  O   UNL     1      -4.332  -0.307  -5.283  1.00  0.00    -0.460 OA
BRANCH  42  43
ATOM     43  C   UNL     1      -5.653  -0.243  -5.568  1.00  0.00     0.338 C 
ATOM     44  O   UNL     1      -6.229  -0.785  -6.495  1.00  0.00    -0.246 OA
BRANCH  43  45
ATOM     45  C   UNL     1      -6.309   0.395  -4.406  1.00  0.00     0.060 A 
ATOM     46  C   UNL     1      -5.821   1.597  -3.885  1.00  0.00     0.016 A 
ATOM     47  C   UNL     1      -7.359  -0.281  -3.769  1.00  0.00     0.016 A 
ATOM     48  C   UNL     1      -6.412   2.143  -2.744  1.00  0.00     0.010 A 
ATOM     49  C   UNL     1      -7.935   0.257  -2.616  1.00  0.00     0.010 A 
ATOM     50  C   UNL     1      -7.487   1.489  -2.116  1.00  0.00    -0.014 A 
BRANCH  50  51
ATOM     51  C   UNL     1      -8.312   2.229  -1.133  1.00  0.00     0.031 A 
ATOM     52  C   UNL     1      -8.191   2.041   0.348  1.00  0.00     0.074 A 
ATOM     53  C   UNL     1      -9.228   3.078  -1.640  1.00  0.00     0.049 A 
ATOM     54  N   UNL     1      -8.782   2.714   1.301  1.00  0.00    -0.248 NA
ATOM     55  C   UNL     1      -7.312   0.965   0.828  1.00  0.00     0.031 C 
ATOM     56  C   UNL     1      -9.480   3.271  -3.072  1.00  0.00     0.029 A 
ATOM     57  N   UNL     1     -10.119   3.920  -1.029  1.00  0.00    -0.354 N 
ATOM     58  C   UNL     1      -8.352   2.153   2.496  1.00  0.00     0.074 A 
ATOM     59  C   UNL     1      -7.463   1.063   2.147  1.00  0.00     0.031 C 
ATOM     60  C   UNL     1     -10.457   4.173  -3.228  1.00  0.00     0.029 A 
ATOM     61  C   UNL     1     -10.905   4.620  -1.914  1.00  0.00     0.049 A 
ATOM     62  H   UNL     1     -10.189   4.015  -0.052  1.00  0.00     0.167 HD
ATOM     63  C   UNL     1      -8.659   2.536   3.759  1.00  0.00     0.034 A 
ATOM     64  C   UNL     1     -11.871   5.531  -1.697  1.00  0.00     0.034 A 
ATOM     65  C   UNL     1      -9.538   3.634   4.079  1.00  0.00     0.049 A 
ATOM     66  C   UNL     1     -12.158   5.958  -0.287  1.00  0.00     0.074 A 
ATOM     67  C   UNL     1      -9.836   4.155   5.327  1.00  0.00     0.029 A 
ATOM     68  N   UNL     1     -10.271   4.366   3.158  1.00  0.00    -0.354 N 
ATOM     69  N   UNL     1     -11.591   5.555   0.824  1.00  0.00    -0.248 NA
ATOM     70  C   UNL     1     -13.181   6.995  -0.097  1.00  0.00     0.031 C 
ATOM     71  C   UNL     1     -10.773   5.178   5.163  1.00  0.00     0.029 A 
ATOM     72  C   UNL     1     -11.035   5.320   3.811  1.00  0.00     0.049 A 
ATOM     73  H   UNL     1     -10.252   4.229   2.183  1.00  0.00     0.167 HD
ATOM     74  C   UNL     1     -12.162   6.310   1.839  1.00  0.00     0.074 A 
ATOM     75  C   UNL     1     -13.107   7.210   1.211  1.00  0.00     0.031 C 
ATOM     76  C   UNL     1     -11.932   6.249   3.173  1.00  0.00     0.034 A 
BRANCH  63  77
ATOM     77  C   UNL     1      -7.994   1.837   4.919  1.00  0.00     0.023 A 
ATOM     78  C   UNL     1      -6.644   2.125   5.203  1.00  0.00     0.012 A 
ATOM     79  C   UNL     1      -8.740   1.059   5.828  1.00  0.00     0.148 A 
ATOM     80  C   UNL     1      -6.046   1.649   6.370  1.00  0.00     0.002 A 
ATOM     81  C   UNL     1      -8.148   0.620   7.008  1.00  0.00     0.091 A 
ATOM     82  F   UNL     1     -10.022   0.792   5.537  1.00  0.00    -0.205 F 
ATOM     83  C   UNL     1      -6.801   0.911   7.278  1.00  0.00     0.022 A 
BRANCH  81  84
ATOM     84  S   UNL     1      -9.052  -0.262   8.287  1.00  0.00     0.127 S 
ATOM     85  O   UNL     1      -8.397  -1.569   8.261  1.00  0.00    -0.237 OA
ATOM     86  O   UNL     1      -8.763   0.540   9.476  1.00  0.00    -0.237 OA
ATOM     87  O   UNL     1     -10.447  -0.261   7.870  1.00  0.00    -0.744 OA
ENDBRANCH  81  84
ENDBRANCH  63  77
BRANCH  64  88
ATOM     88  C   UNL     1     -12.556   6.160  -2.860  1.00  0.00     0.023 A 
ATOM     89  C   UNL     1     -12.296   7.509  -3.168  1.00  0.00     0.012 A 
ATOM     90  C   UNL     1     -13.399   5.411  -3.703  1.00  0.00     0.148 A 
ATOM     91  C   UNL     1     -12.886   8.108  -4.280  1.00  0.00     0.002 A 
ATOM     92  C   UNL     1     -13.935   5.998  -4.843  1.00  0.00     0.091 A 
ATOM     93  F   UNL     1     -13.639   4.130  -3.388  1.00  0.00    -0.205 F 
ATOM     94  C   UNL     1     -13.694   7.351  -5.124  1.00  0.00     0.022 A 
BRANCH  92  95
ATOM     95  S   UNL     1     -14.860   5.054  -6.061  1.00  0.00     0.127 S 
ATOM     96  O   UNL     1     -16.226   5.508  -5.816  1.00  0.00    -0.237 OA
ATOM     97  O   UNL     1     -14.271   5.518  -7.317  1.00  0.00    -0.237 OA
ATOM     98  O   UNL     1     -14.590   3.655  -5.756  1.00  0.00    -0.744 OA
ENDBRANCH  92  95
ENDBRANCH  64  88
BRANCH  76  99
ATOM     99  C   UNL     1     -12.696   7.188   4.069  1.00  0.00     0.023 A 
ATOM    100  C   UNL     1     -14.060   6.950   4.324  1.00  0.00     0.012 A 
ATOM    101  C   UNL     1     -12.030   8.217   4.766  1.00  0.00     0.148 A 
ATOM    102  C   UNL     1     -14.754   7.727   5.250  1.00  0.00     0.002 A 
ATOM    103  C   UNL     1     -12.715   8.954   5.724  1.00  0.00     0.091 A 
ATOM    104  F   UNL     1     -10.735   8.435   4.496  1.00  0.00    -0.205 F 
ATOM    105  C   UNL     1     -14.079   8.716   5.961  1.00  0.00     0.022 A 
BRANCH 103 106
ATOM    106  S   UNL     1     -11.909  10.174   6.768  1.00  0.00     0.127 S 
ATOM    107  O   UNL     1     -12.553  11.412   6.330  1.00  0.00    -0.237 OA
ATOM    108  O   UNL     1     -12.288   9.731   8.109  1.00  0.00    -0.237 OA
ATOM    109  O   UNL     1     -10.485  10.081   6.475  1.00  0.00    -0.744 OA
ENDBRANCH 103 106
ENDBRANCH  76  99
ENDBRANCH  50  51
ENDBRANCH  43  45
ENDBRANCH  42  43
ENDBRANCH  41  42
ENDBRANCH  40  41
ENDBRANCH  39  40
ENDBRANCH  38  39
ENDBRANCH  37  38
ENDBRANCH  36  37
ENDBRANCH  35  36
ENDBRANCH   1  35
TORSDOF 29
