REMARK SMILES O=C(OCCOCCOCCOCCOC(=O)c1cc(-c2ccc(F)c(C(F)(F)F)c2)cnc1O)c1ccc(-c2c3nc(c(-c4cccc(S(=O)(=O)[O-])c4F)c4ccc([nH]4)c(-c4cccc(S(=O)(=O)[O-])c4F)c4nc(c(-c5cccc(S(=O)(=O)[O-])c5F)c5ccc2[nH]5)C=C4)C=C3)cc1
REMARK SMILES IDX 8 1 7 2 6 3 5 4 4 5 3 6 2 7 1 8 36 9 37 10 98 11 38 12 97 13
REMARK SMILES IDX 39 14 40 15 41 16 91 17 42 18 96 19 90 20 92 21 43 22 95 23
REMARK SMILES IDX 89 24 88 25 44 27 76 28 56 29 75 30 57 31 60 32 74 33 93 34
REMARK SMILES IDX 58 35 59 36 73 38 94 39 61 40 45 41 46 42 54 43 47 44 49 45
REMARK SMILES IDX 55 46 48 47 50 48 51 49 52 50 53 51 77 52 78 53 86 54 79 55
REMARK SMILES IDX 81 56 87 57 80 58 82 59 83 60 84 61 85 62 62 63 63 64 71 65
REMARK SMILES IDX 64 66 66 67 72 68 65 69 67 70 68 71 69 72 70 73 9 74 10 75
REMARK SMILES IDX 11 76 12 77 13 78 14 79 15 80 16 81 17 82 18 83 19 84 34 85
REMARK SMILES IDX 20 86 33 87 32 88 35 89 21 91 22 92 31 93 23 94 26 95 24 96
REMARK SMILES IDX 25 97 27 98 28 99 29 100 30 101
REMARK H PARENT 92 26 60 37 35 90
REMARK Flexibility Score: inf
ROOT
ATOM      1  C   UNL     1       2.159   1.736   1.313  1.00  0.00     0.188 C 
ENDROOT
BRANCH   1   2
ATOM      2  C   UNL     1       2.817   0.377   1.471  1.00  0.00     0.188 C 
BRANCH   2   3
ATOM      3  O   UNL     1       4.187   0.244   1.120  1.00  0.00    -0.376 OA
BRANCH   3   4
ATOM      4  C   UNL     1       4.746   0.757  -0.075  1.00  0.00     0.202 C 
BRANCH   4   5
ATOM      5  C   UNL     1       4.077   0.531  -1.433  1.00  0.00     0.261 C 
BRANCH   5   6
ATOM      6  O   UNL     1       2.776  -0.059  -1.402  1.00  0.00    -0.460 OA
BRANCH   6   7
ATOM      7  C   UNL     1       2.646  -1.393  -1.640  1.00  0.00     0.338 C 
ATOM      8  O   UNL     1       1.843  -1.837  -2.447  1.00  0.00    -0.246 OA
BRANCH   7   9
ATOM      9  C   UNL     1       3.220  -2.237  -0.565  1.00  0.00     0.060 A 
ATOM     10  C   UNL     1       2.328  -2.901   0.290  1.00  0.00     0.016 A 
ATOM     11  C   UNL     1       4.594  -2.303  -0.333  1.00  0.00     0.016 A 
ATOM     12  C   UNL     1       2.810  -3.588   1.405  1.00  0.00     0.010 A 
ATOM     13  C   UNL     1       5.071  -2.919   0.821  1.00  0.00     0.010 A 
ATOM     14  C   UNL     1       4.186  -3.601   1.674  1.00  0.00    -0.014 A 
BRANCH  14  15
ATOM     15  C   UNL     1       4.762  -4.619   2.578  1.00  0.00     0.031 A 
ATOM     16  C   UNL     1       4.993  -4.402   4.039  1.00  0.00     0.074 A 
ATOM     17  C   UNL     1       5.166  -5.750   1.967  1.00  0.00     0.049 A 
ATOM     18  N   UNL     1       5.439  -5.264   4.916  1.00  0.00    -0.248 NA
ATOM     19  C   UNL     1       4.698  -3.074   4.599  1.00  0.00     0.031 C 
ATOM     20  C   UNL     1       5.044  -6.008   0.525  1.00  0.00     0.029 A 
ATOM     21  N   UNL     1       5.809  -6.856   2.446  1.00  0.00    -0.354 N 
ATOM     22  C   UNL     1       5.460  -4.601   6.136  1.00  0.00     0.074 A 
ATOM     23  C   UNL     1       5.005  -3.249   5.883  1.00  0.00     0.031 C 
ATOM     24  C   UNL     1       5.668  -7.152   0.227  1.00  0.00     0.029 A 
ATOM     25  C   UNL     1       6.180  -7.735   1.458  1.00  0.00     0.049 A 
ATOM     26  H   UNL     1       5.988  -7.008   3.402  1.00  0.00     0.167 HD
ATOM     27  C   UNL     1       5.806  -5.104   7.345  1.00  0.00     0.034 A 
ATOM     28  C   UNL     1       6.843  -8.901   1.528  1.00  0.00     0.034 A 
ATOM     29  C   UNL     1       6.264  -6.457   7.549  1.00  0.00     0.049 A 
ATOM     30  C   UNL     1       7.173  -9.446   2.877  1.00  0.00     0.074 A 
ATOM     31  C   UNL     1       6.540  -7.097   8.745  1.00  0.00     0.029 A 
ATOM     32  N   UNL     1       6.535  -7.366   6.538  1.00  0.00    -0.354 N 
ATOM     33  N   UNL     1       6.989  -8.884   4.046  1.00  0.00    -0.248 NA
ATOM     34  C   UNL     1       7.731 -10.801   2.934  1.00  0.00     0.031 C 
ATOM     35  C   UNL     1       6.992  -8.387   8.457  1.00  0.00     0.029 A 
ATOM     36  C   UNL     1       6.985  -8.557   7.082  1.00  0.00     0.049 A 
ATOM     37  H   UNL     1       6.424  -7.191   5.576  1.00  0.00     0.167 HD
ATOM     38  C   UNL     1       7.376  -9.826   4.983  1.00  0.00     0.074 A 
ATOM     39  C   UNL     1       7.805 -10.999   4.245  1.00  0.00     0.031 C 
ATOM     40  C   UNL     1       7.376  -9.723   6.333  1.00  0.00     0.034 A 
BRANCH  27  41
ATOM     41  C   UNL     1       5.614  -4.262   8.580  1.00  0.00     0.023 A 
ATOM     42  C   UNL     1       4.318  -4.170   9.128  1.00  0.00     0.012 A 
ATOM     43  C   UNL     1       6.711  -3.762   9.311  1.00  0.00     0.148 A 
ATOM     44  C   UNL     1       4.116  -3.603  10.386  1.00  0.00     0.002 A 
ATOM     45  C   UNL     1       6.504  -3.218  10.576  1.00  0.00     0.091 A 
ATOM     46  F   UNL     1       7.935  -3.870   8.777  1.00  0.00    -0.205 F 
ATOM     47  C   UNL     1       5.208  -3.139  11.114  1.00  0.00     0.022 A 
BRANCH  45  48
ATOM     48  S   UNL     1       7.842  -2.652  11.635  1.00  0.00     0.127 S 
ATOM     49  O   UNL     1       7.513  -1.235  11.795  1.00  0.00    -0.237 OA
ATOM     50  O   UNL     1       7.646  -3.461  12.837  1.00  0.00    -0.237 OA
ATOM     51  O   UNL     1       9.075  -2.917  10.907  1.00  0.00    -0.744 OA
ENDBRANCH  45  48
ENDBRANCH  27  41
BRANCH  28  52
ATOM     52  C   UNL     1       7.080  -9.650   0.269  1.00  0.00     0.023 A 
ATOM     53  C   UNL     1       6.188 -10.677  -0.090  1.00  0.00     0.012 A 
ATOM     54  C   UNL     1       8.066  -9.230  -0.645  1.00  0.00     0.148 A 
ATOM     55  C   UNL     1       6.278 -11.281  -1.343  1.00  0.00     0.002 A 
ATOM     56  C   UNL     1       8.127  -9.814  -1.905  1.00  0.00     0.091 A 
ATOM     57  F   UNL     1       8.888  -8.236  -0.280  1.00  0.00    -0.205 F 
ATOM     58  C   UNL     1       7.238 -10.844  -2.252  1.00  0.00     0.022 A 
BRANCH  56  59
ATOM     59  S   UNL     1       9.244  -9.230  -3.185  1.00  0.00     0.127 S 
ATOM     60  O   UNL     1      10.196 -10.335  -3.274  1.00  0.00    -0.237 OA
ATOM     61  O   UNL     1       8.347  -9.096  -4.333  1.00  0.00    -0.237 OA
ATOM     62  O   UNL     1       9.784  -7.970  -2.694  1.00  0.00    -0.744 OA
ENDBRANCH  56  59
ENDBRANCH  28  52
BRANCH  40  63
ATOM     63  C   UNL     1       7.859 -10.904   7.121  1.00  0.00     0.023 A 
ATOM     64  C   UNL     1       9.244 -11.103   7.275  1.00  0.00     0.012 A 
ATOM     65  C   UNL     1       6.950 -11.722   7.818  1.00  0.00     0.148 A 
ATOM     66  C   UNL     1       9.720 -12.105   8.118  1.00  0.00     0.002 A 
ATOM     67  C   UNL     1       7.432 -12.697   8.681  1.00  0.00     0.091 A 
ATOM     68  F   UNL     1       5.637 -11.507   7.645  1.00  0.00    -0.205 F 
ATOM     69  C   UNL     1       8.816 -12.892   8.829  1.00  0.00     0.022 A 
BRANCH  67  70
ATOM     70  S   UNL     1       6.354 -13.716   9.693  1.00  0.00     0.127 S 
ATOM     71  O   UNL     1       6.681 -15.059   9.216  1.00  0.00    -0.237 OA
ATOM     72  O   UNL     1       6.829 -13.415  11.043  1.00  0.00    -0.237 OA
ATOM     73  O   UNL     1       4.994 -13.278   9.408  1.00  0.00    -0.744 OA
ENDBRANCH  67  70
ENDBRANCH  40  63
ENDBRANCH  14  15
ENDBRANCH   7   9
ENDBRANCH   6   7
ENDBRANCH   5   6
ENDBRANCH   4   5
ENDBRANCH   3   4
ENDBRANCH   2   3
ENDBRANCH   1   2
BRANCH   1  74
ATOM     74  O   UNL     1       2.549   2.678   2.300  1.00  0.00    -0.377 OA
BRANCH  74  75
ATOM     75  C   UNL     1       3.888   3.119   2.203  1.00  0.00     0.188 C 
BRANCH  75  76
ATOM     76  C   UNL     1       4.937   2.375   3.059  1.00  0.00     0.188 C 
BRANCH  76  77
ATOM     77  O   UNL     1       4.590   1.667   4.238  1.00  0.00    -0.376 OA
BRANCH  77  78
ATOM     78  C   UNL     1       3.413   1.977   4.956  1.00  0.00     0.202 C 
BRANCH  78  79
ATOM     79  C   UNL     1       3.338   3.342   5.655  1.00  0.00     0.261 C 
BRANCH  79  80
ATOM     80  O   UNL     1       3.700   4.472   4.838  1.00  0.00    -0.459 OA
BRANCH  80  81
ATOM     81  C   UNL     1       4.963   4.960   5.006  1.00  0.00     0.343 C 
ATOM     82  O   UNL     1       5.782   4.620   5.829  1.00  0.00    -0.246 OA
BRANCH  81  83
ATOM     83  C   UNL     1       5.265   5.863   3.875  1.00  0.00     0.122 A 
ATOM     84  C   UNL     1       6.444   5.650   3.140  1.00  0.00     0.031 A 
ATOM     85  C   UNL     1       4.370   6.821   3.420  1.00  0.00     0.225 A 
ATOM     86  C   UNL     1       6.663   6.352   1.949  1.00  0.00     0.001 A 
ATOM     87  N   UNL     1       4.594   7.583   2.331  1.00  0.00    -0.221 NA
ATOM     88  C   UNL     1       5.719   7.326   1.622  1.00  0.00     0.124 A 
BRANCH  85  89
ATOM     89  O   UNL     1       3.153   7.040   3.997  1.00  0.00    -0.493 OA
ATOM     90  H   UNL     1       2.902   6.559   4.760  1.00  0.00     0.295 HD
ENDBRANCH  85  89
BRANCH  86  91
ATOM     91  C   UNL     1       7.780   6.052   1.046  1.00  0.00    -0.016 A 
ATOM     92  C   UNL     1       9.089   6.441   1.359  1.00  0.00     0.012 A 
ATOM     93  C   UNL     1       7.552   5.400  -0.184  1.00  0.00     0.025 A 
ATOM     94  C   UNL     1      10.132   6.220   0.455  1.00  0.00     0.040 A 
ATOM     95  C   UNL     1       8.598   5.163  -1.095  1.00  0.00     0.092 A 
ATOM     96  C   UNL     1       9.877   5.596  -0.762  1.00  0.00     0.135 A 
ATOM     97  F   UNL     1      10.887   5.429  -1.626  1.00  0.00    -0.206 F 
BRANCH  95  98
ATOM     98  C   UNL     1       8.370   4.504  -2.422  1.00  0.00     0.419 C 
ATOM     99  F   UNL     1       8.452   5.380  -3.462  1.00  0.00    -0.166 F 
ATOM    100  F   UNL     1       9.251   3.503  -2.695  1.00  0.00    -0.166 F 
ATOM    101  F   UNL     1       7.132   3.936  -2.523  1.00  0.00    -0.166 F 
ENDBRANCH  95  98
ENDBRANCH  86  91
ENDBRANCH  81  83
ENDBRANCH  80  81
ENDBRANCH  79  80
ENDBRANCH  78  79
ENDBRANCH  77  78
ENDBRANCH  76  77
ENDBRANCH  75  76
ENDBRANCH  74  75
ENDBRANCH   1  74
TORSDOF 26
