REMARK SMILES O=C(Cc1ccc(F)c(F)c1)NC1(C(=O)OCCOCCOCCOCCOC(=O)c2ccc(-c3c4nc(c(-c5cccc(S(=O)(=O)[O-])c5F)c5ccc([nH]5)c(-c5cccc(S(=O)(=O)[O-])c5F)c5nc(c(-c6cccc(S(=O)(=O)[O-])c6F)c6ccc3[nH]6)C=C5)C=C4)cc2)CCCC1
REMARK SMILES IDX 22 1 21 2 20 3 19 4 18 5 17 6 16 7 14 8 15 9 13 10 94 11
REMARK SMILES IDX 97 12 95 13 96 14 12 15 1 16 2 17 3 19 4 20 5 21 11 22 6 23
REMARK SMILES IDX 9 24 7 25 10 26 8 27 23 28 24 29 25 30 26 31 27 32 28 33
REMARK SMILES IDX 29 34 30 35 31 36 32 37 93 38 33 39 92 40 34 41 35 42 36 43
REMARK SMILES IDX 86 44 37 45 91 46 85 47 87 48 38 49 90 50 84 51 83 52 39 54
REMARK SMILES IDX 71 55 51 56 70 57 52 58 55 59 69 60 88 61 53 62 54 63 68 65
REMARK SMILES IDX 89 66 56 67 40 68 41 69 49 70 42 71 44 72 50 73 43 74 45 75
REMARK SMILES IDX 46 76 47 77 48 78 72 79 73 80 81 81 74 82 76 83 82 84 75 85
REMARK SMILES IDX 77 86 78 87 79 88 80 89 57 90 58 91 66 92 59 93 61 94 67 95
REMARK SMILES IDX 60 96 62 97 63 98 64 99 65 100
REMARK H PARENT 12 18 87 53 55 64
REMARK Flexibility Score: inf
ROOT
ATOM      1  O   UNL     1       3.315  -3.966   3.415  1.00  0.00    -0.377 OA
ENDROOT
BRANCH   1   2
ATOM      2  C   UNL     1       3.983  -2.786   3.034  1.00  0.00     0.188 C 
BRANCH   2   3
ATOM      3  C   UNL     1       3.456  -1.495   3.665  1.00  0.00     0.188 C 
BRANCH   3   4
ATOM      4  O   UNL     1       2.696  -1.524   4.850  1.00  0.00    -0.376 OA
BRANCH   4   5
ATOM      5  C   UNL     1       1.491  -2.258   4.971  1.00  0.00     0.202 C 
BRANCH   5   6
ATOM      6  C   UNL     1       0.534  -2.636   3.823  1.00  0.00     0.261 C 
BRANCH   6   7
ATOM      7  O   UNL     1       1.091  -2.935   2.537  1.00  0.00    -0.461 OA
BRANCH   7   8
ATOM      8  C   UNL     1       0.985  -1.934   1.631  1.00  0.00     0.331 C 
ATOM      9  O   UNL     1       0.496  -0.842   1.908  1.00  0.00    -0.249 OA
BRANCH   8  10
ATOM     10  C   UNL     1       1.596  -2.271   0.236  1.00  0.00     0.138 C 
ATOM     11  C   UNL     1       0.448  -2.454  -0.766  1.00  0.00     0.040 C 
ATOM     12  C   UNL     1       2.323  -3.624   0.052  1.00  0.00     0.040 C 
ATOM     13  C   UNL     1       0.008  -3.909  -0.578  1.00  0.00     0.003 C 
ATOM     14  C   UNL     1       1.259  -4.680  -0.197  1.00  0.00     0.003 C 
BRANCH  10  15
ATOM     15  N   UNL     1       2.549  -1.173  -0.086  1.00  0.00    -0.340 N 
ATOM     16  O   UNL     1       1.018   0.488  -0.515  1.00  0.00    -0.275 OA
ATOM     17  C   UNL     1       2.180   0.135  -0.335  1.00  0.00     0.225 C 
ATOM     18  H   UNL     1       3.508  -1.393  -0.124  1.00  0.00     0.164 HD
BRANCH  17  19
ATOM     19  C   UNL     1       3.330   1.124  -0.486  1.00  0.00     0.135 C 
BRANCH  19  20
ATOM     20  C   UNL     1       4.037   1.586   0.777  1.00  0.00    -0.036 A 
ATOM     21  C   UNL     1       4.912   0.742   1.480  1.00  0.00     0.007 A 
ATOM     22  C   UNL     1       3.918   2.921   1.208  1.00  0.00     0.046 A 
ATOM     23  C   UNL     1       5.634   1.211   2.587  1.00  0.00     0.043 A 
ATOM     24  C   UNL     1       4.655   3.386   2.299  1.00  0.00     0.159 A 
ATOM     25  C   UNL     1       5.505   2.534   2.988  1.00  0.00     0.158 A 
ATOM     26  F   UNL     1       4.562   4.675   2.658  1.00  0.00    -0.204 F 
ATOM     27  F   UNL     1       6.223   2.982   4.027  1.00  0.00    -0.204 F 
ENDBRANCH  19  20
ENDBRANCH  17  19
ENDBRANCH  10  15
ENDBRANCH   8  10
ENDBRANCH   7   8
ENDBRANCH   6   7
ENDBRANCH   5   6
ENDBRANCH   4   5
ENDBRANCH   3   4
ENDBRANCH   2   3
ENDBRANCH   1   2
BRANCH   1  28
ATOM     28  C   UNL     1       3.747  -4.636   4.593  1.00  0.00     0.188 C 
BRANCH  28  29
ATOM     29  C   UNL     1       4.629  -3.893   5.618  1.00  0.00     0.188 C 
BRANCH  29  30
ATOM     30  O   UNL     1       5.675  -3.116   5.050  1.00  0.00    -0.376 OA
BRANCH  30  31
ATOM     31  C   UNL     1       6.965  -3.694   4.910  1.00  0.00     0.202 C 
BRANCH  31  32
ATOM     32  C   UNL     1       7.116  -4.935   4.014  1.00  0.00     0.261 C 
BRANCH  32  33
ATOM     33  O   UNL     1       6.362  -6.098   4.384  1.00  0.00    -0.460 OA
BRANCH  33  34
ATOM     34  C   UNL     1       6.506  -6.571   5.642  1.00  0.00     0.338 C 
ATOM     35  O   UNL     1       7.271  -6.168   6.492  1.00  0.00    -0.246 OA
BRANCH  34  36
ATOM     36  C   UNL     1       5.415  -7.541   5.885  1.00  0.00     0.060 A 
ATOM     37  C   UNL     1       4.545  -7.321   6.961  1.00  0.00     0.016 A 
ATOM     38  C   UNL     1       5.266  -8.666   5.070  1.00  0.00     0.016 A 
ATOM     39  C   UNL     1       3.565  -8.262   7.269  1.00  0.00     0.010 A 
ATOM     40  C   UNL     1       4.296  -9.618   5.392  1.00  0.00     0.010 A 
ATOM     41  C   UNL     1       3.481  -9.445   6.524  1.00  0.00    -0.014 A 
BRANCH  41  42
ATOM     42  C   UNL     1       2.733 -10.598   7.080  1.00  0.00     0.031 A 
ATOM     43  C   UNL     1       3.518 -11.662   7.803  1.00  0.00     0.074 A 
ATOM     44  C   UNL     1       1.398 -10.698   6.970  1.00  0.00     0.049 A 
ATOM     45  N   UNL     1       3.105 -12.779   8.340  1.00  0.00    -0.248 NA
ATOM     46  C   UNL     1       4.968 -11.435   7.930  1.00  0.00     0.031 C 
ATOM     47  C   UNL     1       0.526  -9.724   6.317  1.00  0.00     0.029 A 
ATOM     48  N   UNL     1       0.545 -11.687   7.392  1.00  0.00    -0.354 N 
ATOM     49  C   UNL     1       4.244 -13.402   8.837  1.00  0.00     0.074 A 
ATOM     50  C   UNL     1       5.367 -12.549   8.523  1.00  0.00     0.031 C 
ATOM     51  C   UNL     1      -0.739 -10.179   6.356  1.00  0.00     0.029 A 
ATOM     52  C   UNL     1      -0.760 -11.486   7.011  1.00  0.00     0.049 A 
ATOM     53  H   UNL     1       0.841 -12.466   7.916  1.00  0.00     0.167 HD
ATOM     54  C   UNL     1       4.348 -14.574   9.506  1.00  0.00     0.034 A 
ATOM     55  C   UNL     1      -1.840 -12.281   7.155  1.00  0.00     0.034 A 
ATOM     56  C   UNL     1       3.228 -15.416   9.826  1.00  0.00     0.049 A 
ATOM     57  C   UNL     1      -1.694 -13.600   7.874  1.00  0.00     0.074 A 
ATOM     58  C   UNL     1       3.222 -16.608  10.527  1.00  0.00     0.029 A 
ATOM     59  N   UNL     1       1.918 -15.163   9.453  1.00  0.00    -0.354 N 
ATOM     60  N   UNL     1      -0.626 -14.135   8.415  1.00  0.00    -0.248 NA
ATOM     61  C   UNL     1      -2.913 -14.407   8.033  1.00  0.00     0.031 C 
ATOM     62  C   UNL     1       1.911 -17.096  10.544  1.00  0.00     0.029 A 
ATOM     63  C   UNL     1       1.094 -16.180   9.901  1.00  0.00     0.049 A 
ATOM     64  H   UNL     1       1.617 -14.376   8.944  1.00  0.00     0.167 HD
ATOM     65  C   UNL     1      -1.054 -15.311   9.024  1.00  0.00     0.074 A 
ATOM     66  C   UNL     1      -2.480 -15.405   8.791  1.00  0.00     0.031 C 
ATOM     67  C   UNL     1      -0.333 -16.232   9.711  1.00  0.00     0.034 A 
BRANCH  54  68
ATOM     68  C   UNL     1       5.723 -15.012   9.936  1.00  0.00     0.023 A 
ATOM     69  C   UNL     1       6.396 -14.319  10.963  1.00  0.00     0.012 A 
ATOM     70  C   UNL     1       6.336 -16.133   9.344  1.00  0.00     0.148 A 
ATOM     71  C   UNL     1       7.671 -14.711  11.368  1.00  0.00     0.002 A 
ATOM     72  C   UNL     1       7.585 -16.549   9.788  1.00  0.00     0.091 A 
ATOM     73  F   UNL     1       5.692 -16.764   8.351  1.00  0.00    -0.205 F 
ATOM     74  C   UNL     1       8.260 -15.832  10.788  1.00  0.00     0.022 A 
BRANCH  72  75
ATOM     75  S   UNL     1       8.390 -18.027   9.163  1.00  0.00     0.127 S 
ATOM     76  O   UNL     1       9.517 -17.459   8.423  1.00  0.00    -0.237 OA
ATOM     77  O   UNL     1       8.759 -18.720  10.398  1.00  0.00    -0.237 OA
ATOM     78  O   UNL     1       7.397 -18.716   8.351  1.00  0.00    -0.744 OA
ENDBRANCH  72  75
ENDBRANCH  54  68
BRANCH  55  79
ATOM     79  C   UNL     1      -3.166 -11.845   6.632  1.00  0.00     0.023 A 
ATOM     80  C   UNL     1      -4.206 -11.540   7.532  1.00  0.00     0.012 A 
ATOM     81  C   UNL     1      -3.401 -11.737   5.248  1.00  0.00     0.148 A 
ATOM     82  C   UNL     1      -5.467 -11.171   7.062  1.00  0.00     0.002 A 
ATOM     83  C   UNL     1      -4.642 -11.314   4.788  1.00  0.00     0.091 A 
ATOM     84  F   UNL     1      -2.402 -12.045   4.409  1.00  0.00    -0.205 F 
ATOM     85  C   UNL     1      -5.682 -11.050   5.691  1.00  0.00     0.022 A 
BRANCH  83  86
ATOM     86  S   UNL     1      -4.974 -11.012   3.049  1.00  0.00     0.127 S 
ATOM     87  O   UNL     1      -5.951 -12.055   2.746  1.00  0.00    -0.237 OA
ATOM     88  O   UNL     1      -5.513  -9.652   3.081  1.00  0.00    -0.237 OA
ATOM     89  O   UNL     1      -3.690 -11.136   2.373  1.00  0.00    -0.744 OA
ENDBRANCH  83  86
ENDBRANCH  55  79
BRANCH  67  90
ATOM     90  C   UNL     1      -1.076 -17.386  10.335  1.00  0.00     0.023 A 
ATOM     91  C   UNL     1      -1.632 -18.399   9.530  1.00  0.00     0.012 A 
ATOM     92  C   UNL     1      -1.163 -17.494  11.739  1.00  0.00     0.148 A 
ATOM     93  C   UNL     1      -2.300 -19.478  10.110  1.00  0.00     0.002 A 
ATOM     94  C   UNL     1      -1.779 -18.600  12.310  1.00  0.00     0.091 A 
ATOM     95  F   UNL     1      -0.642 -16.513  12.489  1.00  0.00    -0.205 F 
ATOM     96  C   UNL     1      -2.363 -19.585  11.498  1.00  0.00     0.022 A 
BRANCH  94  97
ATOM     97  S   UNL     1      -1.813 -18.871  14.086  1.00  0.00     0.127 S 
ATOM     98  O   UNL     1      -3.217 -18.612  14.399  1.00  0.00    -0.237 OA
ATOM     99  O   UNL     1      -1.413 -20.274  14.193  1.00  0.00    -0.237 OA
ATOM    100  O   UNL     1      -0.861 -17.926  14.655  1.00  0.00    -0.744 OA
ENDBRANCH  94  97
ENDBRANCH  67  90
ENDBRANCH  41  42
ENDBRANCH  34  36
ENDBRANCH  33  34
ENDBRANCH  32  33
ENDBRANCH  31  32
ENDBRANCH  30  31
ENDBRANCH  29  30
ENDBRANCH  28  29
ENDBRANCH   1  28
TORSDOF 26
