REMARK SMILES O=C(Cn1c2ccccc2c(=O)c2cc(F)ccc21)OCCOCCOCCOCCOC(=O)c1ccc(-c2c3nc(c(-c4cccc(S(=O)(=O)[O-])c4F)c4ccc([nH]4)c(-c4cccc(S(=O)(=O)[O-])c4F)c4nc(c(-c5cccc(S(=O)(=O)[O-])c5F)c5ccc2[nH]5)C=C4)C=C3)cc1
REMARK SMILES IDX 27 1 26 2 25 3 24 4 23 5 22 6 21 7 20 8 2 9 1 10 3 11 4 12
REMARK SMILES IDX 5 13 19 14 6 15 10 16 13 17 18 18 7 19 9 20 11 21 14 22
REMARK SMILES IDX 17 23 8 24 12 25 15 26 16 27 28 28 29 29 30 30 31 31 32 32
REMARK SMILES IDX 33 33 34 34 35 35 36 36 97 37 37 38 96 39 38 40 39 41 40 42
REMARK SMILES IDX 90 43 41 44 95 45 89 46 91 47 42 48 94 49 88 50 87 51 43 53
REMARK SMILES IDX 75 54 55 55 74 56 56 57 59 58 73 59 92 60 57 61 58 62 72 64
REMARK SMILES IDX 93 65 60 66 44 67 45 68 53 69 46 70 48 71 54 72 47 73 49 74
REMARK SMILES IDX 50 75 51 76 52 77 76 78 77 79 85 80 78 81 80 82 86 83 79 84
REMARK SMILES IDX 81 85 82 86 83 87 84 88 61 89 62 90 70 91 63 92 65 93 71 94
REMARK SMILES IDX 64 95 66 96 67 97 68 98 69 99
REMARK H PARENT 91 52 59 63
REMARK Flexibility Score: inf
ROOT
ATOM      1  C   UNL     1       4.090   0.036   3.615  1.00  0.00     0.188 C 
ENDROOT
BRANCH   1   2
ATOM      2  O   UNL     1       2.732  -0.379   3.624  1.00  0.00    -0.377 OA
BRANCH   2   3
ATOM      3  C   UNL     1       2.143  -0.477   2.331  1.00  0.00     0.188 C 
BRANCH   3   4
ATOM      4  C   UNL     1       2.784  -1.553   1.445  1.00  0.00     0.188 C 
BRANCH   4   5
ATOM      5  O   UNL     1       4.174  -1.364   1.237  1.00  0.00    -0.376 OA
BRANCH   5   6
ATOM      6  C   UNL     1       4.673  -0.603   0.154  1.00  0.00     0.202 C 
BRANCH   6   7
ATOM      7  C   UNL     1       4.090   0.773  -0.141  1.00  0.00     0.261 C 
BRANCH   7   8
ATOM      8  O   UNL     1       2.660   0.862  -0.317  1.00  0.00    -0.462 OA
BRANCH   8   9
ATOM      9  C   UNL     1       1.812   0.191  -1.109  1.00  0.00     0.326 C 
ATOM     10  O   UNL     1       0.600   0.332  -0.920  1.00  0.00    -0.250 OA
BRANCH   9  11
ATOM     11  C   UNL     1       2.278  -0.807  -2.147  1.00  0.00     0.245 C 
BRANCH  11  12
ATOM     12  N   UNL     1       3.499  -0.544  -2.939  1.00  0.00    -0.329 N 
ATOM     13  C   UNL     1       3.748   0.758  -3.444  1.00  0.00     0.053 A 
ATOM     14  C   UNL     1       4.321  -1.662  -3.278  1.00  0.00     0.053 A 
ATOM     15  C   UNL     1       2.905   1.865  -3.242  1.00  0.00     0.027 A 
ATOM     16  C   UNL     1       4.955   1.019  -4.115  1.00  0.00     0.046 A 
ATOM     17  C   UNL     1       5.441  -1.473  -4.112  1.00  0.00     0.049 A 
ATOM     18  C   UNL     1       4.121  -2.979  -2.804  1.00  0.00     0.030 A 
ATOM     19  C   UNL     1       3.339   3.175  -3.480  1.00  0.00     0.002 A 
ATOM     20  C   UNL     1       5.388   2.326  -4.382  1.00  0.00     0.014 A 
ATOM     21  C   UNL     1       5.792  -0.112  -4.556  1.00  0.00     0.197 A 
ATOM     22  C   UNL     1       6.270  -2.535  -4.509  1.00  0.00     0.053 A 
ATOM     23  C   UNL     1       4.969  -4.036  -3.164  1.00  0.00     0.041 A 
ATOM     24  C   UNL     1       4.596   3.407  -4.016  1.00  0.00     0.001 A 
ATOM     25  O   UNL     1       6.759   0.069  -5.287  1.00  0.00    -0.288 OA
ATOM     26  C   UNL     1       6.022  -3.807  -4.030  1.00  0.00     0.124 A 
ATOM     27  F   UNL     1       6.813  -4.825  -4.393  1.00  0.00    -0.207 F 
ENDBRANCH  11  12
ENDBRANCH   9  11
ENDBRANCH   8   9
ENDBRANCH   7   8
ENDBRANCH   6   7
ENDBRANCH   5   6
ENDBRANCH   4   5
ENDBRANCH   3   4
ENDBRANCH   2   3
ENDBRANCH   1   2
BRANCH   1  28
ATOM     28  C   UNL     1       5.139  -1.063   3.905  1.00  0.00     0.188 C 
BRANCH  28  29
ATOM     29  O   UNL     1       4.783  -2.423   4.129  1.00  0.00    -0.376 OA
BRANCH  29  30
ATOM     30  C   UNL     1       3.570  -2.762   4.776  1.00  0.00     0.202 C 
BRANCH  30  31
ATOM     31  C   UNL     1       3.293  -2.267   6.200  1.00  0.00     0.261 C 
BRANCH  31  32
ATOM     32  O   UNL     1       3.508  -0.869   6.408  1.00  0.00    -0.460 OA
BRANCH  32  33
ATOM     33  C   UNL     1       4.680  -0.541   7.004  1.00  0.00     0.338 C 
ATOM     34  O   UNL     1       5.539  -1.308   7.407  1.00  0.00    -0.246 OA
BRANCH  33  35
ATOM     35  C   UNL     1       4.860   0.924   6.912  1.00  0.00     0.060 A 
ATOM     36  C   UNL     1       3.809   1.800   7.196  1.00  0.00     0.016 A 
ATOM     37  C   UNL     1       6.102   1.419   6.488  1.00  0.00     0.016 A 
ATOM     38  C   UNL     1       4.018   3.176   7.100  1.00  0.00     0.010 A 
ATOM     39  C   UNL     1       6.305   2.793   6.375  1.00  0.00     0.010 A 
ATOM     40  C   UNL     1       5.275   3.679   6.717  1.00  0.00    -0.014 A 
BRANCH  40  41
ATOM     41  C   UNL     1       5.577   5.110   6.940  1.00  0.00     0.031 A 
ATOM     42  C   UNL     1       5.567   6.122   5.841  1.00  0.00     0.074 A 
ATOM     43  C   UNL     1       5.889   5.472   8.199  1.00  0.00     0.049 A 
ATOM     44  N   UNL     1       5.672   7.422   5.937  1.00  0.00    -0.248 NA
ATOM     45  C   UNL     1       5.433   5.625   4.465  1.00  0.00     0.031 C 
ATOM     46  C   UNL     1       6.004   4.544   9.328  1.00  0.00     0.029 A 
ATOM     47  N   UNL     1       6.161   6.698   8.743  1.00  0.00    -0.354 N 
ATOM     48  C   UNL     1       5.619   7.906   4.638  1.00  0.00     0.074 A 
ATOM     49  C   UNL     1       5.491   6.755   3.767  1.00  0.00     0.031 C 
ATOM     50  C   UNL     1       6.298   5.237  10.436  1.00  0.00     0.029 A 
ATOM     51  C   UNL     1       6.395   6.653  10.096  1.00  0.00     0.049 A 
ATOM     52  H   UNL     1       6.186   7.529   8.217  1.00  0.00     0.167 HD
ATOM     53  C   UNL     1       5.653   9.195   4.224  1.00  0.00     0.034 A 
ATOM     54  C   UNL     1       6.636   7.642  10.975  1.00  0.00     0.034 A 
ATOM     55  C   UNL     1       5.771  10.326   5.107  1.00  0.00     0.049 A 
ATOM     56  C   UNL     1       6.631   9.061  10.496  1.00  0.00     0.074 A 
ATOM     57  C   UNL     1       5.726  11.672   4.787  1.00  0.00     0.029 A 
ATOM     58  N   UNL     1       5.979  10.248   6.476  1.00  0.00    -0.354 N 
ATOM     59  N   UNL     1       6.404   9.514   9.287  1.00  0.00    -0.248 NA
ATOM     60  C   UNL     1       6.879  10.105  11.498  1.00  0.00     0.031 C 
ATOM     61  C   UNL     1       5.925  12.408   5.960  1.00  0.00     0.029 A 
ATOM     62  C   UNL     1       6.079  11.520   7.013  1.00  0.00     0.049 A 
ATOM     63  H   UNL     1       6.044   9.411   6.990  1.00  0.00     0.167 HD
ATOM     64  C   UNL     1       6.465  10.897   9.383  1.00  0.00     0.074 A 
ATOM     65  C   UNL     1       6.737  11.209  10.772  1.00  0.00     0.031 C 
ATOM     66  C   UNL     1       6.318  11.820   8.402  1.00  0.00     0.034 A 
BRANCH  53  67
ATOM     67  C   UNL     1       5.493   9.474   2.755  1.00  0.00     0.023 A 
ATOM     68  C   UNL     1       4.206   9.415   2.186  1.00  0.00     0.012 A 
ATOM     69  C   UNL     1       6.580   9.905   1.970  1.00  0.00     0.148 A 
ATOM     70  C   UNL     1       4.001   9.773   0.854  1.00  0.00     0.002 A 
ATOM     71  C   UNL     1       6.365  10.284   0.650  1.00  0.00     0.091 A 
ATOM     72  F   UNL     1       7.797   9.944   2.531  1.00  0.00    -0.205 F 
ATOM     73  C   UNL     1       5.078  10.216   0.090  1.00  0.00     0.022 A 
BRANCH  71  74
ATOM     74  S   UNL     1       7.672  10.914  -0.410  1.00  0.00     0.127 S 
ATOM     75  O   UNL     1       7.795   9.837  -1.392  1.00  0.00    -0.237 OA
ATOM     76  O   UNL     1       7.080  12.147  -0.929  1.00  0.00    -0.237 OA
ATOM     77  O   UNL     1       8.831  11.106   0.450  1.00  0.00    -0.744 OA
ENDBRANCH  71  74
ENDBRANCH  53  67
BRANCH  54  78
ATOM     78  C   UNL     1       6.790   7.294  12.411  1.00  0.00     0.023 A 
ATOM     79  C   UNL     1       5.700   7.485  13.280  1.00  0.00     0.012 A 
ATOM     80  C   UNL     1       7.954   6.657  12.883  1.00  0.00     0.148 A 
ATOM     81  C   UNL     1       5.767   7.047  14.602  1.00  0.00     0.002 A 
ATOM     82  C   UNL     1       7.999   6.190  14.190  1.00  0.00     0.091 A 
ATOM     83  F   UNL     1       8.968   6.478  12.025  1.00  0.00    -0.205 F 
ATOM     84  C   UNL     1       6.910   6.391  15.054  1.00  0.00     0.022 A 
BRANCH  82  85
ATOM     85  S   UNL     1       9.380   5.240  14.833  1.00  0.00     0.127 S 
ATOM     86  O   UNL     1       9.847   6.094  15.923  1.00  0.00    -0.237 OA
ATOM     87  O   UNL     1       8.719   4.006  15.257  1.00  0.00    -0.237 OA
ATOM     88  O   UNL     1      10.309   5.085  13.723  1.00  0.00    -0.744 OA
ENDBRANCH  82  85
ENDBRANCH  54  78
BRANCH  66  89
ATOM     89  C   UNL     1       6.450  13.270   8.775  1.00  0.00     0.023 A 
ATOM     90  C   UNL     1       7.734  13.824   8.940  1.00  0.00     0.012 A 
ATOM     91  C   UNL     1       5.317  14.106   8.825  1.00  0.00     0.148 A 
ATOM     92  C   UNL     1       7.889  15.192   9.153  1.00  0.00     0.002 A 
ATOM     93  C   UNL     1       5.482  15.474   9.003  1.00  0.00     0.091 A 
ATOM     94  F   UNL     1       4.107  13.550   8.672  1.00  0.00    -0.205 F 
ATOM     95  C   UNL     1       6.767  16.018   9.171  1.00  0.00     0.022 A 
BRANCH  93  96
ATOM     96  S   UNL     1       4.109  16.631   8.966  1.00  0.00     0.127 S 
ATOM     97  O   UNL     1       4.125  17.157  10.330  1.00  0.00    -0.237 OA
ATOM     98  O   UNL     1       4.535  17.581   7.939  1.00  0.00    -0.237 OA
ATOM     99  O   UNL     1       2.929  15.848   8.621  1.00  0.00    -0.744 OA
ENDBRANCH  93  96
ENDBRANCH  66  89
ENDBRANCH  40  41
ENDBRANCH  33  35
ENDBRANCH  32  33
ENDBRANCH  31  32
ENDBRANCH  30  31
ENDBRANCH  29  30
ENDBRANCH  28  29
ENDBRANCH   1  28
TORSDOF 24
