REMARK SMILES C[C@@H]([NH2+]C[C@H]1CCC[C@@H]1C(=O)OCCOCCOCCOCCOC(=O)c1ccc(-c2c3nc(c(-c4cccc(S(=O)(=O)[O-])c4F)c4ccc([nH]4)c(-c4cccc(S(=O)(=O)[O-])c4F)c4nc(c(-c5cccc(S(=O)(=O)[O-])c5F)c5ccc2[nH]5)C=C4)C=C3)cc1)c1cc(F)ccc1O
REMARK SMILES IDX 17 1 16 2 15 3 14 4 13 5 12 6 10 7 11 8 9 9 5 10 6 11 7 12
REMARK SMILES IDX 8 13 4 14 3 15 2 18 1 19 90 20 91 21 96 22 92 23 95 24 93 25
REMARK SMILES IDX 94 26 97 27 18 29 19 30 20 31 21 32 22 33 23 34 24 35 25 36
REMARK SMILES IDX 26 37 27 38 28 39 89 40 29 41 88 42 30 43 31 44 32 45 82 46
REMARK SMILES IDX 33 47 87 48 81 49 83 50 34 51 86 52 80 53 79 54 35 56 67 57
REMARK SMILES IDX 47 58 66 59 48 60 51 61 65 62 84 63 49 64 50 65 64 67 85 68
REMARK SMILES IDX 52 69 36 70 37 71 45 72 38 73 40 74 46 75 39 76 41 77 42 78
REMARK SMILES IDX 43 79 44 80 68 81 69 82 77 83 70 84 72 85 78 86 71 87 73 88
REMARK SMILES IDX 74 89 75 90 76 91 53 92 54 93 62 94 55 95 57 96 63 97 56 98
REMARK SMILES IDX 58 99 59 100 60 101 61 102
REMARK H PARENT 3 16 3 17 97 28 83 55 51 66
REMARK Flexibility Score: inf
ROOT
ATOM      1  C   UNL     1      -0.622   4.116  -6.303  1.00  0.00     0.188 C 
ENDROOT
BRANCH   1   2
ATOM      2  C   UNL     1       0.131   4.051  -7.633  1.00  0.00     0.188 C 
BRANCH   2   3
ATOM      3  O   UNL     1      -0.117   2.997  -8.552  1.00  0.00    -0.376 OA
BRANCH   3   4
ATOM      4  C   UNL     1      -0.659   1.764  -8.095  1.00  0.00     0.202 C 
BRANCH   4   5
ATOM      5  C   UNL     1       0.128   0.922  -7.066  1.00  0.00     0.261 C 
BRANCH   5   6
ATOM      6  O   UNL     1       0.458   1.537  -5.794  1.00  0.00    -0.463 OA
BRANCH   6   7
ATOM      7  C   UNL     1       1.757   1.868  -5.589  1.00  0.00     0.309 C 
ATOM      8  O   UNL     1       2.645   1.694  -6.421  1.00  0.00    -0.252 OA
BRANCH   7   9
ATOM      9  C   UNL     1       2.069   2.570  -4.252  1.00  0.00     0.108 C 
ATOM     10  C   UNL     1       1.036   2.655  -3.102  1.00  0.00     0.058 C 
ATOM     11  C   UNL     1       0.482   4.087  -3.139  1.00  0.00     0.010 C 
ATOM     12  C   UNL     1       1.610   4.943  -3.677  1.00  0.00     0.001 C 
ATOM     13  C   UNL     1       2.507   4.026  -4.503  1.00  0.00     0.016 C 
BRANCH  10  14
ATOM     14  C   UNL     1       1.730   2.371  -1.739  1.00  0.00     0.265 C 
BRANCH  14  15
ATOM     15  N   UNL     1       1.016   2.807  -0.524  1.00  0.00    -0.340 N 
ATOM     16  H   UNL     1       1.528   2.473   0.292  1.00  0.00     0.346 HD
ATOM     17  H   UNL     1       0.964   3.825  -0.547  1.00  0.00     0.346 HD
BRANCH  15  18
ATOM     18  C   UNL     1      -0.368   2.292  -0.457  1.00  0.00     0.214 C 
ATOM     19  C   UNL     1      -1.186   3.160   0.509  1.00  0.00     0.081 C 
BRANCH  18  20
ATOM     20  C   UNL     1      -0.358   0.833  -0.071  1.00  0.00     0.054 A 
ATOM     21  C   UNL     1      -0.928  -0.109  -0.939  1.00  0.00     0.053 A 
ATOM     22  C   UNL     1       0.264   0.365   1.098  1.00  0.00     0.124 A 
ATOM     23  C   UNL     1      -0.885  -1.462  -0.623  1.00  0.00     0.123 A 
ATOM     24  C   UNL     1       0.253  -0.984   1.440  1.00  0.00     0.050 A 
ATOM     25  F   UNL     1      -1.354  -2.349  -1.507  1.00  0.00    -0.207 F 
ATOM     26  C   UNL     1      -0.323  -1.905   0.568  1.00  0.00     0.043 A 
BRANCH  22  27
ATOM     27  O   UNL     1       0.978   1.212   1.902  1.00  0.00    -0.507 OA
ATOM     28  H   UNL     1       1.011   2.127   1.706  1.00  0.00     0.293 HD
ENDBRANCH  22  27
ENDBRANCH  18  20
ENDBRANCH  15  18
ENDBRANCH  14  15
ENDBRANCH  10  14
ENDBRANCH   7   9
ENDBRANCH   6   7
ENDBRANCH   5   6
ENDBRANCH   4   5
ENDBRANCH   3   4
ENDBRANCH   2   3
ENDBRANCH   1   2
BRANCH   1  29
ATOM     29  O   UNL     1      -1.762   3.296  -6.186  1.00  0.00    -0.377 OA
BRANCH  29  30
ATOM     30  C   UNL     1      -3.026   3.891  -6.399  1.00  0.00     0.188 C 
BRANCH  30  31
ATOM     31  C   UNL     1      -3.109   4.970  -7.486  1.00  0.00     0.188 C 
BRANCH  31  32
ATOM     32  O   UNL     1      -2.167   6.025  -7.309  1.00  0.00    -0.376 OA
BRANCH  32  33
ATOM     33  C   UNL     1      -2.582   7.209  -6.644  1.00  0.00     0.202 C 
BRANCH  33  34
ATOM     34  C   UNL     1      -2.905   7.131  -5.140  1.00  0.00     0.261 C 
BRANCH  34  35
ATOM     35  O   UNL     1      -3.951   6.235  -4.738  1.00  0.00    -0.460 OA
BRANCH  35  36
ATOM     36  C   UNL     1      -5.169   6.379  -5.300  1.00  0.00     0.338 C 
ATOM     37  O   UNL     1      -5.514   7.243  -6.089  1.00  0.00    -0.246 OA
BRANCH  36  38
ATOM     38  C   UNL     1      -5.963   5.179  -4.961  1.00  0.00     0.060 A 
ATOM     39  C   UNL     1      -6.431   4.365  -6.001  1.00  0.00     0.016 A 
ATOM     40  C   UNL     1      -6.231   4.850  -3.630  1.00  0.00     0.016 A 
ATOM     41  C   UNL     1      -7.199   3.237  -5.715  1.00  0.00     0.010 A 
ATOM     42  C   UNL     1      -7.023   3.733  -3.346  1.00  0.00     0.010 A 
ATOM     43  C   UNL     1      -7.541   2.945  -4.390  1.00  0.00    -0.014 A 
BRANCH  43  44
ATOM     44  C   UNL     1      -8.605   1.950  -4.117  1.00  0.00     0.031 A 
ATOM     45  C   UNL     1     -10.001   2.451  -3.872  1.00  0.00     0.074 A 
ATOM     46  C   UNL     1      -8.346   0.631  -4.089  1.00  0.00     0.049 A 
ATOM     47  N   UNL     1     -11.087   1.782  -3.590  1.00  0.00    -0.248 NA
ATOM     48  C   UNL     1     -10.194   3.909  -3.951  1.00  0.00     0.031 C 
ATOM     49  C   UNL     1      -7.037   0.022  -4.310  1.00  0.00     0.029 A 
ATOM     50  N   UNL     1      -9.176  -0.431  -3.827  1.00  0.00    -0.354 N 
ATOM     51  C   UNL     1     -12.084   2.736  -3.421  1.00  0.00     0.074 A 
ATOM     52  C   UNL     1     -11.471   4.030  -3.623  1.00  0.00     0.031 C 
ATOM     53  C   UNL     1      -7.142  -1.306  -4.131  1.00  0.00     0.029 A 
ATOM     54  C   UNL     1      -8.518  -1.635  -3.761  1.00  0.00     0.049 A 
ATOM     55  H   UNL     1     -10.148  -0.338  -3.700  1.00  0.00     0.167 HD
ATOM     56  C   UNL     1     -13.393   2.552  -3.132  1.00  0.00     0.034 A 
ATOM     57  C   UNL     1      -8.968  -2.856  -3.406  1.00  0.00     0.034 A 
ATOM     58  C   UNL     1     -14.000   1.264  -2.934  1.00  0.00     0.049 A 
ATOM     59  C   UNL     1     -10.424  -3.039  -3.067  1.00  0.00     0.074 A 
ATOM     60  C   UNL     1     -15.329   0.967  -2.695  1.00  0.00     0.029 A 
ATOM     61  N   UNL     1     -13.312   0.061  -2.919  1.00  0.00    -0.354 N 
ATOM     62  N   UNL     1     -11.384  -2.145  -3.038  1.00  0.00    -0.248 NA
ATOM     63  C   UNL     1     -10.868  -4.404  -2.748  1.00  0.00     0.031 C 
ATOM     64  C   UNL     1     -15.437  -0.412  -2.488  1.00  0.00     0.029 A 
ATOM     65  C   UNL     1     -14.184  -0.981  -2.651  1.00  0.00     0.049 A 
ATOM     66  H   UNL     1     -12.345  -0.039  -3.077  1.00  0.00     0.167 HD
ATOM     67  C   UNL     1     -12.548  -2.842  -2.728  1.00  0.00     0.074 A 
ATOM     68  C   UNL     1     -12.175  -4.236  -2.598  1.00  0.00     0.031 C 
ATOM     69  C   UNL     1     -13.809  -2.370  -2.560  1.00  0.00     0.034 A 
BRANCH  56  70
ATOM     70  C   UNL     1     -14.252   3.784  -3.002  1.00  0.00     0.023 A 
ATOM     71  C   UNL     1     -14.554   4.561  -4.140  1.00  0.00     0.012 A 
ATOM     72  C   UNL     1     -14.771   4.164  -1.750  1.00  0.00     0.148 A 
ATOM     73  C   UNL     1     -15.316   5.723  -4.025  1.00  0.00     0.002 A 
ATOM     74  C   UNL     1     -15.574   5.294  -1.652  1.00  0.00     0.091 A 
ATOM     75  F   UNL     1     -14.453   3.429  -0.675  1.00  0.00    -0.205 F 
ATOM     76  C   UNL     1     -15.834   6.083  -2.784  1.00  0.00     0.022 A 
BRANCH  74  77
ATOM     77  S   UNL     1     -16.352   5.793  -0.113  1.00  0.00     0.127 S 
ATOM     78  O   UNL     1     -15.579   6.984   0.236  1.00  0.00    -0.237 OA
ATOM     79  O   UNL     1     -17.727   6.062  -0.537  1.00  0.00    -0.237 OA
ATOM     80  O   UNL     1     -16.208   4.663   0.795  1.00  0.00    -0.744 OA
ENDBRANCH  74  77
ENDBRANCH  56  70
BRANCH  57  81
ATOM     81  C   UNL     1      -8.018  -4.003  -3.357  1.00  0.00     0.023 A 
ATOM     82  C   UNL     1      -8.106  -5.033  -4.312  1.00  0.00     0.012 A 
ATOM     83  C   UNL     1      -7.004  -4.052  -2.381  1.00  0.00     0.148 A 
ATOM     84  C   UNL     1      -7.211  -6.105  -4.282  1.00  0.00     0.002 A 
ATOM     85  C   UNL     1      -6.084  -5.092  -2.391  1.00  0.00     0.091 A 
ATOM     86  F   UNL     1      -6.951  -3.067  -1.473  1.00  0.00    -0.205 F 
ATOM     87  C   UNL     1      -6.194  -6.128  -3.331  1.00  0.00     0.022 A 
BRANCH  85  88
ATOM     88  S   UNL     1      -4.668  -5.139  -1.286  1.00  0.00     0.127 S 
ATOM     89  O   UNL     1      -4.971  -6.308  -0.463  1.00  0.00    -0.237 OA
ATOM     90  O   UNL     1      -3.565  -5.320  -2.229  1.00  0.00    -0.237 OA
ATOM     91  O   UNL     1      -4.671  -3.862  -0.587  1.00  0.00    -0.744 OA
ENDBRANCH  85  88
ENDBRANCH  57  81
BRANCH  69  92
ATOM     92  C   UNL     1     -14.900  -3.367  -2.257  1.00  0.00     0.023 A 
ATOM     93  C   UNL     1     -14.955  -3.999  -0.999  1.00  0.00     0.012 A 
ATOM     94  C   UNL     1     -15.917  -3.618  -3.201  1.00  0.00     0.148 A 
ATOM     95  C   UNL     1     -15.985  -4.891  -0.699  1.00  0.00     0.002 A 
ATOM     96  C   UNL     1     -16.968  -4.465  -2.874  1.00  0.00     0.091 A 
ATOM     97  F   UNL     1     -15.839  -3.019  -4.398  1.00  0.00    -0.205 F 
ATOM     98  C   UNL     1     -16.996  -5.115  -1.630  1.00  0.00     0.022 A 
BRANCH  96  99
ATOM     99  S   UNL     1     -18.366  -4.733  -3.971  1.00  0.00     0.127 S 
ATOM    100  O   UNL     1     -18.151  -6.116  -4.395  1.00  0.00    -0.237 OA
ATOM    101  O   UNL     1     -19.505  -4.542  -3.072  1.00  0.00    -0.237 OA
ATOM    102  O   UNL     1     -18.251  -3.733  -5.023  1.00  0.00    -0.744 OA
ENDBRANCH  96  99
ENDBRANCH  69  92
ENDBRANCH  43  44
ENDBRANCH  36  38
ENDBRANCH  35  36
ENDBRANCH  34  35
ENDBRANCH  33  34
ENDBRANCH  32  33
ENDBRANCH  31  32
ENDBRANCH  30  31
ENDBRANCH  29  30
ENDBRANCH   1  29
TORSDOF 28
