REMARK SMILES COc1ccc(NC(=O)C[C@@H](C[NH+]2CCOCC2)C(=O)OCCOCCOCCOCCOC(=O)c2ccc(-c3c4nc(c(-c5cccc(S(=O)(=O)[O-])c5F)c5ccc([nH]5)c(-c5cccc(S(=O)(=O)[O-])c5F)c5nc(c(-c6cccc(S(=O)(=O)[O-])c6F)c6ccc3[nH]6)C=C5)C=C4)cc2)cc1
REMARK SMILES IDX 26 1 25 2 24 3 23 4 22 5 21 6 19 7 20 8 11 9 10 10 8 11 7 12
REMARK SMILES IDX 9 14 6 15 3 16 4 17 100 18 5 19 99 20 2 21 1 22 12 23 13 24
REMARK SMILES IDX 14 25 18 26 15 28 17 29 16 30 27 31 28 32 29 33 30 34 31 35
REMARK SMILES IDX 32 36 33 37 34 38 35 39 36 40 37 41 98 42 38 43 97 44 39 45
REMARK SMILES IDX 40 46 41 47 91 48 42 49 96 50 90 51 92 52 43 53 95 54 89 55
REMARK SMILES IDX 88 56 44 58 76 59 56 60 75 61 57 62 60 63 74 64 93 65 58 66
REMARK SMILES IDX 59 67 73 69 94 70 61 71 45 72 46 73 54 74 47 75 49 76 55 77
REMARK SMILES IDX 48 78 50 79 51 80 52 81 53 82 77 83 78 84 86 85 79 86 81 87
REMARK SMILES IDX 87 88 80 89 82 90 83 91 84 92 85 93 62 94 63 95 71 96 64 97
REMARK SMILES IDX 66 98 72 99 65 100 67 101 68 102 69 103 70 104
REMARK H PARENT 7 13 13 27 92 57 60 68
REMARK Flexibility Score: inf
ROOT
ATOM      1  C   UNL     1      -3.615  -7.569  -3.036  1.00  0.00     0.188 C 
ENDROOT
BRANCH   1   2
ATOM      2  C   UNL     1      -4.088  -8.277  -1.748  1.00  0.00     0.188 C 
BRANCH   2   3
ATOM      3  O   UNL     1      -5.150  -7.748  -0.973  1.00  0.00    -0.376 OA
BRANCH   3   4
ATOM      4  C   UNL     1      -5.045  -6.449  -0.415  1.00  0.00     0.202 C 
BRANCH   4   5
ATOM      5  C   UNL     1      -3.700  -5.850  -0.029  1.00  0.00     0.261 C 
BRANCH   5   6
ATOM      6  O   UNL     1      -2.670  -5.845  -1.027  1.00  0.00    -0.463 OA
BRANCH   6   7
ATOM      7  C   UNL     1      -1.516  -6.496  -0.722  1.00  0.00     0.315 C 
ATOM      8  O   UNL     1      -1.430  -7.415   0.089  1.00  0.00    -0.252 OA
BRANCH   7   9
ATOM      9  C   UNL     1      -0.289  -5.814  -1.308  1.00  0.00     0.163 C 
BRANCH   9  10
ATOM     10  C   UNL     1      -0.380  -5.477  -2.805  1.00  0.00     0.121 C 
BRANCH  10  11
ATOM     11  C   UNL     1       0.890  -5.863  -3.570  1.00  0.00     0.225 C 
ATOM     12  N   UNL     1       2.047  -5.138  -3.548  1.00  0.00    -0.326 N 
ATOM     13  H   UNL     1       2.802  -5.581  -3.999  1.00  0.00     0.169 HD
ATOM     14  O   UNL     1       0.933  -6.949  -4.165  1.00  0.00    -0.275 OA
BRANCH  12  15
ATOM     15  C   UNL     1       2.367  -3.887  -3.008  1.00  0.00     0.041 A 
ATOM     16  C   UNL     1       3.030  -1.577  -1.538  1.00  0.00     0.119 A 
ATOM     17  C   UNL     1       1.758  -1.739  -2.070  1.00  0.00     0.048 A 
ATOM     18  C   UNL     1       4.008  -2.522  -1.857  1.00  0.00     0.048 A 
ATOM     19  C   UNL     1       1.442  -2.870  -2.830  1.00  0.00     0.030 A 
ATOM     20  C   UNL     1       3.686  -3.663  -2.605  1.00  0.00     0.030 A 
BRANCH  16  21
ATOM     21  O   UNL     1       3.444  -0.554  -0.735  1.00  0.00    -0.497 OA
ATOM     22  C   UNL     1       2.471   0.398  -0.305  1.00  0.00     0.278 C 
ENDBRANCH  16  21
ENDBRANCH  12  15
ENDBRANCH  10  11
ENDBRANCH   9  10
BRANCH   9  23
ATOM     23  C   UNL     1       0.024  -4.648  -0.335  1.00  0.00     0.278 C 
BRANCH  23  24
ATOM     24  N   UNL     1      -1.171  -3.914   0.075  1.00  0.00    -0.330 N 
ATOM     25  C   UNL     1      -1.394  -2.559  -0.428  1.00  0.00     0.291 C 
ATOM     26  C   UNL     1      -1.490  -4.010   1.503  1.00  0.00     0.291 C 
ATOM     27  H   UNL     1      -1.852  -4.459  -0.455  1.00  0.00     0.348 HD
ATOM     28  C   UNL     1      -0.861  -1.450   0.496  1.00  0.00     0.221 C 
ATOM     29  C   UNL     1      -0.794  -2.934   2.323  1.00  0.00     0.221 C 
ATOM     30  O   UNL     1      -1.220  -1.646   1.873  1.00  0.00    -0.370 OA
ENDBRANCH  23  24
ENDBRANCH   9  23
ENDBRANCH   7   9
ENDBRANCH   6   7
ENDBRANCH   5   6
ENDBRANCH   4   5
ENDBRANCH   3   4
ENDBRANCH   2   3
ENDBRANCH   1   2
BRANCH   1  31
ATOM     31  O   UNL     1      -3.944  -6.201  -3.190  1.00  0.00    -0.377 OA
BRANCH  31  32
ATOM     32  C   UNL     1      -5.247  -5.824  -3.615  1.00  0.00     0.188 C 
BRANCH  32  33
ATOM     33  C   UNL     1      -6.399  -6.845  -3.578  1.00  0.00     0.188 C 
BRANCH  33  34
ATOM     34  O   UNL     1      -6.032  -8.169  -3.923  1.00  0.00    -0.376 OA
BRANCH  34  35
ATOM     35  C   UNL     1      -6.122  -8.586  -5.275  1.00  0.00     0.202 C 
BRANCH  35  36
ATOM     36  C   UNL     1      -5.400  -7.767  -6.357  1.00  0.00     0.261 C 
BRANCH  36  37
ATOM     37  O   UNL     1      -5.789  -6.392  -6.500  1.00  0.00    -0.460 OA
BRANCH  37  38
ATOM     38  C   UNL     1      -7.101  -6.109  -6.665  1.00  0.00     0.338 C 
ATOM     39  O   UNL     1      -8.013  -6.893  -6.785  1.00  0.00    -0.246 OA
BRANCH  38  40
ATOM     40  C   UNL     1      -7.258  -4.651  -6.462  1.00  0.00     0.060 A 
ATOM     41  C   UNL     1      -8.089  -4.194  -5.429  1.00  0.00     0.016 A 
ATOM     42  C   UNL     1      -6.593  -3.747  -7.291  1.00  0.00     0.016 A 
ATOM     43  C   UNL     1      -8.291  -2.827  -5.251  1.00  0.00     0.010 A 
ATOM     44  C   UNL     1      -6.818  -2.379  -7.129  1.00  0.00     0.010 A 
ATOM     45  C   UNL     1      -7.699  -1.918  -6.135  1.00  0.00    -0.014 A 
BRANCH  45  46
ATOM     46  C   UNL     1      -8.168  -0.514  -6.160  1.00  0.00     0.031 A 
ATOM     47  C   UNL     1      -9.194  -0.131  -7.192  1.00  0.00     0.074 A 
ATOM     48  C   UNL     1      -7.698   0.398  -5.292  1.00  0.00     0.049 A 
ATOM     49  N   UNL     1      -9.710   1.040  -7.452  1.00  0.00    -0.248 NA
ATOM     50  C   UNL     1      -9.704  -1.217  -8.047  1.00  0.00     0.031 C 
ATOM     51  C   UNL     1      -6.722   0.137  -4.237  1.00  0.00     0.029 A 
ATOM     52  N   UNL     1      -7.962   1.741  -5.185  1.00  0.00    -0.354 N 
ATOM     53  C   UNL     1     -10.576   0.841  -8.521  1.00  0.00     0.074 A 
ATOM     54  C   UNL     1     -10.514  -0.561  -8.864  1.00  0.00     0.031 C 
ATOM     55  C   UNL     1      -6.439   1.293  -3.612  1.00  0.00     0.029 A 
ATOM     56  C   UNL     1      -7.188   2.377  -4.244  1.00  0.00     0.049 A 
ATOM     57  H   UNL     1      -8.640   2.203  -5.729  1.00  0.00     0.167 HD
ATOM     58  C   UNL     1     -11.357   1.746  -9.155  1.00  0.00     0.034 A 
ATOM     59  C   UNL     1      -7.073   3.689  -3.956  1.00  0.00     0.034 A 
ATOM     60  C   UNL     1     -11.423   3.136  -8.800  1.00  0.00     0.049 A 
ATOM     61  C   UNL     1      -7.929   4.682  -4.703  1.00  0.00     0.074 A 
ATOM     62  C   UNL     1     -12.217   4.126  -9.352  1.00  0.00     0.029 A 
ATOM     63  N   UNL     1     -10.653   3.739  -7.819  1.00  0.00    -0.354 N 
ATOM     64  N   UNL     1      -8.822   4.465  -5.639  1.00  0.00    -0.248 NA
ATOM     65  C   UNL     1      -7.785   6.098  -4.332  1.00  0.00     0.031 C 
ATOM     66  C   UNL     1     -11.894   5.337  -8.732  1.00  0.00     0.029 A 
ATOM     67  C   UNL     1     -10.937   5.092  -7.761  1.00  0.00     0.049 A 
ATOM     68  H   UNL     1     -10.000   3.274  -7.248  1.00  0.00     0.167 HD
ATOM     69  C   UNL     1      -9.373   5.708  -5.939  1.00  0.00     0.074 A 
ATOM     70  C   UNL     1      -8.726   6.669  -5.071  1.00  0.00     0.031 C 
ATOM     71  C   UNL     1     -10.320   6.027  -6.856  1.00  0.00     0.034 A 
BRANCH  58  72
ATOM     72  C   UNL     1     -12.207   1.260 -10.299  1.00  0.00     0.023 A 
ATOM     73  C   UNL     1     -13.335   0.454 -10.048  1.00  0.00     0.012 A 
ATOM     74  C   UNL     1     -11.921   1.659 -11.619  1.00  0.00     0.148 A 
ATOM     75  C   UNL     1     -14.150   0.029 -11.097  1.00  0.00     0.002 A 
ATOM     76  C   UNL     1     -12.764   1.273 -12.652  1.00  0.00     0.091 A 
ATOM     77  F   UNL     1     -10.829   2.405 -11.838  1.00  0.00    -0.205 F 
ATOM     78  C   UNL     1     -13.872   0.449 -12.395  1.00  0.00     0.022 A 
BRANCH  76  79
ATOM     79  S   UNL     1     -12.540   1.827 -14.345  1.00  0.00     0.127 S 
ATOM     80  O   UNL     1     -12.195   0.577 -15.022  1.00  0.00    -0.237 OA
ATOM     81  O   UNL     1     -13.865   2.353 -14.672  1.00  0.00    -0.237 OA
ATOM     82  O   UNL     1     -11.479   2.825 -14.307  1.00  0.00    -0.744 OA
ENDBRANCH  76  79
ENDBRANCH  58  72
BRANCH  59  83
ATOM     83  C   UNL     1      -6.115   4.146  -2.908  1.00  0.00     0.023 A 
ATOM     84  C   UNL     1      -6.599   4.722  -1.718  1.00  0.00     0.012 A 
ATOM     85  C   UNL     1      -4.723   4.013  -3.087  1.00  0.00     0.148 A 
ATOM     86  C   UNL     1      -5.716   5.194  -0.745  1.00  0.00     0.002 A 
ATOM     87  C   UNL     1      -3.851   4.426  -2.088  1.00  0.00     0.091 A 
ATOM     88  F   UNL     1      -4.279   3.477  -4.233  1.00  0.00    -0.205 F 
ATOM     89  C   UNL     1      -4.344   5.038  -0.925  1.00  0.00     0.022 A 
BRANCH  87  90
ATOM     90  S   UNL     1      -2.079   4.144  -2.178  1.00  0.00     0.127 S 
ATOM     91  O   UNL     1      -1.564   5.503  -2.318  1.00  0.00    -0.237 OA
ATOM     92  O   UNL     1      -1.805   3.510  -0.888  1.00  0.00    -0.237 OA
ATOM     93  O   UNL     1      -1.874   3.269  -3.325  1.00  0.00    -0.744 OA
ENDBRANCH  87  90
ENDBRANCH  59  83
BRANCH  71  94
ATOM     94  C   UNL     1     -10.762   7.467  -6.939  1.00  0.00     0.023 A 
ATOM     95  C   UNL     1      -9.898   8.443  -7.474  1.00  0.00     0.012 A 
ATOM     96  C   UNL     1     -12.067   7.835  -6.555  1.00  0.00     0.148 A 
ATOM     97  C   UNL     1     -10.314   9.769  -7.590  1.00  0.00     0.002 A 
ATOM     98  C   UNL     1     -12.493   9.146  -6.725  1.00  0.00     0.091 A 
ATOM     99  F   UNL     1     -12.870   6.894  -6.036  1.00  0.00    -0.205 F 
ATOM    100  C   UNL     1     -11.613  10.118  -7.228  1.00  0.00     0.022 A 
BRANCH  98 101
ATOM    101  S   UNL     1     -14.178   9.666  -6.381  1.00  0.00     0.127 S 
ATOM    102  O   UNL     1     -13.995  10.501  -5.196  1.00  0.00    -0.237 OA
ATOM    103  O   UNL     1     -14.528  10.400  -7.597  1.00  0.00    -0.237 OA
ATOM    104  O   UNL     1     -14.942   8.444  -6.170  1.00  0.00    -0.744 OA
ENDBRANCH  98 101
ENDBRANCH  71  94
ENDBRANCH  45  46
ENDBRANCH  38  40
ENDBRANCH  37  38
ENDBRANCH  36  37
ENDBRANCH  35  36
ENDBRANCH  34  35
ENDBRANCH  33  34
ENDBRANCH  32  33
ENDBRANCH  31  32
ENDBRANCH   1  31
TORSDOF 29
