REMARK SMILES CCCN(C(=O)Cc1c(C(=O)OCCOCCOCCOCCOC(=O)c2ccc(-c3c4nc(c(-c5cccc(S(=O)(=O)[O-])c5F)c5ccc([nH]5)c(-c5cccc(S(=O)(=O)[O-])c5F)c5nc(c(-c6cccc(S(=O)(=O)[O-])c6F)c6ccc3[nH]6)C=C5)C=C4)cc2)c(C)cn1CC)c1cccc(Cl)c1
REMARK SMILES IDX 17 1 16 2 15 3 14 4 13 5 12 6 10 7 11 8 9 9 8 10 93 11 90 12
REMARK SMILES IDX 92 13 91 14 7 15 5 16 6 17 4 18 3 19 2 20 1 21 96 22 97 23
REMARK SMILES IDX 102 24 98 25 100 26 99 27 101 28 94 29 95 30 18 31 19 32
REMARK SMILES IDX 20 33 21 34 22 35 23 36 24 37 25 38 26 39 27 40 28 41 89 42
REMARK SMILES IDX 29 43 88 44 30 45 31 46 32 47 82 48 33 49 87 50 81 51 83 52
REMARK SMILES IDX 34 53 86 54 80 55 79 56 35 58 67 59 47 60 66 61 48 62 51 63
REMARK SMILES IDX 65 64 84 65 49 66 50 67 64 69 85 70 52 71 36 72 37 73 45 74
REMARK SMILES IDX 38 75 40 76 46 77 39 78 41 79 42 80 43 81 44 82 68 83 69 84
REMARK SMILES IDX 77 85 70 86 72 87 78 88 71 89 73 90 74 91 75 92 76 93 53 94
REMARK SMILES IDX 54 95 62 96 55 97 57 98 63 99 56 100 58 101 59 102 60 103
REMARK SMILES IDX 61 104
REMARK H PARENT 83 57 51 68
REMARK Flexibility Score: inf
ROOT
ATOM      1  C   UNL     1      -3.129   1.028  -1.306  1.00  0.00     0.188 C 
ENDROOT
BRANCH   1   2
ATOM      2  C   UNL     1      -1.707   1.147  -1.883  1.00  0.00     0.188 C 
BRANCH   2   3
ATOM      3  O   UNL     1      -1.019  -0.064  -2.136  1.00  0.00    -0.376 OA
BRANCH   3   4
ATOM      4  C   UNL     1      -0.242  -0.716  -1.153  1.00  0.00     0.202 C 
BRANCH   4   5
ATOM      5  C   UNL     1      -0.825  -1.018   0.247  1.00  0.00     0.261 C 
BRANCH   5   6
ATOM      6  O   UNL     1      -1.385   0.069   1.004  1.00  0.00    -0.460 OA
BRANCH   6   7
ATOM      7  C   UNL     1      -0.647   1.207   1.004  1.00  0.00     0.340 C 
ATOM      8  O   UNL     1       0.427   1.274   0.460  1.00  0.00    -0.246 OA
BRANCH   7   9
ATOM      9  C   UNL     1      -1.287   2.379   1.571  1.00  0.00     0.084 A 
ATOM     10  C   UNL     1      -1.004   3.718   1.235  1.00  0.00     0.042 A 
ATOM     11  N   UNL     1      -1.956   4.474   1.913  1.00  0.00    -0.350 N 
ATOM     12  C   UNL     1      -2.279   2.371   2.599  1.00  0.00    -0.019 A 
ATOM     13  C   UNL     1      -2.650   3.679   2.790  1.00  0.00     0.090 A 
ATOM     14  C   UNL     1      -2.797   1.181   3.331  1.00  0.00     0.047 C 
BRANCH  10  15
ATOM     15  C   UNL     1       0.089   4.385   0.389  1.00  0.00     0.155 C 
BRANCH  15  16
ATOM     16  C   UNL     1       0.552   3.709  -0.902  1.00  0.00     0.232 C 
ATOM     17  O   UNL     1      -0.201   3.856  -1.876  1.00  0.00    -0.274 OA
BRANCH  16  18
ATOM     18  N   UNL     1       1.785   3.004  -0.955  1.00  0.00    -0.312 N 
BRANCH  18  19
ATOM     19  C   UNL     1       2.802   3.020   0.136  1.00  0.00     0.125 C 
BRANCH  19  20
ATOM     20  C   UNL     1       2.645   2.197   1.443  1.00  0.00     0.019 C 
ATOM     21  C   UNL     1       2.915   0.688   1.393  1.00  0.00     0.006 C 
ENDBRANCH  19  20
ENDBRANCH  18  19
BRANCH  18  22
ATOM     22  C   UNL     1       2.106   2.232  -2.156  1.00  0.00     0.045 A 
ATOM     23  C   UNL     1       1.648   2.594  -3.435  1.00  0.00     0.026 A 
ATOM     24  C   UNL     1       2.816   1.027  -2.070  1.00  0.00     0.046 A 
ATOM     25  C   UNL     1       1.780   1.741  -4.542  1.00  0.00     0.004 A 
ATOM     26  C   UNL     1       2.895   0.147  -3.158  1.00  0.00     0.043 A 
ATOM     27  C   UNL     1       2.369   0.493  -4.394  1.00  0.00     0.020 A 
ATOM     28  Cl  UNL     1       3.583  -1.418  -2.934  1.00  0.00    -0.084 Cl
ENDBRANCH  18  22
ENDBRANCH  16  18
ENDBRANCH  15  16
ENDBRANCH  10  15
BRANCH  11  29
ATOM     29  C   UNL     1      -2.300   5.877   1.718  1.00  0.00     0.118 C 
ATOM     30  C   UNL     1      -1.216   6.867   2.105  1.00  0.00     0.027 C 
ENDBRANCH  11  29
ENDBRANCH   7   9
ENDBRANCH   6   7
ENDBRANCH   5   6
ENDBRANCH   4   5
ENDBRANCH   3   4
ENDBRANCH   2   3
ENDBRANCH   1   2
BRANCH   1  31
ATOM     31  O   UNL     1      -3.969  -0.037  -1.716  1.00  0.00    -0.377 OA
BRANCH  31  32
ATOM     32  C   UNL     1      -3.371  -1.149  -2.338  1.00  0.00     0.188 C 
BRANCH  32  33
ATOM     33  C   UNL     1      -3.033  -1.004  -3.839  1.00  0.00     0.188 C 
BRANCH  33  34
ATOM     34  O   UNL     1      -2.978   0.228  -4.545  1.00  0.00    -0.376 OA
BRANCH  34  35
ATOM     35  C   UNL     1      -3.892   1.313  -4.508  1.00  0.00     0.202 C 
BRANCH  35  36
ATOM     36  C   UNL     1      -5.409   1.232  -4.362  1.00  0.00     0.261 C 
BRANCH  36  37
ATOM     37  O   UNL     1      -5.846   0.163  -3.577  1.00  0.00    -0.460 OA
BRANCH  37  38
ATOM     38  C   UNL     1      -5.921  -0.985  -4.266  1.00  0.00     0.338 C 
ATOM     39  O   UNL     1      -5.736  -1.155  -5.458  1.00  0.00    -0.246 OA
BRANCH  38  40
ATOM     40  C   UNL     1      -6.268  -2.038  -3.318  1.00  0.00     0.060 A 
ATOM     41  C   UNL     1      -6.328  -3.322  -3.848  1.00  0.00     0.016 A 
ATOM     42  C   UNL     1      -6.765  -1.698  -2.046  1.00  0.00     0.016 A 
ATOM     43  C   UNL     1      -7.263  -4.146  -3.305  1.00  0.00     0.010 A 
ATOM     44  C   UNL     1      -7.689  -2.527  -1.494  1.00  0.00     0.010 A 
ATOM     45  C   UNL     1      -8.026  -3.638  -2.248  1.00  0.00    -0.014 A 
BRANCH  45  46
ATOM     46  C   UNL     1      -9.307  -4.247  -2.047  1.00  0.00     0.031 A 
ATOM     47  C   UNL     1      -9.168  -5.517  -1.342  1.00  0.00     0.074 A 
ATOM     48  C   UNL     1     -10.416  -3.648  -2.518  1.00  0.00     0.049 A 
ATOM     49  N   UNL     1      -9.178  -6.698  -1.860  1.00  0.00    -0.248 NA
ATOM     50  C   UNL     1      -8.664  -5.455   0.037  1.00  0.00     0.031 C 
ATOM     51  C   UNL     1     -10.555  -2.257  -2.977  1.00  0.00     0.029 A 
ATOM     52  N   UNL     1     -11.689  -4.111  -2.548  1.00  0.00    -0.354 N 
ATOM     53  C   UNL     1      -9.010  -7.535  -0.767  1.00  0.00     0.074 A 
ATOM     54  C   UNL     1      -8.395  -6.742   0.260  1.00  0.00     0.031 C 
ATOM     55  C   UNL     1     -11.864  -1.921  -2.965  1.00  0.00     0.029 A 
ATOM     56  C   UNL     1     -12.640  -3.105  -2.646  1.00  0.00     0.049 A 
ATOM     57  H   UNL     1     -11.918  -5.068  -2.505  1.00  0.00     0.167 HD
ATOM     58  C   UNL     1      -9.788  -8.643  -0.659  1.00  0.00     0.034 A 
ATOM     59  C   UNL     1     -13.956  -3.240  -2.362  1.00  0.00     0.034 A 
ATOM     60  C   UNL     1     -10.389  -8.977  -1.929  1.00  0.00     0.049 A 
ATOM     61  C   UNL     1     -14.277  -4.685  -2.442  1.00  0.00     0.074 A 
ATOM     62  C   UNL     1      -9.947  -9.444  -3.147  1.00  0.00     0.029 A 
ATOM     63  N   UNL     1     -11.626  -8.414  -2.125  1.00  0.00    -0.354 N 
ATOM     64  N   UNL     1     -14.216  -5.375  -3.549  1.00  0.00    -0.248 NA
ATOM     65  C   UNL     1     -14.303  -5.478  -1.217  1.00  0.00     0.031 C 
ATOM     66  C   UNL     1     -10.890  -8.980  -4.111  1.00  0.00     0.029 A 
ATOM     67  C   UNL     1     -11.895  -8.265  -3.458  1.00  0.00     0.049 A 
ATOM     68  H   UNL     1     -12.239  -8.151  -1.400  1.00  0.00     0.167 HD
ATOM     69  C   UNL     1     -13.746  -6.617  -3.150  1.00  0.00     0.074 A 
ATOM     70  C   UNL     1     -14.001  -6.680  -1.717  1.00  0.00     0.031 C 
ATOM     71  C   UNL     1     -12.899  -7.335  -3.943  1.00  0.00     0.034 A 
BRANCH  58  72
ATOM     72  C   UNL     1     -10.432  -9.095   0.636  1.00  0.00     0.023 A 
ATOM     73  C   UNL     1     -11.134 -10.317   0.591  1.00  0.00     0.012 A 
ATOM     74  C   UNL     1     -10.646  -8.280   1.776  1.00  0.00     0.148 A 
ATOM     75  C   UNL     1     -12.039 -10.680   1.594  1.00  0.00     0.002 A 
ATOM     76  C   UNL     1     -11.487  -8.678   2.805  1.00  0.00     0.091 A 
ATOM     77  F   UNL     1     -10.156  -7.043   1.831  1.00  0.00    -0.205 F 
ATOM     78  C   UNL     1     -12.213  -9.863   2.705  1.00  0.00     0.022 A 
BRANCH  76  79
ATOM     79  S   UNL     1     -11.720  -7.658   4.268  1.00  0.00     0.127 S 
ATOM     80  O   UNL     1     -13.065  -7.137   4.047  1.00  0.00    -0.237 OA
ATOM     81  O   UNL     1     -11.603  -8.647   5.340  1.00  0.00    -0.237 OA
ATOM     82  O   UNL     1     -10.640  -6.678   4.244  1.00  0.00    -0.744 OA
ENDBRANCH  76  79
ENDBRANCH  58  72
BRANCH  59  83
ATOM     83  C   UNL     1     -14.866  -2.250  -1.746  1.00  0.00     0.023 A 
ATOM     84  C   UNL     1     -16.257  -2.391  -1.909  1.00  0.00     0.012 A 
ATOM     85  C   UNL     1     -14.394  -1.322  -0.788  1.00  0.00     0.148 A 
ATOM     86  C   UNL     1     -17.150  -1.657  -1.120  1.00  0.00     0.002 A 
ATOM     87  C   UNL     1     -15.285  -0.586  -0.015  1.00  0.00     0.091 A 
ATOM     88  F   UNL     1     -13.075  -1.227  -0.575  1.00  0.00    -0.205 F 
ATOM     89  C   UNL     1     -16.666  -0.762  -0.168  1.00  0.00     0.022 A 
BRANCH  87  90
ATOM     90  S   UNL     1     -14.739   0.580   1.242  1.00  0.00     0.127 S 
ATOM     91  O   UNL     1     -15.479   1.787   0.871  1.00  0.00    -0.237 OA
ATOM     92  O   UNL     1     -15.197  -0.064   2.471  1.00  0.00    -0.237 OA
ATOM     93  O   UNL     1     -13.295   0.690   1.088  1.00  0.00    -0.744 OA
ENDBRANCH  87  90
ENDBRANCH  59  83
BRANCH  71  94
ATOM     94  C   UNL     1     -12.873  -7.007  -5.410  1.00  0.00     0.023 A 
ATOM     95  C   UNL     1     -12.366  -5.793  -5.915  1.00  0.00     0.012 A 
ATOM     96  C   UNL     1     -13.259  -8.014  -6.312  1.00  0.00     0.148 A 
ATOM     97  C   UNL     1     -12.264  -5.585  -7.294  1.00  0.00     0.002 A 
ATOM     98  C   UNL     1     -13.112  -7.821  -7.678  1.00  0.00     0.091 A 
ATOM     99  F   UNL     1     -13.744  -9.160  -5.810  1.00  0.00    -0.205 F 
ATOM    100  C   UNL     1     -12.624  -6.603  -8.175  1.00  0.00     0.022 A 
BRANCH  98 101
ATOM    101  S   UNL     1     -13.441  -9.141  -8.848  1.00  0.00     0.127 S 
ATOM    102  O   UNL     1     -14.721  -8.730  -9.422  1.00  0.00    -0.237 OA
ATOM    103  O   UNL     1     -12.301  -9.045  -9.761  1.00  0.00    -0.237 OA
ATOM    104  O   UNL     1     -13.470 -10.371  -8.065  1.00  0.00    -0.744 OA
ENDBRANCH  98 101
ENDBRANCH  71  94
ENDBRANCH  45  46
ENDBRANCH  38  40
ENDBRANCH  37  38
ENDBRANCH  36  37
ENDBRANCH  35  36
ENDBRANCH  34  35
ENDBRANCH  33  34
ENDBRANCH  32  33
ENDBRANCH  31  32
ENDBRANCH   1  31
TORSDOF 30
