REMARK SMILES CC(=O)c1nnn(-c2ccc(C(=O)OCCOCCOCCOCCOC(=O)c3ccc(-c4c5nc(c(-c6cccc(S(=O)(=O)[O-])c6F)c6ccc([nH]6)c(-c6cccc(S(=O)(=O)[O-])c6F)c6nc(c(-c7cccc(S(=O)(=O)[O-])c7F)c7ccc4[nH]7)C=C6)C=C5)cc3)cc2)c1C
REMARK SMILES IDX 21 1 20 2 19 3 18 4 17 5 16 6 15 7 14 8 12 9 13 10 11 11
REMARK SMILES IDX 8 12 9 13 93 14 10 15 92 16 7 17 4 18 5 19 94 20 6 21 95 22
REMARK SMILES IDX 2 23 1 24 3 25 22 26 23 27 24 28 25 29 26 30 27 31 28 32
REMARK SMILES IDX 29 33 30 34 91 35 31 36 90 37 32 38 33 39 34 40 84 41 35 42
REMARK SMILES IDX 89 43 83 44 85 45 36 46 88 47 82 48 81 49 37 51 69 52 49 53
REMARK SMILES IDX 68 54 50 55 53 56 67 57 86 58 51 59 52 60 66 62 87 63 54 64
REMARK SMILES IDX 38 65 39 66 47 67 40 68 42 69 48 70 41 71 43 72 44 73 45 74
REMARK SMILES IDX 46 75 70 76 71 77 79 78 72 79 74 80 80 81 73 82 75 83 76 84
REMARK SMILES IDX 77 85 78 86 55 87 56 88 64 89 57 90 59 91 65 92 58 93 60 94
REMARK SMILES IDX 61 95 62 96 63 97
REMARK H PARENT 85 50 53 61
REMARK Flexibility Score: inf
ROOT
ATOM      1  C   UNL     1       8.570   9.668  -2.617  1.00  0.00     0.188 C 
ENDROOT
BRANCH   1   2
ATOM      2  O   UNL     1       8.000   8.551  -1.936  1.00  0.00    -0.377 OA
BRANCH   2   3
ATOM      3  C   UNL     1       6.762   8.796  -1.292  1.00  0.00     0.188 C 
BRANCH   3   4
ATOM      4  C   UNL     1       6.886   9.092   0.221  1.00  0.00     0.188 C 
BRANCH   4   5
ATOM      5  O   UNL     1       8.142   9.294   0.860  1.00  0.00    -0.376 OA
BRANCH   5   6
ATOM      6  C   UNL     1       9.304   8.559   0.515  1.00  0.00     0.202 C 
BRANCH   6   7
ATOM      7  C   UNL     1       9.304   7.035   0.328  1.00  0.00     0.261 C 
BRANCH   7   8
ATOM      8  O   UNL     1       8.075   6.451  -0.090  1.00  0.00    -0.460 OA
BRANCH   8   9
ATOM      9  C   UNL     1       7.251   6.059   0.902  1.00  0.00     0.338 C 
ATOM     10  O   UNL     1       7.475   6.069   2.102  1.00  0.00    -0.246 OA
BRANCH   9  11
ATOM     11  C   UNL     1       5.933   5.738   0.315  1.00  0.00     0.060 A 
ATOM     12  C   UNL     1       3.449   4.936  -0.579  1.00  0.00     0.067 A 
ATOM     13  C   UNL     1       3.521   5.736   0.564  1.00  0.00     0.029 A 
ATOM     14  C   UNL     1       4.580   4.689  -1.369  1.00  0.00     0.029 A 
ATOM     15  C   UNL     1       4.779   6.110   1.026  1.00  0.00     0.018 A 
ATOM     16  C   UNL     1       5.830   5.095  -0.921  1.00  0.00     0.018 A 
BRANCH  12  17
ATOM     17  N   UNL     1       2.296   4.151  -0.778  1.00  0.00    -0.217 N 
ATOM     18  C   UNL     1       0.914   2.468  -0.894  1.00  0.00     0.151 A 
ATOM     19  N   UNL     1       0.201   3.641  -0.859  1.00  0.00    -0.126 NA
ATOM     20  C   UNL     1       2.264   2.760  -0.785  1.00  0.00     0.073 A 
ATOM     21  N   UNL     1       1.048   4.642  -0.661  1.00  0.00    -0.061 NA
ATOM     22  C   UNL     1       3.476   1.921  -0.599  1.00  0.00     0.069 C 
BRANCH  18  23
ATOM     23  C   UNL     1       0.245   1.175  -0.950  1.00  0.00     0.181 C 
ATOM     24  C   UNL     1       0.619   0.129   0.072  1.00  0.00     0.095 C 
ATOM     25  O   UNL     1      -0.643   0.941  -1.769  1.00  0.00    -0.293 OA
ENDBRANCH  18  23
ENDBRANCH  12  17
ENDBRANCH   9  11
ENDBRANCH   8   9
ENDBRANCH   7   8
ENDBRANCH   6   7
ENDBRANCH   5   6
ENDBRANCH   4   5
ENDBRANCH   3   4
ENDBRANCH   2   3
ENDBRANCH   1   2
BRANCH   1  26
ATOM     26  C   UNL     1       8.607  11.032  -1.879  1.00  0.00     0.188 C 
BRANCH  26  27
ATOM     27  O   UNL     1       7.427  11.348  -1.150  1.00  0.00    -0.376 OA
BRANCH  27  28
ATOM     28  C   UNL     1       6.508  12.335  -1.589  1.00  0.00     0.202 C 
BRANCH  28  29
ATOM     29  C   UNL     1       5.709  12.040  -2.852  1.00  0.00     0.261 C 
BRANCH  29  30
ATOM     30  O   UNL     1       6.485  11.464  -3.880  1.00  0.00    -0.460 OA
BRANCH  30  31
ATOM     31  C   UNL     1       7.401  12.277  -4.421  1.00  0.00     0.338 C 
ATOM     32  O   UNL     1       7.773  13.371  -3.996  1.00  0.00    -0.246 OA
BRANCH  31  33
ATOM     33  C   UNL     1       7.818  11.700  -5.690  1.00  0.00     0.060 A 
ATOM     34  C   UNL     1       8.852  12.356  -6.354  1.00  0.00     0.016 A 
ATOM     35  C   UNL     1       6.935  10.812  -6.328  1.00  0.00     0.016 A 
ATOM     36  C   UNL     1       8.815  12.353  -7.723  1.00  0.00     0.010 A 
ATOM     37  C   UNL     1       6.883  10.834  -7.691  1.00  0.00     0.010 A 
ATOM     38  C   UNL     1       7.758  11.688  -8.352  1.00  0.00    -0.014 A 
BRANCH  38  39
ATOM     39  C   UNL     1       7.613  11.863  -9.771  1.00  0.00     0.031 A 
ATOM     40  C   UNL     1       8.592  11.059 -10.519  1.00  0.00     0.074 A 
ATOM     41  C   UNL     1       6.633  12.622 -10.290  1.00  0.00     0.049 A 
ATOM     42  N   UNL     1       9.626  11.490 -11.160  1.00  0.00    -0.248 NA
ATOM     43  C   UNL     1       8.552   9.599 -10.337  1.00  0.00     0.031 C 
ATOM     44  C   UNL     1       5.476  13.202  -9.598  1.00  0.00     0.029 A 
ATOM     45  N   UNL     1       6.390  12.910 -11.592  1.00  0.00    -0.354 N 
ATOM     46  C   UNL     1      10.202  10.346 -11.695  1.00  0.00     0.074 A 
ATOM     47  C   UNL     1       9.674   9.232 -10.955  1.00  0.00     0.031 C 
ATOM     48  C   UNL     1       4.540  13.534 -10.517  1.00  0.00     0.029 A 
ATOM     49  C   UNL     1       5.083  13.306 -11.845  1.00  0.00     0.049 A 
ATOM     50  H   UNL     1       7.077  12.844 -12.295  1.00  0.00     0.167 HD
ATOM     51  C   UNL     1      10.794  10.380 -12.916  1.00  0.00     0.034 A 
ATOM     52  C   UNL     1       4.482  13.326 -13.060  1.00  0.00     0.034 A 
ATOM     53  C   UNL     1      11.113  11.727 -13.314  1.00  0.00     0.049 A 
ATOM     54  C   UNL     1       5.556  13.317 -14.083  1.00  0.00     0.074 A 
ATOM     55  C   UNL     1      11.863  12.750 -12.767  1.00  0.00     0.029 A 
ATOM     56  N   UNL     1      10.282  12.313 -14.238  1.00  0.00    -0.354 N 
ATOM     57  N   UNL     1       6.386  14.306 -14.264  1.00  0.00    -0.248 NA
ATOM     58  C   UNL     1       5.996  12.030 -14.601  1.00  0.00     0.031 C 
ATOM     59  C   UNL     1      11.135  13.939 -13.059  1.00  0.00     0.029 A 
ATOM     60  C   UNL     1      10.017  13.591 -13.820  1.00  0.00     0.049 A 
ATOM     61  H   UNL     1       9.937  11.890 -15.057  1.00  0.00     0.167 HD
ATOM     62  C   UNL     1       7.613  13.691 -14.482  1.00  0.00     0.074 A 
ATOM     63  C   UNL     1       7.290  12.301 -14.797  1.00  0.00     0.031 C 
ATOM     64  C   UNL     1       8.778  14.288 -14.091  1.00  0.00     0.034 A 
BRANCH  51  65
ATOM     65  C   UNL     1      10.708   9.249 -13.908  1.00  0.00     0.023 A 
ATOM     66  C   UNL     1      11.529   9.328 -15.050  1.00  0.00     0.012 A 
ATOM     67  C   UNL     1       9.692   8.262 -13.913  1.00  0.00     0.148 A 
ATOM     68  C   UNL     1      11.327   8.490 -16.151  1.00  0.00     0.002 A 
ATOM     69  C   UNL     1       9.560   7.368 -14.966  1.00  0.00     0.091 A 
ATOM     70  F   UNL     1       8.743   8.262 -12.973  1.00  0.00    -0.205 F 
ATOM     71  C   UNL     1      10.354   7.499 -16.104  1.00  0.00     0.022 A 
BRANCH  69  72
ATOM     72  S   UNL     1       8.359   6.033 -14.910  1.00  0.00     0.127 S 
ATOM     73  O   UNL     1       7.335   6.521 -15.827  1.00  0.00    -0.237 OA
ATOM     74  O   UNL     1       9.148   4.902 -15.401  1.00  0.00    -0.237 OA
ATOM     75  O   UNL     1       7.969   5.919 -13.509  1.00  0.00    -0.744 OA
ENDBRANCH  69  72
ENDBRANCH  51  65
BRANCH  52  76
ATOM     76  C   UNL     1       3.070  13.047 -13.411  1.00  0.00     0.023 A 
ATOM     77  C   UNL     1       2.572  13.461 -14.663  1.00  0.00     0.012 A 
ATOM     78  C   UNL     1       2.296  12.138 -12.655  1.00  0.00     0.148 A 
ATOM     79  C   UNL     1       1.362  12.961 -15.160  1.00  0.00     0.002 A 
ATOM     80  C   UNL     1       1.089  11.652 -13.148  1.00  0.00     0.091 A 
ATOM     81  F   UNL     1       2.787  11.676 -11.498  1.00  0.00    -0.205 F 
ATOM     82  C   UNL     1       0.625  12.051 -14.407  1.00  0.00     0.022 A 
BRANCH  80  83
ATOM     83  S   UNL     1       0.099  10.456 -12.241  1.00  0.00     0.127 S 
ATOM     84  O   UNL     1      -1.235  11.054 -12.311  1.00  0.00    -0.237 OA
ATOM     85  O   UNL     1       0.272   9.250 -13.046  1.00  0.00    -0.237 OA
ATOM     86  O   UNL     1       0.664  10.407 -10.899  1.00  0.00    -0.744 OA
ENDBRANCH  80  83
ENDBRANCH  52  76
BRANCH  64  87
ATOM     87  C   UNL     1       8.721  15.735 -13.664  1.00  0.00     0.023 A 
ATOM     88  C   UNL     1       7.988  16.167 -12.537  1.00  0.00     0.012 A 
ATOM     89  C   UNL     1       9.565  16.651 -14.313  1.00  0.00     0.148 A 
ATOM     90  C   UNL     1       8.077  17.487 -12.086  1.00  0.00     0.002 A 
ATOM     91  C   UNL     1       9.690  17.948 -13.833  1.00  0.00     0.091 A 
ATOM     92  F   UNL     1      10.259  16.225 -15.380  1.00  0.00    -0.205 F 
ATOM     93  C   UNL     1       8.940  18.375 -12.726  1.00  0.00     0.022 A 
BRANCH  91  94
ATOM     94  S   UNL     1      10.880  19.093 -14.533  1.00  0.00     0.127 S 
ATOM     95  O   UNL     1      10.025  19.983 -15.315  1.00  0.00    -0.237 OA
ATOM     96  O   UNL     1      11.470  19.703 -13.340  1.00  0.00    -0.237 OA
ATOM     97  O   UNL     1      11.812  18.279 -15.304  1.00  0.00    -0.744 OA
ENDBRANCH  91  94
ENDBRANCH  64  87
ENDBRANCH  38  39
ENDBRANCH  31  33
ENDBRANCH  30  31
ENDBRANCH  29  30
ENDBRANCH  28  29
ENDBRANCH  27  28
ENDBRANCH  26  27
ENDBRANCH   1  26
TORSDOF 25
