REMARK SMILES C#CCN(CC(=O)OCCOCCOCCOCCOC(=O)c1ccc(-c2c3nc(c(-c4cccc(S(=O)(=O)[O-])c4F)c4ccc([nH]4)c(-c4cccc(S(=O)(=O)[O-])c4F)c4nc(c(-c5cccc(S(=O)(=O)[O-])c5F)c5ccc2[nH]5)C=C4)C=C3)cc1)C(=O)N[C@@H](C)CCCC
REMARK SMILES IDX 12 1 11 2 10 3 9 4 8 5 6 6 7 7 5 8 4 9 3 10 2 11 1 12 86 13
REMARK SMILES IDX 87 14 88 15 89 17 90 18 91 19 92 20 93 21 94 22 13 23 14 24
REMARK SMILES IDX 15 25 16 26 17 27 18 28 19 29 20 30 21 31 22 32 23 33 24 34
REMARK SMILES IDX 85 35 25 36 84 37 26 38 27 39 28 40 78 41 29 42 83 43 77 44
REMARK SMILES IDX 79 45 30 46 82 47 76 48 75 49 31 51 63 52 43 53 62 54 44 55
REMARK SMILES IDX 47 56 61 57 80 58 45 59 46 60 60 62 81 63 48 64 32 65 33 66
REMARK SMILES IDX 41 67 34 68 36 69 42 70 35 71 37 72 38 73 39 74 40 75 64 76
REMARK SMILES IDX 65 77 73 78 66 79 68 80 74 81 67 82 69 83 70 84 71 85 72 86
REMARK SMILES IDX 49 87 50 88 58 89 51 90 53 91 59 92 52 93 54 94 55 95 56 96
REMARK SMILES IDX 57 97
REMARK H PARENT 88 16 79 50 47 61
REMARK Flexibility Score: inf
ROOT
ATOM      1  C   UNL     1      -5.019   0.258   2.608  1.00  0.00     0.188 C 
ENDROOT
BRANCH   1   2
ATOM      2  O   UNL     1      -6.382   0.451   2.908  1.00  0.00    -0.376 OA
BRANCH   2   3
ATOM      3  C   UNL     1      -7.168   1.122   1.925  1.00  0.00     0.202 C 
BRANCH   3   4
ATOM      4  C   UNL     1      -6.826   0.945   0.419  1.00  0.00     0.261 C 
BRANCH   4   5
ATOM      5  O   UNL     1      -5.425   1.082   0.026  1.00  0.00    -0.462 OA
BRANCH   5   6
ATOM      6  C   UNL     1      -4.773   2.225   0.340  1.00  0.00     0.325 C 
ATOM      7  O   UNL     1      -5.360   3.294   0.495  1.00  0.00    -0.250 OA
BRANCH   6   8
ATOM      8  C   UNL     1      -3.206   2.106   0.382  1.00  0.00     0.245 C 
BRANCH   8   9
ATOM      9  N   UNL     1      -2.352   1.030   0.993  1.00  0.00    -0.303 N 
BRANCH   9  10
ATOM     10  C   UNL     1      -1.821  -0.070   0.072  1.00  0.00     0.211 C 
BRANCH  10  11
ATOM     11  C   UNL     1      -0.301  -0.070   0.072  1.00  0.00    -0.085 C 
ATOM     12  C   UNL     1       1.003  -0.070   0.072  1.00  0.00     0.006 C 
ENDBRANCH  10  11
ENDBRANCH   9  10
BRANCH   9  13
ATOM     13  C   UNL     1      -1.882   0.959   2.287  1.00  0.00     0.318 C 
ATOM     14  O   UNL     1      -1.205  -0.004   2.674  1.00  0.00    -0.249 OA
ATOM     15  N   UNL     1      -2.081   1.837   3.283  1.00  0.00    -0.336 N 
ATOM     16  H   UNL     1      -1.578   1.527   4.070  1.00  0.00     0.165 HD
BRANCH  15  17
ATOM     17  C   UNL     1      -2.767   3.084   3.640  1.00  0.00     0.080 C 
ATOM     18  C   UNL     1      -3.671   2.869   4.875  1.00  0.00     0.031 C 
BRANCH  17  19
ATOM     19  C   UNL     1      -1.764   4.183   4.068  1.00  0.00     0.024 C 
BRANCH  19  20
ATOM     20  C   UNL     1      -0.551   4.438   3.179  1.00  0.00     0.002 C 
BRANCH  20  21
ATOM     21  C   UNL     1      -0.827   4.655   1.699  1.00  0.00    -0.003 C 
ATOM     22  C   UNL     1      -1.948   5.639   1.408  1.00  0.00     0.004 C 
ENDBRANCH  20  21
ENDBRANCH  19  20
ENDBRANCH  17  19
ENDBRANCH  15  17
ENDBRANCH   9  13
ENDBRANCH   8   9
ENDBRANCH   6   8
ENDBRANCH   5   6
ENDBRANCH   4   5
ENDBRANCH   3   4
ENDBRANCH   2   3
ENDBRANCH   1   2
BRANCH   1  23
ATOM     23  C   UNL     1      -4.282  -0.943   3.173  1.00  0.00     0.188 C 
BRANCH  23  24
ATOM     24  O   UNL     1      -5.066  -2.085   3.449  1.00  0.00    -0.377 OA
BRANCH  24  25
ATOM     25  C   UNL     1      -6.180  -1.858   4.293  1.00  0.00     0.188 C 
BRANCH  25  26
ATOM     26  C   UNL     1      -5.904  -1.250   5.680  1.00  0.00     0.188 C 
BRANCH  26  27
ATOM     27  O   UNL     1      -4.811  -0.335   5.750  1.00  0.00    -0.376 OA
BRANCH  27  28
ATOM     28  C   UNL     1      -3.751  -0.704   6.639  1.00  0.00     0.202 C 
BRANCH  28  29
ATOM     29  C   UNL     1      -2.734  -1.766   6.162  1.00  0.00     0.261 C 
BRANCH  29  30
ATOM     30  O   UNL     1      -3.280  -2.935   5.549  1.00  0.00    -0.460 OA
BRANCH  30  31
ATOM     31  C   UNL     1      -3.968  -3.792   6.340  1.00  0.00     0.338 C 
ATOM     32  O   UNL     1      -4.158  -3.694   7.527  1.00  0.00    -0.246 OA
BRANCH  31  33
ATOM     33  C   UNL     1      -4.639  -4.756   5.436  1.00  0.00     0.060 A 
ATOM     34  C   UNL     1      -6.031  -4.886   5.520  1.00  0.00     0.016 A 
ATOM     35  C   UNL     1      -3.915  -5.462   4.473  1.00  0.00     0.016 A 
ATOM     36  C   UNL     1      -6.715  -5.679   4.601  1.00  0.00     0.010 A 
ATOM     37  C   UNL     1      -4.590  -6.315   3.601  1.00  0.00     0.010 A 
ATOM     38  C   UNL     1      -5.989  -6.435   3.674  1.00  0.00    -0.014 A 
BRANCH  38  39
ATOM     39  C   UNL     1      -6.640  -7.594   3.031  1.00  0.00     0.031 A 
ATOM     40  C   UNL     1      -6.623  -8.879   3.809  1.00  0.00     0.074 A 
ATOM     41  C   UNL     1      -7.176  -7.529   1.802  1.00  0.00     0.049 A 
ATOM     42  N   UNL     1      -7.028 -10.068   3.461  1.00  0.00    -0.248 NA
ATOM     43  C   UNL     1      -6.058  -8.806   5.169  1.00  0.00     0.031 C 
ATOM     44  C   UNL     1      -7.271  -6.326   0.978  1.00  0.00     0.029 A 
ATOM     45  N   UNL     1      -7.716  -8.519   1.022  1.00  0.00    -0.354 N 
ATOM     46  C   UNL     1      -6.728 -10.890   4.540  1.00  0.00     0.074 A 
ATOM     47  C   UNL     1      -6.111 -10.069   5.554  1.00  0.00     0.031 C 
ATOM     48  C   UNL     1      -7.808  -6.657  -0.211  1.00  0.00     0.029 A 
ATOM     49  C   UNL     1      -8.058  -8.098  -0.241  1.00  0.00     0.049 A 
ATOM     50  H   UNL     1      -7.847  -9.443   1.336  1.00  0.00     0.167 HD
ATOM     51  C   UNL     1      -6.942 -12.217   4.674  1.00  0.00     0.034 A 
ATOM     52  C   UNL     1      -8.494  -8.809  -1.300  1.00  0.00     0.034 A 
ATOM     53  C   UNL     1      -7.532 -13.026   3.648  1.00  0.00     0.049 A 
ATOM     54  C   UNL     1      -8.679 -10.300  -1.149  1.00  0.00     0.074 A 
ATOM     55  C   UNL     1      -7.826 -14.375   3.679  1.00  0.00     0.029 A 
ATOM     56  N   UNL     1      -7.892 -12.559   2.393  1.00  0.00    -0.354 N 
ATOM     57  N   UNL     1      -8.484 -11.055  -0.093  1.00  0.00    -0.248 NA
ATOM     58  C   UNL     1      -9.167 -11.035  -2.325  1.00  0.00     0.031 C 
ATOM     59  C   UNL     1      -8.323 -14.734   2.423  1.00  0.00     0.029 A 
ATOM     60  C   UNL     1      -8.392 -13.597   1.631  1.00  0.00     0.049 A 
ATOM     61  H   UNL     1      -7.804 -11.627   2.089  1.00  0.00     0.167 HD
ATOM     62  C   UNL     1      -8.875 -12.338  -0.458  1.00  0.00     0.074 A 
ATOM     63  C   UNL     1      -9.314 -12.260  -1.837  1.00  0.00     0.031 C 
ATOM     64  C   UNL     1      -8.877 -13.478   0.278  1.00  0.00     0.034 A 
BRANCH  51  65
ATOM     65  C   UNL     1      -6.499 -12.857   5.961  1.00  0.00     0.023 A 
ATOM     66  C   UNL     1      -7.165 -12.553   7.168  1.00  0.00     0.012 A 
ATOM     67  C   UNL     1      -5.408 -13.745   5.979  1.00  0.00     0.148 A 
ATOM     68  C   UNL     1      -6.717 -13.082   8.378  1.00  0.00     0.002 A 
ATOM     69  C   UNL     1      -5.003 -14.312   7.180  1.00  0.00     0.091 A 
ATOM     70  F   UNL     1      -4.766 -13.995   4.829  1.00  0.00    -0.205 F 
ATOM     71  C   UNL     1      -5.643 -13.968   8.382  1.00  0.00     0.022 A 
BRANCH  69  72
ATOM     72  S   UNL     1      -3.686 -15.528   7.274  1.00  0.00     0.127 S 
ATOM     73  O   UNL     1      -2.615 -14.756   7.903  1.00  0.00    -0.237 OA
ATOM     74  O   UNL     1      -4.279 -16.557   8.129  1.00  0.00    -0.237 OA
ATOM     75  O   UNL     1      -3.432 -15.951   5.904  1.00  0.00    -0.744 OA
ENDBRANCH  69  72
ENDBRANCH  51  65
BRANCH  52  76
ATOM     76  C   UNL     1      -8.828  -8.119  -2.578  1.00  0.00     0.023 A 
ATOM     77  C   UNL     1     -10.174  -8.030  -2.982  1.00  0.00     0.012 A 
ATOM     78  C   UNL     1      -7.831  -7.525  -3.379  1.00  0.00     0.148 A 
ATOM     79  C   UNL     1     -10.522  -7.382  -4.168  1.00  0.00     0.002 A 
ATOM     80  C   UNL     1      -8.189  -6.838  -4.533  1.00  0.00     0.091 A 
ATOM     81  F   UNL     1      -6.555  -7.630  -2.983  1.00  0.00    -0.205 F 
ATOM     82  C   UNL     1      -9.532  -6.779  -4.938  1.00  0.00     0.022 A 
BRANCH  80  83
ATOM     83  S   UNL     1      -7.003  -5.930  -5.532  1.00  0.00     0.127 S 
ATOM     84  O   UNL     1      -7.083  -6.635  -6.809  1.00  0.00    -0.237 OA
ATOM     85  O   UNL     1      -7.583  -4.586  -5.534  1.00  0.00    -0.237 OA
ATOM     86  O   UNL     1      -5.729  -6.039  -4.837  1.00  0.00    -0.744 OA
ENDBRANCH  80  83
ENDBRANCH  52  76
BRANCH  64  87
ATOM     87  C   UNL     1      -9.439 -14.727  -0.346  1.00  0.00     0.023 A 
ATOM     88  C   UNL     1      -8.710 -15.425  -1.328  1.00  0.00     0.012 A 
ATOM     89  C   UNL     1     -10.642 -15.274   0.146  1.00  0.00     0.148 A 
ATOM     90  C   UNL     1      -9.182 -16.640  -1.824  1.00  0.00     0.002 A 
ATOM     91  C   UNL     1     -11.076 -16.510  -0.312  1.00  0.00     0.091 A 
ATOM     92  F   UNL     1     -11.325 -14.583   1.071  1.00  0.00    -0.205 F 
ATOM     93  C   UNL     1     -10.354 -17.189  -1.306  1.00  0.00     0.022 A 
BRANCH  91  94
ATOM     94  S   UNL     1     -12.509 -17.343   0.378  1.00  0.00     0.127 S 
ATOM     95  O   UNL     1     -13.448 -17.298  -0.743  1.00  0.00    -0.237 OA
ATOM     96  O   UNL     1     -11.979 -18.674   0.676  1.00  0.00    -0.237 OA
ATOM     97  O   UNL     1     -12.903 -16.572   1.549  1.00  0.00    -0.744 OA
ENDBRANCH  91  94
ENDBRANCH  64  87
ENDBRANCH  38  39
ENDBRANCH  31  33
ENDBRANCH  30  31
ENDBRANCH  29  30
ENDBRANCH  28  29
ENDBRANCH  27  28
ENDBRANCH  26  27
ENDBRANCH  25  26
ENDBRANCH  24  25
ENDBRANCH  23  24
ENDBRANCH   1  23
TORSDOF 31
