REMARK SMILES COc1ccccc1C(=O)N/C(=C/c1ccc2c(c1)OCO2)C(=O)Nc1ccc(C(=O)OCCOCCOCCOCCOC(=O)c2ccc(-c3c4nc(c(-c5cccc(S(=O)(=O)[O-])c5F)c5ccc([nH]5)c(-c5cccc(S(=O)(=O)[O-])c5F)c5nc(c(-c6cccc(S(=O)(=O)[O-])c6F)c6ccc3[nH]6)C=C5)C=C4)cc2)cc1
REMARK SMILES IDX 37 1 36 2 35 3 34 4 33 5 32 6 30 7 31 8 29 9 26 10 27 11
REMARK SMILES IDX 111 12 28 13 110 14 25 15 23 16 24 17 12 19 13 20 11 21 9 22
REMARK SMILES IDX 10 23 8 25 3 26 4 27 5 28 7 29 6 30 2 31 1 32 14 33 15 34
REMARK SMILES IDX 19 35 16 36 18 37 17 38 20 39 22 40 21 41 38 42 39 43 40 44
REMARK SMILES IDX 41 45 42 46 43 47 44 48 45 49 46 50 47 51 48 52 109 53 49 54
REMARK SMILES IDX 108 55 50 56 51 57 52 58 102 59 53 60 107 61 101 62 103 63
REMARK SMILES IDX 54 64 106 65 100 66 99 67 55 69 87 70 67 71 86 72 68 73
REMARK SMILES IDX 71 74 85 75 104 76 69 77 70 78 84 80 105 81 72 82 56 83
REMARK SMILES IDX 57 84 65 85 58 86 60 87 66 88 59 89 61 90 62 91 63 92 64 93
REMARK SMILES IDX 88 94 89 95 97 96 90 97 92 98 98 99 91 100 93 101 94 102
REMARK SMILES IDX 95 103 96 104 73 105 74 106 82 107 75 108 77 109 83 110
REMARK SMILES IDX 76 111 78 112 79 113 80 114 81 115
REMARK H PARENT 25 18 11 24 103 68 71 79
REMARK Flexibility Score: inf
ROOT
ATOM      1  C   UNL     1      -4.631   5.022   1.012  1.00  0.00     0.188 C 
ENDROOT
BRANCH   1   2
ATOM      2  C   UNL     1      -4.788   5.357   2.504  1.00  0.00     0.188 C 
BRANCH   2   3
ATOM      3  O   UNL     1      -4.802   6.677   3.022  1.00  0.00    -0.376 OA
BRANCH   3   4
ATOM      4  C   UNL     1      -3.650   7.465   3.333  1.00  0.00     0.202 C 
BRANCH   4   5
ATOM      5  C   UNL     1      -2.161   7.069   3.182  1.00  0.00     0.261 C 
BRANCH   5   6
ATOM      6  O   UNL     1      -1.912   5.732   2.788  1.00  0.00    -0.460 OA
BRANCH   6   7
ATOM      7  C   UNL     1      -2.104   4.849   3.786  1.00  0.00     0.338 C 
ATOM      8  O   UNL     1      -2.198   5.077   4.981  1.00  0.00    -0.246 OA
BRANCH   7   9
ATOM      9  C   UNL     1      -2.417   3.535   3.189  1.00  0.00     0.060 A 
ATOM     10  C   UNL     1      -1.698   0.203   1.784  1.00  0.00     0.041 A 
ATOM     11  C   UNL     1      -1.799   0.400   3.413  1.00  0.00     0.027 A 
ATOM     12  C   UNL     1      -2.047   1.547   0.840  1.00  0.00     0.027 A 
ATOM     13  C   UNL     1      -2.179   2.232   4.281  1.00  0.00     0.018 A 
ATOM     14  C   UNL     1      -2.413   3.136   1.486  1.00  0.00     0.018 A 
BRANCH  10  15
ATOM     15  N   UNL     1      -0.663  -0.779   1.581  1.00  0.00    -0.321 N 
ATOM     16  C   UNL     1       0.365  -0.507   0.729  1.00  0.00     0.272 C 
ATOM     17  O   UNL     1      -0.010  -0.249  -0.408  1.00  0.00    -0.267 OA
ATOM     18  H   UNL     1      -0.699  -1.642   2.054  1.00  0.00     0.170 HD
BRANCH  16  19
ATOM     19  C   UNL     1       1.873  -0.433   1.224  1.00  0.00     0.108 C 
ATOM     20  C   UNL     1       2.315   0.347   2.256  1.00  0.00     0.040 C 
BRANCH  19  21
ATOM     21  N   UNL     1       2.981  -0.939   0.530  1.00  0.00    -0.317 N 
ATOM     22  C   UNL     1       3.361  -1.945  -0.319  1.00  0.00     0.259 C 
ATOM     23  O   UNL     1       4.571  -2.093  -0.512  1.00  0.00    -0.269 OA
ATOM     24  H   UNL     1       3.762  -0.370   0.719  1.00  0.00     0.170 HD
BRANCH  22  25
ATOM     25  C   UNL     1       2.450  -2.960  -0.824  1.00  0.00     0.082 A 
ATOM     26  C   UNL     1       1.214  -2.657  -1.341  1.00  0.00     0.131 A 
ATOM     27  C   UNL     1       0.202  -3.598  -1.150  1.00  0.00     0.047 A 
ATOM     28  C   UNL     1       0.509  -4.920  -0.823  1.00  0.00     0.004 A 
ATOM     29  C   UNL     1       2.815  -4.309  -0.656  1.00  0.00     0.018 A 
ATOM     30  C   UNL     1       1.841  -5.301  -0.720  1.00  0.00     0.001 A 
BRANCH  26  31
ATOM     31  O   UNL     1       0.883  -1.628  -2.171  1.00  0.00    -0.496 OA
ATOM     32  C   UNL     1       1.684  -0.456  -2.349  1.00  0.00     0.278 C 
ENDBRANCH  26  31
ENDBRANCH  22  25
ENDBRANCH  19  21
BRANCH  20  33
ATOM     33  C   UNL     1       1.573   1.275   3.104  1.00  0.00    -0.019 A 
ATOM     34  C   UNL     1       1.270   2.426   2.283  1.00  0.00     0.012 A 
ATOM     35  C   UNL     1       0.920   0.786   4.304  1.00  0.00     0.058 A 
ATOM     36  C   UNL     1      -0.031   2.756   2.083  1.00  0.00     0.051 A 
ATOM     37  C   UNL     1      -0.305   1.336   4.438  1.00  0.00     0.166 A 
ATOM     38  C   UNL     1      -0.855   2.029   2.948  1.00  0.00     0.165 A 
ATOM     39  O   UNL     1      -1.679   0.586   5.349  1.00  0.00    -0.454 OA
ATOM     40  O   UNL     1      -2.826   1.631   2.798  1.00  0.00    -0.454 OA
ATOM     41  C   UNL     1      -3.398   0.787   4.480  1.00  0.00     0.468 C 
ENDBRANCH  20  33
ENDBRANCH  16  19
ENDBRANCH  10  15
ENDBRANCH   7   9
ENDBRANCH   6   7
ENDBRANCH   5   6
ENDBRANCH   4   5
ENDBRANCH   3   4
ENDBRANCH   2   3
ENDBRANCH   1   2
BRANCH   1  42
ATOM     42  O   UNL     1      -3.745   5.851   0.323  1.00  0.00    -0.377 OA
BRANCH  42  43
ATOM     43  C   UNL     1      -4.251   7.170   0.215  1.00  0.00     0.188 C 
BRANCH  43  44
ATOM     44  C   UNL     1      -5.732   7.559   0.632  1.00  0.00     0.188 C 
BRANCH  44  45
ATOM     45  O   UNL     1      -6.706   6.700   1.217  1.00  0.00    -0.376 OA
BRANCH  45  46
ATOM     46  C   UNL     1      -7.500   5.725   0.550  1.00  0.00     0.202 C 
BRANCH  46  47
ATOM     47  C   UNL     1      -7.407   5.384  -0.957  1.00  0.00     0.261 C 
BRANCH  47  48
ATOM     48  O   UNL     1      -6.503   6.154  -1.756  1.00  0.00    -0.460 OA
BRANCH  48  49
ATOM     49  C   UNL     1      -6.958   7.376  -2.130  1.00  0.00     0.338 C 
ATOM     50  O   UNL     1      -8.039   7.859  -1.844  1.00  0.00    -0.246 OA
BRANCH  49  51
ATOM     51  C   UNL     1      -5.834   8.139  -2.732  1.00  0.00     0.060 A 
ATOM     52  C   UNL     1      -5.343   9.307  -2.109  1.00  0.00     0.016 A 
ATOM     53  C   UNL     1      -5.267   7.696  -3.921  1.00  0.00     0.016 A 
ATOM     54  C   UNL     1      -4.294  10.031  -2.667  1.00  0.00     0.010 A 
ATOM     55  C   UNL     1      -4.273   8.467  -4.522  1.00  0.00     0.010 A 
ATOM     56  C   UNL     1      -3.810   9.654  -3.917  1.00  0.00    -0.014 A 
BRANCH  56  57
ATOM     57  C   UNL     1      -3.022  10.608  -4.725  1.00  0.00     0.031 A 
ATOM     58  C   UNL     1      -3.737  11.341  -5.824  1.00  0.00     0.074 A 
ATOM     59  C   UNL     1      -1.706  10.791  -4.527  1.00  0.00     0.049 A 
ATOM     60  N   UNL     1      -3.245  12.079  -6.781  1.00  0.00    -0.248 NA
ATOM     61  C   UNL     1      -5.205  11.205  -5.858  1.00  0.00     0.031 C 
ATOM     62  C   UNL     1      -0.916  10.181  -3.462  1.00  0.00     0.029 A 
ATOM     63  N   UNL     1      -0.795  11.514  -5.258  1.00  0.00    -0.354 N 
ATOM     64  C   UNL     1      -4.331  12.447  -7.564  1.00  0.00     0.074 A 
ATOM     65  C   UNL     1      -5.508  11.849  -6.974  1.00  0.00     0.031 C 
ATOM     66  C   UNL     1       0.374  10.519  -3.633  1.00  0.00     0.029 A 
ATOM     67  C   UNL     1       0.504  11.323  -4.847  1.00  0.00     0.049 A 
ATOM     68  H   UNL     1      -1.046  12.109  -6.001  1.00  0.00     0.167 HD
ATOM     69  C   UNL     1      -4.343  13.211  -8.679  1.00  0.00     0.034 A 
ATOM     70  C   UNL     1       1.664  11.706  -5.418  1.00  0.00     0.034 A 
ATOM     71  C   UNL     1      -3.167  13.789  -9.264  1.00  0.00     0.049 A 
ATOM     72  C   UNL     1       1.633  12.489  -6.706  1.00  0.00     0.074 A 
ATOM     73  C   UNL     1      -3.079  14.610 -10.372  1.00  0.00     0.029 A 
ATOM     74  N   UNL     1      -1.874  13.579  -8.814  1.00  0.00    -0.354 N 
ATOM     75  N   UNL     1       0.598  12.881  -7.408  1.00  0.00    -0.248 NA
ATOM     76  C   UNL     1       2.927  12.904  -7.271  1.00  0.00     0.031 C 
ATOM     77  C   UNL     1      -1.728  14.829 -10.642  1.00  0.00     0.029 A 
ATOM     78  C   UNL     1      -0.980  14.231  -9.641  1.00  0.00     0.049 A 
ATOM     79  H   UNL     1      -1.629  13.045  -8.024  1.00  0.00     0.167 HD
ATOM     80  C   UNL     1       1.111  13.633  -8.460  1.00  0.00     0.074 A 
ATOM     81  C   UNL     1       2.549  13.641  -8.307  1.00  0.00     0.031 C 
ATOM     82  C   UNL     1       0.447  14.268  -9.455  1.00  0.00     0.034 A 
BRANCH  69  83
ATOM     83  C   UNL     1      -5.664  13.437  -9.363  1.00  0.00     0.023 A 
ATOM     84  C   UNL     1      -6.668  14.208  -8.742  1.00  0.00     0.012 A 
ATOM     85  C   UNL     1      -5.888  12.919 -10.653  1.00  0.00     0.148 A 
ATOM     86  C   UNL     1      -7.889  14.422  -9.378  1.00  0.00     0.002 A 
ATOM     87  C   UNL     1      -7.084  13.183 -11.303  1.00  0.00     0.091 A 
ATOM     88  F   UNL     1      -4.924  12.178 -11.220  1.00  0.00    -0.205 F 
ATOM     89  C   UNL     1      -8.092  13.920 -10.662  1.00  0.00     0.022 A 
BRANCH  87  90
ATOM     90  S   UNL     1      -7.411  12.644 -12.983  1.00  0.00     0.127 S 
ATOM     91  O   UNL     1      -8.523  11.715 -12.782  1.00  0.00    -0.237 OA
ATOM     92  O   UNL     1      -7.775  13.899 -13.640  1.00  0.00    -0.237 OA
ATOM     93  O   UNL     1      -6.178  12.036 -13.464  1.00  0.00    -0.744 OA
ENDBRANCH  87  90
ENDBRANCH  69  83
BRANCH  70  94
ATOM     94  C   UNL     1       2.966  11.339  -4.792  1.00  0.00     0.023 A 
ATOM     95  C   UNL     1       3.809  12.348  -4.287  1.00  0.00     0.012 A 
ATOM     96  C   UNL     1       3.381   9.996  -4.720  1.00  0.00     0.148 A 
ATOM     97  C   UNL     1       5.062  12.029  -3.762  1.00  0.00     0.002 A 
ATOM     98  C   UNL     1       4.603   9.680  -4.142  1.00  0.00     0.091 A 
ATOM     99  F   UNL     1       2.566   9.053  -5.211  1.00  0.00    -0.205 F 
ATOM    100  C   UNL     1       5.456  10.695  -3.683  1.00  0.00     0.022 A 
BRANCH  98 101
ATOM    101  S   UNL     1       5.148   7.986  -3.904  1.00  0.00     0.127 S 
ATOM    102  O   UNL     1       6.344   7.937  -4.740  1.00  0.00    -0.237 OA
ATOM    103  O   UNL     1       5.400   7.955  -2.463  1.00  0.00    -0.237 OA
ATOM    104  O   UNL     1       4.042   7.146  -4.343  1.00  0.00    -0.744 OA
ENDBRANCH  98 101
ENDBRANCH  70  94
BRANCH  82 105
ATOM    105  C   UNL     1       1.236  15.120 -10.414  1.00  0.00     0.023 A 
ATOM    106  C   UNL     1       2.074  14.540 -11.384  1.00  0.00     0.012 A 
ATOM    107  C   UNL     1       1.036  16.516 -10.414  1.00  0.00     0.148 A 
ATOM    108  C   UNL     1       2.718  15.342 -12.328  1.00  0.00     0.002 A 
ATOM    109  C   UNL     1       1.632  17.300 -11.390  1.00  0.00     0.091 A 
ATOM    110  F   UNL     1       0.241  17.046  -9.473  1.00  0.00    -0.205 F 
ATOM    111  C   UNL     1       2.484  16.717 -12.341  1.00  0.00     0.022 A 
BRANCH 109 112
ATOM    112  S   UNL     1       1.313  19.061 -11.538  1.00  0.00     0.127 S 
ATOM    113  O   UNL     1       2.638  19.624 -11.282  1.00  0.00    -0.237 OA
ATOM    114  O   UNL     1       0.858  19.174 -12.923  1.00  0.00    -0.237 OA
ATOM    115  O   UNL     1       0.306  19.379 -10.534  1.00  0.00    -0.744 OA
ENDBRANCH 109 112
ENDBRANCH  82 105
ENDBRANCH  56  57
ENDBRANCH  49  51
ENDBRANCH  48  49
ENDBRANCH  47  48
ENDBRANCH  46  47
ENDBRANCH  45  46
ENDBRANCH  44  45
ENDBRANCH  43  44
ENDBRANCH  42  43
ENDBRANCH   1  42
TORSDOF 29
