REMARK SMILES CCCc1cc(OC(F)(F)F)cc2c1O[C@H](C(F)(F)F)C(C(=O)OCCOCCOCCOCCOC(=O)c1ccc(-c3c4nc(c(-c5cccc(S(=O)(=O)[O-])c5F)c5ccc([nH]5)c(-c5cccc(S(=O)(=O)[O-])c5F)c5nc(c(-c6cccc(S(=O)(=O)[O-])c6F)c6ccc3[nH]6)C=C5)C=C4)cc1)=C2
REMARK SMILES IDX 31 1 30 2 29 3 28 4 27 5 26 6 25 7 24 8 22 9 23 10 21 11
REMARK SMILES IDX 4 12 5 13 14 14 6 15 13 16 15 17 12 18 102 19 16 20 3 21
REMARK SMILES IDX 2 22 1 23 7 24 8 25 9 26 10 27 11 28 17 29 18 30 19 31 20 32
REMARK SMILES IDX 32 33 33 34 34 35 35 36 36 37 37 38 38 39 39 40 40 41 101 42
REMARK SMILES IDX 41 43 100 44 42 45 43 46 44 47 94 48 45 49 99 50 93 51 95 52
REMARK SMILES IDX 46 53 98 54 92 55 91 56 47 58 79 59 59 60 78 61 60 62 63 63
REMARK SMILES IDX 77 64 96 65 61 66 62 67 76 69 97 70 64 71 48 72 49 73 57 74
REMARK SMILES IDX 50 75 52 76 58 77 51 78 53 79 54 80 55 81 56 82 80 83 81 84
REMARK SMILES IDX 89 85 82 86 84 87 90 88 83 89 85 90 86 91 87 92 88 93 65 94
REMARK SMILES IDX 66 95 74 96 67 97 69 98 75 99 68 100 70 101 71 102 72 103
REMARK SMILES IDX 73 104
REMARK H PARENT 95 57 63 68
REMARK Flexibility Score: inf
ROOT
ATOM      1  C   UNL     1      -1.335 -10.819   3.149  1.00  0.00     0.188 C 
ENDROOT
BRANCH   1   2
ATOM      2  O   UNL     1      -1.145  -9.432   2.898  1.00  0.00    -0.377 OA
BRANCH   2   3
ATOM      3  C   UNL     1      -0.814  -8.994   1.593  1.00  0.00     0.188 C 
BRANCH   3   4
ATOM      4  C   UNL     1       0.275  -9.754   0.800  1.00  0.00     0.188 C 
BRANCH   4   5
ATOM      5  O   UNL     1       0.807 -10.873   1.481  1.00  0.00    -0.376 OA
BRANCH   5   6
ATOM      6  C   UNL     1       2.067 -10.757   2.110  1.00  0.00     0.202 C 
BRANCH   6   7
ATOM      7  C   UNL     1       2.349  -9.605   3.087  1.00  0.00     0.261 C 
BRANCH   7   8
ATOM      8  O   UNL     1       1.815  -8.316   2.759  1.00  0.00    -0.460 OA
BRANCH   8   9
ATOM      9  C   UNL     1       2.378  -7.632   1.742  1.00  0.00     0.338 C 
ATOM     10  O   UNL     1       3.291  -8.020   1.030  1.00  0.00    -0.246 OA
BRANCH   9  11
ATOM     11  C   UNL     1       1.629  -6.380   1.495  1.00  0.00     0.087 C 
ATOM     12  C   UNL     1       0.540  -2.494   0.561  1.00  0.00    -0.002 A 
ATOM     13  C   UNL     1      -0.276  -1.794   1.460  1.00  0.00     0.054 A 
ATOM     14  C   UNL     1       0.981  -3.764   0.943  1.00  0.00     0.131 A 
ATOM     15  C   UNL     1      -0.569  -2.308   2.731  1.00  0.00     0.130 A 
ATOM     16  C   UNL     1       0.634  -4.329   2.183  1.00  0.00     0.021 A 
ATOM     17  O   UNL     1       1.779  -4.445   0.047  1.00  0.00    -0.475 OA
ATOM     18  C   UNL     1      -0.135  -3.590   3.079  1.00  0.00     0.058 A 
ATOM     19  C   UNL     1       1.157  -5.650   2.519  1.00  0.00     0.027 C 
ATOM     20  C   UNL     1       1.547  -5.875   0.073  1.00  0.00     0.316 C 
BRANCH  12  21
ATOM     21  C   UNL     1       0.927  -1.979  -0.808  1.00  0.00     0.039 C 
BRANCH  21  22
ATOM     22  C   UNL     1       0.580  -0.534  -1.165  1.00  0.00     0.001 C 
ATOM     23  C   UNL     1       1.394   0.486  -0.381  1.00  0.00     0.004 C 
ENDBRANCH  21  22
ENDBRANCH  12  21
BRANCH  15  24
ATOM     24  O   UNL     1      -1.273  -1.647   3.699  1.00  0.00    -0.406 OA
BRANCH  24  25
ATOM     25  C   UNL     1      -1.271  -0.229   3.622  1.00  0.00     0.573 C 
ATOM     26  F   UNL     1      -0.030   0.261   3.400  1.00  0.00    -0.132 F 
ATOM     27  F   UNL     1      -2.096   0.196   2.640  1.00  0.00    -0.132 F 
ATOM     28  F   UNL     1      -1.717   0.280   4.791  1.00  0.00    -0.132 F 
ENDBRANCH  24  25
ENDBRANCH  15  24
BRANCH  20  29
ATOM     29  C   UNL     1       0.254  -6.192  -0.722  1.00  0.00     0.430 C 
ATOM     30  F   UNL     1      -0.819  -5.468  -0.328  1.00  0.00    -0.167 F 
ATOM     31  F   UNL     1       0.436  -5.931  -2.043  1.00  0.00    -0.167 F 
ATOM     32  F   UNL     1      -0.106  -7.489  -0.646  1.00  0.00    -0.167 F 
ENDBRANCH  20  29
ENDBRANCH   9  11
ENDBRANCH   8   9
ENDBRANCH   7   8
ENDBRANCH   6   7
ENDBRANCH   5   6
ENDBRANCH   4   5
ENDBRANCH   3   4
ENDBRANCH   2   3
ENDBRANCH   1   2
BRANCH   1  33
ATOM     33  C   UNL     1      -1.783 -11.791   2.030  1.00  0.00     0.188 C 
BRANCH  33  34
ATOM     34  O   UNL     1      -2.078 -11.185   0.782  1.00  0.00    -0.376 OA
BRANCH  34  35
ATOM     35  C   UNL     1      -3.429 -11.126   0.366  1.00  0.00     0.202 C 
BRANCH  35  36
ATOM     36  C   UNL     1      -4.366 -10.231   1.187  1.00  0.00     0.261 C 
BRANCH  36  37
ATOM     37  O   UNL     1      -4.373 -10.467   2.600  1.00  0.00    -0.460 OA
BRANCH  37  38
ATOM     38  C   UNL     1      -4.861 -11.659   3.014  1.00  0.00     0.338 C 
ATOM     39  O   UNL     1      -5.296 -12.553   2.320  1.00  0.00    -0.246 OA
BRANCH  38  40
ATOM     40  C   UNL     1      -4.585 -11.768   4.461  1.00  0.00     0.060 A 
ATOM     41  C   UNL     1      -3.783 -12.822   4.918  1.00  0.00     0.016 A 
ATOM     42  C   UNL     1      -5.092 -10.819   5.353  1.00  0.00     0.016 A 
ATOM     43  C   UNL     1      -3.512 -12.948   6.278  1.00  0.00     0.010 A 
ATOM     44  C   UNL     1      -4.843 -10.964   6.719  1.00  0.00     0.010 A 
ATOM     45  C   UNL     1      -4.084 -12.050   7.188  1.00  0.00    -0.014 A 
BRANCH  45  46
ATOM     46  C   UNL     1      -4.069 -12.381   8.631  1.00  0.00     0.031 A 
ATOM     47  C   UNL     1      -5.280 -13.059   9.211  1.00  0.00     0.074 A 
ATOM     48  C   UNL     1      -3.003 -12.112   9.403  1.00  0.00     0.049 A 
ATOM     49  N   UNL     1      -5.503 -13.455  10.435  1.00  0.00    -0.248 NA
ATOM     50  C   UNL     1      -6.392 -13.326   8.280  1.00  0.00     0.031 C 
ATOM     51  C   UNL     1      -1.772 -11.467   8.953  1.00  0.00     0.029 A 
ATOM     52  N   UNL     1      -2.799 -12.336  10.742  1.00  0.00    -0.354 N 
ATOM     53  C   UNL     1      -6.784 -13.992  10.431  1.00  0.00     0.074 A 
ATOM     54  C   UNL     1      -7.298 -13.858   9.086  1.00  0.00     0.031 C 
ATOM     55  C   UNL     1      -0.948 -11.323  10.006  1.00  0.00     0.029 A 
ATOM     56  C   UNL     1      -1.603 -11.844  11.205  1.00  0.00     0.049 A 
ATOM     57  H   UNL     1      -3.448 -12.804  11.316  1.00  0.00     0.167 HD
ATOM     58  C   UNL     1      -7.469 -14.559  11.451  1.00  0.00     0.034 A 
ATOM     59  C   UNL     1      -1.107 -11.803  12.458  1.00  0.00     0.034 A 
ATOM     60  C   UNL     1      -6.954 -14.696  12.785  1.00  0.00     0.049 A 
ATOM     61  C   UNL     1      -1.903 -12.414  13.584  1.00  0.00     0.074 A 
ATOM     62  C   UNL     1      -7.552 -15.292  13.880  1.00  0.00     0.029 A 
ATOM     63  N   UNL     1      -5.727 -14.212  13.212  1.00  0.00    -0.354 N 
ATOM     64  N   UNL     1      -3.063 -13.024  13.543  1.00  0.00    -0.248 NA
ATOM     65  C   UNL     1      -1.302 -12.363  14.926  1.00  0.00     0.031 C 
ATOM     66  C   UNL     1      -6.702 -15.134  14.980  1.00  0.00     0.029 A 
ATOM     67  C   UNL     1      -5.555 -14.482  14.558  1.00  0.00     0.049 A 
ATOM     68  H   UNL     1      -5.074 -13.746  12.641  1.00  0.00     0.167 HD
ATOM     69  C   UNL     1      -3.313 -13.462  14.840  1.00  0.00     0.074 A 
ATOM     70  C   UNL     1      -2.171 -13.067  15.638  1.00  0.00     0.031 C 
ATOM     71  C   UNL     1      -4.392 -14.123  15.330  1.00  0.00     0.034 A 
BRANCH  58  72
ATOM     72  C   UNL     1      -8.851 -15.078  11.157  1.00  0.00     0.023 A 
ATOM     73  C   UNL     1      -9.015 -16.234  10.367  1.00  0.00     0.012 A 
ATOM     74  C   UNL     1      -9.986 -14.444  11.698  1.00  0.00     0.148 A 
ATOM     75  C   UNL     1     -10.289 -16.731  10.091  1.00  0.00     0.002 A 
ATOM     76  C   UNL     1     -11.248 -14.973  11.461  1.00  0.00     0.091 A 
ATOM     77  F   UNL     1      -9.810 -13.331  12.425  1.00  0.00    -0.205 F 
ATOM     78  C   UNL     1     -11.403 -16.108  10.647  1.00  0.00     0.022 A 
BRANCH  76  79
ATOM     79  S   UNL     1     -12.737 -14.291  12.197  1.00  0.00     0.127 S 
ATOM     80  O   UNL     1     -13.421 -13.743  11.026  1.00  0.00    -0.237 OA
ATOM     81  O   UNL     1     -13.367 -15.482  12.769  1.00  0.00    -0.237 OA
ATOM     82  O   UNL     1     -12.291 -13.309  13.174  1.00  0.00    -0.744 OA
ENDBRANCH  76  79
ENDBRANCH  58  72
BRANCH  59  83
ATOM     83  C   UNL     1       0.224 -11.182  12.718  1.00  0.00     0.023 A 
ATOM     84  C   UNL     1       1.304 -11.988  13.129  1.00  0.00     0.012 A 
ATOM     85  C   UNL     1       0.421  -9.797  12.561  1.00  0.00     0.148 A 
ATOM     86  C   UNL     1       2.546 -11.420  13.414  1.00  0.00     0.002 A 
ATOM     87  C   UNL     1       1.676  -9.246  12.790  1.00  0.00     0.091 A 
ATOM     88  F   UNL     1      -0.623  -9.045  12.185  1.00  0.00    -0.205 F 
ATOM     89  C   UNL     1       2.735 -10.052  13.236  1.00  0.00     0.022 A 
BRANCH  87  90
ATOM     90  S   UNL     1       2.046  -7.519  12.466  1.00  0.00     0.127 S 
ATOM     91  O   UNL     1       2.283  -7.005  13.812  1.00  0.00    -0.237 OA
ATOM     92  O   UNL     1       3.240  -7.622  11.626  1.00  0.00    -0.237 OA
ATOM     93  O   UNL     1       0.875  -6.985  11.784  1.00  0.00    -0.744 OA
ENDBRANCH  87  90
ENDBRANCH  59  83
BRANCH  71  94
ATOM     94  C   UNL     1      -4.376 -14.506  16.789  1.00  0.00     0.023 A 
ATOM     95  C   UNL     1      -4.495 -13.514  17.783  1.00  0.00     0.012 A 
ATOM     96  C   UNL     1      -4.305 -15.861  17.171  1.00  0.00     0.148 A 
ATOM     97  C   UNL     1      -4.497 -13.861  19.134  1.00  0.00     0.002 A 
ATOM     98  C   UNL     1      -4.364 -16.203  18.517  1.00  0.00     0.091 A 
ATOM     99  F   UNL     1      -4.179 -16.791  16.213  1.00  0.00    -0.205 F 
ATOM    100  C   UNL     1      -4.444 -15.204  19.500  1.00  0.00     0.022 A 
BRANCH  98 101
ATOM    101  S   UNL     1      -4.404 -17.910  19.075  1.00  0.00     0.127 S 
ATOM    102  O   UNL     1      -3.071 -18.064  19.656  1.00  0.00    -0.237 OA
ATOM    103  O   UNL     1      -5.495 -17.892  20.049  1.00  0.00    -0.237 OA
ATOM    104  O   UNL     1      -4.665 -18.715  17.890  1.00  0.00    -0.744 OA
ENDBRANCH  98 101
ENDBRANCH  71  94
ENDBRANCH  45  46
ENDBRANCH  38  40
ENDBRANCH  37  38
ENDBRANCH  36  37
ENDBRANCH  35  36
ENDBRANCH  34  35
ENDBRANCH  33  34
ENDBRANCH   1  33
TORSDOF 28
