REMARK SMILES C[NH+]1CCC(NC(=O)N[C@H]2C=C[C@H](C(=O)OCCOCCOCCOCCOC(=O)c3ccc(-c4c5nc(c(-c6cccc(S(=O)(=O)[O-])c6F)c6ccc([nH]6)c(-c6cccc(S(=O)(=O)[O-])c6F)c6nc(c(-c7cccc(S(=O)(=O)[O-])c7F)c7ccc4[nH]7)C=C6)C=C5)cc3)C2)CC1
REMARK SMILES IDX 23 1 22 2 21 3 20 4 19 5 18 6 17 7 16 8 14 9 15 10 13 11
REMARK SMILES IDX 10 12 11 13 94 14 12 15 9 16 6 17 7 18 8 20 5 22 1 23 2 24
REMARK SMILES IDX 3 25 96 26 4 28 95 29 24 30 25 31 26 32 27 33 28 34 29 35
REMARK SMILES IDX 30 36 31 37 32 38 93 39 33 40 92 41 34 42 35 43 36 44 86 45
REMARK SMILES IDX 37 46 91 47 85 48 87 49 38 50 90 51 84 52 83 53 39 55 71 56
REMARK SMILES IDX 51 57 70 58 52 59 55 60 69 61 88 62 53 63 54 64 68 66 89 67
REMARK SMILES IDX 56 68 40 69 41 70 49 71 42 72 44 73 50 74 43 75 45 76 46 77
REMARK SMILES IDX 47 78 48 79 72 80 73 81 81 82 74 83 76 84 82 85 75 86 77 87
REMARK SMILES IDX 78 88 79 89 80 90 57 91 58 92 66 93 59 94 61 95 67 96 60 97
REMARK SMILES IDX 62 98 63 99 64 100 65 101
REMARK H PARENT 6 19 9 21 2 27 87 54 55 65
REMARK Flexibility Score: inf
ROOT
ATOM      1  C   UNL     1      -2.431   4.466  -2.430  1.00  0.00     0.188 C 
ENDROOT
BRANCH   1   2
ATOM      2  O   UNL     1      -1.368   3.798  -1.762  1.00  0.00    -0.377 OA
BRANCH   2   3
ATOM      3  C   UNL     1      -0.326   3.209  -2.524  1.00  0.00     0.188 C 
BRANCH   3   4
ATOM      4  C   UNL     1      -0.583   2.665  -3.947  1.00  0.00     0.188 C 
BRANCH   4   5
ATOM      5  O   UNL     1      -1.925   2.746  -4.381  1.00  0.00    -0.376 OA
BRANCH   5   6
ATOM      6  C   UNL     1      -2.631   1.564  -4.706  1.00  0.00     0.202 C 
BRANCH   6   7
ATOM      7  C   UNL     1      -2.839   0.586  -3.553  1.00  0.00     0.261 C 
BRANCH   7   8
ATOM      8  O   UNL     1      -1.625   0.132  -2.942  1.00  0.00    -0.463 OA
BRANCH   8   9
ATOM      9  C   UNL     1      -0.705  -0.571  -3.670  1.00  0.00     0.312 C 
ATOM     10  O   UNL     1      -0.829  -0.932  -4.828  1.00  0.00    -0.252 OA
BRANCH   9  11
ATOM     11  C   UNL     1       0.529  -0.716  -2.787  1.00  0.00     0.124 C 
ATOM     12  C   UNL     1       2.979  -0.612  -2.873  1.00  0.00     0.107 C 
ATOM     13  C   UNL     1       2.486  -2.003  -2.695  1.00  0.00    -0.006 C 
ATOM     14  C   UNL     1       1.717   0.222  -3.092  1.00  0.00     0.048 C 
ATOM     15  C   UNL     1       1.150  -2.072  -2.727  1.00  0.00    -0.014 C 
BRANCH  12  16
ATOM     16  N   UNL     1       3.956  -0.208  -1.867  1.00  0.00    -0.332 N 
ATOM     17  N   UNL     1       3.218  -0.091   0.401  1.00  0.00    -0.335 N 
ATOM     18  C   UNL     1       4.143  -0.043  -0.558  1.00  0.00     0.315 C 
ATOM     19  H   UNL     1       3.594  -0.129   1.310  1.00  0.00     0.165 HD
ATOM     20  O   UNL     1       5.309   0.170  -0.202  1.00  0.00    -0.249 OA
ATOM     21  H   UNL     1       4.791   0.034  -2.330  1.00  0.00     0.165 HD
BRANCH  17  22
ATOM     22  C   UNL     1       1.775  -0.099   0.372  1.00  0.00     0.095 C 
ATOM     23  C   UNL     1      -2.415  -0.113   0.867  1.00  0.00     0.332 C 
ATOM     24  N   UNL     1      -1.000  -0.116   1.273  1.00  0.00    -0.337 N 
ATOM     25  C   UNL     1      -0.361   1.114   0.793  1.00  0.00     0.264 C 
ATOM     26  C   UNL     1      -0.355  -1.355   0.826  1.00  0.00     0.264 C 
ATOM     27  H   UNL     1      -0.903  -0.112   2.289  1.00  0.00     0.347 HD
ATOM     28  C   UNL     1       1.154   1.137   1.015  1.00  0.00     0.086 C 
ATOM     29  C   UNL     1       1.168  -1.351   0.991  1.00  0.00     0.086 C 
ENDBRANCH  17  22
ENDBRANCH  12  16
ENDBRANCH   9  11
ENDBRANCH   8   9
ENDBRANCH   7   8
ENDBRANCH   6   7
ENDBRANCH   5   6
ENDBRANCH   4   5
ENDBRANCH   3   4
ENDBRANCH   2   3
ENDBRANCH   1   2
BRANCH   1  30
ATOM     30  C   UNL     1      -2.113   5.363  -3.652  1.00  0.00     0.188 C 
BRANCH  30  31
ATOM     31  O   UNL     1      -0.749   5.365  -4.044  1.00  0.00    -0.376 OA
BRANCH  31  32
ATOM     32  C   UNL     1       0.030   6.516  -3.778  1.00  0.00     0.202 C 
BRANCH  32  33
ATOM     33  C   UNL     1       0.199   6.951  -2.315  1.00  0.00     0.261 C 
BRANCH  33  34
ATOM     34  O   UNL     1      -1.002   7.060  -1.542  1.00  0.00    -0.460 OA
BRANCH  34  35
ATOM     35  C   UNL     1      -1.883   8.016  -1.901  1.00  0.00     0.338 C 
ATOM     36  O   UNL     1      -1.766   8.817  -2.818  1.00  0.00    -0.246 OA
BRANCH  35  37
ATOM     37  C   UNL     1      -3.122   7.782  -1.134  1.00  0.00     0.060 A 
ATOM     38  C   UNL     1      -4.309   7.491  -1.822  1.00  0.00     0.016 A 
ATOM     39  C   UNL     1      -3.099   7.815   0.262  1.00  0.00     0.016 A 
ATOM     40  C   UNL     1      -5.485   7.256  -1.114  1.00  0.00     0.010 A 
ATOM     41  C   UNL     1      -4.286   7.617   0.968  1.00  0.00     0.010 A 
ATOM     42  C   UNL     1      -5.487   7.372   0.281  1.00  0.00    -0.014 A 
BRANCH  42  43
ATOM     43  C   UNL     1      -6.780   7.474   0.994  1.00  0.00     0.031 A 
ATOM     44  C   UNL     1      -7.301   8.849   1.307  1.00  0.00     0.074 A 
ATOM     45  C   UNL     1      -7.479   6.381   1.342  1.00  0.00     0.049 A 
ATOM     46  N   UNL     1      -8.384   9.200   1.947  1.00  0.00    -0.248 NA
ATOM     47  C   UNL     1      -6.487   9.982   0.833  1.00  0.00     0.031 C 
ATOM     48  C   UNL     1      -7.083   5.000   1.072  1.00  0.00     0.029 A 
ATOM     49  N   UNL     1      -8.664   6.268   2.024  1.00  0.00    -0.354 N 
ATOM     50  C   UNL     1      -8.367  10.588   1.980  1.00  0.00     0.074 A 
ATOM     51  C   UNL     1      -7.162  11.018   1.307  1.00  0.00     0.031 C 
ATOM     52  C   UNL     1      -7.998   4.174   1.611  1.00  0.00     0.029 A 
ATOM     53  C   UNL     1      -9.024   4.968   2.287  1.00  0.00     0.049 A 
ATOM     54  H   UNL     1      -9.205   7.043   2.298  1.00  0.00     0.167 HD
ATOM     55  C   UNL     1      -9.279  11.433   2.514  1.00  0.00     0.034 A 
ATOM     56  C   UNL     1     -10.049   4.481   3.014  1.00  0.00     0.034 A 
ATOM     57  C   UNL     1     -10.477  11.001   3.180  1.00  0.00     0.049 A 
ATOM     58  C   UNL     1     -11.027   5.444   3.640  1.00  0.00     0.074 A 
ATOM     59  C   UNL     1     -11.483  11.776   3.726  1.00  0.00     0.029 A 
ATOM     60  N   UNL     1     -10.821   9.677   3.408  1.00  0.00    -0.354 N 
ATOM     61  N   UNL     1     -11.056   6.753   3.577  1.00  0.00    -0.248 NA
ATOM     62  C   UNL     1     -12.134   4.858   4.410  1.00  0.00     0.031 C 
ATOM     63  C   UNL     1     -12.416  10.921   4.321  1.00  0.00     0.029 A 
ATOM     64  C   UNL     1     -12.017   9.612   4.100  1.00  0.00     0.049 A 
ATOM     65  H   UNL     1     -10.292   8.899   3.119  1.00  0.00     0.167 HD
ATOM     66  C   UNL     1     -12.203   7.145   4.262  1.00  0.00     0.074 A 
ATOM     67  C   UNL     1     -12.850   5.931   4.715  1.00  0.00     0.031 C 
ATOM     68  C   UNL     1     -12.674   8.394   4.502  1.00  0.00     0.034 A 
BRANCH  55  69
ATOM     69  C   UNL     1      -9.014  12.910   2.396  1.00  0.00     0.023 A 
ATOM     70  C   UNL     1      -9.114  13.545   1.141  1.00  0.00     0.012 A 
ATOM     71  C   UNL     1      -8.706  13.677   3.537  1.00  0.00     0.148 A 
ATOM     72  C   UNL     1      -8.877  14.913   1.018  1.00  0.00     0.002 A 
ATOM     73  C   UNL     1      -8.521  15.048   3.414  1.00  0.00     0.091 A 
ATOM     74  F   UNL     1      -8.591  13.050   4.716  1.00  0.00    -0.205 F 
ATOM     75  C   UNL     1      -8.593  15.665   2.154  1.00  0.00     0.022 A 
BRANCH  73  76
ATOM     76  S   UNL     1      -8.232  16.116   4.827  1.00  0.00     0.127 S 
ATOM     77  O   UNL     1      -6.849  16.537   4.600  1.00  0.00    -0.237 OA
ATOM     78  O   UNL     1      -9.230  17.166   4.626  1.00  0.00    -0.237 OA
ATOM     79  O   UNL     1      -8.445  15.291   6.008  1.00  0.00    -0.744 OA
ENDBRANCH  73  76
ENDBRANCH  55  69
BRANCH  56  80
ATOM     80  C   UNL     1     -10.220   3.010   3.178  1.00  0.00     0.023 A 
ATOM     81  C   UNL     1     -11.325   2.365   2.590  1.00  0.00     0.012 A 
ATOM     82  C   UNL     1      -9.292   2.247   3.914  1.00  0.00     0.148 A 
ATOM     83  C   UNL     1     -11.524   0.995   2.762  1.00  0.00     0.002 A 
ATOM     84  C   UNL     1      -9.465   0.873   4.033  1.00  0.00     0.091 A 
ATOM     85  F   UNL     1      -8.255   2.881   4.478  1.00  0.00    -0.205 F 
ATOM     86  C   UNL     1     -10.591   0.248   3.475  1.00  0.00     0.022 A 
BRANCH  84  87
ATOM     87  S   UNL     1      -8.251  -0.189   4.822  1.00  0.00     0.127 S 
ATOM     88  O   UNL     1      -8.986  -0.666   5.991  1.00  0.00    -0.237 OA
ATOM     89  O   UNL     1      -8.019  -1.196   3.786  1.00  0.00    -0.237 OA
ATOM     90  O   UNL     1      -7.104   0.662   5.103  1.00  0.00    -0.744 OA
ENDBRANCH  84  87
ENDBRANCH  56  80
BRANCH  68  91
ATOM     91  C   UNL     1     -13.981   8.522   5.242  1.00  0.00     0.023 A 
ATOM     92  C   UNL     1     -14.053   8.212   6.614  1.00  0.00     0.012 A 
ATOM     93  C   UNL     1     -15.126   9.019   4.586  1.00  0.00     0.148 A 
ATOM     94  C   UNL     1     -15.252   8.357   7.312  1.00  0.00     0.002 A 
ATOM     95  C   UNL     1     -16.301   9.213   5.300  1.00  0.00     0.091 A 
ATOM     96  F   UNL     1     -15.042   9.296   3.276  1.00  0.00    -0.205 F 
ATOM     97  C   UNL     1     -16.372   8.868   6.658  1.00  0.00     0.022 A 
BRANCH  95  98
ATOM     98  S   UNL     1     -17.762   9.960   4.567  1.00  0.00     0.127 S 
ATOM     99  O   UNL     1     -18.676   8.821   4.499  1.00  0.00    -0.237 OA
ATOM    100  O   UNL     1     -18.122  10.973   5.560  1.00  0.00    -0.237 OA
ATOM    101  O   UNL     1     -17.339  10.497   3.281  1.00  0.00    -0.744 OA
ENDBRANCH  95  98
ENDBRANCH  68  91
ENDBRANCH  42  43
ENDBRANCH  35  37
ENDBRANCH  34  35
ENDBRANCH  33  34
ENDBRANCH  32  33
ENDBRANCH  31  32
ENDBRANCH  30  31
ENDBRANCH   1  30
TORSDOF 25
