REMARK SMILES C[C@H](C(=O)OCCOCCOCCOCCOC(=O)c1ccc(-c2c3nc(c(-c4cccc(S(=O)(=O)[O-])c4F)c4ccc([nH]4)c(-c4cccc(S(=O)(=O)[O-])c4F)c4nc(c(-c5cccc(S(=O)(=O)[O-])c5F)c5ccc2[nH]5)C=C4)C=C3)cc1)c1cccc(C(=O)c2ccccc2)c1
REMARK SMILES IDX 11 1 10 2 9 3 8 4 7 5 6 6 5 7 3 8 4 9 2 10 1 11 83 12 84 13
REMARK SMILES IDX 96 14 85 15 87 16 86 17 88 18 89 19 90 20 91 21 95 22 92 23
REMARK SMILES IDX 94 24 93 25 12 26 13 27 14 28 15 29 16 30 17 31 18 32 19 33
REMARK SMILES IDX 20 34 21 35 82 36 22 37 81 38 23 39 24 40 25 41 75 42 26 43
REMARK SMILES IDX 80 44 74 45 76 46 27 47 79 48 73 49 72 50 28 52 60 53 40 54
REMARK SMILES IDX 59 55 41 56 44 57 58 58 77 59 42 60 43 61 57 63 78 64 45 65
REMARK SMILES IDX 29 66 30 67 38 68 31 69 33 70 39 71 32 72 34 73 35 74 36 75
REMARK SMILES IDX 37 76 61 77 62 78 70 79 63 80 65 81 71 82 64 83 66 84 67 85
REMARK SMILES IDX 68 86 69 87 46 88 47 89 55 90 48 91 50 92 56 93 49 94 51 95
REMARK SMILES IDX 52 96 53 97 54 98
REMARK H PARENT 76 51 44 62
REMARK Flexibility Score: inf
ROOT
ATOM      1  O   UNL     1      -0.235   0.647   2.145  1.00  0.00    -0.377 OA
ENDROOT
BRANCH   1   2
ATOM      2  C   UNL     1       0.595  -0.481   1.975  1.00  0.00     0.188 C 
BRANCH   2   3
ATOM      3  C   UNL     1       2.074  -0.191   1.645  1.00  0.00     0.188 C 
BRANCH   3   4
ATOM      4  O   UNL     1       2.509   1.132   1.887  1.00  0.00    -0.376 OA
BRANCH   4   5
ATOM      5  C   UNL     1       2.293   2.162   0.938  1.00  0.00     0.202 C 
BRANCH   5   6
ATOM      6  C   UNL     1       1.373   2.066  -0.292  1.00  0.00     0.261 C 
BRANCH   6   7
ATOM      7  O   UNL     1       0.735   0.812  -0.531  1.00  0.00    -0.463 OA
BRANCH   7   8
ATOM      8  C   UNL     1       1.167   0.042  -1.555  1.00  0.00     0.313 C 
ATOM      9  O   UNL     1       2.166   0.293  -2.223  1.00  0.00    -0.252 OA
BRANCH   8  10
ATOM     10  C   UNL     1       0.371  -1.259  -1.717  1.00  0.00     0.126 C 
ATOM     11  C   UNL     1       1.240  -2.396  -1.134  1.00  0.00     0.025 C 
BRANCH  10  12
ATOM     12  C   UNL     1      -1.094  -1.300  -1.249  1.00  0.00    -0.033 A 
ATOM     13  C   UNL     1      -1.882  -0.147  -1.094  1.00  0.00     0.004 A 
ATOM     14  C   UNL     1      -1.740  -2.539  -1.053  1.00  0.00     0.016 A 
ATOM     15  C   UNL     1      -3.219  -0.220  -0.686  1.00  0.00     0.001 A 
ATOM     16  C   UNL     1      -3.086  -2.623  -0.651  1.00  0.00     0.023 A 
ATOM     17  C   UNL     1      -3.821  -1.454  -0.463  1.00  0.00     0.012 A 
BRANCH  16  18
ATOM     18  C   UNL     1      -3.780  -3.933  -0.489  1.00  0.00     0.193 C 
ATOM     19  O   UNL     1      -5.005  -4.005  -0.481  1.00  0.00    -0.289 OA
BRANCH  18  20
ATOM     20  C   UNL     1      -3.015  -5.193  -0.390  1.00  0.00     0.022 A 
ATOM     21  C   UNL     1      -3.296  -6.214  -1.303  1.00  0.00     0.012 A 
ATOM     22  C   UNL     1      -2.042  -5.371   0.599  1.00  0.00     0.012 A 
ATOM     23  C   UNL     1      -2.572  -7.404  -1.252  1.00  0.00     0.001 A 
ATOM     24  C   UNL     1      -1.324  -6.566   0.647  1.00  0.00     0.001 A 
ATOM     25  C   UNL     1      -1.585  -7.578  -0.280  1.00  0.00     0.000 A 
ENDBRANCH  18  20
ENDBRANCH  16  18
ENDBRANCH  10  12
ENDBRANCH   8  10
ENDBRANCH   7   8
ENDBRANCH   6   7
ENDBRANCH   5   6
ENDBRANCH   4   5
ENDBRANCH   3   4
ENDBRANCH   2   3
ENDBRANCH   1   2
BRANCH   1  26
ATOM     26  C   UNL     1      -0.087   1.459   3.300  1.00  0.00     0.188 C 
BRANCH  26  27
ATOM     27  C   UNL     1       1.010   1.211   4.362  1.00  0.00     0.188 C 
BRANCH  27  28
ATOM     28  O   UNL     1       1.521  -0.112   4.420  1.00  0.00    -0.376 OA
BRANCH  28  29
ATOM     29  C   UNL     1       1.147  -0.939   5.507  1.00  0.00     0.202 C 
BRANCH  29  30
ATOM     30  C   UNL     1      -0.321  -1.380   5.572  1.00  0.00     0.261 C 
BRANCH  30  31
ATOM     31  O   UNL     1      -1.289  -0.327   5.526  1.00  0.00    -0.460 OA
BRANCH  31  32
ATOM     32  C   UNL     1      -1.310   0.526   6.577  1.00  0.00     0.338 C 
ATOM     33  O   UNL     1      -0.594   0.502   7.555  1.00  0.00    -0.246 OA
BRANCH  32  34
ATOM     34  C   UNL     1      -2.241   1.620   6.231  1.00  0.00     0.060 A 
ATOM     35  C   UNL     1      -1.746   2.928   6.146  1.00  0.00     0.016 A 
ATOM     36  C   UNL     1      -3.584   1.347   5.962  1.00  0.00     0.016 A 
ATOM     37  C   UNL     1      -2.604   3.975   5.818  1.00  0.00     0.010 A 
ATOM     38  C   UNL     1      -4.447   2.400   5.659  1.00  0.00     0.010 A 
ATOM     39  C   UNL     1      -3.967   3.721   5.620  1.00  0.00    -0.014 A 
BRANCH  39  40
ATOM     40  C   UNL     1      -4.923   4.851   5.583  1.00  0.00     0.031 A 
ATOM     41  C   UNL     1      -5.646   5.205   6.853  1.00  0.00     0.074 A 
ATOM     42  C   UNL     1      -5.147   5.546   4.455  1.00  0.00     0.049 A 
ATOM     43  N   UNL     1      -6.558   6.116   7.063  1.00  0.00    -0.248 NA
ATOM     44  C   UNL     1      -5.292   4.419   8.048  1.00  0.00     0.031 C 
ATOM     45  C   UNL     1      -4.498   5.304   3.168  1.00  0.00     0.029 A 
ATOM     46  N   UNL     1      -6.010   6.585   4.210  1.00  0.00    -0.354 N 
ATOM     47  C   UNL     1      -6.909   5.995   8.402  1.00  0.00     0.074 A 
ATOM     48  C   UNL     1      -6.122   4.915   8.953  1.00  0.00     0.031 C 
ATOM     49  C   UNL     1      -5.014   6.148   2.257  1.00  0.00     0.029 A 
ATOM     50  C   UNL     1      -6.046   6.967   2.890  1.00  0.00     0.049 A 
ATOM     51  H   UNL     1      -6.552   7.014   4.911  1.00  0.00     0.167 HD
ATOM     52  C   UNL     1      -7.797   6.727   9.113  1.00  0.00     0.034 A 
ATOM     53  C   UNL     1      -6.846   7.854   2.264  1.00  0.00     0.034 A 
ATOM     54  C   UNL     1      -8.576   7.800   8.561  1.00  0.00     0.049 A 
ATOM     55  C   UNL     1      -7.859   8.629   3.068  1.00  0.00     0.074 A 
ATOM     56  C   UNL     1      -9.479   8.627   9.206  1.00  0.00     0.029 A 
ATOM     57  N   UNL     1      -8.562   8.183   7.229  1.00  0.00    -0.354 N 
ATOM     58  N   UNL     1      -8.105   8.581   4.356  1.00  0.00    -0.248 NA
ATOM     59  C   UNL     1      -8.684   9.604   2.339  1.00  0.00     0.031 C 
ATOM     60  C   UNL     1     -10.040   9.484   8.254  1.00  0.00     0.029 A 
ATOM     61  C   UNL     1      -9.451   9.224   7.027  1.00  0.00     0.049 A 
ATOM     62  H   UNL     1      -8.002   7.774   6.530  1.00  0.00     0.167 HD
ATOM     63  C   UNL     1      -9.081   9.543   4.596  1.00  0.00     0.074 A 
ATOM     64  C   UNL     1      -9.368  10.171   3.323  1.00  0.00     0.031 C 
ATOM     65  C   UNL     1      -9.691   9.872   5.762  1.00  0.00     0.034 A 
BRANCH  52  66
ATOM     66  C   UNL     1      -7.967   6.388  10.570  1.00  0.00     0.023 A 
ATOM     67  C   UNL     1      -6.935   6.681  11.485  1.00  0.00     0.012 A 
ATOM     68  C   UNL     1      -9.164   5.814  11.040  1.00  0.00     0.148 A 
ATOM     69  C   UNL     1      -7.076   6.373  12.838  1.00  0.00     0.002 A 
ATOM     70  C   UNL     1      -9.317   5.556  12.396  1.00  0.00     0.091 A 
ATOM     71  F   UNL     1     -10.124   5.520  10.152  1.00  0.00    -0.205 F 
ATOM     72  C   UNL     1      -8.270   5.822  13.294  1.00  0.00     0.022 A 
BRANCH  70  73
ATOM     73  S   UNL     1     -10.845   4.922  13.096  1.00  0.00     0.127 S 
ATOM     74  O   UNL     1     -10.444   3.577  13.508  1.00  0.00    -0.237 OA
ATOM     75  O   UNL     1     -11.085   5.852  14.199  1.00  0.00    -0.237 OA
ATOM     76  O   UNL     1     -11.832   4.978  12.027  1.00  0.00    -0.744 OA
ENDBRANCH  70  73
ENDBRANCH  52  66
BRANCH  53  77
ATOM     77  C   UNL     1      -6.713   8.070   0.795  1.00  0.00     0.023 A 
ATOM     78  C   UNL     1      -6.230   9.300   0.308  1.00  0.00     0.012 A 
ATOM     79  C   UNL     1      -7.059   7.057  -0.121  1.00  0.00     0.148 A 
ATOM     80  C   UNL     1      -6.125   9.530  -1.065  1.00  0.00     0.002 A 
ATOM     81  C   UNL     1      -6.896   7.271  -1.484  1.00  0.00     0.091 A 
ATOM     82  F   UNL     1      -7.531   5.900   0.362  1.00  0.00    -0.205 F 
ATOM     83  C   UNL     1      -6.448   8.513  -1.960  1.00  0.00     0.022 A 
BRANCH  81  84
ATOM     84  S   UNL     1      -7.161   5.979  -2.703  1.00  0.00     0.127 S 
ATOM     85  O   UNL     1      -8.324   6.486  -3.428  1.00  0.00    -0.237 OA
ATOM     86  O   UNL     1      -5.904   6.013  -3.451  1.00  0.00    -0.237 OA
ATOM     87  O   UNL     1      -7.376   4.756  -1.942  1.00  0.00    -0.744 OA
ENDBRANCH  81  84
ENDBRANCH  53  77
BRANCH  65  88
ATOM     88  C   UNL     1     -10.695  10.997   5.739  1.00  0.00     0.023 A 
ATOM     89  C   UNL     1     -11.950  10.816   5.124  1.00  0.00     0.012 A 
ATOM     90  C   UNL     1     -10.419  12.212   6.399  1.00  0.00     0.148 A 
ATOM     91  C   UNL     1     -12.899  11.838   5.135  1.00  0.00     0.002 A 
ATOM     92  C   UNL     1     -11.389  13.205   6.453  1.00  0.00     0.091 A 
ATOM     93  F   UNL     1      -9.214  12.371   6.966  1.00  0.00    -0.205 F 
ATOM     94  C   UNL     1     -12.624  13.026   5.809  1.00  0.00     0.022 A 
BRANCH  92  95
ATOM     95  S   UNL     1     -11.163  14.726   7.382  1.00  0.00     0.127 S 
ATOM     96  O   UNL     1     -11.055  15.715   6.311  1.00  0.00    -0.237 OA
ATOM     97  O   UNL     1     -12.401  14.800   8.159  1.00  0.00    -0.237 OA
ATOM     98  O   UNL     1      -9.959  14.537   8.179  1.00  0.00    -0.744 OA
ENDBRANCH  92  95
ENDBRANCH  65  88
ENDBRANCH  39  40
ENDBRANCH  32  34
ENDBRANCH  31  32
ENDBRANCH  30  31
ENDBRANCH  29  30
ENDBRANCH  28  29
ENDBRANCH  27  28
ENDBRANCH  26  27
ENDBRANCH   1  26
TORSDOF 26
