REMARK SMILES C[N@H+]1[C@H]2CC[C@@H]1c1sc(=O)n(CCCC(=O)OCCOCCOCCOCCOC(=O)c3ccc(-c4c5nc(c(-c6cccc(S(=O)(=O)[O-])c6F)c6ccc([nH]6)c(-c6cccc(S(=O)(=O)[O-])c6F)c6nc(c(-c7cccc(S(=O)(=O)[O-])c7F)c7ccc4[nH]7)C=C6)C=C5)cc3)c1C2
REMARK SMILES IDX 23 1 22 2 21 3 20 4 19 5 18 6 17 7 15 8 16 9 14 10 13 11
REMARK SMILES IDX 12 12 11 13 1 14 2 15 3 16 6 17 4 19 96 20 5 21 7 22 95 23
REMARK SMILES IDX 8 24 9 25 10 26 24 27 25 28 26 29 27 30 28 31 29 32 30 33
REMARK SMILES IDX 31 34 32 35 33 36 94 37 34 38 93 39 35 40 36 41 37 42 87 43
REMARK SMILES IDX 38 44 92 45 86 46 88 47 39 48 91 49 85 50 84 51 40 53 72 54
REMARK SMILES IDX 52 55 71 56 53 57 56 58 70 59 89 60 54 61 55 62 69 64 90 65
REMARK SMILES IDX 57 66 41 67 42 68 50 69 43 70 45 71 51 72 44 73 46 74 47 75
REMARK SMILES IDX 48 76 49 77 73 78 74 79 82 80 75 81 77 82 83 83 76 84 78 85
REMARK SMILES IDX 79 86 80 87 81 88 58 89 59 90 67 91 60 92 62 93 68 94 61 95
REMARK SMILES IDX 63 96 64 97 65 98 66 99
REMARK H PARENT 2 18 88 52 56 63
REMARK Flexibility Score: inf
ROOT
ATOM      1  O   UNL     1       2.886   7.411   3.400  1.00  0.00    -0.377 OA
ENDROOT
BRANCH   1   2
ATOM      2  C   UNL     1       2.019   8.064   4.306  1.00  0.00     0.188 C 
BRANCH   2   3
ATOM      3  C   UNL     1       2.706   8.857   5.438  1.00  0.00     0.188 C 
BRANCH   3   4
ATOM      4  O   UNL     1       4.098   9.140   5.394  1.00  0.00    -0.376 OA
BRANCH   4   5
ATOM      5  C   UNL     1       5.034   8.130   5.051  1.00  0.00     0.202 C 
BRANCH   5   6
ATOM      6  C   UNL     1       4.911   6.690   5.575  1.00  0.00     0.261 C 
BRANCH   6   7
ATOM      7  O   UNL     1       3.577   6.206   5.768  1.00  0.00    -0.463 OA
BRANCH   7   8
ATOM      8  C   UNL     1       3.154   6.056   7.039  1.00  0.00     0.305 C 
ATOM      9  O   UNL     1       3.803   6.383   8.029  1.00  0.00    -0.252 OA
BRANCH   8  10
ATOM     10  C   UNL     1       1.727   5.541   7.161  1.00  0.00     0.124 C 
BRANCH  10  11
ATOM     11  C   UNL     1       0.856   5.080   5.982  1.00  0.00     0.034 C 
BRANCH  11  12
ATOM     12  C   UNL     1       1.481   4.451   4.737  1.00  0.00     0.127 C 
BRANCH  12  13
ATOM     13  N   UNL     1       1.839   3.057   4.897  1.00  0.00    -0.302 N 
ATOM     14  C   UNL     1       1.820  -0.643   0.964  1.00  0.00     0.333 C 
ATOM     15  N   UNL     1       1.597   0.309   2.040  1.00  0.00    -0.328 N 
ATOM     16  C   UNL     1       0.260   0.940   2.048  1.00  0.00     0.190 C 
ATOM     17  C   UNL     1       1.676  -0.296   3.394  1.00  0.00     0.227 C 
ATOM     18  H   UNL     1       2.338   0.984   1.852  1.00  0.00     0.348 HD
ATOM     19  C   UNL     1      -0.626  -0.157   2.643  1.00  0.00     0.072 C 
ATOM     20  C   UNL     1       0.346   2.213   2.965  1.00  0.00     0.120 C 
ATOM     21  C   UNL     1       0.266  -0.845   3.676  1.00  0.00     0.077 C 
ATOM     22  C   UNL     1       1.929   0.858   4.313  1.00  0.00     0.087 A 
ATOM     23  C   UNL     1       1.337   2.044   4.101  1.00  0.00     0.047 A 
ATOM     24  S   UNL     1       3.129   0.917   5.546  1.00  0.00    -0.073 S 
ATOM     25  C   UNL     1       2.886   2.663   5.731  1.00  0.00     0.307 A 
ATOM     26  O   UNL     1       3.563   3.337   6.480  1.00  0.00    -0.257 OA
ENDBRANCH  12  13
ENDBRANCH  11  12
ENDBRANCH  10  11
ENDBRANCH   8  10
ENDBRANCH   7   8
ENDBRANCH   6   7
ENDBRANCH   5   6
ENDBRANCH   4   5
ENDBRANCH   3   4
ENDBRANCH   2   3
ENDBRANCH   1   2
BRANCH   1  27
ATOM     27  C   UNL     1       3.226   8.109   2.207  1.00  0.00     0.188 C 
BRANCH  27  28
ATOM     28  C   UNL     1       3.377   9.650   2.243  1.00  0.00     0.188 C 
BRANCH  28  29
ATOM     29  O   UNL     1       2.481  10.335   3.113  1.00  0.00    -0.376 OA
BRANCH  29  30
ATOM     30  C   UNL     1       1.345  11.025   2.617  1.00  0.00     0.202 C 
BRANCH  30  31
ATOM     31  C   UNL     1       0.213  10.202   2.002  1.00  0.00     0.261 C 
BRANCH  31  32
ATOM     32  O   UNL     1       0.649   9.194   1.113  1.00  0.00    -0.460 OA
BRANCH  32  33
ATOM     33  C   UNL     1       1.222   9.661  -0.013  1.00  0.00     0.338 C 
ATOM     34  O   UNL     1       1.575  10.800  -0.246  1.00  0.00    -0.246 OA
BRANCH  33  35
ATOM     35  C   UNL     1       1.262   8.570  -0.983  1.00  0.00     0.060 A 
ATOM     36  C   UNL     1       2.015   8.801  -2.132  1.00  0.00     0.016 A 
ATOM     37  C   UNL     1       0.310   7.543  -0.886  1.00  0.00     0.016 A 
ATOM     38  C   UNL     1       1.609   8.179  -3.282  1.00  0.00     0.010 A 
ATOM     39  C   UNL     1      -0.093   6.922  -2.037  1.00  0.00     0.010 A 
ATOM     40  C   UNL     1       0.487   7.342  -3.227  1.00  0.00    -0.014 A 
BRANCH  40  41
ATOM     41  C   UNL     1      -0.057   6.887  -4.481  1.00  0.00     0.031 A 
ATOM     42  C   UNL     1       0.827   5.913  -5.143  1.00  0.00     0.074 A 
ATOM     43  C   UNL     1      -1.250   7.310  -4.936  1.00  0.00     0.049 A 
ATOM     44  N   UNL     1       1.560   6.113  -6.185  1.00  0.00    -0.248 NA
ATOM     45  C   UNL     1       1.096   4.651  -4.437  1.00  0.00     0.031 C 
ATOM     46  C   UNL     1      -2.282   8.068  -4.220  1.00  0.00     0.029 A 
ATOM     47  N   UNL     1      -1.848   7.024  -6.120  1.00  0.00    -0.354 N 
ATOM     48  C   UNL     1       2.174   4.891  -6.420  1.00  0.00     0.074 A 
ATOM     49  C   UNL     1       2.044   4.122  -5.210  1.00  0.00     0.031 C 
ATOM     50  C   UNL     1      -3.456   7.945  -4.882  1.00  0.00     0.029 A 
ATOM     51  C   UNL     1      -3.223   7.227  -6.122  1.00  0.00     0.049 A 
ATOM     52  H   UNL     1      -1.353   6.701  -6.907  1.00  0.00     0.167 HD
ATOM     53  C   UNL     1       2.447   4.488  -7.688  1.00  0.00     0.034 A 
ATOM     54  C   UNL     1      -4.097   6.739  -7.037  1.00  0.00     0.034 A 
ATOM     55  C   UNL     1       2.445   5.588  -8.615  1.00  0.00     0.049 A 
ATOM     56  C   UNL     1      -3.318   6.411  -8.256  1.00  0.00     0.074 A 
ATOM     57  C   UNL     1       3.138   6.779  -8.710  1.00  0.00     0.029 A 
ATOM     58  N   UNL     1       1.332   5.732  -9.408  1.00  0.00    -0.354 N 
ATOM     59  N   UNL     1      -2.728   7.311  -8.991  1.00  0.00    -0.248 NA
ATOM     60  C   UNL     1      -2.809   5.055  -8.394  1.00  0.00     0.031 C 
ATOM     61  C   UNL     1       2.175   7.728  -9.166  1.00  0.00     0.029 A 
ATOM     62  C   UNL     1       0.973   7.054  -9.388  1.00  0.00     0.049 A 
ATOM     63  H   UNL     1       0.875   5.013  -9.901  1.00  0.00     0.167 HD
ATOM     64  C   UNL     1      -1.500   6.742  -9.309  1.00  0.00     0.074 A 
ATOM     65  C   UNL     1      -1.651   5.319  -9.007  1.00  0.00     0.031 C 
ATOM     66  C   UNL     1      -0.393   7.519  -9.499  1.00  0.00     0.034 A 
BRANCH  53  67
ATOM     67  C   UNL     1       2.301   3.059  -8.132  1.00  0.00     0.023 A 
ATOM     68  C   UNL     1       2.854   2.697  -9.375  1.00  0.00     0.012 A 
ATOM     69  C   UNL     1       1.429   2.130  -7.515  1.00  0.00     0.148 A 
ATOM     70  C   UNL     1       2.541   1.475  -9.979  1.00  0.00     0.002 A 
ATOM     71  C   UNL     1       1.201   0.880  -8.069  1.00  0.00     0.091 A 
ATOM     72  F   UNL     1       0.693   2.498  -6.462  1.00  0.00    -0.205 F 
ATOM     73  C   UNL     1       1.730   0.557  -9.318  1.00  0.00     0.022 A 
BRANCH  71  74
ATOM     74  S   UNL     1       0.214  -0.351  -7.212  1.00  0.00     0.127 S 
ATOM     75  O   UNL     1      -1.028  -0.316  -7.978  1.00  0.00    -0.237 OA
ATOM     76  O   UNL     1       1.022  -1.558  -7.391  1.00  0.00    -0.237 OA
ATOM     77  O   UNL     1       0.135   0.109  -5.831  1.00  0.00    -0.744 OA
ENDBRANCH  71  74
ENDBRANCH  53  67
BRANCH  54  78
ATOM     78  C   UNL     1      -5.470   6.223  -6.826  1.00  0.00     0.023 A 
ATOM     79  C   UNL     1      -6.343   6.091  -7.924  1.00  0.00     0.012 A 
ATOM     80  C   UNL     1      -5.825   5.591  -5.613  1.00  0.00     0.148 A 
ATOM     81  C   UNL     1      -7.515   5.329  -7.826  1.00  0.00     0.002 A 
ATOM     82  C   UNL     1      -6.992   4.840  -5.518  1.00  0.00     0.091 A 
ATOM     83  F   UNL     1      -4.971   5.647  -4.582  1.00  0.00    -0.205 F 
ATOM     84  C   UNL     1      -7.835   4.696  -6.627  1.00  0.00     0.022 A 
BRANCH  82  85
ATOM     85  S   UNL     1      -7.455   3.975  -4.011  1.00  0.00     0.127 S 
ATOM     86  O   UNL     1      -8.833   4.426  -3.816  1.00  0.00    -0.237 OA
ATOM     87  O   UNL     1      -7.319   2.576  -4.410  1.00  0.00    -0.237 OA
ATOM     88  O   UNL     1      -6.525   4.430  -2.985  1.00  0.00    -0.744 OA
ENDBRANCH  82  85
ENDBRANCH  54  78
BRANCH  66  89
ATOM     89  C   UNL     1      -0.588   9.013  -9.597  1.00  0.00     0.023 A 
ATOM     90  C   UNL     1      -1.079   9.790  -8.525  1.00  0.00     0.012 A 
ATOM     91  C   UNL     1      -0.114   9.668 -10.745  1.00  0.00     0.148 A 
ATOM     92  C   UNL     1      -1.121  11.185  -8.610  1.00  0.00     0.002 A 
ATOM     93  C   UNL     1      -0.115  11.056 -10.808  1.00  0.00     0.091 A 
ATOM     94  F   UNL     1       0.357   8.917 -11.751  1.00  0.00    -0.205 F 
ATOM     95  C   UNL     1      -0.628  11.819  -9.747  1.00  0.00     0.022 A 
BRANCH  93  96
ATOM     96  S   UNL     1       0.615  11.930 -12.194  1.00  0.00     0.127 S 
ATOM     97  O   UNL     1      -0.566  12.414 -12.905  1.00  0.00    -0.237 OA
ATOM     98  O   UNL     1       1.399  12.972 -11.529  1.00  0.00    -0.237 OA
ATOM     99  O   UNL     1       1.419  10.947 -12.910  1.00  0.00    -0.744 OA
ENDBRANCH  93  96
ENDBRANCH  66  89
ENDBRANCH  40  41
ENDBRANCH  33  35
ENDBRANCH  32  33
ENDBRANCH  31  32
ENDBRANCH  30  31
ENDBRANCH  29  30
ENDBRANCH  28  29
ENDBRANCH  27  28
ENDBRANCH   1  27
TORSDOF 26
