REMARK SMILES Cc1cc(C)c2c(c1)C=C(C(=O)OCCOCCOCCOCCOC(=O)c1ccc(-c3c4nc(c(-c5cccc(S(=O)(=O)[O-])c5F)c5ccc([nH]5)c(-c5cccc(S(=O)(=O)[O-])c5F)c5nc(c(-c6cccc(S(=O)(=O)[O-])c6F)c6ccc3[nH]6)C=C5)C=C4)cc1)[C@@H](C(F)(F)F)O2
REMARK SMILES IDX 20 1 19 2 18 3 17 4 16 5 15 6 14 7 13 8 11 9 12 10 10 11
REMARK SMILES IDX 1 12 2 13 3 14 8 15 4 16 7 17 5 18 6 19 9 20 96 21 91 22
REMARK SMILES IDX 92 23 93 24 94 25 95 26 21 27 22 28 23 29 24 30 25 31 26 32
REMARK SMILES IDX 27 33 28 34 29 35 90 36 30 37 89 38 31 39 32 40 33 41 83 42
REMARK SMILES IDX 34 43 88 44 82 45 84 46 35 47 87 48 81 49 80 50 36 52 68 53
REMARK SMILES IDX 48 54 67 55 49 56 52 57 66 58 85 59 50 60 51 61 65 63 86 64
REMARK SMILES IDX 53 65 37 66 38 67 46 68 39 69 41 70 47 71 40 72 42 73 43 74
REMARK SMILES IDX 44 75 45 76 69 77 70 78 78 79 71 80 73 81 79 82 72 83 74 84
REMARK SMILES IDX 75 85 76 86 77 87 54 88 55 89 63 90 56 91 58 92 64 93 57 94
REMARK SMILES IDX 59 95 60 96 61 97 62 98
REMARK H PARENT 84 51 52 62
REMARK Flexibility Score: inf
ROOT
ATOM      1  C   UNL     1       0.301   0.891  10.039  1.00  0.00     0.188 C 
ENDROOT
BRANCH   1   2
ATOM      2  O   UNL     1      -0.053   0.333   8.773  1.00  0.00    -0.377 OA
BRANCH   2   3
ATOM      3  C   UNL     1       0.182   1.093   7.603  1.00  0.00     0.188 C 
BRANCH   3   4
ATOM      4  C   UNL     1      -0.785   2.275   7.412  1.00  0.00     0.188 C 
BRANCH   4   5
ATOM      5  O   UNL     1      -1.517   2.600   8.588  1.00  0.00    -0.376 OA
BRANCH   5   6
ATOM      6  C   UNL     1      -2.875   2.191   8.665  1.00  0.00     0.202 C 
BRANCH   6   7
ATOM      7  C   UNL     1      -3.196   0.688   8.651  1.00  0.00     0.261 C 
BRANCH   7   8
ATOM      8  O   UNL     1      -2.594  -0.065   7.591  1.00  0.00    -0.460 OA
BRANCH   8   9
ATOM      9  C   UNL     1      -3.021   0.158   6.335  1.00  0.00     0.338 C 
ATOM     10  O   UNL     1      -3.895   0.932   5.986  1.00  0.00    -0.246 OA
BRANCH   9  11
ATOM     11  C   UNL     1      -2.114  -0.567   5.417  1.00  0.00     0.087 C 
ATOM     12  C   UNL     1       0.983   0.065   0.117  1.00  0.00     0.044 C 
ATOM     13  C   UNL     1       0.494  -0.617   1.360  1.00  0.00    -0.050 A 
ATOM     14  C   UNL     1       0.789  -1.968   1.579  1.00  0.00     0.010 A 
ATOM     15  C   UNL     1      -0.282   0.070   2.300  1.00  0.00     0.015 A 
ATOM     16  C   UNL     1       0.329  -2.630   2.727  1.00  0.00    -0.008 A 
ATOM     17  C   UNL     1      -0.767  -0.584   3.439  1.00  0.00     0.018 A 
ATOM     18  C   UNL     1       0.635  -4.088   2.929  1.00  0.00     0.048 C 
ATOM     19  C   UNL     1      -0.431  -1.920   3.669  1.00  0.00     0.130 A 
ATOM     20  C   UNL     1      -1.668   0.105   4.348  1.00  0.00     0.027 C 
ATOM     21  O   UNL     1      -0.818  -2.606   4.785  1.00  0.00    -0.475 OA
ATOM     22  C   UNL     1      -1.684  -1.970   5.764  1.00  0.00     0.316 C 
BRANCH  22  23
ATOM     23  C   UNL     1      -2.884  -2.899   5.999  1.00  0.00     0.430 C 
ATOM     24  F   UNL     1      -2.484  -4.169   6.235  1.00  0.00    -0.167 F 
ATOM     25  F   UNL     1      -3.629  -2.509   7.057  1.00  0.00    -0.167 F 
ATOM     26  F   UNL     1      -3.703  -2.925   4.919  1.00  0.00    -0.167 F 
ENDBRANCH  22  23
ENDBRANCH   9  11
ENDBRANCH   8   9
ENDBRANCH   7   8
ENDBRANCH   6   7
ENDBRANCH   5   6
ENDBRANCH   4   5
ENDBRANCH   3   4
ENDBRANCH   2   3
ENDBRANCH   1   2
BRANCH   1  27
ATOM     27  C   UNL     1       0.771   2.357  10.206  1.00  0.00     0.188 C 
BRANCH  27  28
ATOM     28  O   UNL     1       1.563   2.858   9.134  1.00  0.00    -0.376 OA
BRANCH  28  29
ATOM     29  C   UNL     1       2.947   3.042   9.393  1.00  0.00     0.202 C 
BRANCH  29  30
ATOM     30  C   UNL     1       3.760   1.744   9.457  1.00  0.00     0.261 C 
BRANCH  30  31
ATOM     31  O   UNL     1       3.380   0.832  10.498  1.00  0.00    -0.460 OA
BRANCH  31  32
ATOM     32  C   UNL     1       3.475   1.266  11.774  1.00  0.00     0.338 C 
ATOM     33  O   UNL     1       3.899   2.342  12.156  1.00  0.00    -0.246 OA
BRANCH  32  34
ATOM     34  C   UNL     1       2.777   0.281  12.624  1.00  0.00     0.060 A 
ATOM     35  C   UNL     1       1.693   0.703  13.403  1.00  0.00     0.016 A 
ATOM     36  C   UNL     1       3.168  -1.061  12.618  1.00  0.00     0.016 A 
ATOM     37  C   UNL     1       1.013  -0.216  14.201  1.00  0.00     0.010 A 
ATOM     38  C   UNL     1       2.500  -1.976  13.434  1.00  0.00     0.010 A 
ATOM     39  C   UNL     1       1.440  -1.550  14.253  1.00  0.00    -0.014 A 
BRANCH  39  40
ATOM     40  C   UNL     1       0.923  -2.433  15.325  1.00  0.00     0.031 A 
ATOM     41  C   UNL     1       1.705  -2.512  16.608  1.00  0.00     0.074 A 
ATOM     42  C   UNL     1      -0.225  -3.120  15.184  1.00  0.00     0.049 A 
ATOM     43  N   UNL     1       1.419  -3.149  17.711  1.00  0.00    -0.248 NA
ATOM     44  C   UNL     1       2.976  -1.768  16.654  1.00  0.00     0.031 C 
ATOM     45  C   UNL     1      -1.069  -3.124  13.992  1.00  0.00     0.029 A 
ATOM     46  N   UNL     1      -0.874  -3.954  16.061  1.00  0.00    -0.354 N 
ATOM     47  C   UNL     1       2.468  -2.880  18.581  1.00  0.00     0.074 A 
ATOM     48  C   UNL     1       3.415  -2.054  17.870  1.00  0.00     0.031 C 
ATOM     49  C   UNL     1      -2.125  -3.929  14.209  1.00  0.00     0.029 A 
ATOM     50  C   UNL     1      -2.027  -4.505  15.551  1.00  0.00     0.049 A 
ATOM     51  H   UNL     1      -0.545  -4.141  16.969  1.00  0.00     0.167 HD
ATOM     52  C   UNL     1       2.614  -3.258  19.871  1.00  0.00     0.034 A 
ATOM     53  C   UNL     1      -2.899  -5.372  16.107  1.00  0.00     0.034 A 
ATOM     54  C   UNL     1       1.669  -4.071  20.582  1.00  0.00     0.049 A 
ATOM     55  C   UNL     1      -2.677  -5.834  17.527  1.00  0.00     0.074 A 
ATOM     56  C   UNL     1       1.712  -4.476  21.903  1.00  0.00     0.029 A 
ATOM     57  N   UNL     1       0.521  -4.616  20.029  1.00  0.00    -0.354 N 
ATOM     58  N   UNL     1      -1.758  -5.458  18.384  1.00  0.00    -0.248 NA
ATOM     59  C   UNL     1      -3.625  -6.822  18.068  1.00  0.00     0.031 C 
ATOM     60  C   UNL     1       0.604  -5.292  22.142  1.00  0.00     0.029 A 
ATOM     61  C   UNL     1      -0.142  -5.374  20.976  1.00  0.00     0.049 A 
ATOM     62  H   UNL     1       0.222  -4.483  19.101  1.00  0.00     0.167 HD
ATOM     63  C   UNL     1      -2.032  -6.138  19.567  1.00  0.00     0.074 A 
ATOM     64  C   UNL     1      -3.217  -6.934  19.326  1.00  0.00     0.031 C 
ATOM     65  C   UNL     1      -1.352  -6.120  20.740  1.00  0.00     0.034 A 
BRANCH  52  66
ATOM     66  C   UNL     1       3.815  -2.750  20.619  1.00  0.00     0.023 A 
ATOM     67  C   UNL     1       3.857  -1.398  21.014  1.00  0.00     0.012 A 
ATOM     68  C   UNL     1       4.856  -3.618  21.000  1.00  0.00     0.148 A 
ATOM     69  C   UNL     1       4.927  -0.911  21.762  1.00  0.00     0.002 A 
ATOM     70  C   UNL     1       5.898  -3.135  21.782  1.00  0.00     0.091 A 
ATOM     71  F   UNL     1       4.805  -4.894  20.594  1.00  0.00    -0.205 F 
ATOM     72  C   UNL     1       5.939  -1.781  22.156  1.00  0.00     0.022 A 
BRANCH  70  73
ATOM     73  S   UNL     1       7.211  -4.187  22.409  1.00  0.00     0.127 S 
ATOM     74  O   UNL     1       8.374  -3.664  21.692  1.00  0.00    -0.237 OA
ATOM     75  O   UNL     1       7.190  -3.883  23.839  1.00  0.00    -0.237 OA
ATOM     76  O   UNL     1       6.835  -5.551  22.067  1.00  0.00    -0.744 OA
ENDBRANCH  70  73
ENDBRANCH  52  66
BRANCH  53  77
ATOM     77  C   UNL     1      -4.101  -5.818  15.343  1.00  0.00     0.023 A 
ATOM     78  C   UNL     1      -5.381  -5.407  15.766  1.00  0.00     0.012 A 
ATOM     79  C   UNL     1      -3.987  -6.628  14.196  1.00  0.00     0.148 A 
ATOM     80  C   UNL     1      -6.525  -5.813  15.077  1.00  0.00     0.002 A 
ATOM     81  C   UNL     1      -5.127  -6.985  13.483  1.00  0.00     0.091 A 
ATOM     82  F   UNL     1      -2.764  -7.027  13.820  1.00  0.00    -0.205 F 
ATOM     83  C   UNL     1      -6.397  -6.592  13.930  1.00  0.00     0.022 A 
BRANCH  81  84
ATOM     84  S   UNL     1      -5.056  -7.886  11.930  1.00  0.00     0.127 S 
ATOM     85  O   UNL     1      -5.670  -9.161  12.295  1.00  0.00    -0.237 OA
ATOM     86  O   UNL     1      -5.867  -7.039  11.056  1.00  0.00    -0.237 OA
ATOM     87  O   UNL     1      -3.645  -7.946  11.574  1.00  0.00    -0.744 OA
ENDBRANCH  81  84
ENDBRANCH  53  77
BRANCH  65  88
ATOM     88  C   UNL     1      -1.846  -6.980  21.876  1.00  0.00     0.023 A 
ATOM     89  C   UNL     1      -1.633  -8.371  21.829  1.00  0.00     0.012 A 
ATOM     90  C   UNL     1      -2.357  -6.396  23.054  1.00  0.00     0.148 A 
ATOM     91  C   UNL     1      -1.924  -9.170  22.934  1.00  0.00     0.002 A 
ATOM     92  C   UNL     1      -2.598  -7.192  24.168  1.00  0.00     0.091 A 
ATOM     93  F   UNL     1      -2.558  -5.071  23.074  1.00  0.00    -0.205 F 
ATOM     94  C   UNL     1      -2.390  -8.580  24.107  1.00  0.00     0.022 A 
BRANCH  92  95
ATOM     95  S   UNL     1      -3.091  -6.516  25.759  1.00  0.00     0.127 S 
ATOM     96  O   UNL     1      -4.422  -7.096  25.930  1.00  0.00    -0.237 OA
ATOM     97  O   UNL     1      -2.069  -7.058  26.653  1.00  0.00    -0.237 OA
ATOM     98  O   UNL     1      -3.065  -5.067  25.609  1.00  0.00    -0.744 OA
ENDBRANCH  92  95
ENDBRANCH  65  88
ENDBRANCH  39  40
ENDBRANCH  32  34
ENDBRANCH  31  32
ENDBRANCH  30  31
ENDBRANCH  29  30
ENDBRANCH  28  29
ENDBRANCH  27  28
ENDBRANCH   1  27
TORSDOF 24
