REMARK SMILES C[C@H](O)Cn1c(C2CCCCC2)nc2cc(C(=O)OCCOCCOCCOCCOC(=O)c3ccc(-c4c5nc(c(-c6cccc(S(=O)(=O)[O-])c6F)c6ccc([nH]6)c(-c6cccc(S(=O)(=O)[O-])c6F)c6nc(c(-c7cccc(S(=O)(=O)[O-])c7F)c7ccc4[nH]7)C=C6)C=C5)cc3)ccc21
REMARK SMILES IDX 25 1 24 2 23 3 22 4 21 5 20 6 19 7 17 8 18 9 16 10 5 11 6 12
REMARK SMILES IDX 99 13 13 14 14 15 98 16 15 17 97 18 4 19 2 20 1 21 3 22 7 24
REMARK SMILES IDX 8 25 12 26 9 27 11 28 10 29 26 30 27 31 28 32 29 33 30 34
REMARK SMILES IDX 31 35 32 36 33 37 34 38 35 39 96 40 36 41 95 42 37 43 38 44
REMARK SMILES IDX 39 45 89 46 40 47 94 48 88 49 90 50 41 51 93 52 87 53 86 54
REMARK SMILES IDX 42 56 74 57 54 58 73 59 55 60 58 61 72 62 91 63 56 64 57 65
REMARK SMILES IDX 71 67 92 68 59 69 43 70 44 71 52 72 45 73 47 74 53 75 46 76
REMARK SMILES IDX 48 77 49 78 50 79 51 80 75 81 76 82 84 83 77 84 79 85 85 86
REMARK SMILES IDX 78 87 80 88 81 89 82 90 83 91 60 92 61 93 69 94 62 95 64 96
REMARK SMILES IDX 70 97 63 98 65 99 66 100 67 101 68 102
REMARK H PARENT 3 23 90 55 58 66
REMARK Flexibility Score: inf
ROOT
ATOM      1  O   UNL     1      -6.998  -1.877   3.627  1.00  0.00    -0.377 OA
ENDROOT
BRANCH   1   2
ATOM      2  C   UNL     1      -6.121  -2.820   3.046  1.00  0.00     0.188 C 
BRANCH   2   3
ATOM      3  C   UNL     1      -5.714  -3.992   3.951  1.00  0.00     0.188 C 
BRANCH   3   4
ATOM      4  O   UNL     1      -6.675  -4.296   4.943  1.00  0.00    -0.376 OA
BRANCH   4   5
ATOM      5  C   UNL     1      -6.447  -3.931   6.296  1.00  0.00     0.202 C 
BRANCH   5   6
ATOM      6  C   UNL     1      -6.191  -2.471   6.715  1.00  0.00     0.261 C 
BRANCH   6   7
ATOM      7  O   UNL     1      -5.345  -1.700   5.859  1.00  0.00    -0.460 OA
BRANCH   7   8
ATOM      8  C   UNL     1      -4.033  -2.002   5.874  1.00  0.00     0.338 C 
ATOM      9  O   UNL     1      -3.480  -2.834   6.571  1.00  0.00    -0.246 OA
BRANCH   8  10
ATOM     10  C   UNL     1      -3.399  -1.333   4.715  1.00  0.00     0.062 A 
ATOM     11  N   UNL     1      -1.373   0.038   1.392  1.00  0.00    -0.325 N 
ATOM     12  C   UNL     1      -0.801  -1.176   1.024  1.00  0.00     0.113 A 
ATOM     13  C   UNL     1      -2.204  -0.210   2.481  1.00  0.00     0.068 A 
ATOM     14  N   UNL     1      -1.142  -2.119   1.883  1.00  0.00    -0.233 NA
ATOM     15  C   UNL     1      -1.958  -1.539   2.801  1.00  0.00     0.090 A 
ATOM     16  C   UNL     1      -3.104   0.574   3.223  1.00  0.00     0.029 A 
ATOM     17  C   UNL     1      -2.529  -2.110   3.941  1.00  0.00     0.046 A 
ATOM     18  C   UNL     1      -3.711  -0.021   4.341  1.00  0.00     0.018 A 
BRANCH  11  19
ATOM     19  C   UNL     1      -1.161   1.380   0.848  1.00  0.00     0.155 C 
BRANCH  19  20
ATOM     20  C   UNL     1       0.265   1.926   1.037  1.00  0.00     0.131 C 
ATOM     21  C   UNL     1       0.336   3.443   1.194  1.00  0.00     0.040 C 
BRANCH  20  22
ATOM     22  O   UNL     1       1.043   1.627  -0.121  1.00  0.00    -0.392 OA
ATOM     23  H   UNL     1       0.662   2.075  -0.892  1.00  0.00     0.211 HD
ENDBRANCH  20  22
ENDBRANCH  19  20
ENDBRANCH  11  19
BRANCH  12  24
ATOM     24  C   UNL     1       0.182  -1.498  -0.079  1.00  0.00     0.056 C 
ATOM     25  C   UNL     1      -0.172  -0.948  -1.459  1.00  0.00     0.011 C 
ATOM     26  C   UNL     1       1.624  -1.284   0.410  1.00  0.00     0.011 C 
ATOM     27  C   UNL     1       0.935  -1.199  -2.477  1.00  0.00     0.001 C 
ATOM     28  C   UNL     1       2.696  -1.288  -0.675  1.00  0.00     0.001 C 
ATOM     29  C   UNL     1       2.272  -0.656  -1.994  1.00  0.00     0.000 C 
ENDBRANCH  12  24
ENDBRANCH   8  10
ENDBRANCH   7   8
ENDBRANCH   6   7
ENDBRANCH   5   6
ENDBRANCH   4   5
ENDBRANCH   3   4
ENDBRANCH   2   3
ENDBRANCH   1   2
BRANCH   1  30
ATOM     30  C   UNL     1      -8.335  -2.279   3.920  1.00  0.00     0.188 C 
BRANCH  30  31
ATOM     31  C   UNL     1      -8.914  -3.643   3.479  1.00  0.00     0.188 C 
BRANCH  31  32
ATOM     32  O   UNL     1      -8.498  -4.028   2.177  1.00  0.00    -0.376 OA
BRANCH  32  33
ATOM     33  C   UNL     1      -9.479  -3.948   1.155  1.00  0.00     0.202 C 
BRANCH  33  34
ATOM     34  C   UNL     1     -10.004  -2.541   0.824  1.00  0.00     0.261 C 
BRANCH  34  35
ATOM     35  O   UNL     1     -10.565  -1.847   1.952  1.00  0.00    -0.460 OA
BRANCH  35  36
ATOM     36  C   UNL     1     -11.852  -2.089   2.309  1.00  0.00     0.338 C 
ATOM     37  O   UNL     1     -12.708  -2.606   1.631  1.00  0.00    -0.246 OA
BRANCH  36  38
ATOM     38  C   UNL     1     -11.884  -1.924   3.792  1.00  0.00     0.060 A 
ATOM     39  C   UNL     1     -11.253  -0.846   4.421  1.00  0.00     0.016 A 
ATOM     40  C   UNL     1     -12.276  -3.046   4.537  1.00  0.00     0.016 A 
ATOM     41  C   UNL     1     -10.907  -0.954   5.768  1.00  0.00     0.010 A 
ATOM     42  C   UNL     1     -11.915  -3.155   5.882  1.00  0.00     0.010 A 
ATOM     43  C   UNL     1     -11.194  -2.128   6.492  1.00  0.00    -0.014 A 
BRANCH  43  44
ATOM     44  C   UNL     1     -10.967  -2.104   7.948  1.00  0.00     0.031 A 
ATOM     45  C   UNL     1     -11.789  -1.051   8.603  1.00  0.00     0.074 A 
ATOM     46  C   UNL     1     -10.278  -2.984   8.710  1.00  0.00     0.049 A 
ATOM     47  N   UNL     1     -11.394   0.012   9.226  1.00  0.00    -0.248 NA
ATOM     48  C   UNL     1     -13.243  -1.126   8.381  1.00  0.00     0.031 C 
ATOM     49  C   UNL     1      -9.706  -4.261   8.286  1.00  0.00     0.029 A 
ATOM     50  N   UNL     1     -10.035  -2.973  10.064  1.00  0.00    -0.354 N 
ATOM     51  C   UNL     1     -12.568   0.621   9.662  1.00  0.00     0.074 A 
ATOM     52  C   UNL     1     -13.659  -0.004   8.963  1.00  0.00     0.031 C 
ATOM     53  C   UNL     1      -9.352  -4.982   9.375  1.00  0.00     0.029 A 
ATOM     54  C   UNL     1      -9.593  -4.197  10.573  1.00  0.00     0.049 A 
ATOM     55  H   UNL     1     -10.161  -2.174  10.625  1.00  0.00     0.167 HD
ATOM     56  C   UNL     1     -12.608   1.395  10.776  1.00  0.00     0.034 A 
ATOM     57  C   UNL     1      -9.497  -4.565  11.878  1.00  0.00     0.034 A 
ATOM     58  C   UNL     1     -11.309   1.779  11.235  1.00  0.00     0.049 A 
ATOM     59  C   UNL     1      -9.463  -3.333  12.695  1.00  0.00     0.074 A 
ATOM     60  C   UNL     1     -10.326   2.660  10.848  1.00  0.00     0.029 A 
ATOM     61  N   UNL     1     -10.755   0.900  12.125  1.00  0.00    -0.354 N 
ATOM     62  N   UNL     1      -8.459  -2.504  12.719  1.00  0.00    -0.248 NA
ATOM     63  C   UNL     1     -10.675  -2.876  13.366  1.00  0.00     0.031 C 
ATOM     64  C   UNL     1      -9.109   2.149  11.383  1.00  0.00     0.029 A 
ATOM     65  C   UNL     1      -9.391   0.976  12.080  1.00  0.00     0.049 A 
ATOM     66  H   UNL     1     -11.267   0.300  12.714  1.00  0.00     0.167 HD
ATOM     67  C   UNL     1      -9.040  -1.288  13.020  1.00  0.00     0.074 A 
ATOM     68  C   UNL     1     -10.341  -1.603  13.586  1.00  0.00     0.031 C 
ATOM     69  C   UNL     1      -8.561  -0.141  12.472  1.00  0.00     0.034 A 
BRANCH  56  70
ATOM     70  C   UNL     1     -13.794   1.420  11.704  1.00  0.00     0.023 A 
ATOM     71  C   UNL     1     -13.918   2.490  12.609  1.00  0.00     0.012 A 
ATOM     72  C   UNL     1     -14.635   0.300  11.900  1.00  0.00     0.148 A 
ATOM     73  C   UNL     1     -14.858   2.455  13.647  1.00  0.00     0.002 A 
ATOM     74  C   UNL     1     -15.624   0.307  12.872  1.00  0.00     0.091 A 
ATOM     75  F   UNL     1     -14.387  -0.837  11.237  1.00  0.00    -0.205 F 
ATOM     76  C   UNL     1     -15.728   1.375  13.764  1.00  0.00     0.022 A 
BRANCH  74  77
ATOM     77  S   UNL     1     -16.799  -1.043  13.013  1.00  0.00     0.127 S 
ATOM     78  O   UNL     1     -16.292  -1.753  14.182  1.00  0.00    -0.237 OA
ATOM     79  O   UNL     1     -18.058  -0.326  13.217  1.00  0.00    -0.237 OA
ATOM     80  O   UNL     1     -16.719  -1.751  11.741  1.00  0.00    -0.744 OA
ENDBRANCH  74  77
ENDBRANCH  56  70
BRANCH  57  81
ATOM     81  C   UNL     1      -9.559  -5.893  12.556  1.00  0.00     0.023 A 
ATOM     82  C   UNL     1      -9.145  -5.997  13.905  1.00  0.00     0.012 A 
ATOM     83  C   UNL     1     -10.285  -6.972  12.012  1.00  0.00     0.148 A 
ATOM     84  C   UNL     1      -9.506  -7.092  14.701  1.00  0.00     0.002 A 
ATOM     85  C   UNL     1     -10.631  -8.067  12.805  1.00  0.00     0.091 A 
ATOM     86  F   UNL     1     -10.726  -6.889  10.751  1.00  0.00    -0.205 F 
ATOM     87  C   UNL     1     -10.263  -8.121  14.154  1.00  0.00     0.022 A 
BRANCH  85  88
ATOM     88  S   UNL     1     -11.616  -9.424  12.155  1.00  0.00     0.127 S 
ATOM     89  O   UNL     1     -11.010 -10.588  12.803  1.00  0.00    -0.237 OA
ATOM     90  O   UNL     1     -12.952  -9.084  12.635  1.00  0.00    -0.237 OA
ATOM     91  O   UNL     1     -11.423  -9.383  10.711  1.00  0.00    -0.744 OA
ENDBRANCH  85  88
ENDBRANCH  57  81
BRANCH  69  92
ATOM     92  C   UNL     1      -7.130  -0.126  12.033  1.00  0.00     0.023 A 
ATOM     93  C   UNL     1      -6.671  -0.836  10.907  1.00  0.00     0.012 A 
ATOM     94  C   UNL     1      -6.256   0.738  12.712  1.00  0.00     0.148 A 
ATOM     95  C   UNL     1      -5.354  -0.684  10.470  1.00  0.00     0.002 A 
ATOM     96  C   UNL     1      -4.964   0.920  12.247  1.00  0.00     0.091 A 
ATOM     97  F   UNL     1      -6.725   1.394  13.785  1.00  0.00    -0.205 F 
ATOM     98  C   UNL     1      -4.505   0.206  11.129  1.00  0.00     0.022 A 
BRANCH  96  99
ATOM     99  S   UNL     1      -3.860   2.130  12.977  1.00  0.00     0.127 S 
ATOM    100  O   UNL     1      -2.815   1.285  13.553  1.00  0.00    -0.237 OA
ATOM    101  O   UNL     1      -3.445   2.910  11.810  1.00  0.00    -0.237 OA
ATOM    102  O   UNL     1      -4.656   2.876  13.944  1.00  0.00    -0.744 OA
ENDBRANCH  96  99
ENDBRANCH  69  92
ENDBRANCH  43  44
ENDBRANCH  36  38
ENDBRANCH  35  36
ENDBRANCH  34  35
ENDBRANCH  33  34
ENDBRANCH  32  33
ENDBRANCH  31  32
ENDBRANCH  30  31
ENDBRANCH   1  30
TORSDOF 27
