REMARK SMILES Cc1ccc(Nc2c(Cl)cc(Cl)cc2Cl)c(CC(=O)OCCOCCOCCOCCOC(=O)c2ccc(-c3c4nc(c(-c5cccc(S(=O)(=O)[O-])c5F)c5ccc([nH]5)c(-c5cccc(S(=O)(=O)[O-])c5F)c5nc(c(-c6cccc(S(=O)(=O)[O-])c6F)c6ccc3[nH]6)C=C5)C=C4)cc2)c1
REMARK SMILES IDX 26 1 25 2 24 3 23 4 22 5 21 6 20 7 18 8 19 9 17 10 16 11
REMARK SMILES IDX 1 12 2 13 3 14 98 15 4 16 5 17 6 18 7 20 8 21 14 22 9 23
REMARK SMILES IDX 10 24 13 25 15 26 11 27 12 28 27 29 28 30 29 31 30 32 31 33
REMARK SMILES IDX 32 34 33 35 34 36 35 37 36 38 97 39 37 40 96 41 38 42 39 43
REMARK SMILES IDX 40 44 90 45 41 46 95 47 89 48 91 49 42 50 94 51 88 52 87 53
REMARK SMILES IDX 43 55 75 56 55 57 74 58 56 59 59 60 73 61 92 62 57 63 58 64
REMARK SMILES IDX 72 66 93 67 60 68 44 69 45 70 53 71 46 72 48 73 54 74 47 75
REMARK SMILES IDX 49 76 50 77 51 78 52 79 76 80 77 81 85 82 78 83 80 84 86 85
REMARK SMILES IDX 79 86 81 87 82 88 83 89 84 90 61 91 62 92 70 93 63 94 65 95
REMARK SMILES IDX 71 96 64 97 66 98 67 99 68 100 69 101
REMARK H PARENT 6 19 91 54 59 65
REMARK Flexibility Score: inf
ROOT
ATOM      1  O   UNL     1      -1.927  -0.051  -1.723  1.00  0.00    -0.377 OA
ENDROOT
BRANCH   1   2
ATOM      2  C   UNL     1      -3.326   0.077  -1.413  1.00  0.00     0.188 C 
BRANCH   2   3
ATOM      3  C   UNL     1      -3.505   1.101  -0.326  1.00  0.00     0.188 C 
BRANCH   3   4
ATOM      4  O   UNL     1      -4.608   1.968  -0.349  1.00  0.00    -0.376 OA
BRANCH   4   5
ATOM      5  C   UNL     1      -4.393   3.350  -0.581  1.00  0.00     0.202 C 
BRANCH   5   6
ATOM      6  C   UNL     1      -3.106   4.115  -0.170  1.00  0.00     0.261 C 
BRANCH   6   7
ATOM      7  O   UNL     1      -2.102   3.397   0.555  1.00  0.00    -0.463 OA
BRANCH   7   8
ATOM      8  C   UNL     1      -2.420   3.159   1.847  1.00  0.00     0.310 C 
ATOM      9  O   UNL     1      -3.328   3.720   2.451  1.00  0.00    -0.252 OA
BRANCH   8  10
ATOM     10  C   UNL     1      -1.477   2.203   2.535  1.00  0.00     0.160 C 
BRANCH  10  11
ATOM     11  C   UNL     1      -1.023   0.932   1.829  1.00  0.00    -0.013 A 
ATOM     12  C   UNL     1       2.186   0.001  -0.093  1.00  0.00     0.044 C 
ATOM     13  C   UNL     1       0.823  -0.080   0.526  1.00  0.00    -0.051 A 
ATOM     14  C   UNL     1       0.134  -1.284   0.531  1.00  0.00     0.005 A 
ATOM     15  C   UNL     1       0.227   1.021   1.148  1.00  0.00     0.009 A 
ATOM     16  C   UNL     1      -1.128  -1.374   1.130  1.00  0.00     0.026 A 
ATOM     17  C   UNL     1      -1.738  -0.302   1.817  1.00  0.00     0.042 A 
BRANCH  17  18
ATOM     18  N   UNL     1      -3.029  -0.474   2.441  1.00  0.00    -0.353 N 
ATOM     19  H   UNL     1      -3.314   0.244   3.051  1.00  0.00     0.167 HD
BRANCH  18  20
ATOM     20  C   UNL     1      -3.954  -1.572   2.281  1.00  0.00     0.076 A 
ATOM     21  C   UNL     1      -3.586  -2.910   2.517  1.00  0.00     0.067 A 
ATOM     22  C   UNL     1      -5.237  -1.385   1.701  1.00  0.00     0.067 A 
ATOM     23  Cl  UNL     1      -2.255  -3.312   3.554  1.00  0.00    -0.082 Cl
ATOM     24  C   UNL     1      -4.333  -3.982   2.007  1.00  0.00     0.043 A 
ATOM     25  C   UNL     1      -5.971  -2.449   1.150  1.00  0.00     0.043 A 
ATOM     26  Cl  UNL     1      -6.049   0.140   1.761  1.00  0.00    -0.082 Cl
ATOM     27  C   UNL     1      -5.493  -3.743   1.280  1.00  0.00     0.044 A 
ATOM     28  Cl  UNL     1      -6.362  -5.064   0.602  1.00  0.00    -0.084 Cl
ENDBRANCH  18  20
ENDBRANCH  17  18
ENDBRANCH  10  11
ENDBRANCH   8  10
ENDBRANCH   7   8
ENDBRANCH   6   7
ENDBRANCH   5   6
ENDBRANCH   4   5
ENDBRANCH   3   4
ENDBRANCH   2   3
ENDBRANCH   1   2
BRANCH   1  29
ATOM     29  C   UNL     1      -1.699  -0.474  -3.068  1.00  0.00     0.188 C 
BRANCH  29  30
ATOM     30  C   UNL     1      -1.852  -1.971  -3.255  1.00  0.00     0.188 C 
BRANCH  30  31
ATOM     31  O   UNL     1      -3.158  -2.329  -2.848  1.00  0.00    -0.376 OA
BRANCH  31  32
ATOM     32  C   UNL     1      -3.286  -3.402  -1.934  1.00  0.00     0.202 C 
BRANCH  32  33
ATOM     33  C   UNL     1      -4.078  -4.503  -2.629  1.00  0.00     0.261 C 
BRANCH  33  34
ATOM     34  O   UNL     1      -5.296  -3.925  -3.150  1.00  0.00    -0.460 OA
BRANCH  34  35
ATOM     35  C   UNL     1      -5.223  -3.592  -4.472  1.00  0.00     0.338 C 
ATOM     36  O   UNL     1      -4.821  -4.351  -5.347  1.00  0.00    -0.246 OA
BRANCH  35  37
ATOM     37  C   UNL     1      -5.487  -2.135  -4.672  1.00  0.00     0.060 A 
ATOM     38  C   UNL     1      -5.051  -1.517  -5.854  1.00  0.00     0.016 A 
ATOM     39  C   UNL     1      -5.935  -1.339  -3.618  1.00  0.00     0.016 A 
ATOM     40  C   UNL     1      -4.892  -0.123  -5.916  1.00  0.00     0.010 A 
ATOM     41  C   UNL     1      -5.772   0.042  -3.691  1.00  0.00     0.010 A 
ATOM     42  C   UNL     1      -5.159   0.662  -4.801  1.00  0.00    -0.014 A 
BRANCH  42  43
ATOM     43  C   UNL     1      -4.682   2.064  -4.628  1.00  0.00     0.031 A 
ATOM     44  C   UNL     1      -5.630   3.080  -4.051  1.00  0.00     0.074 A 
ATOM     45  C   UNL     1      -3.343   2.227  -4.452  1.00  0.00     0.049 A 
ATOM     46  N   UNL     1      -5.321   4.267  -3.629  1.00  0.00    -0.248 NA
ATOM     47  C   UNL     1      -7.074   2.833  -3.982  1.00  0.00     0.031 C 
ATOM     48  C   UNL     1      -2.667   2.771  -3.289  1.00  0.00     0.029 A 
ATOM     49  N   UNL     1      -2.268   1.913  -5.276  1.00  0.00    -0.354 N 
ATOM     50  C   UNL     1      -6.425   4.766  -2.937  1.00  0.00     0.074 A 
ATOM     51  C   UNL     1      -7.514   3.902  -3.311  1.00  0.00     0.031 C 
ATOM     52  C   UNL     1      -1.376   2.999  -3.514  1.00  0.00     0.029 A 
ATOM     53  C   UNL     1      -1.155   2.680  -4.888  1.00  0.00     0.049 A 
ATOM     54  H   UNL     1      -2.284   1.259  -6.012  1.00  0.00     0.167 HD
ATOM     55  C   UNL     1      -6.286   5.754  -1.998  1.00  0.00     0.034 A 
ATOM     56  C   UNL     1      -0.292   3.365  -5.671  1.00  0.00     0.034 A 
ATOM     57  C   UNL     1      -4.931   6.380  -1.992  1.00  0.00     0.049 A 
ATOM     58  C   UNL     1      -0.548   4.860  -5.522  1.00  0.00     0.074 A 
ATOM     59  C   UNL     1      -4.104   6.953  -1.036  1.00  0.00     0.029 A 
ATOM     60  N   UNL     1      -4.195   6.461  -3.176  1.00  0.00    -0.354 N 
ATOM     61  N   UNL     1      -1.205   5.440  -4.540  1.00  0.00    -0.248 NA
ATOM     62  C   UNL     1      -0.129   5.816  -6.540  1.00  0.00     0.031 C 
ATOM     63  C   UNL     1      -2.878   7.350  -1.650  1.00  0.00     0.029 A 
ATOM     64  C   UNL     1      -2.983   7.095  -3.003  1.00  0.00     0.049 A 
ATOM     65  H   UNL     1      -4.507   6.104  -4.039  1.00  0.00     0.167 HD
ATOM     66  C   UNL     1      -1.460   6.755  -4.874  1.00  0.00     0.074 A 
ATOM     67  C   UNL     1      -0.727   6.941  -6.119  1.00  0.00     0.031 C 
ATOM     68  C   UNL     1      -2.290   7.599  -4.176  1.00  0.00     0.034 A 
BRANCH  55  69
ATOM     69  C   UNL     1      -7.337   6.100  -0.899  1.00  0.00     0.023 A 
ATOM     70  C   UNL     1      -7.125   7.292  -0.163  1.00  0.00     0.012 A 
ATOM     71  C   UNL     1      -8.428   5.305  -0.439  1.00  0.00     0.148 A 
ATOM     72  C   UNL     1      -7.830   7.616   1.007  1.00  0.00     0.002 A 
ATOM     73  C   UNL     1      -9.213   5.693   0.666  1.00  0.00     0.091 A 
ATOM     74  F   UNL     1      -8.687   4.124  -1.008  1.00  0.00    -0.205 F 
ATOM     75  C   UNL     1      -8.880   6.818   1.421  1.00  0.00     0.022 A 
BRANCH  73  76
ATOM     76  S   UNL     1     -10.721   4.834   1.179  1.00  0.00     0.127 S 
ATOM     77  O   UNL     1     -10.366   4.336   2.508  1.00  0.00    -0.237 OA
ATOM     78  O   UNL     1     -11.708   5.917   1.188  1.00  0.00    -0.237 OA
ATOM     79  O   UNL     1     -10.968   3.806   0.176  1.00  0.00    -0.744 OA
ENDBRANCH  73  76
ENDBRANCH  55  69
BRANCH  56  80
ATOM     80  C   UNL     1       0.140   2.524  -6.828  1.00  0.00     0.023 A 
ATOM     81  C   UNL     1       0.995   1.456  -6.436  1.00  0.00     0.012 A 
ATOM     82  C   UNL     1      -0.765   2.307  -7.873  1.00  0.00     0.148 A 
ATOM     83  C   UNL     1       0.734   0.148  -6.853  1.00  0.00     0.002 A 
ATOM     84  C   UNL     1      -1.050   0.991  -8.249  1.00  0.00     0.091 A 
ATOM     85  F   UNL     1      -1.505   3.341  -8.294  1.00  0.00    -0.205 F 
ATOM     86  C   UNL     1      -0.336  -0.091  -7.707  1.00  0.00     0.022 A 
BRANCH  84  87
ATOM     87  S   UNL     1      -2.587   0.645  -9.121  1.00  0.00     0.127 S 
ATOM     88  O   UNL     1      -2.182   0.775 -10.515  1.00  0.00    -0.237 OA
ATOM     89  O   UNL     1      -2.912  -0.714  -8.688  1.00  0.00    -0.237 OA
ATOM     90  O   UNL     1      -3.496   1.658  -8.598  1.00  0.00    -0.744 OA
ENDBRANCH  84  87
ENDBRANCH  56  80
BRANCH  68  91
ATOM     91  C   UNL     1      -2.613   9.042  -4.562  1.00  0.00     0.023 A 
ATOM     92  C   UNL     1      -1.674   9.865  -5.204  1.00  0.00     0.012 A 
ATOM     93  C   UNL     1      -3.851   9.656  -4.196  1.00  0.00     0.148 A 
ATOM     94  C   UNL     1      -1.986  11.174  -5.590  1.00  0.00     0.002 A 
ATOM     95  C   UNL     1      -4.122  10.986  -4.499  1.00  0.00     0.091 A 
ATOM     96  F   UNL     1      -4.791   8.950  -3.561  1.00  0.00    -0.205 F 
ATOM     97  C   UNL     1      -3.209  11.734  -5.241  1.00  0.00     0.022 A 
BRANCH  95  98
ATOM     98  S   UNL     1      -5.588  11.845  -3.899  1.00  0.00     0.127 S 
ATOM     99  O   UNL     1      -4.997  13.024  -3.262  1.00  0.00    -0.237 OA
ATOM    100  O   UNL     1      -6.302  12.120  -5.144  1.00  0.00    -0.237 OA
ATOM    101  O   UNL     1      -6.253  10.936  -2.977  1.00  0.00    -0.744 OA
ENDBRANCH  95  98
ENDBRANCH  68  91
ENDBRANCH  42  43
ENDBRANCH  35  37
ENDBRANCH  34  35
ENDBRANCH  33  34
ENDBRANCH  32  33
ENDBRANCH  31  32
ENDBRANCH  30  31
ENDBRANCH  29  30
ENDBRANCH   1  29
TORSDOF 26
