REMARK SMILES O=C(OCCOCCOCCOCCOC(=O)c1nc(F)ccc1Br)c1ccc(-c2c3nc(c(-c4cccc(S(=O)(=O)[O-])c4F)c4ccc([nH]4)c(-c4cccc(S(=O)(=O)[O-])c4F)c4nc(c(-c5cccc(S(=O)(=O)[O-])c5F)c5ccc2[nH]5)C=C4)C=C3)cc1
REMARK SMILES IDX 7 1 6 2 5 3 4 4 3 5 2 6 1 7 26 8 27 9 88 10 28 11 87 12
REMARK SMILES IDX 29 13 30 14 31 15 81 16 32 17 86 18 80 19 82 20 33 21 85 22
REMARK SMILES IDX 79 23 78 24 34 26 66 27 46 28 65 29 47 30 50 31 64 32 83 33
REMARK SMILES IDX 48 34 49 35 63 37 84 38 51 39 35 40 36 41 44 42 37 43 39 44
REMARK SMILES IDX 45 45 38 46 40 47 41 48 42 49 43 50 67 51 68 52 76 53 69 54
REMARK SMILES IDX 71 55 77 56 70 57 72 58 73 59 74 60 75 61 52 62 53 63 61 64
REMARK SMILES IDX 54 65 56 66 62 67 55 68 57 69 58 70 59 71 60 72 8 73 9 74
REMARK SMILES IDX 10 75 11 76 12 77 13 78 14 79 15 80 16 81 17 82 18 83 19 84
REMARK SMILES IDX 24 85 20 86 23 87 25 88 21 89 22 90
REMARK H PARENT 82 25 50 36
REMARK Flexibility Score: inf
ROOT
ATOM      1  C   UNL     1       2.361   1.230  -0.695  1.00  0.00     0.188 C 
ENDROOT
BRANCH   1   2
ATOM      2  O   UNL     1       3.693   0.946  -0.251  1.00  0.00    -0.376 OA
BRANCH   2   3
ATOM      3  C   UNL     1       4.543   0.390  -1.252  1.00  0.00     0.202 C 
BRANCH   3   4
ATOM      4  C   UNL     1       4.468  -1.132  -1.368  1.00  0.00     0.261 C 
BRANCH   4   5
ATOM      5  O   UNL     1       3.151  -1.646  -1.137  1.00  0.00    -0.460 OA
BRANCH   5   6
ATOM      6  C   UNL     1       2.551  -1.950   0.040  1.00  0.00     0.338 C 
ATOM      7  O   UNL     1       1.413  -2.422  -0.025  1.00  0.00    -0.246 OA
BRANCH   6   8
ATOM      8  C   UNL     1       3.132  -1.723   1.413  1.00  0.00     0.060 A 
ATOM      9  C   UNL     1       2.324  -2.119   2.499  1.00  0.00     0.016 A 
ATOM     10  C   UNL     1       4.377  -1.165   1.720  1.00  0.00     0.016 A 
ATOM     11  C   UNL     1       2.764  -2.006   3.824  1.00  0.00     0.010 A 
ATOM     12  C   UNL     1       4.827  -1.049   3.036  1.00  0.00     0.010 A 
ATOM     13  C   UNL     1       4.037  -1.498   4.092  1.00  0.00    -0.014 A 
BRANCH  13  14
ATOM     14  C   UNL     1       4.663  -1.646   5.419  1.00  0.00     0.031 A 
ATOM     15  C   UNL     1       4.849  -0.483   6.340  1.00  0.00     0.074 A 
ATOM     16  C   UNL     1       5.208  -2.848   5.691  1.00  0.00     0.049 A 
ATOM     17  N   UNL     1       5.376  -0.472   7.535  1.00  0.00    -0.248 NA
ATOM     18  C   UNL     1       4.413   0.839   5.860  1.00  0.00     0.031 C 
ATOM     19  C   UNL     1       5.203  -3.993   4.772  1.00  0.00     0.029 A 
ATOM     20  N   UNL     1       5.907  -3.297   6.777  1.00  0.00    -0.354 N 
ATOM     21  C   UNL     1       5.337   0.850   7.957  1.00  0.00     0.074 A 
ATOM     22  C   UNL     1       4.758   1.622   6.878  1.00  0.00     0.031 C 
ATOM     23  C   UNL     1       5.886  -5.004   5.325  1.00  0.00     0.029 A 
ATOM     24  C   UNL     1       6.361  -4.587   6.639  1.00  0.00     0.049 A 
ATOM     25  H   UNL     1       6.070  -2.750   7.579  1.00  0.00     0.167 HD
ATOM     26  C   UNL     1       5.726   1.353   9.153  1.00  0.00     0.034 A 
ATOM     27  C   UNL     1       7.065  -5.359   7.486  1.00  0.00     0.034 A 
ATOM     28  C   UNL     1       6.283   0.548  10.209  1.00  0.00     0.049 A 
ATOM     29  C   UNL     1       7.389  -4.810   8.840  1.00  0.00     0.074 A 
ATOM     30  C   UNL     1       6.604   0.925  11.500  1.00  0.00     0.029 A 
ATOM     31  N   UNL     1       6.611  -0.795  10.089  1.00  0.00    -0.354 N 
ATOM     32  N   UNL     1       7.160  -3.605   9.304  1.00  0.00    -0.248 NA
ATOM     33  C   UNL     1       8.009  -5.724   9.805  1.00  0.00     0.031 C 
ATOM     34  C   UNL     1       7.130  -0.189  12.160  1.00  0.00     0.029 A 
ATOM     35  C   UNL     1       7.131  -1.262  11.283  1.00  0.00     0.049 A 
ATOM     36  H   UNL     1       6.492  -1.335   9.275  1.00  0.00     0.167 HD
ATOM     37  C   UNL     1       7.588  -3.618  10.623  1.00  0.00     0.074 A 
ATOM     38  C   UNL     1       8.080  -4.957  10.887  1.00  0.00     0.031 C 
ATOM     39  C   UNL     1       7.583  -2.609  11.526  1.00  0.00     0.034 A 
BRANCH  26  40
ATOM     40  C   UNL     1       5.474   2.809   9.441  1.00  0.00     0.023 A 
ATOM     41  C   UNL     1       4.164   3.214   9.766  1.00  0.00     0.012 A 
ATOM     42  C   UNL     1       6.530   3.737   9.540  1.00  0.00     0.148 A 
ATOM     43  C   UNL     1       3.905   4.520  10.181  1.00  0.00     0.002 A 
ATOM     44  C   UNL     1       6.268   5.031   9.980  1.00  0.00     0.091 A 
ATOM     45  F   UNL     1       7.768   3.330   9.227  1.00  0.00    -0.205 F 
ATOM     46  C   UNL     1       4.956   5.424  10.297  1.00  0.00     0.022 A 
BRANCH  44  47
ATOM     47  S   UNL     1       7.551   6.266  10.222  1.00  0.00     0.127 S 
ATOM     48  O   UNL     1       7.124   7.322   9.304  1.00  0.00    -0.237 OA
ATOM     49  O   UNL     1       7.397   6.592  11.639  1.00  0.00    -0.237 OA
ATOM     50  O   UNL     1       8.807   5.619   9.869  1.00  0.00    -0.744 OA
ENDBRANCH  44  47
ENDBRANCH  26  40
BRANCH  27  51
ATOM     51  C   UNL     1       7.361  -6.760   7.087  1.00  0.00     0.023 A 
ATOM     52  C   UNL     1       6.524  -7.790   7.556  1.00  0.00     0.012 A 
ATOM     53  C   UNL     1       8.345  -7.051   6.123  1.00  0.00     0.148 A 
ATOM     54  C   UNL     1       6.660  -9.090   7.067  1.00  0.00     0.002 A 
ATOM     55  C   UNL     1       8.450  -8.340   5.612  1.00  0.00     0.091 A 
ATOM     56  F   UNL     1       9.124  -6.050   5.689  1.00  0.00    -0.205 F 
ATOM     57  C   UNL     1       7.612  -9.362   6.088  1.00  0.00     0.022 A 
BRANCH  55  58
ATOM     58  S   UNL     1       9.554  -8.758   4.257  1.00  0.00     0.127 S 
ATOM     59  O   UNL     1      10.548  -9.592   4.927  1.00  0.00    -0.237 OA
ATOM     60  O   UNL     1       8.660  -9.475   3.347  1.00  0.00    -0.237 OA
ATOM     61  O   UNL     1      10.043  -7.487   3.740  1.00  0.00    -0.744 OA
ENDBRANCH  55  58
ENDBRANCH  27  51
BRANCH  39  62
ATOM     62  C   UNL     1       8.134  -2.898  12.891  1.00  0.00     0.023 A 
ATOM     63  C   UNL     1       9.529  -2.881  13.083  1.00  0.00     0.012 A 
ATOM     64  C   UNL     1       7.276  -3.056  13.995  1.00  0.00     0.148 A 
ATOM     65  C   UNL     1      10.064  -3.023  14.361  1.00  0.00     0.002 A 
ATOM     66  C   UNL     1       7.815  -3.165  15.269  1.00  0.00     0.091 A 
ATOM     67  F   UNL     1       5.953  -3.077  13.777  1.00  0.00    -0.205 F 
ATOM     68  C   UNL     1       9.209  -3.153  15.454  1.00  0.00     0.022 A 
BRANCH  66  69
ATOM     69  S   UNL     1       6.799  -3.264  16.746  1.00  0.00     0.127 S 
ATOM     70  O   UNL     1       7.098  -4.614  17.222  1.00  0.00    -0.237 OA
ATOM     71  O   UNL     1       7.350  -2.190  17.572  1.00  0.00    -0.237 OA
ATOM     72  O   UNL     1       5.426  -3.053  16.308  1.00  0.00    -0.744 OA
ENDBRANCH  66  69
ENDBRANCH  39  62
ENDBRANCH  13  14
ENDBRANCH   6   8
ENDBRANCH   5   6
ENDBRANCH   4   5
ENDBRANCH   3   4
ENDBRANCH   2   3
ENDBRANCH   1   2
BRANCH   1  73
ATOM     73  C   UNL     1       1.895   2.583  -0.168  1.00  0.00     0.188 C 
BRANCH  73  74
ATOM     74  O   UNL     1       2.542   3.699  -0.772  1.00  0.00    -0.377 OA
BRANCH  74  75
ATOM     75  C   UNL     1       3.958   3.762  -0.656  1.00  0.00     0.188 C 
BRANCH  75  76
ATOM     76  C   UNL     1       4.604   3.668   0.741  1.00  0.00     0.188 C 
BRANCH  76  77
ATOM     77  O   UNL     1       3.694   3.823   1.821  1.00  0.00    -0.376 OA
BRANCH  77  78
ATOM     78  C   UNL     1       3.849   5.022   2.576  1.00  0.00     0.202 C 
BRANCH  78  79
ATOM     79  C   UNL     1       3.155   6.222   1.930  1.00  0.00     0.261 C 
BRANCH  79  80
ATOM     80  O   UNL     1       3.629   6.523   0.608  1.00  0.00    -0.458 OA
BRANCH  80  81
ATOM     81  C   UNL     1       4.829   7.144   0.475  1.00  0.00     0.358 C 
ATOM     82  O   UNL     1       5.564   7.504   1.369  1.00  0.00    -0.244 OA
BRANCH  81  83
ATOM     83  C   UNL     1       5.127   7.170  -0.991  1.00  0.00     0.165 A 
ATOM     84  N   UNL     1       4.091   7.586  -1.780  1.00  0.00    -0.211 NA
ATOM     85  C   UNL     1       6.299   6.610  -1.503  1.00  0.00     0.051 A 
ATOM     86  C   UNL     1       4.214   7.390  -3.103  1.00  0.00     0.213 A 
ATOM     87  C   UNL     1       6.381   6.420  -2.886  1.00  0.00     0.023 A 
ATOM     88  Br  UNL     1       7.745   5.983  -0.457  1.00  0.00    -0.048 Br
ATOM     89  F   UNL     1       3.196   7.772  -3.886  1.00  0.00    -0.185 F 
ATOM     90  C   UNL     1       5.318   6.806  -3.697  1.00  0.00     0.061 A 
ENDBRANCH  81  83
ENDBRANCH  80  81
ENDBRANCH  79  80
ENDBRANCH  78  79
ENDBRANCH  77  78
ENDBRANCH  76  77
ENDBRANCH  75  76
ENDBRANCH  74  75
ENDBRANCH  73  74
ENDBRANCH   1  73
TORSDOF 23
