REMARK SMILES Cc1[nH]cnc1C[NH+]1CCC(Oc2cccc(F)c2)(C(=O)OCCOCCOCCOCCOC(=O)c2ccc(-c3c4nc(c(-c5cccc(S(=O)(=O)[O-])c5F)c5ccc([nH]5)c(-c5cccc(S(=O)(=O)[O-])c5F)c5nc(c(-c6cccc(S(=O)(=O)[O-])c6F)c6ccc3[nH]6)C=C5)C=C4)cc2)CC1
REMARK SMILES IDX 29 1 28 2 27 3 26 4 25 5 24 6 23 7 22 8 20 9 21 10 11 11
REMARK SMILES IDX 8 12 9 13 101 14 10 16 100 17 7 18 6 19 1 20 2 21 3 22 4 23
REMARK SMILES IDX 5 25 12 26 13 27 14 28 19 29 15 30 17 31 16 32 18 33 30 34
REMARK SMILES IDX 31 35 32 36 33 37 34 38 35 39 36 40 37 41 38 42 99 43 39 44
REMARK SMILES IDX 98 45 40 46 41 47 42 48 92 49 43 50 97 51 91 52 93 53 44 54
REMARK SMILES IDX 96 55 90 56 89 57 45 59 77 60 57 61 76 62 58 63 61 64 75 65
REMARK SMILES IDX 94 66 59 67 60 68 74 70 95 71 62 72 46 73 47 74 55 75 48 76
REMARK SMILES IDX 50 77 56 78 49 79 51 80 52 81 53 82 54 83 78 84 79 85 87 86
REMARK SMILES IDX 80 87 82 88 88 89 81 90 83 91 84 92 85 93 86 94 63 95 64 96
REMARK SMILES IDX 72 97 65 98 67 99 73 100 66 101 68 102 69 103 70 104 71 105
REMARK H PARENT 8 15 3 24 93 58 61 69
REMARK Flexibility Score: inf
ROOT
ATOM      1  C   UNL     1      -0.083   1.088   4.484  1.00  0.00     0.188 C 
ENDROOT
BRANCH   1   2
ATOM      2  O   UNL     1      -0.821  -0.083   4.145  1.00  0.00    -0.377 OA
BRANCH   2   3
ATOM      3  C   UNL     1      -1.527  -0.173   2.920  1.00  0.00     0.188 C 
BRANCH   3   4
ATOM      4  C   UNL     1      -2.989   0.245   2.814  1.00  0.00     0.188 C 
BRANCH   4   5
ATOM      5  O   UNL     1      -3.554   1.032   3.834  1.00  0.00    -0.376 OA
BRANCH   5   6
ATOM      6  C   UNL     1      -3.371   0.628   5.184  1.00  0.00     0.202 C 
BRANCH   6   7
ATOM      7  C   UNL     1      -3.496  -0.851   5.612  1.00  0.00     0.261 C 
BRANCH   7   8
ATOM      8  O   UNL     1      -2.537  -1.795   5.064  1.00  0.00    -0.460 OA
BRANCH   8   9
ATOM      9  C   UNL     1      -3.011  -2.723   4.187  1.00  0.00     0.351 C 
ATOM     10  O   UNL     1      -4.187  -2.739   3.822  1.00  0.00    -0.247 OA
BRANCH   9  11
ATOM     11  C   UNL     1      -1.990  -3.817   3.746  1.00  0.00     0.216 C 
ATOM     12  N   UNL     1      -0.498  -3.507   1.170  1.00  0.00    -0.330 N 
ATOM     13  C   UNL     1       0.159  -3.038   2.380  1.00  0.00     0.267 C 
ATOM     14  C   UNL     1      -1.953  -3.492   1.206  1.00  0.00     0.267 C 
ATOM     15  H   UNL     1      -0.290  -4.505   1.166  1.00  0.00     0.348 HD
ATOM     16  C   UNL     1      -0.477  -3.491   3.715  1.00  0.00     0.122 C 
ATOM     17  C   UNL     1      -2.447  -4.359   2.369  1.00  0.00     0.122 C 
BRANCH  12  18
ATOM     18  C   UNL     1       0.112  -3.039  -0.094  1.00  0.00     0.321 C 
BRANCH  18  19
ATOM     19  C   UNL     1      -0.116  -1.601  -0.515  1.00  0.00     0.115 A 
ATOM     20  C   UNL     1       2.209  -0.788  -1.489  1.00  0.00     0.066 C 
ATOM     21  C   UNL     1       0.773  -0.718  -1.127  1.00  0.00     0.040 A 
ATOM     22  N   UNL     1       0.031   0.409  -1.402  1.00  0.00    -0.348 N 
ATOM     23  C   UNL     1      -1.245   0.180  -0.983  1.00  0.00     0.197 A 
ATOM     24  H   UNL     1       0.364   1.233  -1.825  1.00  0.00     0.167 HD
ATOM     25  N   UNL     1      -1.369  -1.013  -0.453  1.00  0.00    -0.236 NA
ENDBRANCH  18  19
ENDBRANCH  12  18
BRANCH  11  26
ATOM     26  O   UNL     1      -2.265  -4.699   4.894  1.00  0.00    -0.475 OA
BRANCH  26  27
ATOM     27  C   UNL     1      -2.062  -6.035   4.729  1.00  0.00     0.123 A 
ATOM     28  C   UNL     1      -0.819  -6.601   5.012  1.00  0.00     0.047 A 
ATOM     29  C   UNL     1      -3.146  -6.846   4.408  1.00  0.00     0.085 A 
ATOM     30  C   UNL     1      -0.623  -7.973   4.858  1.00  0.00     0.007 A 
ATOM     31  C   UNL     1      -2.947  -8.214   4.278  1.00  0.00     0.126 A 
ATOM     32  C   UNL     1      -1.692  -8.783   4.479  1.00  0.00     0.039 A 
ATOM     33  F   UNL     1      -3.980  -9.004   3.956  1.00  0.00    -0.207 F 
ENDBRANCH  26  27
ENDBRANCH  11  26
ENDBRANCH   9  11
ENDBRANCH   8   9
ENDBRANCH   7   8
ENDBRANCH   6   7
ENDBRANCH   5   6
ENDBRANCH   4   5
ENDBRANCH   3   4
ENDBRANCH   2   3
ENDBRANCH   1   2
BRANCH   1  34
ATOM     34  C   UNL     1      -0.221   2.278   3.543  1.00  0.00     0.188 C 
BRANCH  34  35
ATOM     35  O   UNL     1       0.612   2.301   2.381  1.00  0.00    -0.376 OA
BRANCH  35  36
ATOM     36  C   UNL     1       1.176   1.086   1.900  1.00  0.00     0.202 C 
BRANCH  36  37
ATOM     37  C   UNL     1       2.642   1.242   1.540  1.00  0.00     0.261 C 
BRANCH  37  38
ATOM     38  O   UNL     1       3.368   1.520   2.730  1.00  0.00    -0.460 OA
BRANCH  38  39
ATOM     39  C   UNL     1       3.294   2.820   3.099  1.00  0.00     0.338 C 
ATOM     40  O   UNL     1       3.031   3.779   2.406  1.00  0.00    -0.246 OA
BRANCH  39  41
ATOM     41  C   UNL     1       3.410   2.850   4.563  1.00  0.00     0.060 A 
ATOM     42  C   UNL     1       2.633   3.787   5.248  1.00  0.00     0.016 A 
ATOM     43  C   UNL     1       4.289   1.992   5.235  1.00  0.00     0.016 A 
ATOM     44  C   UNL     1       2.813   3.946   6.608  1.00  0.00     0.010 A 
ATOM     45  C   UNL     1       4.481   2.158   6.597  1.00  0.00     0.010 A 
ATOM     46  C   UNL     1       3.796   3.188   7.255  1.00  0.00    -0.014 A 
BRANCH  46  47
ATOM     47  C   UNL     1       4.305   3.696   8.535  1.00  0.00     0.031 A 
ATOM     48  C   UNL     1       5.509   4.589   8.490  1.00  0.00     0.074 A 
ATOM     49  C   UNL     1       3.640   3.432   9.667  1.00  0.00     0.049 A 
ATOM     50  N   UNL     1       6.104   5.215   9.465  1.00  0.00    -0.248 NA
ATOM     51  C   UNL     1       6.122   4.819   7.166  1.00  0.00     0.031 C 
ATOM     52  C   UNL     1       2.439   2.603   9.760  1.00  0.00     0.029 A 
ATOM     53  N   UNL     1       3.877   3.841  10.947  1.00  0.00    -0.354 N 
ATOM     54  C   UNL     1       7.165   5.894   8.879  1.00  0.00     0.074 A 
ATOM     55  C   UNL     1       7.153   5.590   7.469  1.00  0.00     0.031 C 
ATOM     56  C   UNL     1       2.043   2.562  11.042  1.00  0.00     0.029 A 
ATOM     57  C   UNL     1       2.980   3.336  11.853  1.00  0.00     0.049 A 
ATOM     58  H   UNL     1       4.619   4.439  11.195  1.00  0.00     0.167 HD
ATOM     59  C   UNL     1       8.056   6.717   9.473  1.00  0.00     0.034 A 
ATOM     60  C   UNL     1       2.942   3.479  13.190  1.00  0.00     0.034 A 
ATOM     61  C   UNL     1       8.027   7.009  10.877  1.00  0.00     0.049 A 
ATOM     62  C   UNL     1       3.980   4.355  13.837  1.00  0.00     0.074 A 
ATOM     63  C   UNL     1       8.859   7.840  11.598  1.00  0.00     0.029 A 
ATOM     64  N   UNL     1       7.117   6.464  11.773  1.00  0.00    -0.354 N 
ATOM     65  N   UNL     1       4.933   5.056  13.269  1.00  0.00    -0.248 NA
ATOM     66  C   UNL     1       3.929   4.481  15.299  1.00  0.00     0.031 C 
ATOM     67  C   UNL     1       8.480   7.764  12.940  1.00  0.00     0.029 A 
ATOM     68  C   UNL     1       7.383   6.921  13.049  1.00  0.00     0.049 A 
ATOM     69  H   UNL     1       6.391   5.843  11.535  1.00  0.00     0.167 HD
ATOM     70  C   UNL     1       5.584   5.725  14.297  1.00  0.00     0.074 A 
ATOM     71  C   UNL     1       4.902   5.357  15.523  1.00  0.00     0.031 C 
ATOM     72  C   UNL     1       6.653   6.558  14.239  1.00  0.00     0.034 A 
BRANCH  59  73
ATOM     73  C   UNL     1       9.115   7.354   8.615  1.00  0.00     0.023 A 
ATOM     74  C   UNL     1       8.764   8.363   7.695  1.00  0.00     0.012 A 
ATOM     75  C   UNL     1      10.467   6.987   8.756  1.00  0.00     0.148 A 
ATOM     76  C   UNL     1       9.739   8.980   6.912  1.00  0.00     0.002 A 
ATOM     77  C   UNL     1      11.439   7.641   8.008  1.00  0.00     0.091 A 
ATOM     78  F   UNL     1      10.776   6.004   9.613  1.00  0.00    -0.205 F 
ATOM     79  C   UNL     1      11.076   8.629   7.078  1.00  0.00     0.022 A 
BRANCH  77  80
ATOM     80  S   UNL     1      13.194   7.318   8.206  1.00  0.00     0.127 S 
ATOM     81  O   UNL     1      13.533   6.728   6.911  1.00  0.00    -0.237 OA
ATOM     82  O   UNL     1      13.728   8.662   8.422  1.00  0.00    -0.237 OA
ATOM     83  O   UNL     1      13.315   6.420   9.346  1.00  0.00    -0.744 OA
ENDBRANCH  77  80
ENDBRANCH  59  73
BRANCH  60  84
ATOM     84  C   UNL     1       1.864   2.808  13.964  1.00  0.00     0.023 A 
ATOM     85  C   UNL     1       0.844   3.577  14.552  1.00  0.00     0.012 A 
ATOM     86  C   UNL     1       1.794   1.401  14.034  1.00  0.00     0.148 A 
ATOM     87  C   UNL     1      -0.224   2.958  15.203  1.00  0.00     0.002 A 
ATOM     88  C   UNL     1       0.700   0.791  14.634  1.00  0.00     0.091 A 
ATOM     89  F   UNL     1       2.781   0.689  13.472  1.00  0.00    -0.205 F 
ATOM     90  C   UNL     1      -0.304   1.568  15.232  1.00  0.00     0.022 A 
BRANCH  88  91
ATOM     91  S   UNL     1       0.443  -0.987  14.594  1.00  0.00     0.127 S 
ATOM     92  O   UNL     1       0.536  -1.334  16.010  1.00  0.00    -0.237 OA
ATOM     93  O   UNL     1      -0.900  -1.080  14.022  1.00  0.00    -0.237 OA
ATOM     94  O   UNL     1       1.500  -1.522  13.746  1.00  0.00    -0.744 OA
ENDBRANCH  88  91
ENDBRANCH  60  84
BRANCH  72  95
ATOM     95  C   UNL     1       7.159   7.144  15.528  1.00  0.00     0.023 A 
ATOM     96  C   UNL     1       7.904   6.339  16.409  1.00  0.00     0.012 A 
ATOM     97  C   UNL     1       7.038   8.526  15.774  1.00  0.00     0.148 A 
ATOM     98  C   UNL     1       8.520   6.902  17.524  1.00  0.00     0.002 A 
ATOM     99  C   UNL     1       7.701   9.088  16.855  1.00  0.00     0.091 A 
ATOM    100  F   UNL     1       6.316   9.265  14.919  1.00  0.00    -0.205 F 
ATOM    101  C   UNL     1       8.435   8.277  17.736  1.00  0.00     0.022 A 
BRANCH  99 102
ATOM    102  S   UNL     1       7.750  10.860  17.143  1.00  0.00     0.127 S 
ATOM    103  O   UNL     1       7.043  10.972  18.419  1.00  0.00    -0.237 OA
ATOM    104  O   UNL     1       9.187  11.119  17.216  1.00  0.00    -0.237 OA
ATOM    105  O   UNL     1       7.074  11.475  16.009  1.00  0.00    -0.744 OA
ENDBRANCH  99 102
ENDBRANCH  72  95
ENDBRANCH  46  47
ENDBRANCH  39  41
ENDBRANCH  38  39
ENDBRANCH  37  38
ENDBRANCH  36  37
ENDBRANCH  35  36
ENDBRANCH  34  35
ENDBRANCH   1  34
TORSDOF 27
