REMARK SMILES C[C@@H](C(=O)OCCOCCOCCOCCOC(=O)c1ccc(-c2c3nc(c(-c4cccc(S(=O)(=O)[O-])c4F)c4ccc([nH]4)c(-c4cccc(S(=O)(=O)[O-])c4F)c4nc(c(-c5cccc(S(=O)(=O)[O-])c5F)c5ccc2[nH]5)C=C4)C=C3)cc1)c1ccc2c3cc(Cl)ccc3n(C(=O)c3cocn3)c2c1
REMARK SMILES IDX 11 1 10 2 9 3 8 4 7 5 6 6 5 7 3 8 4 9 2 10 1 11 83 12 84 13
REMARK SMILES IDX 103 14 85 15 102 16 86 17 94 18 87 19 93 20 88 21 92 22
REMARK SMILES IDX 89 23 91 24 90 25 95 26 96 27 97 28 98 29 101 30 99 31
REMARK SMILES IDX 100 32 12 33 13 34 14 35 15 36 16 37 17 38 18 39 19 40 20 41
REMARK SMILES IDX 21 42 82 43 22 44 81 45 23 46 24 47 25 48 75 49 26 50 80 51
REMARK SMILES IDX 74 52 76 53 27 54 79 55 73 56 72 57 28 59 60 60 40 61 59 62
REMARK SMILES IDX 41 63 44 64 58 65 77 66 42 67 43 68 57 70 78 71 45 72 29 73
REMARK SMILES IDX 30 74 38 75 31 76 33 77 39 78 32 79 34 80 35 81 36 82 37 83
REMARK SMILES IDX 61 84 62 85 70 86 63 87 65 88 71 89 64 90 66 91 67 92 68 93
REMARK SMILES IDX 69 94 46 95 47 96 55 97 48 98 50 99 56 100 49 101 51 102
REMARK SMILES IDX 52 103 53 104 54 105
REMARK H PARENT 76 58 44 69
REMARK Flexibility Score: inf
ROOT
ATOM      1  O   UNL     1       2.011  -1.357   2.248  1.00  0.00    -0.377 OA
ENDROOT
BRANCH   1   2
ATOM      2  C   UNL     1       0.616  -1.597   2.156  1.00  0.00     0.188 C 
BRANCH   2   3
ATOM      3  C   UNL     1       0.147  -3.055   2.027  1.00  0.00     0.188 C 
BRANCH   3   4
ATOM      4  O   UNL     1       1.083  -3.991   2.522  1.00  0.00    -0.376 OA
BRANCH   4   5
ATOM      5  C   UNL     1       1.868  -4.727   1.601  1.00  0.00     0.202 C 
BRANCH   5   6
ATOM      6  C   UNL     1       2.492  -4.091   0.341  1.00  0.00     0.261 C 
BRANCH   6   7
ATOM      7  O   UNL     1       1.917  -2.855  -0.101  1.00  0.00    -0.463 OA
BRANCH   7   8
ATOM      8  C   UNL     1       1.261  -2.833  -1.286  1.00  0.00     0.313 C 
ATOM      9  O   UNL     1       1.089  -3.816  -2.000  1.00  0.00    -0.252 OA
BRANCH   8  10
ATOM     10  C   UNL     1       0.647  -1.459  -1.596  1.00  0.00     0.126 C 
ATOM     11  C   UNL     1       1.528  -0.290  -1.119  1.00  0.00     0.025 C 
BRANCH  10  12
ATOM     12  C   UNL     1      -0.847  -1.335  -1.247  1.00  0.00    -0.032 A 
ATOM     13  C   UNL     1      -1.486  -0.089  -1.262  1.00  0.00     0.005 A 
ATOM     14  C   UNL     1      -1.632  -2.473  -0.975  1.00  0.00     0.032 A 
ATOM     15  C   UNL     1      -2.877   0.024  -1.113  1.00  0.00     0.011 A 
ATOM     16  C   UNL     1      -3.012  -2.343  -0.711  1.00  0.00     0.058 A 
ATOM     17  C   UNL     1      -3.655  -1.128  -0.882  1.00  0.00     0.008 A 
ATOM     18  N   UNL     1      -3.956  -3.290  -0.286  1.00  0.00    -0.274 N 
ATOM     19  C   UNL     1      -5.051  -1.388  -0.823  1.00  0.00     0.009 A 
ATOM     20  C   UNL     1      -5.231  -2.710  -0.384  1.00  0.00     0.057 A 
ATOM     21  C   UNL     1      -6.175  -0.580  -1.098  1.00  0.00     0.031 A 
ATOM     22  C   UNL     1      -6.521  -3.175  -0.056  1.00  0.00     0.029 A 
ATOM     23  C   UNL     1      -7.451  -1.081  -0.868  1.00  0.00     0.041 A 
ATOM     24  C   UNL     1      -7.623  -2.345  -0.319  1.00  0.00     0.023 A 
ATOM     25  Cl  UNL     1      -8.822  -0.113  -1.250  1.00  0.00    -0.084 Cl
BRANCH  18  26
ATOM     26  C   UNL     1      -3.591  -4.567   0.222  1.00  0.00     0.284 C 
ATOM     27  O   UNL     1      -2.511  -4.604   0.808  1.00  0.00    -0.266 OA
BRANCH  26  28
ATOM     28  C   UNL     1      -4.350  -5.806   0.069  1.00  0.00     0.167 A 
ATOM     29  C   UNL     1      -5.287  -6.156  -0.878  1.00  0.00     0.231 A 
ATOM     30  N   UNL     1      -4.068  -6.932   0.836  1.00  0.00    -0.211 NA
ATOM     31  O   UNL     1      -5.589  -7.480  -0.723  1.00  0.00    -0.451 OA
ATOM     32  C   UNL     1      -4.800  -7.881   0.308  1.00  0.00     0.308 A 
ENDBRANCH  26  28
ENDBRANCH  18  26
ENDBRANCH  10  12
ENDBRANCH   8  10
ENDBRANCH   7   8
ENDBRANCH   6   7
ENDBRANCH   5   6
ENDBRANCH   4   5
ENDBRANCH   3   4
ENDBRANCH   2   3
ENDBRANCH   1   2
BRANCH   1  33
ATOM     33  C   UNL     1       2.748  -1.899   3.344  1.00  0.00     0.188 C 
BRANCH  33  34
ATOM     34  C   UNL     1       2.044  -2.453   4.606  1.00  0.00     0.188 C 
BRANCH  34  35
ATOM     35  O   UNL     1       0.710  -2.015   4.804  1.00  0.00    -0.376 OA
BRANCH  35  36
ATOM     36  C   UNL     1       0.491  -0.945   5.708  1.00  0.00     0.202 C 
BRANCH  36  37
ATOM     37  C   UNL     1       1.166   0.399   5.394  1.00  0.00     0.261 C 
BRANCH  37  38
ATOM     38  O   UNL     1       2.600   0.385   5.314  1.00  0.00    -0.460 OA
BRANCH  38  39
ATOM     39  C   UNL     1       3.289  -0.028   6.397  1.00  0.00     0.338 C 
ATOM     40  O   UNL     1       2.831  -0.352   7.484  1.00  0.00    -0.246 OA
BRANCH  39  41
ATOM     41  C   UNL     1       4.695  -0.218   5.991  1.00  0.00     0.060 A 
ATOM     42  C   UNL     1       5.266  -1.494   6.085  1.00  0.00     0.016 A 
ATOM     43  C   UNL     1       5.442   0.860   5.511  1.00  0.00     0.016 A 
ATOM     44  C   UNL     1       6.603  -1.688   5.737  1.00  0.00     0.010 A 
ATOM     45  C   UNL     1       6.787   0.668   5.185  1.00  0.00     0.010 A 
ATOM     46  C   UNL     1       7.382  -0.597   5.334  1.00  0.00    -0.014 A 
BRANCH  46  47
ATOM     47  C   UNL     1       8.857  -0.734   5.269  1.00  0.00     0.031 A 
ATOM     48  C   UNL     1       9.669  -0.239   6.435  1.00  0.00     0.074 A 
ATOM     49  C   UNL     1       9.466  -1.285   4.205  1.00  0.00     0.049 A 
ATOM     50  N   UNL     1      10.966  -0.202   6.588  1.00  0.00    -0.248 NA
ATOM     51  C   UNL     1       8.912   0.290   7.583  1.00  0.00     0.031 C 
ATOM     52  C   UNL     1       8.790  -1.814   3.023  1.00  0.00     0.029 A 
ATOM     53  N   UNL     1      10.802  -1.463   3.940  1.00  0.00    -0.354 N 
ATOM     54  C   UNL     1      11.183   0.381   7.831  1.00  0.00     0.074 A 
ATOM     55  C   UNL     1       9.885   0.694   8.386  1.00  0.00     0.031 C 
ATOM     56  C   UNL     1       9.718  -2.227   2.141  1.00  0.00     0.029 A 
ATOM     57  C   UNL     1      11.049  -1.963   2.684  1.00  0.00     0.049 A 
ATOM     58  H   UNL     1      11.513  -1.253   4.587  1.00  0.00     0.167 HD
ATOM     59  C   UNL     1      12.356   0.623   8.461  1.00  0.00     0.034 A 
ATOM     60  C   UNL     1      12.217  -2.153   2.036  1.00  0.00     0.034 A 
ATOM     61  C   UNL     1      13.645   0.305   7.910  1.00  0.00     0.049 A 
ATOM     62  C   UNL     1      13.512  -1.838   2.742  1.00  0.00     0.074 A 
ATOM     63  C   UNL     1      14.892   0.476   8.485  1.00  0.00     0.029 A 
ATOM     64  N   UNL     1      13.856  -0.232   6.649  1.00  0.00    -0.354 N 
ATOM     65  N   UNL     1      13.703  -1.383   3.957  1.00  0.00    -0.248 NA
ATOM     66  C   UNL     1      14.755  -2.095   1.998  1.00  0.00     0.031 C 
ATOM     67  C   UNL     1      15.858   0.081   7.555  1.00  0.00     0.029 A 
ATOM     68  C   UNL     1      15.212  -0.384   6.420  1.00  0.00     0.049 A 
ATOM     69  H   UNL     1      13.145  -0.470   6.011  1.00  0.00     0.167 HD
ATOM     70  C   UNL     1      15.083  -1.336   4.136  1.00  0.00     0.074 A 
ATOM     71  C   UNL     1      15.678  -1.825   2.911  1.00  0.00     0.031 C 
ATOM     72  C   UNL     1      15.792  -0.917   5.214  1.00  0.00     0.034 A 
BRANCH  59  73
ATOM     73  C   UNL     1      12.296   1.260   9.825  1.00  0.00     0.023 A 
ATOM     74  C   UNL     1      11.813   0.522  10.925  1.00  0.00     0.012 A 
ATOM     75  C   UNL     1      12.756   2.576  10.024  1.00  0.00     0.148 A 
ATOM     76  C   UNL     1      11.752   1.097  12.194  1.00  0.00     0.002 A 
ATOM     77  C   UNL     1      12.739   3.125  11.300  1.00  0.00     0.091 A 
ATOM     78  F   UNL     1      13.190   3.269   8.962  1.00  0.00    -0.205 F 
ATOM     79  C   UNL     1      12.225   2.393  12.383  1.00  0.00     0.022 A 
BRANCH  77  80
ATOM     80  S   UNL     1      13.400   4.755  11.662  1.00  0.00     0.127 S 
ATOM     81  O   UNL     1      12.185   5.500  11.989  1.00  0.00    -0.237 OA
ATOM     82  O   UNL     1      14.274   4.484  12.804  1.00  0.00    -0.237 OA
ATOM     83  O   UNL     1      14.091   5.188  10.456  1.00  0.00    -0.744 OA
ENDBRANCH  77  80
ENDBRANCH  59  73
BRANCH  60  84
ATOM     84  C   UNL     1      12.219  -2.679   0.641  1.00  0.00     0.023 A 
ATOM     85  C   UNL     1      12.727  -3.965   0.378  1.00  0.00     0.012 A 
ATOM     86  C   UNL     1      11.713  -1.909  -0.424  1.00  0.00     0.148 A 
ATOM     87  C   UNL     1      12.762  -4.463  -0.926  1.00  0.00     0.002 A 
ATOM     88  C   UNL     1      11.697  -2.433  -1.711  1.00  0.00     0.091 A 
ATOM     89  F   UNL     1      11.248  -0.681  -0.155  1.00  0.00    -0.205 F 
ATOM     90  C   UNL     1      12.238  -3.702  -1.968  1.00  0.00     0.022 A 
BRANCH  88  91
ATOM     91  S   UNL     1      10.931  -1.578  -3.092  1.00  0.00     0.127 S 
ATOM     92  O   UNL     1      12.085  -1.277  -3.936  1.00  0.00    -0.237 OA
ATOM     93  O   UNL     1      10.033  -2.606  -3.619  1.00  0.00    -0.237 OA
ATOM     94  O   UNL     1      10.254  -0.423  -2.518  1.00  0.00    -0.744 OA
ENDBRANCH  88  91
ENDBRANCH  60  84
BRANCH  72  95
ATOM     95  C   UNL     1      17.296  -1.015   5.149  1.00  0.00     0.023 A 
ATOM     96  C   UNL     1      18.028  -0.146   4.316  1.00  0.00     0.012 A 
ATOM     97  C   UNL     1      17.987  -1.922   5.978  1.00  0.00     0.148 A 
ATOM     98  C   UNL     1      19.422  -0.204   4.281  1.00  0.00     0.002 A 
ATOM     99  C   UNL     1      19.377  -1.937   5.978  1.00  0.00     0.091 A 
ATOM    100  F   UNL     1      17.273  -2.751   6.753  1.00  0.00    -0.205 F 
ATOM    101  C   UNL     1      20.095  -1.090   5.120  1.00  0.00     0.022 A 
BRANCH  99 102
ATOM    102  S   UNL     1      20.331  -2.972   7.095  1.00  0.00     0.127 S 
ATOM    103  O   UNL     1      20.914  -3.945   6.173  1.00  0.00    -0.237 OA
ATOM    104  O   UNL     1      21.285  -2.018   7.659  1.00  0.00    -0.237 OA
ATOM    105  O   UNL     1      19.379  -3.516   8.054  1.00  0.00    -0.744 OA
ENDBRANCH  99 102
ENDBRANCH  72  95
ENDBRANCH  46  47
ENDBRANCH  39  41
ENDBRANCH  38  39
ENDBRANCH  37  38
ENDBRANCH  36  37
ENDBRANCH  35  36
ENDBRANCH  34  35
ENDBRANCH  33  34
ENDBRANCH   1  33
TORSDOF 26
