REMARK SMILES CCC[C@H](NC(=O)Cn1cccc1C(=O)OCCOCCOCCOCCOC(=O)c1ccc(-c2c3nc(c(-c4cccc(S(=O)(=O)[O-])c4F)c4ccc([nH]4)c(-c4cccc(S(=O)(=O)[O-])c4F)c4nc(c(-c5cccc(S(=O)(=O)[O-])c5F)c5ccc2[nH]5)C=C4)C=C3)cc1)c1cccs1
REMARK SMILES IDX 21 1 20 2 19 3 18 4 17 5 16 6 14 7 15 8 13 9 9 10 10 11
REMARK SMILES IDX 11 12 12 13 8 14 6 15 5 16 7 18 4 19 3 20 2 21 1 22 94 23
REMARK SMILES IDX 95 24 98 25 96 26 97 27 22 28 23 29 24 30 25 31 26 32 27 33
REMARK SMILES IDX 28 34 29 35 30 36 31 37 32 38 93 39 33 40 92 41 34 42 35 43
REMARK SMILES IDX 36 44 86 45 37 46 91 47 85 48 87 49 38 50 90 51 84 52 83 53
REMARK SMILES IDX 39 55 71 56 51 57 70 58 52 59 55 60 69 61 88 62 53 63 54 64
REMARK SMILES IDX 68 66 89 67 56 68 40 69 41 70 49 71 42 72 44 73 50 74 43 75
REMARK SMILES IDX 45 76 46 77 47 78 48 79 72 80 73 81 81 82 74 83 76 84 82 85
REMARK SMILES IDX 75 86 77 87 78 88 79 89 80 90 57 91 58 92 66 93 59 94 61 95
REMARK SMILES IDX 67 96 60 97 62 98 63 99 64 100 65 101
REMARK H PARENT 5 17 87 54 55 65
REMARK Flexibility Score: inf
ROOT
ATOM      1  C   UNL     1       4.178  -1.006  -7.800  1.00  0.00     0.188 C 
ENDROOT
BRANCH   1   2
ATOM      2  C   UNL     1       3.688  -2.397  -8.224  1.00  0.00     0.188 C 
BRANCH   2   3
ATOM      3  O   UNL     1       2.568  -2.306  -9.096  1.00  0.00    -0.376 OA
BRANCH   3   4
ATOM      4  C   UNL     1       1.336  -2.776  -8.592  1.00  0.00     0.202 C 
BRANCH   4   5
ATOM      5  C   UNL     1       0.675  -1.847  -7.577  1.00  0.00     0.261 C 
BRANCH   5   6
ATOM      6  O   UNL     1       1.488  -1.453  -6.460  1.00  0.00    -0.459 OA
BRANCH   6   7
ATOM      7  C   UNL     1       1.844  -2.408  -5.563  1.00  0.00     0.355 C 
ATOM      8  O   UNL     1       1.498  -3.577  -5.637  1.00  0.00    -0.244 OA
BRANCH   7   9
ATOM      9  C   UNL     1       2.834  -1.885  -4.631  1.00  0.00     0.128 A 
ATOM     10  N   UNL     1       3.013  -0.591  -4.157  1.00  0.00    -0.333 N 
ATOM     11  C   UNL     1       4.150  -0.541  -3.379  1.00  0.00     0.087 A 
ATOM     12  C   UNL     1       4.687  -1.801  -3.303  1.00  0.00     0.020 A 
ATOM     13  C   UNL     1       3.857  -2.644  -4.069  1.00  0.00     0.035 A 
BRANCH  10  14
ATOM     14  C   UNL     1       2.245   0.600  -4.488  1.00  0.00     0.222 C 
BRANCH  14  15
ATOM     15  C   UNL     1       1.818   1.422  -3.293  1.00  0.00     0.240 C 
ATOM     16  N   UNL     1       0.638   1.219  -2.645  1.00  0.00    -0.347 N 
ATOM     17  H   UNL     1       0.260   2.033  -2.239  1.00  0.00     0.164 HD
ATOM     18  O   UNL     1       2.504   2.367  -2.892  1.00  0.00    -0.273 OA
BRANCH  16  19
ATOM     19  C   UNL     1      -0.175   0.018  -2.438  1.00  0.00     0.122 C 
BRANCH  19  20
ATOM     20  C   UNL     1      -1.367   0.369  -1.501  1.00  0.00     0.030 C 
BRANCH  20  21
ATOM     21  C   UNL     1      -1.668  -0.707  -0.452  1.00  0.00    -0.001 C 
ATOM     22  C   UNL     1      -1.060  -0.351   0.894  1.00  0.00     0.004 C 
ENDBRANCH  20  21
ENDBRANCH  19  20
BRANCH  19  23
ATOM     23  C   UNL     1      -0.768  -0.522  -3.713  1.00  0.00     0.027 A 
ATOM     24  C   UNL     1      -1.227   0.155  -4.828  1.00  0.00     0.017 A 
ATOM     25  S   UNL     1      -1.137  -2.200  -3.812  1.00  0.00    -0.147 S 
ATOM     26  C   UNL     1      -1.896  -0.701  -5.747  1.00  0.00     0.012 A 
ATOM     27  C   UNL     1      -1.929  -2.005  -5.309  1.00  0.00     0.065 A 
ENDBRANCH  19  23
ENDBRANCH  16  19
ENDBRANCH  14  15
ENDBRANCH  10  14
ENDBRANCH   7   9
ENDBRANCH   6   7
ENDBRANCH   5   6
ENDBRANCH   4   5
ENDBRANCH   3   4
ENDBRANCH   2   3
ENDBRANCH   1   2
BRANCH   1  28
ATOM     28  O   UNL     1       4.514  -0.158  -8.889  1.00  0.00    -0.377 OA
BRANCH  28  29
ATOM     29  C   UNL     1       3.412   0.293  -9.666  1.00  0.00     0.188 C 
BRANCH  29  30
ATOM     30  C   UNL     1       3.231  -0.384 -11.044  1.00  0.00     0.188 C 
BRANCH  30  31
ATOM     31  O   UNL     1       4.202  -1.226 -11.666  1.00  0.00    -0.376 OA
BRANCH  31  32
ATOM     32  C   UNL     1       5.493  -1.451 -11.124  1.00  0.00     0.202 C 
BRANCH  32  33
ATOM     33  C   UNL     1       6.509  -0.311 -11.068  1.00  0.00     0.261 C 
BRANCH  33  34
ATOM     34  O   UNL     1       5.912   0.964 -11.011  1.00  0.00    -0.460 OA
BRANCH  34  35
ATOM     35  C   UNL     1       5.410   1.333 -12.204  1.00  0.00     0.338 C 
ATOM     36  O   UNL     1       5.391   0.703 -13.248  1.00  0.00    -0.246 OA
BRANCH  35  37
ATOM     37  C   UNL     1       4.959   2.713 -12.099  1.00  0.00     0.060 A 
ATOM     38  C   UNL     1       4.071   3.117 -13.101  1.00  0.00     0.016 A 
ATOM     39  C   UNL     1       5.857   3.571 -11.466  1.00  0.00     0.016 A 
ATOM     40  C   UNL     1       4.305   4.329 -13.695  1.00  0.00     0.010 A 
ATOM     41  C   UNL     1       6.148   4.734 -12.118  1.00  0.00     0.010 A 
ATOM     42  C   UNL     1       5.411   5.066 -13.260  1.00  0.00    -0.014 A 
BRANCH  42  43
ATOM     43  C   UNL     1       5.786   6.263 -14.000  1.00  0.00     0.031 A 
ATOM     44  C   UNL     1       5.074   7.474 -13.431  1.00  0.00     0.074 A 
ATOM     45  C   UNL     1       6.646   6.063 -15.042  1.00  0.00     0.049 A 
ATOM     46  N   UNL     1       4.675   8.545 -14.040  1.00  0.00    -0.248 NA
ATOM     47  C   UNL     1       4.593   7.439 -12.019  1.00  0.00     0.031 C 
ATOM     48  C   UNL     1       7.205   4.747 -15.432  1.00  0.00     0.029 A 
ATOM     49  N   UNL     1       7.225   6.892 -15.978  1.00  0.00    -0.354 N 
ATOM     50  C   UNL     1       4.146   9.383 -13.043  1.00  0.00     0.074 A 
ATOM     51  C   UNL     1       3.934   8.586 -11.880  1.00  0.00     0.031 C 
ATOM     52  C   UNL     1       7.965   4.857 -16.542  1.00  0.00     0.029 A 
ATOM     53  C   UNL     1       8.022   6.247 -16.953  1.00  0.00     0.049 A 
ATOM     54  H   UNL     1       7.092   7.868 -15.969  1.00  0.00     0.167 HD
ATOM     55  C   UNL     1       4.103  10.735 -13.170  1.00  0.00     0.034 A 
ATOM     56  C   UNL     1       8.665   6.787 -18.035  1.00  0.00     0.034 A 
ATOM     57  C   UNL     1       4.682  11.123 -14.415  1.00  0.00     0.049 A 
ATOM     58  C   UNL     1       8.526   8.247 -17.906  1.00  0.00     0.074 A 
ATOM     59  C   UNL     1       4.237  11.059 -15.708  1.00  0.00     0.029 A 
ATOM     60  N   UNL     1       6.047  11.296 -14.405  1.00  0.00    -0.354 N 
ATOM     61  N   UNL     1       9.145   8.974 -17.021  1.00  0.00    -0.248 NA
ATOM     62  C   UNL     1       7.530   8.945 -18.729  1.00  0.00     0.031 C 
ATOM     63  C   UNL     1       5.408  10.867 -16.469  1.00  0.00     0.029 A 
ATOM     64  C   UNL     1       6.533  10.935 -15.638  1.00  0.00     0.049 A 
ATOM     65  H   UNL     1       6.583  11.621 -13.645  1.00  0.00     0.167 HD
ATOM     66  C   UNL     1       8.345  10.090 -16.948  1.00  0.00     0.074 A 
ATOM     67  C   UNL     1       7.630  10.160 -18.200  1.00  0.00     0.031 C 
ATOM     68  C   UNL     1       7.920  10.534 -15.735  1.00  0.00     0.034 A 
BRANCH  55  69
ATOM     69  C   UNL     1       3.804  11.816 -12.177  1.00  0.00     0.023 A 
ATOM     70  C   UNL     1       3.394  13.051 -12.741  1.00  0.00     0.012 A 
ATOM     71  C   UNL     1       4.129  11.797 -10.810  1.00  0.00     0.148 A 
ATOM     72  C   UNL     1       3.399  14.236 -12.011  1.00  0.00     0.002 A 
ATOM     73  C   UNL     1       4.076  12.977 -10.068  1.00  0.00     0.091 A 
ATOM     74  F   UNL     1       4.584  10.672 -10.247  1.00  0.00    -0.205 F 
ATOM     75  C   UNL     1       3.747  14.199 -10.672  1.00  0.00     0.022 A 
BRANCH  73  76
ATOM     76  S   UNL     1       4.413  13.009  -8.303  1.00  0.00     0.127 S 
ATOM     77  O   UNL     1       5.816  13.409  -8.265  1.00  0.00    -0.237 OA
ATOM     78  O   UNL     1       3.478  14.033  -7.828  1.00  0.00    -0.237 OA
ATOM     79  O   UNL     1       4.097  11.667  -7.832  1.00  0.00    -0.744 OA
ENDBRANCH  73  76
ENDBRANCH  55  69
BRANCH  56  80
ATOM     80  C   UNL     1       9.335   6.240 -19.275  1.00  0.00     0.023 A 
ATOM     81  C   UNL     1       9.766   4.913 -19.416  1.00  0.00     0.012 A 
ATOM     82  C   UNL     1       9.495   7.065 -20.428  1.00  0.00     0.148 A 
ATOM     83  C   UNL     1      10.220   4.411 -20.652  1.00  0.00     0.002 A 
ATOM     84  C   UNL     1       9.840   6.548 -21.672  1.00  0.00     0.091 A 
ATOM     85  F   UNL     1       9.337   8.387 -20.325  1.00  0.00    -0.205 F 
ATOM     86  C   UNL     1      10.216   5.214 -21.789  1.00  0.00     0.022 A 
BRANCH  84  87
ATOM     87  S   UNL     1       9.688   7.523 -23.182  1.00  0.00     0.127 S 
ATOM     88  O   UNL     1      11.001   7.350 -23.799  1.00  0.00    -0.237 OA
ATOM     89  O   UNL     1       8.592   6.833 -23.863  1.00  0.00    -0.237 OA
ATOM     90  O   UNL     1       9.380   8.885 -22.764  1.00  0.00    -0.744 OA
ENDBRANCH  84  87
ENDBRANCH  56  80
BRANCH  68  91
ATOM     91  C   UNL     1       8.871  10.212 -14.586  1.00  0.00     0.023 A 
ATOM     92  C   UNL     1      10.171  10.754 -14.659  1.00  0.00     0.012 A 
ATOM     93  C   UNL     1       8.598   9.324 -13.521  1.00  0.00     0.148 A 
ATOM     94  C   UNL     1      11.163  10.414 -13.734  1.00  0.00     0.002 A 
ATOM     95  C   UNL     1       9.592   8.978 -12.598  1.00  0.00     0.091 A 
ATOM     96  F   UNL     1       7.374   8.808 -13.421  1.00  0.00    -0.205 F 
ATOM     97  C   UNL     1      10.876   9.526 -12.706  1.00  0.00     0.022 A 
BRANCH  95  98
ATOM     98  S   UNL     1       9.345   7.815 -11.243  1.00  0.00     0.127 S 
ATOM     99  O   UNL     1      10.244   6.717 -11.602  1.00  0.00    -0.237 OA
ATOM    100  O   UNL     1       9.784   8.591 -10.084  1.00  0.00    -0.237 OA
ATOM    101  O   UNL     1       7.931   7.470 -11.253  1.00  0.00    -0.744 OA
ENDBRANCH  95  98
ENDBRANCH  68  91
ENDBRANCH  42  43
ENDBRANCH  35  37
ENDBRANCH  34  35
ENDBRANCH  33  34
ENDBRANCH  32  33
ENDBRANCH  31  32
ENDBRANCH  30  31
ENDBRANCH  29  30
ENDBRANCH  28  29
ENDBRANCH   1  28
TORSDOF 29
