REMARK SMILES O=C(Cc1csc(Sc2ncnc3c2CCCC3)n1)OCCOCCOCCOCCOC(=O)c1ccc(-c2c3nc(c(-c4cccc(S(=O)(=O)[O-])c4F)c4ccc([nH]4)c(-c4cccc(S(=O)(=O)[O-])c4F)c4nc(c(-c5cccc(S(=O)(=O)[O-])c5F)c5ccc2[nH]5)C=C4)C=C3)cc1
REMARK SMILES IDX 26 1 25 2 24 3 23 4 22 5 21 6 20 7 2 8 1 9 3 10 4 11 5 12
REMARK SMILES IDX 19 13 6 14 7 15 8 16 9 17 10 18 14 19 11 20 13 21 15 22
REMARK SMILES IDX 12 23 18 24 16 25 17 26 27 27 28 28 29 29 30 30 31 31 32 32
REMARK SMILES IDX 33 33 34 34 35 35 36 36 97 37 37 38 96 39 38 40 39 41 40 42
REMARK SMILES IDX 90 43 41 44 95 45 89 46 91 47 42 48 94 49 88 50 87 51 43 53
REMARK SMILES IDX 75 54 55 55 74 56 56 57 59 58 73 59 92 60 57 61 58 62 72 64
REMARK SMILES IDX 93 65 60 66 44 67 45 68 53 69 46 70 48 71 54 72 47 73 49 74
REMARK SMILES IDX 50 75 51 76 52 77 76 78 77 79 85 80 78 81 80 82 86 83 79 84
REMARK SMILES IDX 81 85 82 86 83 87 84 88 61 89 62 90 70 91 63 92 65 93 71 94
REMARK SMILES IDX 64 95 66 96 67 97 68 98 69 99
REMARK H PARENT 91 52 59 63
REMARK Flexibility Score: inf
ROOT
ATOM      1  O   UNL     1       2.684   3.759  -0.195  1.00  0.00    -0.377 OA
ENDROOT
BRANCH   1   2
ATOM      2  C   UNL     1       1.965   2.544  -0.046  1.00  0.00     0.188 C 
BRANCH   2   3
ATOM      3  C   UNL     1       2.543   1.508   0.926  1.00  0.00     0.188 C 
BRANCH   3   4
ATOM      4  O   UNL     1       3.946   1.356   0.936  1.00  0.00    -0.376 OA
BRANCH   4   5
ATOM      5  C   UNL     1       4.696   0.462   0.137  1.00  0.00     0.202 C 
BRANCH   5   6
ATOM      6  C   UNL     1       4.108  -0.257  -1.074  1.00  0.00     0.261 C 
BRANCH   6   7
ATOM      7  O   UNL     1       2.778  -0.800  -0.976  1.00  0.00    -0.463 OA
BRANCH   7   8
ATOM      8  C   UNL     1       2.295  -1.660  -0.059  1.00  0.00     0.311 C 
ATOM      9  O   UNL     1       1.156  -2.111  -0.193  1.00  0.00    -0.252 OA
BRANCH   8  10
ATOM     10  C   UNL     1       3.093  -1.980   1.173  1.00  0.00     0.179 C 
BRANCH  10  11
ATOM     11  C   UNL     1       4.197  -2.933   0.903  1.00  0.00     0.064 A 
ATOM     12  C   UNL     1       4.094  -4.308   0.924  1.00  0.00     0.092 A 
ATOM     13  N   UNL     1       5.471  -2.454   0.623  1.00  0.00    -0.234 NA
ATOM     14  S   UNL     1       5.616  -5.012   0.597  1.00  0.00    -0.116 S 
ATOM     15  C   UNL     1       6.313  -3.443   0.437  1.00  0.00     0.156 A 
BRANCH  15  16
ATOM     16  S   UNL     1       8.010  -3.266   0.065  1.00  0.00    -0.039 SA
BRANCH  16  17
ATOM     17  C   UNL     1       8.205  -1.519  -0.290  1.00  0.00     0.110 A 
ATOM     18  N   UNL     1       8.264  -0.712   0.791  1.00  0.00    -0.229 NA
ATOM     19  C   UNL     1       8.560  -1.086  -1.571  1.00  0.00     0.006 A 
ATOM     20  C   UNL     1       8.697   0.536   0.578  1.00  0.00     0.223 A 
ATOM     21  C   UNL     1       9.075   0.206  -1.652  1.00  0.00     0.048 A 
ATOM     22  C   UNL     1       8.499  -1.976  -2.784  1.00  0.00     0.040 C 
ATOM     23  N   UNL     1       9.122   1.034  -0.589  1.00  0.00    -0.241 NA
ATOM     24  C   UNL     1       9.641   0.763  -2.938  1.00  0.00     0.056 C 
ATOM     25  C   UNL     1       8.723  -1.236  -4.105  1.00  0.00     0.005 C 
ATOM     26  C   UNL     1       9.923  -0.308  -3.988  1.00  0.00     0.007 C 
ENDBRANCH  16  17
ENDBRANCH  15  16
ENDBRANCH  10  11
ENDBRANCH   8  10
ENDBRANCH   7   8
ENDBRANCH   6   7
ENDBRANCH   5   6
ENDBRANCH   4   5
ENDBRANCH   3   4
ENDBRANCH   2   3
ENDBRANCH   1   2
BRANCH   1  27
ATOM     27  C   UNL     1       4.042   3.614  -0.575  1.00  0.00     0.188 C 
BRANCH  27  28
ATOM     28  C   UNL     1       5.054   3.893   0.564  1.00  0.00     0.188 C 
BRANCH  28  29
ATOM     29  O   UNL     1       4.649   4.010   1.920  1.00  0.00    -0.376 OA
BRANCH  29  30
ATOM     30  C   UNL     1       3.479   4.732   2.265  1.00  0.00     0.202 C 
BRANCH  30  31
ATOM     31  C   UNL     1       3.139   6.114   1.671  1.00  0.00     0.261 C 
BRANCH  31  32
ATOM     32  O   UNL     1       3.508   6.351   0.308  1.00  0.00    -0.460 OA
BRANCH  32  33
ATOM     33  C   UNL     1       4.670   7.013   0.114  1.00  0.00     0.338 C 
ATOM     34  O   UNL     1       5.408   7.476   0.971  1.00  0.00    -0.246 OA
BRANCH  33  35
ATOM     35  C   UNL     1       5.042   6.887  -1.313  1.00  0.00     0.060 A 
ATOM     36  C   UNL     1       6.280   6.303  -1.627  1.00  0.00     0.016 A 
ATOM     37  C   UNL     1       4.175   7.297  -2.328  1.00  0.00     0.016 A 
ATOM     38  C   UNL     1       6.664   6.142  -2.954  1.00  0.00     0.010 A 
ATOM     39  C   UNL     1       4.586   7.189  -3.659  1.00  0.00     0.010 A 
ATOM     40  C   UNL     1       5.846   6.646  -3.971  1.00  0.00    -0.014 A 
BRANCH  40  41
ATOM     41  C   UNL     1       6.442   6.885  -5.304  1.00  0.00     0.031 A 
ATOM     42  C   UNL     1       7.075   8.232  -5.538  1.00  0.00     0.074 A 
ATOM     43  C   UNL     1       6.462   5.939  -6.258  1.00  0.00     0.049 A 
ATOM     44  N   UNL     1       7.616   8.716  -6.622  1.00  0.00    -0.248 NA
ATOM     45  C   UNL     1       7.106   9.154  -4.386  1.00  0.00     0.031 C 
ATOM     46  C   UNL     1       5.938   4.582  -6.122  1.00  0.00     0.029 A 
ATOM     47  N   UNL     1       6.940   5.989  -7.544  1.00  0.00    -0.354 N 
ATOM     48  C   UNL     1       8.039   9.998  -6.289  1.00  0.00     0.074 A 
ATOM     49  C   UNL     1       7.677  10.227  -4.910  1.00  0.00     0.031 C 
ATOM     50  C   UNL     1       6.104   3.933  -7.289  1.00  0.00     0.029 A 
ATOM     51  C   UNL     1       6.716   4.838  -8.261  1.00  0.00     0.049 A 
ATOM     52  H   UNL     1       7.399   6.776  -7.917  1.00  0.00     0.167 HD
ATOM     53  C   UNL     1       8.691  10.897  -7.058  1.00  0.00     0.034 A 
ATOM     54  C   UNL     1       6.962   4.564  -9.559  1.00  0.00     0.034 A 
ATOM     55  C   UNL     1       9.054  10.663  -8.427  1.00  0.00     0.049 A 
ATOM     56  C   UNL     1       7.607   5.626 -10.419  1.00  0.00     0.074 A 
ATOM     57  C   UNL     1       9.702  11.518  -9.299  1.00  0.00     0.029 A 
ATOM     58  N   UNL     1       8.800   9.492  -9.122  1.00  0.00    -0.354 N 
ATOM     59  N   UNL     1       8.055   6.811 -10.079  1.00  0.00    -0.248 NA
ATOM     60  C   UNL     1       7.804   5.300 -11.840  1.00  0.00     0.031 C 
ATOM     61  C   UNL     1       9.821  10.870 -10.531  1.00  0.00     0.029 A 
ATOM     62  C   UNL     1       9.278   9.600 -10.415  1.00  0.00     0.049 A 
ATOM     63  H   UNL     1       8.348   8.701  -8.750  1.00  0.00     0.167 HD
ATOM     64  C   UNL     1       8.622   7.353 -11.230  1.00  0.00     0.074 A 
ATOM     65  C   UNL     1       8.484   6.354 -12.270  1.00  0.00     0.031 C 
ATOM     66  C   UNL     1       9.188   8.571 -11.418  1.00  0.00     0.034 A 
BRANCH  53  67
ATOM     67  C   UNL     1       9.092  12.204  -6.429  1.00  0.00     0.023 A 
ATOM     68  C   UNL     1      10.160  12.228  -5.509  1.00  0.00     0.012 A 
ATOM     69  C   UNL     1       8.483  13.412  -6.817  1.00  0.00     0.148 A 
ATOM     70  C   UNL     1      10.609  13.435  -4.977  1.00  0.00     0.002 A 
ATOM     71  C   UNL     1       8.968  14.615  -6.319  1.00  0.00     0.091 A 
ATOM     72  F   UNL     1       7.453  13.361  -7.674  1.00  0.00    -0.205 F 
ATOM     73  C   UNL     1      10.024  14.628  -5.393  1.00  0.00     0.022 A 
BRANCH  71  74
ATOM     74  S   UNL     1       8.344  16.212  -6.855  1.00  0.00     0.127 S 
ATOM     75  O   UNL     1       7.802  16.751  -5.608  1.00  0.00    -0.237 OA
ATOM     76  O   UNL     1       9.562  16.871  -7.325  1.00  0.00    -0.237 OA
ATOM     77  O   UNL     1       7.356  15.935  -7.888  1.00  0.00    -0.744 OA
ENDBRANCH  71  74
ENDBRANCH  53  67
BRANCH  54  78
ATOM     78  C   UNL     1       6.640   3.223 -10.129  1.00  0.00     0.023 A 
ATOM     79  C   UNL     1       7.689   2.397 -10.582  1.00  0.00     0.012 A 
ATOM     80  C   UNL     1       5.314   2.763 -10.242  1.00  0.00     0.148 A 
ATOM     81  C   UNL     1       7.423   1.160 -11.171  1.00  0.00     0.002 A 
ATOM     82  C   UNL     1       5.059   1.503 -10.774  1.00  0.00     0.091 A 
ATOM     83  F   UNL     1       4.325   3.566  -9.827  1.00  0.00    -0.205 F 
ATOM     84  C   UNL     1       6.110   0.709 -11.258  1.00  0.00     0.022 A 
BRANCH  82  85
ATOM     85  S   UNL     1       3.415   0.779 -10.806  1.00  0.00     0.127 S 
ATOM     86  O   UNL     1       3.134   0.738 -12.239  1.00  0.00    -0.237 OA
ATOM     87  O   UNL     1       3.651  -0.524 -10.185  1.00  0.00    -0.237 OA
ATOM     88  O   UNL     1       2.575   1.675 -10.024  1.00  0.00    -0.744 OA
ENDBRANCH  82  85
ENDBRANCH  54  78
BRANCH  66  89
ATOM     89  C   UNL     1       9.737   8.894 -12.786  1.00  0.00     0.023 A 
ATOM     90  C   UNL     1       8.854   9.112 -13.861  1.00  0.00     0.012 A 
ATOM     91  C   UNL     1      11.121   9.080 -12.980  1.00  0.00     0.148 A 
ATOM     92  C   UNL     1       9.341   9.475 -15.116  1.00  0.00     0.002 A 
ATOM     93  C   UNL     1      11.594   9.498 -14.218  1.00  0.00     0.091 A 
ATOM     94  F   UNL     1      11.948   8.858 -11.947  1.00  0.00    -0.205 F 
ATOM     95  C   UNL     1      10.707   9.681 -15.291  1.00  0.00     0.022 A 
BRANCH  93  96
ATOM     96  S   UNL     1      13.322   9.896 -14.510  1.00  0.00     0.127 S 
ATOM     97  O   UNL     1      13.739   8.795 -15.376  1.00  0.00    -0.237 OA
ATOM     98  O   UNL     1      13.231  11.196 -15.177  1.00  0.00    -0.237 OA
ATOM     99  O   UNL     1      13.954   9.931 -13.198  1.00  0.00    -0.744 OA
ENDBRANCH  93  96
ENDBRANCH  66  89
ENDBRANCH  40  41
ENDBRANCH  33  35
ENDBRANCH  32  33
ENDBRANCH  31  32
ENDBRANCH  30  31
ENDBRANCH  29  30
ENDBRANCH  28  29
ENDBRANCH  27  28
ENDBRANCH   1  27
TORSDOF 26
