REMARK SMILES Cc1ccc(C)c(N2C(=O)S[C@H](CC(=O)Nc3ccc(C(=O)OCCOCCOCCOCCOC(=O)c4ccc(-c5c6nc(c(-c7cccc(S(=O)(=O)[O-])c7F)c7ccc([nH]7)c(-c7cccc(S(=O)(=O)[O-])c7F)c7nc(c(-c8cccc(S(=O)(=O)[O-])c8F)c8ccc5[nH]8)C=C7)C=C6)cc4)c(O)c3)C2=O)c1
REMARK SMILES IDX 28 1 27 2 26 3 25 4 24 5 23 6 21 7 22 8 20 9 17 10 18 11
REMARK SMILES IDX 103 12 19 13 101 14 16 15 14 16 15 17 13 19 12 20 8 21 9 22
REMARK SMILES IDX 104 23 10 24 11 25 105 26 7 27 1 28 2 29 3 30 106 31 4 32
REMARK SMILES IDX 5 33 6 34 102 35 29 37 30 38 31 39 32 40 33 41 34 42 35 43
REMARK SMILES IDX 36 44 37 45 38 46 39 47 100 48 40 49 99 50 41 51 42 52 43 53
REMARK SMILES IDX 93 54 44 55 98 56 92 57 94 58 45 59 97 60 91 61 90 62 46 64
REMARK SMILES IDX 78 65 58 66 77 67 59 68 62 69 76 70 95 71 60 72 61 73 75 75
REMARK SMILES IDX 96 76 63 77 47 78 48 79 56 80 49 81 51 82 57 83 50 84 52 85
REMARK SMILES IDX 53 86 54 87 55 88 79 89 80 90 88 91 81 92 83 93 89 94 82 95
REMARK SMILES IDX 84 96 85 97 86 98 87 99 64 100 65 101 73 102 66 103 68 104
REMARK SMILES IDX 74 105 67 106 69 107 70 108 71 109 72 110
REMARK H PARENT 16 18 102 36 94 63 62 74
REMARK Flexibility Score: inf
ROOT
ATOM      1  C   UNL     1       2.955   5.929  -0.487  1.00  0.00     0.188 C 
ENDROOT
BRANCH   1   2
ATOM      2  C   UNL     1       2.833   5.426  -1.954  1.00  0.00     0.188 C 
BRANCH   2   3
ATOM      3  O   UNL     1       3.869   5.890  -2.795  1.00  0.00    -0.376 OA
BRANCH   3   4
ATOM      4  C   UNL     1       3.619   6.262  -4.131  1.00  0.00     0.202 C 
BRANCH   4   5
ATOM      5  C   UNL     1       2.807   7.534  -4.387  1.00  0.00     0.261 C 
BRANCH   5   6
ATOM      6  O   UNL     1       2.192   8.087  -3.202  1.00  0.00    -0.460 OA
BRANCH   6   7
ATOM      7  C   UNL     1       0.887   7.742  -3.096  1.00  0.00     0.341 C 
ATOM      8  O   UNL     1       0.250   7.177  -3.967  1.00  0.00    -0.246 OA
BRANCH   7   9
ATOM      9  C   UNL     1       0.328   7.915  -1.738  1.00  0.00     0.101 A 
ATOM     10  C   UNL     1      -1.188   7.876   0.662  1.00  0.00     0.044 A 
ATOM     11  C   UNL     1      -0.484   6.796   0.250  1.00  0.00     0.027 A 
ATOM     12  C   UNL     1      -0.921   9.083  -0.023  1.00  0.00     0.073 A 
ATOM     13  C   UNL     1       0.066   6.770  -1.012  1.00  0.00     0.022 A 
ATOM     14  C   UNL     1      -0.073   9.107  -1.168  1.00  0.00     0.132 A 
BRANCH  10  15
ATOM     15  N   UNL     1      -2.245   7.679   1.583  1.00  0.00    -0.326 N 
ATOM     16  C   UNL     1      -2.761   6.527   2.179  1.00  0.00     0.226 C 
ATOM     17  O   UNL     1      -3.969   6.580   2.458  1.00  0.00    -0.275 OA
ATOM     18  H   UNL     1      -2.701   8.509   1.853  1.00  0.00     0.169 HD
BRANCH  16  19
ATOM     19  C   UNL     1      -1.923   5.281   2.660  1.00  0.00     0.125 C 
BRANCH  19  20
ATOM     20  C   UNL     1      -2.167   3.902   1.996  1.00  0.00     0.156 C 
ATOM     21  N   UNL     1      -1.231   1.751   1.284  1.00  0.00    -0.240 N 
ATOM     22  C   UNL     1      -1.238   2.410   0.101  1.00  0.00     0.293 C 
ATOM     23  C   UNL     1      -1.318   2.630   2.372  1.00  0.00     0.248 C 
ATOM     24  O   UNL     1      -0.659   2.052  -0.924  1.00  0.00    -0.261 OA
ATOM     25  S   UNL     1      -1.849   4.006   0.272  1.00  0.00    -0.050 SA
ATOM     26  O   UNL     1      -0.711   2.517   3.434  1.00  0.00    -0.273 OA
BRANCH  21  27
ATOM     27  C   UNL     1      -0.602   0.457   1.200  1.00  0.00     0.056 A 
ATOM     28  C   UNL     1       2.956  -0.896   0.578  1.00  0.00     0.044 C 
ATOM     29  C   UNL     1       1.465  -0.790   0.692  1.00  0.00    -0.049 A 
ATOM     30  C   UNL     1       0.713  -1.863   0.211  1.00  0.00     0.004 A 
ATOM     31  C   UNL     1       0.809   0.360   1.194  1.00  0.00     0.030 A 
ATOM     32  C   UNL     1      -0.668  -1.780   0.179  1.00  0.00     0.006 A 
ATOM     33  C   UNL     1      -1.329  -0.621   0.625  1.00  0.00    -0.027 A 
ATOM     34  C   UNL     1      -2.814  -0.601   0.386  1.00  0.00     0.046 C 
ENDBRANCH  21  27
ENDBRANCH  19  20
ENDBRANCH  16  19
ENDBRANCH  10  15
BRANCH  14  35
ATOM     35  O   UNL     1       0.308  10.307  -1.697  1.00  0.00    -0.507 OA
ATOM     36  H   UNL     1       0.866  10.331  -2.450  1.00  0.00     0.293 HD
ENDBRANCH  14  35
ENDBRANCH   7   9
ENDBRANCH   6   7
ENDBRANCH   5   6
ENDBRANCH   4   5
ENDBRANCH   3   4
ENDBRANCH   2   3
ENDBRANCH   1   2
BRANCH   1  37
ATOM     37  O   UNL     1       3.959   6.881  -0.155  1.00  0.00    -0.377 OA
BRANCH  37  38
ATOM     38  C   UNL     1       5.244   6.655  -0.713  1.00  0.00     0.188 C 
BRANCH  38  39
ATOM     39  C   UNL     1       5.844   5.250  -0.537  1.00  0.00     0.188 C 
BRANCH  39  40
ATOM     40  O   UNL     1       4.908   4.194  -0.682  1.00  0.00    -0.376 OA
BRANCH  40  41
ATOM     41  C   UNL     1       4.784   3.286   0.402  1.00  0.00     0.202 C 
BRANCH  41  42
ATOM     42  C   UNL     1       5.954   2.315   0.397  1.00  0.00     0.261 C 
BRANCH  42  43
ATOM     43  O   UNL     1       6.025   1.473  -0.788  1.00  0.00    -0.460 OA
BRANCH  43  44
ATOM     44  C   UNL     1       6.016   2.074  -2.019  1.00  0.00     0.338 C 
ATOM     45  O   UNL     1       7.018   2.523  -2.553  1.00  0.00    -0.246 OA
BRANCH  44  46
ATOM     46  C   UNL     1       4.631   2.087  -2.615  1.00  0.00     0.060 A 
ATOM     47  C   UNL     1       4.301   2.811  -3.757  1.00  0.00     0.016 A 
ATOM     48  C   UNL     1       3.586   1.472  -1.934  1.00  0.00     0.016 A 
ATOM     49  C   UNL     1       2.930   3.019  -4.088  1.00  0.00     0.010 A 
ATOM     50  C   UNL     1       2.242   1.784  -2.187  1.00  0.00     0.010 A 
ATOM     51  C   UNL     1       1.864   2.637  -3.231  1.00  0.00    -0.014 A 
BRANCH  51  52
ATOM     52  C   UNL     1       0.413   2.554  -3.657  1.00  0.00     0.031 A 
ATOM     53  C   UNL     1       0.458   1.641  -4.788  1.00  0.00     0.074 A 
ATOM     54  C   UNL     1      -0.798   3.168  -3.405  1.00  0.00     0.049 A 
ATOM     55  N   UNL     1       0.534   2.104  -5.999  1.00  0.00    -0.248 NA
ATOM     56  C   UNL     1       0.874   0.239  -4.659  1.00  0.00     0.031 C 
ATOM     57  C   UNL     1      -1.000   4.508  -2.920  1.00  0.00     0.029 A 
ATOM     58  N   UNL     1      -2.152   2.737  -3.457  1.00  0.00    -0.354 N 
ATOM     59  C   UNL     1       0.379   0.966  -6.743  1.00  0.00     0.074 A 
ATOM     60  C   UNL     1       0.945  -0.102  -5.950  1.00  0.00     0.031 C 
ATOM     61  C   UNL     1      -2.267   4.726  -2.504  1.00  0.00     0.029 A 
ATOM     62  C   UNL     1      -3.039   3.479  -2.595  1.00  0.00     0.049 A 
ATOM     63  H   UNL     1      -2.457   1.998  -4.031  1.00  0.00     0.167 HD
ATOM     64  C   UNL     1      -0.749   0.961  -7.499  1.00  0.00     0.034 A 
ATOM     65  C   UNL     1      -4.412   3.558  -2.462  1.00  0.00     0.034 A 
ATOM     66  C   UNL     1      -1.183   2.299  -7.857  1.00  0.00     0.049 A 
ATOM     67  C   UNL     1      -4.906   3.769  -3.834  1.00  0.00     0.074 A 
ATOM     68  C   UNL     1      -0.623   3.371  -8.528  1.00  0.00     0.029 A 
ATOM     69  N   UNL     1      -2.193   2.813  -7.084  1.00  0.00    -0.354 N 
ATOM     70  N   UNL     1      -4.699   4.856  -4.528  1.00  0.00    -0.248 NA
ATOM     71  C   UNL     1      -5.197   2.563  -4.596  1.00  0.00     0.031 C 
ATOM     72  C   UNL     1      -1.335   4.538  -8.129  1.00  0.00     0.029 A 
ATOM     73  C   UNL     1      -2.361   4.163  -7.271  1.00  0.00     0.049 A 
ATOM     74  H   UNL     1      -2.737   2.274  -6.465  1.00  0.00     0.167 HD
ATOM     75  C   UNL     1      -4.295   4.349  -5.752  1.00  0.00     0.074 A 
ATOM     76  C   UNL     1      -4.765   2.969  -5.789  1.00  0.00     0.031 C 
ATOM     77  C   UNL     1      -3.299   4.931  -6.476  1.00  0.00     0.034 A 
BRANCH  64  78
ATOM     78  C   UNL     1      -1.704  -0.195  -7.406  1.00  0.00     0.023 A 
ATOM     79  C   UNL     1      -2.563  -0.411  -8.487  1.00  0.00     0.012 A 
ATOM     80  C   UNL     1      -1.937  -0.954  -6.230  1.00  0.00     0.148 A 
ATOM     81  C   UNL     1      -3.563  -1.385  -8.418  1.00  0.00     0.002 A 
ATOM     82  C   UNL     1      -2.830  -2.007  -6.210  1.00  0.00     0.091 A 
ATOM     83  F   UNL     1      -1.432  -0.555  -5.061  1.00  0.00    -0.205 F 
ATOM     84  C   UNL     1      -3.670  -2.212  -7.299  1.00  0.00     0.022 A 
BRANCH  82  85
ATOM     85  S   UNL     1      -2.908  -3.138  -4.816  1.00  0.00     0.127 S 
ATOM     86  O   UNL     1      -4.181  -2.770  -4.207  1.00  0.00    -0.237 OA
ATOM     87  O   UNL     1      -2.892  -4.438  -5.489  1.00  0.00    -0.237 OA
ATOM     88  O   UNL     1      -1.713  -2.873  -4.022  1.00  0.00    -0.744 OA
ENDBRANCH  82  85
ENDBRANCH  64  78
BRANCH  65  89
ATOM     89  C   UNL     1      -5.329   3.711  -1.244  1.00  0.00     0.023 A 
ATOM     90  C   UNL     1      -6.535   4.448  -1.271  1.00  0.00     0.012 A 
ATOM     91  C   UNL     1      -5.134   2.944  -0.064  1.00  0.00     0.148 A 
ATOM     92  C   UNL     1      -7.455   4.433  -0.190  1.00  0.00     0.002 A 
ATOM     93  C   UNL     1      -6.034   2.939   1.025  1.00  0.00     0.091 A 
ATOM     94  F   UNL     1      -4.062   2.158  -0.013  1.00  0.00    -0.205 F 
ATOM     95  C   UNL     1      -7.205   3.686   0.959  1.00  0.00     0.022 A 
BRANCH  93  96
ATOM     96  S   UNL     1      -5.756   1.884   2.482  1.00  0.00     0.127 S 
ATOM     97  O   UNL     1      -6.930   2.134   3.321  1.00  0.00    -0.237 OA
ATOM     98  O   UNL     1      -5.693   0.545   1.912  1.00  0.00    -0.237 OA
ATOM     99  O   UNL     1      -4.512   2.381   3.059  1.00  0.00    -0.744 OA
ENDBRANCH  93  96
ENDBRANCH  65  89
BRANCH  77 100
ATOM    100  C   UNL     1      -3.146   6.424  -6.433  1.00  0.00     0.023 A 
ATOM    101  C   UNL     1      -2.522   7.125  -5.390  1.00  0.00     0.012 A 
ATOM    102  C   UNL     1      -3.528   7.136  -7.584  1.00  0.00     0.148 A 
ATOM    103  C   UNL     1      -2.280   8.502  -5.490  1.00  0.00     0.002 A 
ATOM    104  C   UNL     1      -3.251   8.493  -7.700  1.00  0.00     0.091 A 
ATOM    105  F   UNL     1      -4.135   6.457  -8.570  1.00  0.00    -0.205 F 
ATOM    106  C   UNL     1      -2.633   9.185  -6.650  1.00  0.00     0.022 A 
BRANCH 104 107
ATOM    107  S   UNL     1      -3.553   9.383  -9.228  1.00  0.00     0.127 S 
ATOM    108  O   UNL     1      -4.733  10.178  -8.893  1.00  0.00    -0.237 OA
ATOM    109  O   UNL     1      -2.321  10.157  -9.390  1.00  0.00    -0.237 OA
ATOM    110  O   UNL     1      -3.752   8.365 -10.252  1.00  0.00    -0.744 OA
ENDBRANCH 104 107
ENDBRANCH  77 100
ENDBRANCH  51  52
ENDBRANCH  44  46
ENDBRANCH  43  44
ENDBRANCH  42  43
ENDBRANCH  41  42
ENDBRANCH  40  41
ENDBRANCH  39  40
ENDBRANCH  38  39
ENDBRANCH  37  38
ENDBRANCH   1  37
TORSDOF 28
