REMARK SMILES CC(C)(C)c1cc2c(cc1Cl)C=C(C(=O)OCCOCCOCCOCCOC(=O)c1ccc(-c3c4nc(c(-c5cccc(S(=O)(=O)[O-])c5F)c5ccc([nH]5)c(-c5cccc(S(=O)(=O)[O-])c5F)c5nc(c(-c6cccc(S(=O)(=O)[O-])c6F)c6ccc3[nH]6)C=C5)C=C4)cc1)[C@@H](C(F)(F)F)O2
REMARK SMILES IDX 23 1 22 2 21 3 20 4 19 5 18 6 17 7 16 8 14 9 15 10 13 11
REMARK SMILES IDX 5 12 6 13 10 14 7 15 9 16 11 17 8 18 99 19 12 20 94 21 2 22
REMARK SMILES IDX 1 23 3 24 4 25 95 26 96 27 97 28 98 29 24 30 25 31 26 32
REMARK SMILES IDX 27 33 28 34 29 35 30 36 31 37 32 38 93 39 33 40 92 41 34 42
REMARK SMILES IDX 35 43 36 44 86 45 37 46 91 47 85 48 87 49 38 50 90 51 84 52
REMARK SMILES IDX 83 53 39 55 71 56 51 57 70 58 52 59 55 60 69 61 88 62 53 63
REMARK SMILES IDX 54 64 68 66 89 67 56 68 40 69 41 70 49 71 42 72 44 73 50 74
REMARK SMILES IDX 43 75 45 76 46 77 47 78 48 79 72 80 73 81 81 82 74 83 76 84
REMARK SMILES IDX 82 85 75 86 77 87 78 88 79 89 80 90 57 91 58 92 66 93 59 94
REMARK SMILES IDX 61 95 67 96 60 97 62 98 63 99 64 100 65 101
REMARK H PARENT 87 54 55 65
REMARK Flexibility Score: inf
ROOT
ATOM      1  C   UNL     1      -0.794   8.575   7.101  1.00  0.00     0.188 C 
ENDROOT
BRANCH   1   2
ATOM      2  O   UNL     1      -0.064   7.922   6.062  1.00  0.00    -0.377 OA
BRANCH   2   3
ATOM      3  C   UNL     1       0.273   6.559   6.245  1.00  0.00     0.188 C 
BRANCH   3   4
ATOM      4  C   UNL     1       1.512   6.354   7.134  1.00  0.00     0.188 C 
BRANCH   4   5
ATOM      5  O   UNL     1       1.920   7.535   7.820  1.00  0.00    -0.376 OA
BRANCH   5   6
ATOM      6  C   UNL     1       3.047   8.233   7.299  1.00  0.00     0.202 C 
BRANCH   6   7
ATOM      7  C   UNL     1       2.864   8.936   5.945  1.00  0.00     0.261 C 
BRANCH   7   8
ATOM      8  O   UNL     1       2.491   8.070   4.861  1.00  0.00    -0.460 OA
BRANCH   8   9
ATOM      9  C   UNL     1       3.369   7.122   4.485  1.00  0.00     0.338 C 
ATOM     10  O   UNL     1       4.491   6.944   4.924  1.00  0.00    -0.246 OA
BRANCH   9  11
ATOM     11  C   UNL     1       2.670   6.197   3.566  1.00  0.00     0.087 C 
ATOM     12  C   UNL     1       1.014   2.139   1.022  1.00  0.00    -0.020 A 
ATOM     13  C   UNL     1       0.811   3.545   0.954  1.00  0.00     0.053 A 
ATOM     14  C   UNL     1       1.709   1.678   2.158  1.00  0.00     0.045 A 
ATOM     15  C   UNL     1       1.370   4.440   1.872  1.00  0.00     0.128 A 
ATOM     16  C   UNL     1       2.274   2.583   3.078  1.00  0.00     0.032 A 
ATOM     17  Cl  UNL     1       1.944   0.020   2.586  1.00  0.00    -0.084 Cl
ATOM     18  C   UNL     1       2.147   3.961   2.912  1.00  0.00     0.019 A 
ATOM     19  O   UNL     1       1.119   5.762   1.653  1.00  0.00    -0.475 OA
ATOM     20  C   UNL     1       2.842   4.887   3.786  1.00  0.00     0.027 C 
ATOM     21  C   UNL     1       1.755   6.758   2.507  1.00  0.00     0.316 C 
BRANCH  12  22
ATOM     22  C   UNL     1       0.485   1.300  -0.170  1.00  0.00    -0.012 C 
ATOM     23  C   UNL     1       0.884  -0.190  -0.226  1.00  0.00     0.016 C 
ATOM     24  C   UNL     1       1.024   1.905  -1.497  1.00  0.00     0.016 C 
ATOM     25  C   UNL     1      -1.058   1.351  -0.188  1.00  0.00     0.016 C 
ENDBRANCH  12  22
BRANCH  21  26
ATOM     26  C   UNL     1       2.471   7.770   1.599  1.00  0.00     0.430 C 
ATOM     27  F   UNL     1       1.645   8.227   0.627  1.00  0.00    -0.167 F 
ATOM     28  F   UNL     1       2.912   8.849   2.282  1.00  0.00    -0.167 F 
ATOM     29  F   UNL     1       3.543   7.212   0.987  1.00  0.00    -0.167 F 
ENDBRANCH  21  26
ENDBRANCH   9  11
ENDBRANCH   8   9
ENDBRANCH   7   8
ENDBRANCH   6   7
ENDBRANCH   5   6
ENDBRANCH   4   5
ENDBRANCH   3   4
ENDBRANCH   2   3
ENDBRANCH   1   2
BRANCH   1  30
ATOM     30  C   UNL     1      -0.842   8.020   8.543  1.00  0.00     0.188 C 
BRANCH  30  31
ATOM     31  O   UNL     1      -1.109   6.620   8.619  1.00  0.00    -0.376 OA
BRANCH  31  32
ATOM     32  C   UNL     1      -2.389   6.250   9.117  1.00  0.00     0.202 C 
BRANCH  32  33
ATOM     33  C   UNL     1      -3.505   6.355   8.071  1.00  0.00     0.261 C 
BRANCH  33  34
ATOM     34  O   UNL     1      -3.767   7.683   7.595  1.00  0.00    -0.460 OA
BRANCH  34  35
ATOM     35  C   UNL     1      -4.135   8.613   8.506  1.00  0.00     0.338 C 
ATOM     36  O   UNL     1      -4.336   8.435   9.694  1.00  0.00    -0.246 OA
BRANCH  35  37
ATOM     37  C   UNL     1      -4.049   9.930   7.842  1.00  0.00     0.060 A 
ATOM     38  C   UNL     1      -4.687  10.144   6.616  1.00  0.00     0.016 A 
ATOM     39  C   UNL     1      -3.283  10.942   8.432  1.00  0.00     0.016 A 
ATOM     40  C   UNL     1      -4.584  11.388   5.994  1.00  0.00     0.010 A 
ATOM     41  C   UNL     1      -3.170  12.182   7.800  1.00  0.00     0.010 A 
ATOM     42  C   UNL     1      -3.841  12.421   6.591  1.00  0.00    -0.014 A 
BRANCH  42  43
ATOM     43  C   UNL     1      -3.951  13.801   6.065  1.00  0.00     0.031 A 
ATOM     44  C   UNL     1      -2.909  14.412   5.181  1.00  0.00     0.074 A 
ATOM     45  C   UNL     1      -5.030  14.516   6.439  1.00  0.00     0.049 A 
ATOM     46  N   UNL     1      -2.914  15.592   4.616  1.00  0.00    -0.248 NA
ATOM     47  C   UNL     1      -1.711  13.610   4.894  1.00  0.00     0.031 C 
ATOM     48  C   UNL     1      -6.084  14.031   7.334  1.00  0.00     0.029 A 
ATOM     49  N   UNL     1      -5.413  15.794   6.130  1.00  0.00    -0.354 N 
ATOM     50  C   UNL     1      -1.725  15.683   3.907  1.00  0.00     0.074 A 
ATOM     51  C   UNL     1      -1.013  14.439   4.123  1.00  0.00     0.031 C 
ATOM     52  C   UNL     1      -6.993  15.002   7.505  1.00  0.00     0.029 A 
ATOM     53  C   UNL     1      -6.583  16.176   6.741  1.00  0.00     0.049 A 
ATOM     54  H   UNL     1      -4.901  16.381   5.529  1.00  0.00     0.167 HD
ATOM     55  C   UNL     1      -1.284  16.704   3.134  1.00  0.00     0.034 A 
ATOM     56  C   UNL     1      -7.259  17.339   6.691  1.00  0.00     0.034 A 
ATOM     57  C   UNL     1      -2.004  17.933   2.918  1.00  0.00     0.049 A 
ATOM     58  C   UNL     1      -6.752  18.447   5.818  1.00  0.00     0.074 A 
ATOM     59  C   UNL     1      -1.654  18.999   2.105  1.00  0.00     0.029 A 
ATOM     60  N   UNL     1      -3.206  18.270   3.519  1.00  0.00    -0.354 N 
ATOM     61  N   UNL     1      -5.689  18.463   5.053  1.00  0.00    -0.248 NA
ATOM     62  C   UNL     1      -7.551  19.679   5.771  1.00  0.00     0.031 C 
ATOM     63  C   UNL     1      -2.639  19.983   2.223  1.00  0.00     0.029 A 
ATOM     64  C   UNL     1      -3.611  19.525   3.098  1.00  0.00     0.049 A 
ATOM     65  H   UNL     1      -3.700  17.700   4.152  1.00  0.00     0.167 HD
ATOM     66  C   UNL     1      -5.705  19.694   4.410  1.00  0.00     0.074 A 
ATOM     67  C   UNL     1      -6.887  20.393   4.870  1.00  0.00     0.031 C 
ATOM     68  C   UNL     1      -4.811  20.196   3.524  1.00  0.00     0.034 A 
BRANCH  55  69
ATOM     69  C   UNL     1       0.015  16.532   2.396  1.00  0.00     0.023 A 
ATOM     70  C   UNL     1       0.023  15.788   1.199  1.00  0.00     0.012 A 
ATOM     71  C   UNL     1       1.180  17.215   2.797  1.00  0.00     0.148 A 
ATOM     72  C   UNL     1       1.172  15.724   0.412  1.00  0.00     0.002 A 
ATOM     73  C   UNL     1       2.314  17.168   1.993  1.00  0.00     0.091 A 
ATOM     74  F   UNL     1       1.149  17.910   3.942  1.00  0.00    -0.205 F 
ATOM     75  C   UNL     1       2.312  16.422   0.803  1.00  0.00     0.022 A 
BRANCH  73  76
ATOM     76  S   UNL     1       3.816  18.078   2.373  1.00  0.00     0.127 S 
ATOM     77  O   UNL     1       4.760  16.992   2.635  1.00  0.00    -0.237 OA
ATOM     78  O   UNL     1       4.057  18.808   1.128  1.00  0.00    -0.237 OA
ATOM     79  O   UNL     1       3.502  18.915   3.522  1.00  0.00    -0.744 OA
ENDBRANCH  73  76
ENDBRANCH  55  69
BRANCH  56  80
ATOM     80  C   UNL     1      -8.539  17.456   7.436  1.00  0.00     0.023 A 
ATOM     81  C   UNL     1      -9.752  17.354   6.732  1.00  0.00     0.012 A 
ATOM     82  C   UNL     1      -8.555  17.564   8.840  1.00  0.00     0.148 A 
ATOM     83  C   UNL     1     -10.968  17.363   7.415  1.00  0.00     0.002 A 
ATOM     84  C   UNL     1      -9.767  17.533   9.517  1.00  0.00     0.091 A 
ATOM     85  F   UNL     1      -7.382  17.655   9.482  1.00  0.00    -0.205 F 
ATOM     86  C   UNL     1     -10.975  17.442   8.806  1.00  0.00     0.022 A 
BRANCH  84  87
ATOM     87  S   UNL     1      -9.877  17.517  11.309  1.00  0.00     0.127 S 
ATOM     88  O   UNL     1     -10.562  18.780  11.577  1.00  0.00    -0.237 OA
ATOM     89  O   UNL     1     -10.679  16.317  11.548  1.00  0.00    -0.237 OA
ATOM     90  O   UNL     1      -8.505  17.436  11.791  1.00  0.00    -0.744 OA
ENDBRANCH  84  87
ENDBRANCH  56  80
BRANCH  68  91
ATOM     91  C   UNL     1      -5.071  21.566   2.962  1.00  0.00     0.023 A 
ATOM     92  C   UNL     1      -4.767  22.701   3.737  1.00  0.00     0.012 A 
ATOM     93  C   UNL     1      -5.505  21.726   1.632  1.00  0.00     0.148 A 
ATOM     94  C   UNL     1      -4.900  23.980   3.198  1.00  0.00     0.002 A 
ATOM     95  C   UNL     1      -5.603  23.002   1.090  1.00  0.00     0.091 A 
ATOM     96  F   UNL     1      -5.799  20.628   0.921  1.00  0.00    -0.205 F 
ATOM     97  C   UNL     1      -5.305  24.130   1.873  1.00  0.00     0.022 A 
BRANCH  95  98
ATOM     98  S   UNL     1      -6.046  23.294  -0.626  1.00  0.00     0.127 S 
ATOM     99  O   UNL     1      -7.350  23.943  -0.490  1.00  0.00    -0.237 OA
ATOM    100  O   UNL     1      -4.970  24.176  -1.077  1.00  0.00    -0.237 OA
ATOM    101  O   UNL     1      -6.069  21.986  -1.267  1.00  0.00    -0.744 OA
ENDBRANCH  95  98
ENDBRANCH  68  91
ENDBRANCH  42  43
ENDBRANCH  35  37
ENDBRANCH  34  35
ENDBRANCH  33  34
ENDBRANCH  32  33
ENDBRANCH  31  32
ENDBRANCH  30  31
ENDBRANCH   1  30
TORSDOF 25
