REMARK SMILES CC1C[NH+]([C@@H](C(=O)OCCOCCOCCOCCOC(=O)c2ccc(-c3c4nc(c(-c5cccc(S(=O)(=O)[O-])c5F)c5ccc([nH]5)c(-c5cccc(S(=O)(=O)[O-])c5F)c5nc(c(-c6cccc(S(=O)(=O)[O-])c6F)c6ccc3[nH]6)C=C5)C=C4)cc2)C2CCCCC2)C1
REMARK SMILES IDX 15 1 14 2 13 3 12 4 11 5 10 6 9 7 8 8 6 9 7 10 5 11 4 12
REMARK SMILES IDX 1 13 2 14 3 15 92 16 86 18 87 19 91 20 88 21 90 22 89 23
REMARK SMILES IDX 16 24 17 25 18 26 19 27 20 28 21 29 22 30 23 31 24 32 85 33
REMARK SMILES IDX 25 34 84 35 26 36 27 37 28 38 78 39 29 40 83 41 77 42 79 43
REMARK SMILES IDX 30 44 82 45 76 46 75 47 31 49 63 50 43 51 62 52 44 53 47 54
REMARK SMILES IDX 61 55 80 56 45 57 46 58 60 60 81 61 48 62 32 63 33 64 41 65
REMARK SMILES IDX 34 66 36 67 42 68 35 69 37 70 38 71 39 72 40 73 64 74 65 75
REMARK SMILES IDX 73 76 66 77 68 78 74 79 67 80 69 81 70 82 71 83 72 84 49 85
REMARK SMILES IDX 50 86 58 87 51 88 53 89 59 90 52 91 54 92 55 93 56 94 57 95
REMARK H PARENT 4 17 79 48 47 59
REMARK Flexibility Score: inf
ROOT
ATOM      1  C   UNL     1      -1.538   0.423  -0.714  1.00  0.00     0.188 C 
ENDROOT
BRANCH   1   2
ATOM      2  O   UNL     1      -1.908   0.211   0.635  1.00  0.00    -0.377 OA
BRANCH   2   3
ATOM      3  C   UNL     1      -2.291  -1.072   1.080  1.00  0.00     0.188 C 
BRANCH   3   4
ATOM      4  C   UNL     1      -3.365  -1.001   2.176  1.00  0.00     0.188 C 
BRANCH   4   5
ATOM      5  O   UNL     1      -4.250   0.110   2.155  1.00  0.00    -0.376 OA
BRANCH   5   6
ATOM      6  C   UNL     1      -3.661   1.413   2.195  1.00  0.00     0.202 C 
BRANCH   6   7
ATOM      7  C   UNL     1      -2.558   1.720   3.236  1.00  0.00     0.261 C 
BRANCH   7   8
ATOM      8  O   UNL     1      -1.376   0.868   3.242  1.00  0.00    -0.459 OA
BRANCH   8   9
ATOM      9  C   UNL     1      -1.152   0.166   4.379  1.00  0.00     0.365 C 
ATOM     10  O   UNL     1      -1.976   0.130   5.298  1.00  0.00    -0.245 OA
BRANCH   9  11
ATOM     11  C   UNL     1       0.160  -0.637   4.513  1.00  0.00     0.298 C 
BRANCH  11  12
ATOM     12  N   UNL     1       1.375  -0.411   3.696  1.00  0.00    -0.322 N 
ATOM     13  C   UNL     1       2.267   0.771   0.611  1.00  0.00     0.020 C 
ATOM     14  C   UNL     1       1.345   0.499   1.783  1.00  0.00     0.096 C 
ATOM     15  C   UNL     1       1.450  -0.924   2.336  1.00  0.00     0.272 C 
ATOM     16  C   UNL     1       1.651   0.960   3.230  1.00  0.00     0.272 C 
ATOM     17  H   UNL     1       1.966  -0.843   4.406  1.00  0.00     0.348 HD
ENDBRANCH  11  12
BRANCH  11  18
ATOM     18  C   UNL     1      -0.149  -2.144   4.886  1.00  0.00     0.059 C 
ATOM     19  C   UNL     1      -0.620  -3.063   3.743  1.00  0.00     0.010 C 
ATOM     20  C   UNL     1       1.039  -2.792   5.623  1.00  0.00     0.010 C 
ATOM     21  C   UNL     1      -0.905  -4.496   4.189  1.00  0.00     0.001 C 
ATOM     22  C   UNL     1       0.727  -4.222   6.066  1.00  0.00     0.001 C 
ATOM     23  C   UNL     1       0.304  -5.095   4.891  1.00  0.00     0.000 C 
ENDBRANCH  11  18
ENDBRANCH   9  11
ENDBRANCH   8   9
ENDBRANCH   7   8
ENDBRANCH   6   7
ENDBRANCH   5   6
ENDBRANCH   4   5
ENDBRANCH   3   4
ENDBRANCH   2   3
ENDBRANCH   1   2
BRANCH   1  24
ATOM     24  C   UNL     1      -2.251  -0.448  -1.746  1.00  0.00     0.188 C 
BRANCH  24  25
ATOM     25  O   UNL     1      -1.853  -1.822  -1.824  1.00  0.00    -0.376 OA
BRANCH  25  26
ATOM     26  C   UNL     1      -0.500  -2.171  -1.532  1.00  0.00     0.202 C 
BRANCH  26  27
ATOM     27  C   UNL     1       0.480  -1.952  -2.681  1.00  0.00     0.261 C 
BRANCH  27  28
ATOM     28  O   UNL     1       0.860  -0.570  -2.767  1.00  0.00    -0.460 OA
BRANCH  28  29
ATOM     29  C   UNL     1       0.237   0.148  -3.726  1.00  0.00     0.338 C 
ATOM     30  O   UNL     1      -0.560  -0.261  -4.558  1.00  0.00    -0.246 OA
BRANCH  29  31
ATOM     31  C   UNL     1       0.530   1.574  -3.518  1.00  0.00     0.060 A 
ATOM     32  C   UNL     1      -0.538   2.483  -3.528  1.00  0.00     0.016 A 
ATOM     33  C   UNL     1       1.848   2.018  -3.396  1.00  0.00     0.016 A 
ATOM     34  C   UNL     1      -0.285   3.850  -3.490  1.00  0.00     0.010 A 
ATOM     35  C   UNL     1       2.101   3.388  -3.373  1.00  0.00     0.010 A 
ATOM     36  C   UNL     1       1.039   4.304  -3.480  1.00  0.00    -0.014 A 
BRANCH  36  37
ATOM     37  C   UNL     1       1.333   5.705  -3.853  1.00  0.00     0.031 A 
ATOM     38  C   UNL     1       1.736   5.977  -5.277  1.00  0.00     0.074 A 
ATOM     39  C   UNL     1       1.259   6.700  -2.953  1.00  0.00     0.049 A 
ATOM     40  N   UNL     1       2.160   7.085  -5.821  1.00  0.00    -0.248 NA
ATOM     41  C   UNL     1       1.659   4.839  -6.212  1.00  0.00     0.031 C 
ATOM     42  C   UNL     1       0.850   6.552  -1.558  1.00  0.00     0.029 A 
ATOM     43  N   UNL     1       1.564   8.031  -3.079  1.00  0.00    -0.354 N 
ATOM     44  C   UNL     1       2.432   6.772  -7.148  1.00  0.00     0.074 A 
ATOM     45  C   UNL     1       2.136   5.370  -7.328  1.00  0.00     0.031 C 
ATOM     46  C   UNL     1       0.975   7.741  -0.942  1.00  0.00     0.029 A 
ATOM     47  C   UNL     1       1.505   8.718  -1.891  1.00  0.00     0.049 A 
ATOM     48  H   UNL     1       1.802   8.452  -3.937  1.00  0.00     0.167 HD
ATOM     49  C   UNL     1       2.879   7.585  -8.132  1.00  0.00     0.034 A 
ATOM     50  C   UNL     1       1.879   9.981  -1.602  1.00  0.00     0.034 A 
ATOM     51  C   UNL     1       3.159   8.980  -7.945  1.00  0.00     0.049 A 
ATOM     52  C   UNL     1       2.417  10.855  -2.707  1.00  0.00     0.074 A 
ATOM     53  C   UNL     1       3.597   9.901  -8.879  1.00  0.00     0.029 A 
ATOM     54  N   UNL     1       3.037   9.654  -6.740  1.00  0.00    -0.354 N 
ATOM     55  N   UNL     1       2.597  10.569  -3.975  1.00  0.00    -0.248 NA
ATOM     56  C   UNL     1       2.776  12.236  -2.351  1.00  0.00     0.031 C 
ATOM     57  C   UNL     1       3.771  11.127  -8.230  1.00  0.00     0.029 A 
ATOM     58  C   UNL     1       3.393  10.979  -6.904  1.00  0.00     0.049 A 
ATOM     59  H   UNL     1       2.741   9.248  -5.894  1.00  0.00     0.167 HD
ATOM     60  C   UNL     1       3.033  11.746  -4.574  1.00  0.00     0.074 A 
ATOM     61  C   UNL     1       3.087  12.750  -3.533  1.00  0.00     0.031 C 
ATOM     62  C   UNL     1       3.366  11.977  -5.868  1.00  0.00     0.034 A 
BRANCH  49  63
ATOM     63  C   UNL     1       3.079   6.992  -9.500  1.00  0.00     0.023 A 
ATOM     64  C   UNL     1       1.960   6.645 -10.284  1.00  0.00     0.012 A 
ATOM     65  C   UNL     1       4.373   6.843 -10.036  1.00  0.00     0.148 A 
ATOM     66  C   UNL     1       2.127   6.135 -11.571  1.00  0.00     0.002 A 
ATOM     67  C   UNL     1       4.529   6.380 -11.336  1.00  0.00     0.091 A 
ATOM     68  F   UNL     1       5.423   7.158  -9.264  1.00  0.00    -0.205 F 
ATOM     69  C   UNL     1       3.409   6.015 -12.100  1.00  0.00     0.022 A 
BRANCH  67  70
ATOM     70  S   UNL     1       6.131   6.264 -12.138  1.00  0.00     0.127 S 
ATOM     71  O   UNL     1       6.267   4.819 -12.320  1.00  0.00    -0.237 OA
ATOM     72  O   UNL     1       5.909   7.016 -13.373  1.00  0.00    -0.237 OA
ATOM     73  O   UNL     1       7.089   6.865 -11.221  1.00  0.00    -0.744 OA
ENDBRANCH  67  70
ENDBRANCH  49  63
BRANCH  50  74
ATOM     74  C   UNL     1       1.762  10.503  -0.210  1.00  0.00     0.023 A 
ATOM     75  C   UNL     1       0.854  11.541   0.074  1.00  0.00     0.012 A 
ATOM     76  C   UNL     1       2.563   9.989   0.828  1.00  0.00     0.148 A 
ATOM     77  C   UNL     1       0.780  12.091   1.354  1.00  0.00     0.002 A 
ATOM     78  C   UNL     1       2.443  10.501   2.114  1.00  0.00     0.091 A 
ATOM     79  F   UNL     1       3.432   9.011   0.536  1.00  0.00    -0.205 F 
ATOM     80  C   UNL     1       1.569  11.567   2.375  1.00  0.00     0.022 A 
BRANCH  78  81
ATOM     81  S   UNL     1       3.326   9.803   3.513  1.00  0.00     0.127 S 
ATOM     82  O   UNL     1       4.301  10.851   3.805  1.00  0.00    -0.237 OA
ATOM     83  O   UNL     1       2.258   9.659   4.502  1.00  0.00    -0.237 OA
ATOM     84  O   UNL     1       3.876   8.540   3.038  1.00  0.00    -0.744 OA
ENDBRANCH  78  81
ENDBRANCH  50  74
BRANCH  62  85
ATOM     85  C   UNL     1       3.732  13.383  -6.265  1.00  0.00     0.023 A 
ATOM     86  C   UNL     1       4.969  13.934  -5.881  1.00  0.00     0.012 A 
ATOM     87  C   UNL     1       2.879  14.116  -7.115  1.00  0.00     0.148 A 
ATOM     88  C   UNL     1       5.339  15.207  -6.315  1.00  0.00     0.002 A 
ATOM     89  C   UNL     1       3.278  15.359  -7.587  1.00  0.00     0.091 A 
ATOM     90  F   UNL     1       1.699  13.576  -7.456  1.00  0.00    -0.205 F 
ATOM     91  C   UNL     1       4.501  15.912  -7.178  1.00  0.00     0.022 A 
BRANCH  89  92
ATOM     92  S   UNL     1       2.315  16.290  -8.784  1.00  0.00     0.127 S 
ATOM     93  O   UNL     1       1.863  17.426  -7.982  1.00  0.00    -0.237 OA
ATOM     94  O   UNL     1       3.318  16.618  -9.797  1.00  0.00    -0.237 OA
ATOM     95  O   UNL     1       1.261  15.394  -9.241  1.00  0.00    -0.744 OA
ENDBRANCH  89  92
ENDBRANCH  62  85
ENDBRANCH  36  37
ENDBRANCH  29  31
ENDBRANCH  28  29
ENDBRANCH  27  28
ENDBRANCH  26  27
ENDBRANCH  25  26
ENDBRANCH  24  25
ENDBRANCH   1  24
TORSDOF 25
