REMARK SMILES CCCCCCNC(=O)Oc1cccc(-c2ccc([C@@H](C)C(=O)OCCOCCOCCOCCOC(=O)c3ccc(-c4c5nc(c(-c6cccc(S(=O)(=O)[O-])c6F)c6ccc([nH]6)c(-c6cccc(S(=O)(=O)[O-])c6F)c6nc(c(-c7cccc(S(=O)(=O)[O-])c7F)c7ccc4[nH]7)C=C6)C=C5)cc3)cc2Cl)c1
REMARK SMILES IDX 27 1 26 2 25 3 24 4 22 5 23 6 20 7 21 8 19 9 16 10 17 11
REMARK SMILES IDX 103 12 18 13 102 14 104 15 15 16 11 17 12 18 105 19 13 20
REMARK SMILES IDX 14 21 10 22 8 23 7 24 9 26 6 27 5 28 4 29 3 30 2 31 1 32
REMARK SMILES IDX 28 33 29 34 30 35 31 36 32 37 33 38 34 39 35 40 36 41 37 42
REMARK SMILES IDX 38 43 39 44 40 45 101 46 41 47 100 48 42 49 43 50 44 51
REMARK SMILES IDX 94 52 45 53 99 54 93 55 95 56 46 57 98 58 92 59 91 60 47 62
REMARK SMILES IDX 79 63 59 64 78 65 60 66 63 67 77 68 96 69 61 70 62 71 76 73
REMARK SMILES IDX 97 74 64 75 48 76 49 77 57 78 50 79 52 80 58 81 51 82 53 83
REMARK SMILES IDX 54 84 55 85 56 86 80 87 81 88 89 89 82 90 84 91 90 92 83 93
REMARK SMILES IDX 85 94 86 95 87 96 88 97 65 98 66 99 74 100 67 101 69 102
REMARK SMILES IDX 75 103 68 104 70 105 71 106 72 107 73 108
REMARK H PARENT 7 25 95 61 63 72
REMARK Flexibility Score: inf
ROOT
ATOM      1  O   UNL     1      -0.631  -5.970  13.584  1.00  0.00    -0.376 OA
ENDROOT
BRANCH   1   2
ATOM      2  C   UNL     1      -1.157  -7.274  13.789  1.00  0.00     0.202 C 
BRANCH   2   3
ATOM      3  C   UNL     1      -2.642  -7.480  14.144  1.00  0.00     0.261 C 
BRANCH   3   4
ATOM      4  O   UNL     1      -3.612  -6.828  13.299  1.00  0.00    -0.463 OA
BRANCH   4   5
ATOM      5  C   UNL     1      -4.218  -5.734  13.812  1.00  0.00     0.313 C 
ATOM      6  O   UNL     1      -3.984  -5.295  14.938  1.00  0.00    -0.252 OA
BRANCH   5   7
ATOM      7  C   UNL     1      -5.254  -5.058  12.916  1.00  0.00     0.126 C 
ATOM      8  C   UNL     1      -6.641  -5.330  13.483  1.00  0.00     0.025 C 
BRANCH   7   9
ATOM      9  C   UNL     1      -5.231  -5.224  11.397  1.00  0.00    -0.033 A 
ATOM     10  C   UNL     1      -5.168  -5.384   8.517  1.00  0.00     0.000 A 
ATOM     11  C   UNL     1      -5.303  -6.528   9.332  1.00  0.00     0.010 A 
ATOM     12  C   UNL     1      -5.064  -4.150   9.183  1.00  0.00     0.049 A 
ATOM     13  C   UNL     1      -5.341  -6.454  10.741  1.00  0.00     0.005 A 
ATOM     14  C   UNL     1      -5.103  -4.075  10.588  1.00  0.00     0.025 A 
ATOM     15  Cl  UNL     1      -4.924  -2.642   8.337  1.00  0.00    -0.084 Cl
BRANCH  10  16
ATOM     16  C   UNL     1      -5.212  -5.514   7.038  1.00  0.00    -0.013 A 
ATOM     17  C   UNL     1      -4.306  -5.120   4.809  1.00  0.00     0.133 A 
ATOM     18  C   UNL     1      -5.439  -5.673   4.218  1.00  0.00     0.047 A 
ATOM     19  C   UNL     1      -4.180  -5.043   6.202  1.00  0.00     0.056 A 
ATOM     20  C   UNL     1      -6.454  -6.170   5.028  1.00  0.00     0.004 A 
ATOM     21  C   UNL     1      -6.343  -6.086   6.420  1.00  0.00     0.009 A 
BRANCH  17  22
ATOM     22  O   UNL     1      -3.382  -4.513   3.933  1.00  0.00    -0.410 OA
BRANCH  22  23
ATOM     23  C   UNL     1      -2.034  -4.814   4.043  1.00  0.00     0.412 C 
ATOM     24  N   UNL     1      -1.251  -4.139   3.143  1.00  0.00    -0.321 N 
ATOM     25  H   UNL     1      -0.284  -4.316   3.187  1.00  0.00     0.167 HD
ATOM     26  O   UNL     1      -1.534  -5.597   4.842  1.00  0.00    -0.224 OA
BRANCH  24  27
ATOM     27  C   UNL     1      -1.687  -3.193   2.134  1.00  0.00     0.119 C 
BRANCH  27  28
ATOM     28  C   UNL     1      -1.085  -1.803   2.351  1.00  0.00     0.021 C 
BRANCH  28  29
ATOM     29  C   UNL     1       0.444  -1.732   2.243  1.00  0.00     0.002 C 
BRANCH  29  30
ATOM     30  C   UNL     1       1.033  -2.137   0.886  1.00  0.00    -0.000 C 
BRANCH  30  31
ATOM     31  C   UNL     1       0.570  -1.300  -0.309  1.00  0.00    -0.003 C 
ATOM     32  C   UNL     1       0.975   0.163  -0.217  1.00  0.00     0.004 C 
ENDBRANCH  30  31
ENDBRANCH  29  30
ENDBRANCH  28  29
ENDBRANCH  27  28
ENDBRANCH  24  27
ENDBRANCH  22  23
ENDBRANCH  17  22
ENDBRANCH  10  16
ENDBRANCH   7   9
ENDBRANCH   5   7
ENDBRANCH   4   5
ENDBRANCH   3   4
ENDBRANCH   2   3
ENDBRANCH   1   2
BRANCH   1  33
ATOM     33  C   UNL     1      -1.229  -5.084  12.646  1.00  0.00     0.188 C 
BRANCH  33  34
ATOM     34  C   UNL     1      -1.851  -5.598  11.339  1.00  0.00     0.188 C 
BRANCH  34  35
ATOM     35  O   UNL     1      -1.931  -7.002  11.228  1.00  0.00    -0.377 OA
BRANCH  35  36
ATOM     36  C   UNL     1      -0.984  -7.625  10.377  1.00  0.00     0.188 C 
BRANCH  36  37
ATOM     37  C   UNL     1       0.463  -7.101  10.452  1.00  0.00     0.188 C 
BRANCH  37  38
ATOM     38  O   UNL     1       0.584  -5.697  10.245  1.00  0.00    -0.376 OA
BRANCH  38  39
ATOM     39  C   UNL     1       0.883  -5.230   8.935  1.00  0.00     0.202 C 
BRANCH  39  40
ATOM     40  C   UNL     1      -0.154  -5.455   7.821  1.00  0.00     0.261 C 
BRANCH  40  41
ATOM     41  O   UNL     1      -0.530  -6.811   7.557  1.00  0.00    -0.460 OA
BRANCH  41  42
ATOM     42  C   UNL     1       0.436  -7.694   7.223  1.00  0.00     0.338 C 
ATOM     43  O   UNL     1       1.619  -7.472   7.092  1.00  0.00    -0.246 OA
BRANCH  42  44
ATOM     44  C   UNL     1      -0.171  -9.045   7.281  1.00  0.00     0.060 A 
ATOM     45  C   UNL     1       0.372  -9.992   8.162  1.00  0.00     0.016 A 
ATOM     46  C   UNL     1      -1.263  -9.373   6.476  1.00  0.00     0.016 A 
ATOM     47  C   UNL     1      -0.143 -11.288   8.203  1.00  0.00     0.010 A 
ATOM     48  C   UNL     1      -1.760 -10.679   6.498  1.00  0.00     0.010 A 
ATOM     49  C   UNL     1      -1.174 -11.653   7.329  1.00  0.00    -0.014 A 
BRANCH  49  50
ATOM     50  C   UNL     1      -1.470 -13.088   7.095  1.00  0.00     0.031 A 
ATOM     51  C   UNL     1      -0.838 -13.746   5.897  1.00  0.00     0.074 A 
ATOM     52  C   UNL     1      -2.282 -13.791   7.904  1.00  0.00     0.049 A 
ATOM     53  N   UNL     1      -1.015 -14.948   5.419  1.00  0.00    -0.248 NA
ATOM     54  C   UNL     1       0.121 -12.929   5.133  1.00  0.00     0.031 C 
ATOM     55  C   UNL     1      -2.926 -13.279   9.111  1.00  0.00     0.029 A 
ATOM     56  N   UNL     1      -2.728 -15.086   7.805  1.00  0.00    -0.354 N 
ATOM     57  C   UNL     1      -0.226 -15.018   4.277  1.00  0.00     0.074 A 
ATOM     58  C   UNL     1       0.430 -13.739   4.132  1.00  0.00     0.031 C 
ATOM     59  C   UNL     1      -3.719 -14.239   9.620  1.00  0.00     0.029 A 
ATOM     60  C   UNL     1      -3.665 -15.418   8.756  1.00  0.00     0.049 A 
ATOM     61  H   UNL     1      -2.408 -15.717   7.120  1.00  0.00     0.167 HD
ATOM     62  C   UNL     1      -0.058 -16.056   3.425  1.00  0.00     0.034 A 
ATOM     63  C   UNL     1      -4.418 -16.529   8.887  1.00  0.00     0.034 A 
ATOM     64  C   UNL     1      -0.704 -17.330   3.577  1.00  0.00     0.049 A 
ATOM     65  C   UNL     1      -4.245 -17.659   7.901  1.00  0.00     0.074 A 
ATOM     66  C   UNL     1      -0.573 -18.459   2.788  1.00  0.00     0.029 A 
ATOM     67  N   UNL     1      -1.614 -17.640   4.575  1.00  0.00    -0.354 N 
ATOM     68  N   UNL     1      -3.432 -17.745   6.876  1.00  0.00    -0.248 NA
ATOM     69  C   UNL     1      -5.074 -18.858   8.106  1.00  0.00     0.031 C 
ATOM     70  C   UNL     1      -1.436 -19.439   3.286  1.00  0.00     0.029 A 
ATOM     71  C   UNL     1      -2.063 -18.938   4.416  1.00  0.00     0.049 A 
ATOM     72  H   UNL     1      -1.899 -17.026   5.290  1.00  0.00     0.167 HD
ATOM     73  C   UNL     1      -3.612 -19.020   6.348  1.00  0.00     0.074 A 
ATOM     74  C   UNL     1      -4.610 -19.674   7.169  1.00  0.00     0.031 C 
ATOM     75  C   UNL     1      -3.008 -19.598   5.280  1.00  0.00     0.034 A 
BRANCH  62  76
ATOM     76  C   UNL     1       0.861 -15.855   2.249  1.00  0.00     0.023 A 
ATOM     77  C   UNL     1       2.253 -15.764   2.449  1.00  0.00     0.012 A 
ATOM     78  C   UNL     1       0.345 -15.804   0.939  1.00  0.00     0.148 A 
ATOM     79  C   UNL     1       3.115 -15.589   1.367  1.00  0.00     0.002 A 
ATOM     80  C   UNL     1       1.213 -15.681  -0.138  1.00  0.00     0.091 A 
ATOM     81  F   UNL     1      -0.984 -15.869   0.772  1.00  0.00    -0.205 F 
ATOM     82  C   UNL     1       2.596 -15.559   0.075  1.00  0.00     0.022 A 
BRANCH  80  83
ATOM     83  S   UNL     1       0.652 -15.715  -1.843  1.00  0.00     0.127 S 
ATOM     84  O   UNL     1       0.908 -14.339  -2.266  1.00  0.00    -0.237 OA
ATOM     85  O   UNL     1       1.542 -16.712  -2.438  1.00  0.00    -0.237 OA
ATOM     86  O   UNL     1      -0.751 -16.101  -1.799  1.00  0.00    -0.744 OA
ENDBRANCH  80  83
ENDBRANCH  62  76
BRANCH  63  87
ATOM     87  C   UNL     1      -5.400 -16.643  10.004  1.00  0.00     0.023 A 
ATOM     88  C   UNL     1      -5.185 -17.583  11.030  1.00  0.00     0.012 A 
ATOM     89  C   UNL     1      -6.548 -15.828  10.050  1.00  0.00     0.148 A 
ATOM     90  C   UNL     1      -6.111 -17.734  12.063  1.00  0.00     0.002 A 
ATOM     91  C   UNL     1      -7.438 -15.943  11.112  1.00  0.00     0.091 A 
ATOM     92  F   UNL     1      -6.744 -14.950   9.056  1.00  0.00    -0.205 F 
ATOM     93  C   UNL     1      -7.232 -16.909  12.109  1.00  0.00     0.022 A 
BRANCH  91  94
ATOM     94  S   UNL     1      -8.842 -14.843  11.320  1.00  0.00     0.127 S 
ATOM     95  O   UNL     1      -9.967 -15.753  11.122  1.00  0.00    -0.237 OA
ATOM     96  O   UNL     1      -8.658 -14.380  12.696  1.00  0.00    -0.237 OA
ATOM     97  O   UNL     1      -8.685 -13.805  10.310  1.00  0.00    -0.744 OA
ENDBRANCH  91  94
ENDBRANCH  63  87
BRANCH  75  98
ATOM     98  C   UNL     1      -3.334 -21.035   4.968  1.00  0.00     0.023 A 
ATOM     99  C   UNL     1      -4.580 -21.380   4.410  1.00  0.00     0.012 A 
ATOM    100  C   UNL     1      -2.350 -22.032   5.133  1.00  0.00     0.148 A 
ATOM    101  C   UNL     1      -4.851 -22.700   4.046  1.00  0.00     0.002 A 
ATOM    102  C   UNL     1      -2.607 -23.332   4.717  1.00  0.00     0.091 A 
ATOM    103  F   UNL     1      -1.176 -21.684   5.679  1.00  0.00    -0.205 F 
ATOM    104  C   UNL     1      -3.861 -23.671   4.186  1.00  0.00     0.022 A 
BRANCH 102 105
ATOM    105  S   UNL     1      -1.358 -24.623   4.761  1.00  0.00     0.127 S 
ATOM    106  O   UNL     1      -1.880 -25.506   5.802  1.00  0.00    -0.237 OA
ATOM    107  O   UNL     1      -1.431 -25.168   3.405  1.00  0.00    -0.237 OA
ATOM    108  O   UNL     1      -0.101 -23.960   5.082  1.00  0.00    -0.744 OA
ENDBRANCH 102 105
ENDBRANCH  75  98
ENDBRANCH  49  50
ENDBRANCH  42  44
ENDBRANCH  41  42
ENDBRANCH  40  41
ENDBRANCH  39  40
ENDBRANCH  38  39
ENDBRANCH  37  38
ENDBRANCH  36  37
ENDBRANCH  35  36
ENDBRANCH  34  35
ENDBRANCH  33  34
ENDBRANCH   1  33
TORSDOF 32
