REMARK SMILES C[C@@]([NH2+]C[C@@H]1CCCc2ccccc21)(C(=O)OCCOCCOCCOCCOC(=O)c1ccc(-c2c3nc(c(-c4cccc(S(=O)(=O)[O-])c4F)c4ccc([nH]4)c(-c4cccc(S(=O)(=O)[O-])c4F)c4nc(c(-c5cccc(S(=O)(=O)[O-])c5F)c5ccc2[nH]5)C=C4)C=C3)cc1)C(F)(F)F
REMARK SMILES IDX 23 1 22 2 21 3 20 4 19 5 18 6 17 7 15 8 16 9 2 10 1 11 3 12
REMARK SMILES IDX 4 15 5 16 6 17 14 18 7 19 9 20 13 21 8 22 10 23 12 24 11 25
REMARK SMILES IDX 95 26 96 27 97 28 98 29 24 30 25 31 26 32 27 33 28 34 29 35
REMARK SMILES IDX 30 36 31 37 32 38 33 39 94 40 34 41 93 42 35 43 36 44 37 45
REMARK SMILES IDX 87 46 38 47 92 48 86 49 88 50 39 51 91 52 85 53 84 54 40 56
REMARK SMILES IDX 72 57 52 58 71 59 53 60 56 61 70 62 89 63 54 64 55 65 69 67
REMARK SMILES IDX 90 68 57 69 41 70 42 71 50 72 43 73 45 74 51 75 44 76 46 77
REMARK SMILES IDX 47 78 48 79 49 80 73 81 74 82 82 83 75 84 77 85 83 86 76 87
REMARK SMILES IDX 78 88 79 89 80 90 81 91 58 92 59 93 67 94 60 95 62 96 68 97
REMARK SMILES IDX 61 98 63 99 64 100 65 101 66 102
REMARK H PARENT 3 13 3 14 88 55 56 66
REMARK Flexibility Score: inf
ROOT
ATOM      1  O   UNL     1      -2.074  -1.172   0.776  1.00  0.00    -0.377 OA
ENDROOT
BRANCH   1   2
ATOM      2  C   UNL     1      -1.525  -0.151   1.576  1.00  0.00     0.188 C 
BRANCH   2   3
ATOM      3  C   UNL     1      -2.292   1.178   1.589  1.00  0.00     0.188 C 
BRANCH   3   4
ATOM      4  O   UNL     1      -3.562   1.106   0.975  1.00  0.00    -0.376 OA
BRANCH   4   5
ATOM      5  C   UNL     1      -3.731   1.221  -0.425  1.00  0.00     0.202 C 
BRANCH   5   6
ATOM      6  C   UNL     1      -2.778   0.673  -1.513  1.00  0.00     0.261 C 
BRANCH   6   7
ATOM      7  O   UNL     1      -1.392   0.452  -1.230  1.00  0.00    -0.458 OA
BRANCH   7   8
ATOM      8  C   UNL     1      -0.644   1.547  -0.973  1.00  0.00     0.377 C 
ATOM      9  O   UNL     1      -1.173   2.643  -0.845  1.00  0.00    -0.244 OA
BRANCH   8  10
ATOM     10  C   UNL     1       0.883   1.282  -0.966  1.00  0.00     0.287 C 
ATOM     11  C   UNL     1       1.170  -0.238  -1.125  1.00  0.00     0.103 C 
BRANCH  10  12
ATOM     12  N   UNL     1       1.486   1.933  -2.180  1.00  0.00    -0.324 N 
ATOM     13  H   UNL     1       1.348   1.296  -2.965  1.00  0.00     0.347 HD
ATOM     14  H   UNL     1       2.455   2.111  -1.917  1.00  0.00     0.347 HD
BRANCH  12  15
ATOM     15  C   UNL     1       0.969   3.252  -2.592  1.00  0.00     0.270 C 
BRANCH  15  16
ATOM     16  C   UNL     1       1.355   4.511  -1.746  1.00  0.00     0.074 C 
ATOM     17  C   UNL     1       0.381   4.955  -0.629  1.00  0.00     0.014 C 
ATOM     18  C   UNL     1       1.598   5.683  -2.688  1.00  0.00    -0.036 A 
ATOM     19  C   UNL     1      -0.867   5.625  -1.187  1.00  0.00     0.006 C 
ATOM     20  C   UNL     1       0.727   6.788  -2.757  1.00  0.00    -0.044 A 
ATOM     21  C   UNL     1       2.717   5.625  -3.535  1.00  0.00     0.004 A 
ATOM     22  C   UNL     1      -0.465   6.935  -1.843  1.00  0.00     0.036 C 
ATOM     23  C   UNL     1       1.010   7.818  -3.661  1.00  0.00     0.004 A 
ATOM     24  C   UNL     1       2.967   6.641  -4.447  1.00  0.00     0.000 A 
ATOM     25  C   UNL     1       2.116   7.739  -4.507  1.00  0.00     0.000 A 
ENDBRANCH  15  16
ENDBRANCH  12  15
ENDBRANCH  10  12
BRANCH  10  26
ATOM     26  C   UNL     1       1.554   1.695   0.382  1.00  0.00     0.455 C 
ATOM     27  F   UNL     1       0.878   1.340   1.491  1.00  0.00    -0.164 F 
ATOM     28  F   UNL     1       2.784   1.115   0.487  1.00  0.00    -0.164 F 
ATOM     29  F   UNL     1       1.795   3.015   0.502  1.00  0.00    -0.164 F 
ENDBRANCH  10  26
ENDBRANCH   8  10
ENDBRANCH   7   8
ENDBRANCH   6   7
ENDBRANCH   5   6
ENDBRANCH   4   5
ENDBRANCH   3   4
ENDBRANCH   2   3
ENDBRANCH   1   2
BRANCH   1  30
ATOM     30  C   UNL     1      -3.288  -1.782   1.167  1.00  0.00     0.188 C 
BRANCH  30  31
ATOM     31  C   UNL     1      -4.071  -1.324   2.416  1.00  0.00     0.188 C 
BRANCH  31  32
ATOM     32  O   UNL     1      -3.299  -0.716   3.442  1.00  0.00    -0.376 OA
BRANCH  32  33
ATOM     33  C   UNL     1      -2.913  -1.492   4.562  1.00  0.00     0.202 C 
BRANCH  33  34
ATOM     34  C   UNL     1      -1.888  -2.609   4.322  1.00  0.00     0.261 C 
BRANCH  34  35
ATOM     35  O   UNL     1      -2.252  -3.604   3.360  1.00  0.00    -0.460 OA
BRANCH  35  36
ATOM     36  C   UNL     1      -3.397  -4.291   3.564  1.00  0.00     0.338 C 
ATOM     37  O   UNL     1      -4.170  -4.181   4.500  1.00  0.00    -0.246 OA
BRANCH  36  38
ATOM     38  C   UNL     1      -3.656  -5.069   2.338  1.00  0.00     0.060 A 
ATOM     39  C   UNL     1      -4.835  -4.834   1.612  1.00  0.00     0.016 A 
ATOM     40  C   UNL     1      -2.701  -5.976   1.877  1.00  0.00     0.016 A 
ATOM     41  C   UNL     1      -5.075  -5.534   0.431  1.00  0.00     0.010 A 
ATOM     42  C   UNL     1      -2.958  -6.699   0.716  1.00  0.00     0.010 A 
ATOM     43  C   UNL     1      -4.161  -6.507   0.012  1.00  0.00    -0.014 A 
BRANCH  43  44
ATOM     44  C   UNL     1      -4.555  -7.520  -0.990  1.00  0.00     0.031 A 
ATOM     45  C   UNL     1      -5.076  -8.828  -0.469  1.00  0.00     0.074 A 
ATOM     46  C   UNL     1      -4.375  -7.325  -2.305  1.00  0.00     0.049 A 
ATOM     47  N   UNL     1      -5.318  -9.940  -1.108  1.00  0.00    -0.248 NA
ATOM     48  C   UNL     1      -5.338  -8.892   0.979  1.00  0.00     0.031 C 
ATOM     49  C   UNL     1      -3.887  -6.093  -2.919  1.00  0.00     0.029 A 
ATOM     50  N   UNL     1      -4.535  -8.193  -3.356  1.00  0.00    -0.354 N 
ATOM     51  C   UNL     1      -5.707 -10.851  -0.134  1.00  0.00     0.074 A 
ATOM     52  C   UNL     1      -5.672 -10.162   1.136  1.00  0.00     0.031 C 
ATOM     53  C   UNL     1      -3.732  -6.302  -4.239  1.00  0.00     0.029 A 
ATOM     54  C   UNL     1      -4.071  -7.691  -4.548  1.00  0.00     0.049 A 
ATOM     55  H   UNL     1      -4.942  -9.085  -3.265  1.00  0.00     0.167 HD
ATOM     56  C   UNL     1      -6.058 -12.148  -0.284  1.00  0.00     0.034 A 
ATOM     57  C   UNL     1      -3.892  -8.302  -5.737  1.00  0.00     0.034 A 
ATOM     58  C   UNL     1      -6.087 -12.822  -1.550  1.00  0.00     0.049 A 
ATOM     59  C   UNL     1      -4.269  -9.753  -5.885  1.00  0.00     0.074 A 
ATOM     60  C   UNL     1      -6.482 -14.118  -1.826  1.00  0.00     0.029 A 
ATOM     61  N   UNL     1      -5.680 -12.260  -2.751  1.00  0.00    -0.354 N 
ATOM     62  N   UNL     1      -4.740 -10.580  -4.981  1.00  0.00    -0.248 NA
ATOM     63  C   UNL     1      -4.118 -10.350  -7.220  1.00  0.00     0.031 C 
ATOM     64  C   UNL     1      -6.272 -14.353  -3.188  1.00  0.00     0.029 A 
ATOM     65  C   UNL     1      -5.797 -13.188  -3.770  1.00  0.00     0.049 A 
ATOM     66  H   UNL     1      -5.356 -11.337  -2.862  1.00  0.00     0.167 HD
ATOM     67  C   UNL     1      -4.980 -11.779  -5.644  1.00  0.00     0.074 A 
ATOM     68  C   UNL     1      -4.605 -11.570  -7.028  1.00  0.00     0.031 C 
ATOM     69  C   UNL     1      -5.466 -12.946  -5.153  1.00  0.00     0.034 A 
BRANCH  56  70
ATOM     70  C   UNL     1      -6.415 -12.914   0.962  1.00  0.00     0.023 A 
ATOM     71  C   UNL     1      -7.597 -12.608   1.667  1.00  0.00     0.012 A 
ATOM     72  C   UNL     1      -5.573 -13.938   1.437  1.00  0.00     0.148 A 
ATOM     73  C   UNL     1      -7.909 -13.274   2.852  1.00  0.00     0.002 A 
ATOM     74  C   UNL     1      -5.918 -14.633   2.589  1.00  0.00     0.091 A 
ATOM     75  F   UNL     1      -4.437 -14.194   0.772  1.00  0.00    -0.205 F 
ATOM     76  C   UNL     1      -7.075 -14.291   3.307  1.00  0.00     0.022 A 
BRANCH  74  77
ATOM     77  S   UNL     1      -4.950 -16.015   3.203  1.00  0.00     0.127 S 
ATOM     78  O   UNL     1      -4.296 -15.422   4.369  1.00  0.00    -0.237 OA
ATOM     79  O   UNL     1      -5.985 -16.999   3.520  1.00  0.00    -0.237 OA
ATOM     80  O   UNL     1      -4.064 -16.398   2.113  1.00  0.00    -0.744 OA
ENDBRANCH  74  77
ENDBRANCH  56  70
BRANCH  57  81
ATOM     81  C   UNL     1      -3.333  -7.527  -6.879  1.00  0.00     0.023 A 
ATOM     82  C   UNL     1      -4.168  -7.171  -7.955  1.00  0.00     0.012 A 
ATOM     83  C   UNL     1      -1.993  -7.092  -6.873  1.00  0.00     0.148 A 
ATOM     84  C   UNL     1      -3.674  -6.406  -9.013  1.00  0.00     0.002 A 
ATOM     85  C   UNL     1      -1.523  -6.285  -7.902  1.00  0.00     0.091 A 
ATOM     86  F   UNL     1      -1.215  -7.452  -5.843  1.00  0.00    -0.205 F 
ATOM     87  C   UNL     1      -2.357  -5.953  -8.980  1.00  0.00     0.022 A 
BRANCH  85  88
ATOM     88  S   UNL     1       0.115  -5.547  -7.884  1.00  0.00     0.127 S 
ATOM     89  O   UNL     1       0.731  -6.156  -9.060  1.00  0.00    -0.237 OA
ATOM     90  O   UNL     1      -0.200  -4.125  -8.019  1.00  0.00    -0.237 OA
ATOM     91  O   UNL     1       0.705  -5.919  -6.606  1.00  0.00    -0.744 OA
ENDBRANCH  85  88
ENDBRANCH  57  81
BRANCH  69  92
ATOM     92  C   UNL     1      -5.691 -14.085  -6.114  1.00  0.00     0.023 A 
ATOM     93  C   UNL     1      -4.598 -14.809  -6.627  1.00  0.00     0.012 A 
ATOM     94  C   UNL     1      -7.003 -14.506  -6.412  1.00  0.00     0.148 A 
ATOM     95  C   UNL     1      -4.809 -15.924  -7.439  1.00  0.00     0.002 A 
ATOM     96  C   UNL     1      -7.205 -15.648  -7.176  1.00  0.00     0.091 A 
ATOM     97  F   UNL     1      -8.029 -13.792  -5.925  1.00  0.00    -0.205 F 
ATOM     98  C   UNL     1      -6.110 -16.352  -7.701  1.00  0.00     0.022 A 
BRANCH  96  99
ATOM     99  S   UNL     1      -8.839 -16.332  -7.474  1.00  0.00     0.127 S 
ATOM    100  O   UNL     1      -9.008 -16.088  -8.906  1.00  0.00    -0.237 OA
ATOM    101  O   UNL     1      -8.656 -17.738  -7.112  1.00  0.00    -0.237 OA
ATOM    102  O   UNL     1      -9.750 -15.597  -6.607  1.00  0.00    -0.744 OA
ENDBRANCH  96  99
ENDBRANCH  69  92
ENDBRANCH  43  44
ENDBRANCH  36  38
ENDBRANCH  35  36
ENDBRANCH  34  35
ENDBRANCH  33  34
ENDBRANCH  32  33
ENDBRANCH  31  32
ENDBRANCH  30  31
ENDBRANCH   1  30
TORSDOF 27
