REMARK SMILES CCOc1cc(OCC)cc(-c2ccc([C@@H](C)C(=O)OCCOCCOCCOCCOC(=O)c3ccc(-c4c5nc(c(-c6cccc(S(=O)(=O)[O-])c6F)c6ccc([nH]6)c(-c6cccc(S(=O)(=O)[O-])c6F)c6nc(c(-c7cccc(S(=O)(=O)[O-])c7F)c7ccc4[nH]7)C=C6)C=C5)cc3)cc2)c1
REMARK SMILES IDX 25 1 24 2 23 3 22 4 21 5 20 6 18 7 19 8 16 9 17 10 15 11
REMARK SMILES IDX 12 12 13 13 99 14 14 15 98 16 11 17 4 18 5 19 100 20 6 21
REMARK SMILES IDX 10 22 3 23 2 24 1 25 7 26 8 27 9 28 26 29 27 30 28 31 29 32
REMARK SMILES IDX 30 33 31 34 32 35 33 36 34 37 35 38 36 39 97 40 37 41 96 42
REMARK SMILES IDX 38 43 39 44 40 45 90 46 41 47 95 48 89 49 91 50 42 51 94 52
REMARK SMILES IDX 88 53 87 54 43 56 75 57 55 58 74 59 56 60 59 61 73 62 92 63
REMARK SMILES IDX 57 64 58 65 72 67 93 68 60 69 44 70 45 71 53 72 46 73 48 74
REMARK SMILES IDX 54 75 47 76 49 77 50 78 51 79 52 80 76 81 77 82 85 83 78 84
REMARK SMILES IDX 80 85 86 86 79 87 81 88 82 89 83 90 84 91 61 92 62 93 70 94
REMARK SMILES IDX 63 95 65 96 71 97 64 98 66 99 67 100 68 101 69 102
REMARK H PARENT 91 55 59 66
REMARK Flexibility Score: inf
ROOT
ATOM      1  C   UNL     1       5.981   3.284  -1.487  1.00  0.00     0.188 C 
ENDROOT
BRANCH   1   2
ATOM      2  C   UNL     1       6.322   4.735  -1.853  1.00  0.00     0.188 C 
BRANCH   2   3
ATOM      3  O   UNL     1       7.050   5.043  -3.034  1.00  0.00    -0.376 OA
BRANCH   3   4
ATOM      4  C   UNL     1       8.125   4.214  -3.458  1.00  0.00     0.202 C 
BRANCH   4   5
ATOM      5  C   UNL     1       9.258   3.803  -2.497  1.00  0.00     0.261 C 
BRANCH   5   6
ATOM      6  O   UNL     1       8.874   3.301  -1.202  1.00  0.00    -0.463 OA
BRANCH   6   7
ATOM      7  C   UNL     1       9.043   4.138  -0.156  1.00  0.00     0.313 C 
ATOM      8  O   UNL     1       9.496   5.278  -0.266  1.00  0.00    -0.252 OA
BRANCH   7   9
ATOM      9  C   UNL     1       8.653   3.587   1.214  1.00  0.00     0.126 C 
ATOM     10  C   UNL     1       9.924   3.313   2.008  1.00  0.00     0.025 C 
BRANCH   9  11
ATOM     11  C   UNL     1       7.653   2.439   1.350  1.00  0.00    -0.034 A 
ATOM     12  C   UNL     1       5.701   0.367   1.673  1.00  0.00    -0.018 A 
ATOM     13  C   UNL     1       6.885   0.162   0.940  1.00  0.00     0.009 A 
ATOM     14  C   UNL     1       5.505   1.633   2.235  1.00  0.00     0.009 A 
ATOM     15  C   UNL     1       7.849   1.175   0.786  1.00  0.00     0.005 A 
ATOM     16  C   UNL     1       6.466   2.644   2.088  1.00  0.00     0.005 A 
BRANCH  12  17
ATOM     17  C   UNL     1       4.761  -0.742   1.934  1.00  0.00    -0.011 A 
ATOM     18  C   UNL     1       2.543  -1.753   1.944  1.00  0.00     0.123 A 
ATOM     19  C   UNL     1       3.054  -2.902   2.546  1.00  0.00     0.092 A 
ATOM     20  C   UNL     1       3.387  -0.673   1.651  1.00  0.00     0.055 A 
ATOM     21  C   UNL     1       4.407  -2.978   2.870  1.00  0.00     0.123 A 
ATOM     22  C   UNL     1       5.243  -1.904   2.559  1.00  0.00     0.055 A 
BRANCH  18  23
ATOM     23  O   UNL     1       1.181  -1.658   1.836  1.00  0.00    -0.494 OA
BRANCH  23  24
ATOM     24  C   UNL     1       0.687  -1.690   0.494  1.00  0.00     0.226 C 
ATOM     25  C   UNL     1       0.561  -0.284  -0.054  1.00  0.00     0.049 C 
ENDBRANCH  23  24
ENDBRANCH  18  23
BRANCH  21  26
ATOM     26  O   UNL     1       4.804  -4.133   3.489  1.00  0.00    -0.494 OA
BRANCH  26  27
ATOM     27  C   UNL     1       6.071  -4.121   4.154  1.00  0.00     0.226 C 
ATOM     28  C   UNL     1       7.204  -4.503   3.214  1.00  0.00     0.049 C 
ENDBRANCH  26  27
ENDBRANCH  21  26
ENDBRANCH  12  17
ENDBRANCH   9  11
ENDBRANCH   7   9
ENDBRANCH   6   7
ENDBRANCH   5   6
ENDBRANCH   4   5
ENDBRANCH   3   4
ENDBRANCH   2   3
ENDBRANCH   1   2
BRANCH   1  29
ATOM     29  O   UNL     1       6.649   2.305  -2.251  1.00  0.00    -0.377 OA
BRANCH  29  30
ATOM     30  C   UNL     1       5.903   1.661  -3.269  1.00  0.00     0.188 C 
BRANCH  30  31
ATOM     31  C   UNL     1       4.940   2.535  -4.096  1.00  0.00     0.188 C 
BRANCH  31  32
ATOM     32  O   UNL     1       4.049   3.324  -3.318  1.00  0.00    -0.376 OA
BRANCH  32  33
ATOM     33  C   UNL     1       2.758   2.804  -3.053  1.00  0.00     0.202 C 
BRANCH  33  34
ATOM     34  C   UNL     1       2.643   1.510  -2.236  1.00  0.00     0.261 C 
BRANCH  34  35
ATOM     35  O   UNL     1       3.318   0.344  -2.731  1.00  0.00    -0.460 OA
BRANCH  35  36
ATOM     36  C   UNL     1       2.953  -0.157  -3.928  1.00  0.00     0.338 C 
ATOM     37  O   UNL     1       2.030   0.236  -4.626  1.00  0.00    -0.246 OA
BRANCH  36  38
ATOM     38  C   UNL     1       3.992  -1.123  -4.357  1.00  0.00     0.060 A 
ATOM     39  C   UNL     1       4.763  -0.821  -5.488  1.00  0.00     0.016 A 
ATOM     40  C   UNL     1       4.229  -2.302  -3.645  1.00  0.00     0.016 A 
ATOM     41  C   UNL     1       5.760  -1.699  -5.918  1.00  0.00     0.010 A 
ATOM     42  C   UNL     1       5.208  -3.197  -4.099  1.00  0.00     0.010 A 
ATOM     43  C   UNL     1       5.966  -2.911  -5.249  1.00  0.00    -0.014 A 
BRANCH  43  44
ATOM     44  C   UNL     1       6.877  -3.932  -5.830  1.00  0.00     0.031 A 
ATOM     45  C   UNL     1       6.288  -5.065  -6.626  1.00  0.00     0.074 A 
ATOM     46  C   UNL     1       8.210  -3.861  -5.653  1.00  0.00     0.049 A 
ATOM     47  N   UNL     1       6.885  -6.089  -7.178  1.00  0.00    -0.248 NA
ATOM     48  C   UNL     1       4.830  -5.037  -6.829  1.00  0.00     0.031 C 
ATOM     49  C   UNL     1       8.909  -2.808  -4.920  1.00  0.00     0.029 A 
ATOM     50  N   UNL     1       9.210  -4.714  -6.054  1.00  0.00    -0.354 N 
ATOM     51  C   UNL     1       5.877  -6.847  -7.762  1.00  0.00     0.074 A 
ATOM     52  C   UNL     1       4.629  -6.162  -7.499  1.00  0.00     0.031 C 
ATOM     53  C   UNL     1      10.222  -3.098  -4.888  1.00  0.00     0.029 A 
ATOM     54  C   UNL     1      10.450  -4.372  -5.569  1.00  0.00     0.049 A 
ATOM     55  H   UNL     1       9.053  -5.495  -6.633  1.00  0.00     0.167 HD
ATOM     56  C   UNL     1       5.979  -8.005  -8.457  1.00  0.00     0.034 A 
ATOM     57  C   UNL     1      11.627  -5.029  -5.632  1.00  0.00     0.034 A 
ATOM     58  C   UNL     1       7.219  -8.682  -8.724  1.00  0.00     0.049 A 
ATOM     59  C   UNL     1      11.706  -6.341  -6.372  1.00  0.00     0.074 A 
ATOM     60  C   UNL     1       7.425  -9.832  -9.467  1.00  0.00     0.029 A 
ATOM     61  N   UNL     1       8.457  -8.293  -8.239  1.00  0.00    -0.354 N 
ATOM     62  N   UNL     1      10.765  -6.982  -7.022  1.00  0.00    -0.248 NA
ATOM     63  C   UNL     1      13.017  -7.009  -6.408  1.00  0.00     0.031 C 
ATOM     64  C   UNL     1       8.781 -10.165  -9.390  1.00  0.00     0.029 A 
ATOM     65  C   UNL     1       9.428  -9.195  -8.642  1.00  0.00     0.049 A 
ATOM     66  H   UNL     1       8.622  -7.493  -7.690  1.00  0.00     0.167 HD
ATOM     67  C   UNL     1      11.375  -8.107  -7.569  1.00  0.00     0.074 A 
ATOM     68  C   UNL     1      12.772  -8.047  -7.196  1.00  0.00     0.031 C 
ATOM     69  C   UNL     1      10.825  -9.108  -8.302  1.00  0.00     0.034 A 
BRANCH  56  70
ATOM     70  C   UNL     1       4.709  -8.623  -8.982  1.00  0.00     0.023 A 
ATOM     71  C   UNL     1       4.034  -8.031 -10.068  1.00  0.00     0.012 A 
ATOM     72  C   UNL     1       4.226  -9.831  -8.442  1.00  0.00     0.148 A 
ATOM     73  C   UNL     1       2.880  -8.616 -10.589  1.00  0.00     0.002 A 
ATOM     74  C   UNL     1       3.104 -10.433  -8.997  1.00  0.00     0.091 A 
ATOM     75  F   UNL     1       4.872 -10.367  -7.396  1.00  0.00    -0.205 F 
ATOM     76  C   UNL     1       2.423  -9.822 -10.062  1.00  0.00     0.022 A 
BRANCH  74  77
ATOM     77  S   UNL     1       2.484 -12.025  -8.443  1.00  0.00     0.127 S 
ATOM     78  O   UNL     1       1.206 -11.649  -7.839  1.00  0.00    -0.237 OA
ATOM     79  O   UNL     1       2.369 -12.762  -9.702  1.00  0.00    -0.237 OA
ATOM     80  O   UNL     1       3.479 -12.547  -7.518  1.00  0.00    -0.744 OA
ENDBRANCH  74  77
ENDBRANCH  56  70
BRANCH  57  81
ATOM     81  C   UNL     1      12.837  -4.463  -4.967  1.00  0.00     0.023 A 
ATOM     82  C   UNL     1      13.926  -4.026  -5.745  1.00  0.00     0.012 A 
ATOM     83  C   UNL     1      12.913  -4.364  -3.563  1.00  0.00     0.148 A 
ATOM     84  C   UNL     1      15.082  -3.533  -5.137  1.00  0.00     0.002 A 
ATOM     85  C   UNL     1      14.042  -3.816  -2.967  1.00  0.00     0.091 A 
ATOM     86  F   UNL     1      11.875  -4.805  -2.839  1.00  0.00    -0.205 F 
ATOM     87  C   UNL     1      15.136  -3.418  -3.751  1.00  0.00     0.022 A 
BRANCH  85  88
ATOM     88  S   UNL     1      14.146  -3.510  -1.200  1.00  0.00     0.127 S 
ATOM     89  O   UNL     1      15.174  -4.464  -0.791  1.00  0.00    -0.237 OA
ATOM     90  O   UNL     1      14.557  -2.106  -1.164  1.00  0.00    -0.237 OA
ATOM     91  O   UNL     1      12.810  -3.758  -0.676  1.00  0.00    -0.744 OA
ENDBRANCH  85  88
ENDBRANCH  57  81
BRANCH  69  92
ATOM     92  C   UNL     1      11.735 -10.211  -8.784  1.00  0.00     0.023 A 
ATOM     93  C   UNL     1      12.260 -11.144  -7.868  1.00  0.00     0.012 A 
ATOM     94  C   UNL     1      12.011 -10.365 -10.158  1.00  0.00     0.148 A 
ATOM     95  C   UNL     1      13.074 -12.188  -8.306  1.00  0.00     0.002 A 
ATOM     96  C   UNL     1      12.779 -11.438 -10.593  1.00  0.00     0.091 A 
ATOM     97  F   UNL     1      11.513  -9.461 -11.015  1.00  0.00    -0.205 F 
ATOM     98  C   UNL     1      13.324 -12.342  -9.667  1.00  0.00     0.022 A 
BRANCH  96  99
ATOM     99  S   UNL     1      13.075 -11.774 -12.333  1.00  0.00     0.127 S 
ATOM    100  O   UNL     1      14.506 -11.493 -12.451  1.00  0.00    -0.237 OA
ATOM    101  O   UNL     1      12.721 -13.190 -12.438  1.00  0.00    -0.237 OA
ATOM    102  O   UNL     1      12.202 -10.874 -13.073  1.00  0.00    -0.744 OA
ENDBRANCH  96  99
ENDBRANCH  69  92
ENDBRANCH  43  44
ENDBRANCH  36  38
ENDBRANCH  35  36
ENDBRANCH  34  35
ENDBRANCH  33  34
ENDBRANCH  32  33
ENDBRANCH  31  32
ENDBRANCH  30  31
ENDBRANCH  29  30
ENDBRANCH   1  29
TORSDOF 29
