REMARK SMILES COC(=O)C1CN(C(=O)NC(=O)CCCC(=O)OCCOCCOCCOCCOC(=O)c2ccc(-c3c4nc(c(-c5cccc(S(=O)(=O)[O-])c5F)c5ccc([nH]5)c(-c5cccc(S(=O)(=O)[O-])c5F)c5nc(c(-c6cccc(S(=O)(=O)[O-])c6F)c6ccc3[nH]6)C=C5)C=C4)cc2)C[C@H]1C
REMARK SMILES IDX 22 1 21 2 20 3 19 4 18 5 16 6 17 7 15 8 14 9 13 10 11 11
REMARK SMILES IDX 8 12 9 13 10 14 12 16 7 17 5 18 6 19 97 20 96 21 98 22 3 23
REMARK SMILES IDX 4 24 2 25 1 26 23 27 24 28 25 29 26 30 27 31 28 32 29 33
REMARK SMILES IDX 30 34 31 35 32 36 33 37 34 38 95 39 35 40 94 41 36 42 37 43
REMARK SMILES IDX 38 44 88 45 39 46 93 47 87 48 89 49 40 50 92 51 86 52 85 53
REMARK SMILES IDX 41 55 73 56 53 57 72 58 54 59 57 60 71 61 90 62 55 63 56 64
REMARK SMILES IDX 70 66 91 67 58 68 42 69 43 70 51 71 44 72 46 73 52 74 45 75
REMARK SMILES IDX 47 76 48 77 49 78 50 79 74 80 75 81 83 82 76 83 78 84 84 85
REMARK SMILES IDX 77 86 79 87 80 88 81 89 82 90 59 91 60 92 68 93 61 94 63 95
REMARK SMILES IDX 69 96 62 97 64 98 65 99 66 100 67 101
REMARK H PARENT 10 15 89 54 57 65
REMARK Flexibility Score: inf
ROOT
ATOM      1  C   UNL     1       0.443   4.334  -2.210  1.00  0.00     0.188 C 
ENDROOT
BRANCH   1   2
ATOM      2  O   UNL     1       1.345   4.563  -3.495  1.00  0.00    -0.376 OA
BRANCH   2   3
ATOM      3  C   UNL     1       2.622   3.954  -4.181  1.00  0.00     0.202 C 
BRANCH   3   4
ATOM      4  C   UNL     1       4.204   3.804  -3.429  1.00  0.00     0.261 C 
BRANCH   4   5
ATOM      5  O   UNL     1       4.185   3.915  -1.667  1.00  0.00    -0.463 OA
BRANCH   5   6
ATOM      6  C   UNL     1       3.087   4.391  -0.201  1.00  0.00     0.305 C 
ATOM      7  O   UNL     1       2.039   5.075  -0.245  1.00  0.00    -0.252 OA
BRANCH   6   8
ATOM      8  C   UNL     1       3.417   4.257   1.388  1.00  0.00     0.123 C 
BRANCH   8   9
ATOM      9  C   UNL     1       3.045   3.052   2.252  1.00  0.00     0.022 C 
BRANCH   9  10
ATOM     10  C   UNL     1       4.128   2.020   2.535  1.00  0.00     0.101 C 
BRANCH  10  11
ATOM     11  C   UNL     1       5.498   2.576   2.806  1.00  0.00     0.228 C 
ATOM     12  C   UNL     1       6.165   3.924   0.813  1.00  0.00     0.324 C 
ATOM     13  O   UNL     1       6.862   4.939   0.899  1.00  0.00    -0.248 OA
ATOM     14  N   UNL     1       6.322   2.946   1.760  1.00  0.00    -0.278 N 
ATOM     15  H   UNL     1       7.152   2.423   1.682  1.00  0.00     0.174 HD
ATOM     16  O   UNL     1       5.896   2.669   3.970  1.00  0.00    -0.275 OA
BRANCH  12  17
ATOM     17  N   UNL     1       5.157   3.866  -0.112  1.00  0.00    -0.323 N 
ATOM     18  C   UNL     1       2.551   3.186  -1.909  1.00  0.00     0.123 C 
ATOM     19  C   UNL     1       3.981   2.449  -0.642  1.00  0.00     0.137 C 
ATOM     20  C   UNL     1       3.094   5.240  -2.120  1.00  0.00     0.021 C 
ATOM     21  C   UNL     1       4.739   5.515  -0.966  1.00  0.00     0.125 C 
ATOM     22  C   UNL     1       3.470   6.288  -3.314  1.00  0.00     0.010 C 
BRANCH  18  23
ATOM     23  C   UNL     1       1.067   2.202  -2.726  1.00  0.00     0.310 C 
ATOM     24  O   UNL     1       0.939   2.116  -3.954  1.00  0.00    -0.252 OA
BRANCH  23  25
ATOM     25  O   UNL     1      -0.116   1.633  -2.104  1.00  0.00    -0.469 OA
ATOM     26  C   UNL     1      -0.790   0.875  -0.874  1.00  0.00     0.282 C 
ENDBRANCH  23  25
ENDBRANCH  18  23
ENDBRANCH  12  17
ENDBRANCH  10  11
ENDBRANCH   9  10
ENDBRANCH   8   9
ENDBRANCH   6   8
ENDBRANCH   5   6
ENDBRANCH   4   5
ENDBRANCH   3   4
ENDBRANCH   2   3
ENDBRANCH   1   2
BRANCH   1  27
ATOM     27  C   UNL     1       0.529   3.245  -0.698  1.00  0.00     0.188 C 
BRANCH  27  28
ATOM     28  O   UNL     1       1.439   1.894  -0.407  1.00  0.00    -0.377 OA
BRANCH  28  29
ATOM     29  C   UNL     1       1.844   0.487  -1.095  1.00  0.00     0.188 C 
BRANCH  29  30
ATOM     30  C   UNL     1       1.728  -0.261  -2.573  1.00  0.00     0.188 C 
BRANCH  30  31
ATOM     31  O   UNL     1       0.698  -0.391  -3.548  1.00  0.00    -0.376 OA
BRANCH  31  32
ATOM     32  C   UNL     1      -0.685  -0.706  -3.510  1.00  0.00     0.202 C 
BRANCH  32  33
ATOM     33  C   UNL     1      -1.155  -1.981  -2.803  1.00  0.00     0.261 C 
BRANCH  33  34
ATOM     34  O   UNL     1      -0.087  -2.899  -2.651  1.00  0.00    -0.460 OA
BRANCH  34  35
ATOM     35  C   UNL     1       0.342  -3.357  -3.849  1.00  0.00     0.338 C 
ATOM     36  O   UNL     1      -0.293  -3.410  -4.887  1.00  0.00    -0.246 OA
BRANCH  35  37
ATOM     37  C   UNL     1       1.796  -3.520  -3.742  1.00  0.00     0.060 A 
ATOM     38  C   UNL     1       2.567  -3.063  -4.816  1.00  0.00     0.016 A 
ATOM     39  C   UNL     1       2.388  -4.056  -2.592  1.00  0.00     0.016 A 
ATOM     40  C   UNL     1       3.938  -3.263  -4.801  1.00  0.00     0.010 A 
ATOM     41  C   UNL     1       3.761  -4.259  -2.576  1.00  0.00     0.010 A 
ATOM     42  C   UNL     1       4.513  -3.942  -3.720  1.00  0.00    -0.014 A 
BRANCH  42  43
ATOM     43  C   UNL     1       5.767  -4.678  -3.960  1.00  0.00     0.031 A 
ATOM     44  C   UNL     1       5.630  -6.081  -4.488  1.00  0.00     0.074 A 
ATOM     45  C   UNL     1       6.967  -4.128  -3.726  1.00  0.00     0.049 A 
ATOM     46  N   UNL     1       6.557  -6.956  -4.761  1.00  0.00    -0.248 NA
ATOM     47  C   UNL     1       4.257  -6.563  -4.738  1.00  0.00     0.031 C 
ATOM     48  C   UNL     1       7.202  -2.775  -3.230  1.00  0.00     0.029 A 
ATOM     49  N   UNL     1       8.218  -4.669  -3.856  1.00  0.00    -0.354 N 
ATOM     50  C   UNL     1       5.880  -8.092  -5.187  1.00  0.00     0.074 A 
ATOM     51  C   UNL     1       4.468  -7.806  -5.132  1.00  0.00     0.031 C 
ATOM     52  C   UNL     1       8.525  -2.603  -3.057  1.00  0.00     0.029 A 
ATOM     53  C   UNL     1       9.218  -3.842  -3.410  1.00  0.00     0.049 A 
ATOM     54  H   UNL     1       8.384  -5.564  -4.232  1.00  0.00     0.167 HD
ATOM     55  C   UNL     1       6.391  -9.273  -5.596  1.00  0.00     0.034 A 
ATOM     56  C   UNL     1      10.537  -4.083  -3.277  1.00  0.00     0.034 A 
ATOM     57  C   UNL     1       7.796  -9.551  -5.648  1.00  0.00     0.049 A 
ATOM     58  C   UNL     1      11.080  -5.422  -3.709  1.00  0.00     0.074 A 
ATOM     59  C   UNL     1       8.428 -10.699  -6.083  1.00  0.00     0.029 A 
ATOM     60  N   UNL     1       8.784  -8.675  -5.228  1.00  0.00    -0.354 N 
ATOM     61  N   UNL     1      10.444  -6.446  -4.228  1.00  0.00    -0.248 NA
ATOM     62  C   UNL     1      12.529  -5.628  -3.568  1.00  0.00     0.031 C 
ATOM     63  C   UNL     1       9.802 -10.532  -5.890  1.00  0.00     0.029 A 
ATOM     64  C   UNL     1      10.025  -9.264  -5.374  1.00  0.00     0.049 A 
ATOM     65  H   UNL     1       8.625  -7.769  -4.878  1.00  0.00     0.167 HD
ATOM     66  C   UNL     1      11.417  -7.400  -4.508  1.00  0.00     0.074 A 
ATOM     67  C   UNL     1      12.687  -6.823  -4.119  1.00  0.00     0.031 C 
ATOM     68  C   UNL     1      11.277  -8.645  -5.029  1.00  0.00     0.034 A 
BRANCH  55  69
ATOM     69  C   UNL     1       5.423 -10.345  -6.006  1.00  0.00     0.023 A 
ATOM     70  C   UNL     1       4.721 -10.235  -7.223  1.00  0.00     0.012 A 
ATOM     71  C   UNL     1       5.234 -11.480  -5.194  1.00  0.00     0.148 A 
ATOM     72  C   UNL     1       3.826 -11.229  -7.615  1.00  0.00     0.002 A 
ATOM     73  C   UNL     1       4.377 -12.488  -5.615  1.00  0.00     0.091 A 
ATOM     74  F   UNL     1       5.884 -11.543  -4.024  1.00  0.00    -0.205 F 
ATOM     75  C   UNL     1       3.664 -12.360  -6.818  1.00  0.00     0.022 A 
BRANCH  73  76
ATOM     76  S   UNL     1       4.160 -14.014  -4.696  1.00  0.00     0.127 S 
ATOM     77  O   UNL     1       2.776 -13.890  -4.240  1.00  0.00    -0.237 OA
ATOM     78  O   UNL     1       4.373 -15.025  -5.731  1.00  0.00    -0.237 OA
ATOM     79  O   UNL     1       5.165 -13.998  -3.643  1.00  0.00    -0.744 OA
ENDBRANCH  73  76
ENDBRANCH  55  69
BRANCH  56  80
ATOM     80  C   UNL     1      11.435  -3.037  -2.715  1.00  0.00     0.023 A 
ATOM     81  C   UNL     1      12.407  -2.432  -3.534  1.00  0.00     0.012 A 
ATOM     82  C   UNL     1      11.328  -2.640  -1.368  1.00  0.00     0.148 A 
ATOM     83  C   UNL     1      13.283  -1.478  -3.010  1.00  0.00     0.002 A 
ATOM     84  C   UNL     1      12.162  -1.649  -0.869  1.00  0.00     0.091 A 
ATOM     85  F   UNL     1      10.406  -3.241  -0.601  1.00  0.00    -0.205 F 
ATOM     86  C   UNL     1      13.154  -1.081  -1.682  1.00  0.00     0.022 A 
BRANCH  84  87
ATOM     87  S   UNL     1      11.977  -0.985   0.789  1.00  0.00     0.127 S 
ATOM     88  O   UNL     1      13.166  -1.509   1.456  1.00  0.00    -0.237 OA
ATOM     89  O   UNL     1      11.991   0.456   0.539  1.00  0.00    -0.237 OA
ATOM     90  O   UNL     1      10.701  -1.494   1.274  1.00  0.00    -0.744 OA
ENDBRANCH  84  87
ENDBRANCH  56  80
BRANCH  68  91
ATOM     91  C   UNL     1      12.525  -9.456  -5.255  1.00  0.00     0.023 A 
ATOM     92  C   UNL     1      13.217 -10.005  -4.159  1.00  0.00     0.012 A 
ATOM     93  C   UNL     1      12.951  -9.754  -6.565  1.00  0.00     0.148 A 
ATOM     94  C   UNL     1      14.336 -10.811  -4.362  1.00  0.00     0.002 A 
ATOM     95  C   UNL     1      14.034 -10.601  -6.761  1.00  0.00     0.091 A 
ATOM     96  F   UNL     1      12.284  -9.210  -7.594  1.00  0.00    -0.205 F 
ATOM     97  C   UNL     1      14.736 -11.120  -5.661  1.00  0.00     0.022 A 
BRANCH  95  98
ATOM     98  S   UNL     1      14.551 -11.138  -8.395  1.00  0.00     0.127 S 
ATOM     99  O   UNL     1      15.801 -10.400  -8.568  1.00  0.00    -0.237 OA
ATOM    100  O   UNL     1      14.713 -12.580  -8.211  1.00  0.00    -0.237 OA
ATOM    101  O   UNL     1      13.473 -10.762  -9.301  1.00  0.00    -0.744 OA
ENDBRANCH  95  98
ENDBRANCH  68  91
ENDBRANCH  42  43
ENDBRANCH  35  37
ENDBRANCH  34  35
ENDBRANCH  33  34
ENDBRANCH  32  33
ENDBRANCH  31  32
ENDBRANCH  30  31
ENDBRANCH  29  30
ENDBRANCH  28  29
ENDBRANCH  27  28
ENDBRANCH   1  27
TORSDOF 29
