REMARK SMILES Cc1ccccc1SCC(=O)N[C@H]1C=C[C@H](C(=O)OCCOCCOCCOCCOC(=O)c2ccc(-c3c4nc(c(-c5cccc(S(=O)(=O)[O-])c5F)c5ccc([nH]5)c(-c5cccc(S(=O)(=O)[O-])c5F)c5nc(c(-c6cccc(S(=O)(=O)[O-])c6F)c6ccc3[nH]6)C=C5)C=C4)cc2)C1
REMARK SMILES IDX 24 1 23 2 22 3 21 4 20 5 19 6 17 7 18 8 16 9 13 10 14 11
REMARK SMILES IDX 97 12 15 13 12 14 10 15 11 16 9 18 8 19 7 20 1 21 2 22 3 23
REMARK SMILES IDX 4 24 6 25 5 26 25 27 26 28 27 29 28 30 29 31 30 32 31 33
REMARK SMILES IDX 32 34 33 35 34 36 35 37 96 38 36 39 95 40 37 41 38 42 39 43
REMARK SMILES IDX 89 44 40 45 94 46 88 47 90 48 41 49 93 50 87 51 86 52 42 54
REMARK SMILES IDX 74 55 54 56 73 57 55 58 58 59 72 60 91 61 56 62 57 63 71 65
REMARK SMILES IDX 92 66 59 67 43 68 44 69 52 70 45 71 47 72 53 73 46 74 48 75
REMARK SMILES IDX 49 76 50 77 51 78 75 79 76 80 84 81 77 82 79 83 85 84 78 85
REMARK SMILES IDX 80 86 81 87 82 88 83 89 60 90 61 91 69 92 62 93 64 94 70 95
REMARK SMILES IDX 63 96 65 97 66 98 67 99 68 100
REMARK H PARENT 12 17 90 53 58 64
REMARK Flexibility Score: inf
ROOT
ATOM      1  C   UNL     1       3.150   6.574   0.296  1.00  0.00     0.188 C 
ENDROOT
BRANCH   1   2
ATOM      2  C   UNL     1       2.019   5.646  -0.194  1.00  0.00     0.188 C 
BRANCH   2   3
ATOM      3  O   UNL     1       1.326   5.032   0.877  1.00  0.00    -0.376 OA
BRANCH   3   4
ATOM      4  C   UNL     1      -0.043   5.387   0.987  1.00  0.00     0.202 C 
BRANCH   4   5
ATOM      5  C   UNL     1      -0.426   5.300   2.455  1.00  0.00     0.261 C 
BRANCH   5   6
ATOM      6  O   UNL     1       0.709   5.547   3.286  1.00  0.00    -0.463 OA
BRANCH   6   7
ATOM      7  C   UNL     1       1.258   4.437   3.752  1.00  0.00     0.312 C 
ATOM      8  O   UNL     1       0.676   3.351   3.849  1.00  0.00    -0.252 OA
BRANCH   7   9
ATOM      9  C   UNL     1       2.741   4.665   3.969  1.00  0.00     0.124 C 
ATOM     10  C   UNL     1       3.290   2.477   3.252  1.00  0.00     0.106 C 
ATOM     11  C   UNL     1       3.435   2.591   4.751  1.00  0.00    -0.006 C 
ATOM     12  C   UNL     1       3.513   3.936   2.874  1.00  0.00     0.048 C 
ATOM     13  C   UNL     1       3.136   3.840   5.154  1.00  0.00    -0.014 C 
BRANCH  10  14
ATOM     14  N   UNL     1       4.202   1.558   2.652  1.00  0.00    -0.349 N 
ATOM     15  C   UNL     1       4.198   1.140   1.350  1.00  0.00     0.230 C 
ATOM     16  O   UNL     1       4.940   0.185   1.080  1.00  0.00    -0.274 OA
ATOM     17  H   UNL     1       4.905   1.189   3.234  1.00  0.00     0.164 HD
BRANCH  15  18
ATOM     18  C   UNL     1       3.501   1.895   0.224  1.00  0.00     0.174 C 
BRANCH  18  19
ATOM     19  S   UNL     1       1.712   2.129   0.275  1.00  0.00    -0.116 SA
BRANCH  19  20
ATOM     20  C   UNL     1       0.740   0.670   0.024  1.00  0.00     0.011 A 
ATOM     21  C   UNL     1       2.530  -1.119  -0.350  1.00  0.00     0.045 C 
ATOM     22  C   UNL     1       1.121  -0.662  -0.169  1.00  0.00    -0.038 A 
ATOM     23  C   UNL     1       0.130  -1.669  -0.166  1.00  0.00     0.004 A 
ATOM     24  C   UNL     1      -1.224  -1.363  -0.081  1.00  0.00     0.000 A 
ATOM     25  C   UNL     1      -0.644   0.959   0.064  1.00  0.00     0.015 A 
ATOM     26  C   UNL     1      -1.611  -0.040  -0.004  1.00  0.00     0.001 A 
ENDBRANCH  19  20
ENDBRANCH  18  19
ENDBRANCH  15  18
ENDBRANCH  10  14
ENDBRANCH   7   9
ENDBRANCH   6   7
ENDBRANCH   5   6
ENDBRANCH   4   5
ENDBRANCH   3   4
ENDBRANCH   2   3
ENDBRANCH   1   2
BRANCH   1  27
ATOM     27  O   UNL     1       2.907   7.946   0.577  1.00  0.00    -0.377 OA
BRANCH  27  28
ATOM     28  C   UNL     1       2.212   8.717  -0.395  1.00  0.00     0.188 C 
BRANCH  28  29
ATOM     29  C   UNL     1       2.730   8.610  -1.822  1.00  0.00     0.188 C 
BRANCH  29  30
ATOM     30  O   UNL     1       2.228   7.392  -2.360  1.00  0.00    -0.376 OA
BRANCH  30  31
ATOM     31  C   UNL     1       2.707   6.982  -3.626  1.00  0.00     0.202 C 
BRANCH  31  32
ATOM     32  C   UNL     1       2.435   8.003  -4.730  1.00  0.00     0.261 C 
BRANCH  32  33
ATOM     33  O   UNL     1       1.007   8.105  -4.907  1.00  0.00    -0.460 OA
BRANCH  33  34
ATOM     34  C   UNL     1       0.464   9.308  -4.567  1.00  0.00     0.338 C 
ATOM     35  O   UNL     1       0.833  10.375  -5.028  1.00  0.00    -0.246 OA
BRANCH  34  36
ATOM     36  C   UNL     1      -0.477   9.138  -3.418  1.00  0.00     0.060 A 
ATOM     37  C   UNL     1      -0.985  10.253  -2.737  1.00  0.00     0.016 A 
ATOM     38  C   UNL     1      -0.658   7.879  -2.861  1.00  0.00     0.016 A 
ATOM     39  C   UNL     1      -1.482  10.130  -1.425  1.00  0.00     0.010 A 
ATOM     40  C   UNL     1      -1.095   7.779  -1.551  1.00  0.00     0.010 A 
ATOM     41  C   UNL     1      -1.431   8.908  -0.776  1.00  0.00    -0.014 A 
BRANCH  41  42
ATOM     42  C   UNL     1      -1.630   8.691   0.689  1.00  0.00     0.031 A 
ATOM     43  C   UNL     1      -2.652   7.622   1.062  1.00  0.00     0.074 A 
ATOM     44  C   UNL     1      -0.600   9.063   1.507  1.00  0.00     0.049 A 
ATOM     45  N   UNL     1      -2.902   7.104   2.223  1.00  0.00    -0.248 NA
ATOM     46  C   UNL     1      -3.551   7.064   0.044  1.00  0.00     0.031 C 
ATOM     47  C   UNL     1       0.222   8.191   2.332  1.00  0.00     0.029 A 
ATOM     48  N   UNL     1       0.170  10.201   1.606  1.00  0.00    -0.354 N 
ATOM     49  C   UNL     1      -3.655   5.930   2.034  1.00  0.00     0.074 A 
ATOM     50  C   UNL     1      -4.123   6.037   0.679  1.00  0.00     0.031 C 
ATOM     51  C   UNL     1       1.149   8.814   3.053  1.00  0.00     0.029 A 
ATOM     52  C   UNL     1       0.966  10.183   2.762  1.00  0.00     0.049 A 
ATOM     53  H   UNL     1       0.163  10.933   0.948  1.00  0.00     0.167 HD
ATOM     54  C   UNL     1      -3.670   4.920   2.974  1.00  0.00     0.034 A 
ATOM     55  C   UNL     1       0.939  11.085   3.767  1.00  0.00     0.034 A 
ATOM     56  C   UNL     1      -2.947   5.330   4.226  1.00  0.00     0.049 A 
ATOM     57  C   UNL     1       0.115  10.551   4.953  1.00  0.00     0.074 A 
ATOM     58  C   UNL     1      -1.958   4.755   5.017  1.00  0.00     0.029 A 
ATOM     59  N   UNL     1      -3.074   6.632   4.726  1.00  0.00    -0.354 N 
ATOM     60  N   UNL     1      -0.475   9.365   4.981  1.00  0.00    -0.248 NA
ATOM     61  C   UNL     1      -0.073  11.253   6.221  1.00  0.00     0.031 C 
ATOM     62  C   UNL     1      -1.350   5.776   5.806  1.00  0.00     0.029 A 
ATOM     63  C   UNL     1      -2.056   6.951   5.615  1.00  0.00     0.049 A 
ATOM     64  H   UNL     1      -3.800   7.248   4.477  1.00  0.00     0.167 HD
ATOM     65  C   UNL     1      -1.210   9.209   6.128  1.00  0.00     0.074 A 
ATOM     66  C   UNL     1      -0.855  10.392   6.902  1.00  0.00     0.031 C 
ATOM     67  C   UNL     1      -2.104   8.193   6.378  1.00  0.00     0.034 A 
BRANCH  54  68
ATOM     68  C   UNL     1      -4.118   3.419   2.742  1.00  0.00     0.023 A 
ATOM     69  C   UNL     1      -3.919   2.514   3.817  1.00  0.00     0.012 A 
ATOM     70  C   UNL     1      -4.662   2.796   1.577  1.00  0.00     0.148 A 
ATOM     71  C   UNL     1      -4.144   1.126   3.743  1.00  0.00     0.002 A 
ATOM     72  C   UNL     1      -4.973   1.414   1.526  1.00  0.00     0.091 A 
ATOM     73  F   UNL     1      -4.883   3.507   0.473  1.00  0.00    -0.205 F 
ATOM     74  C   UNL     1      -4.678   0.572   2.597  1.00  0.00     0.022 A 
BRANCH  72  75
ATOM     75  S   UNL     1      -5.790   0.612   0.116  1.00  0.00     0.127 S 
ATOM     76  O   UNL     1      -4.954  -0.567  -0.120  1.00  0.00    -0.237 OA
ATOM     77  O   UNL     1      -7.113   0.305   0.657  1.00  0.00    -0.237 OA
ATOM     78  O   UNL     1      -5.770   1.585  -0.969  1.00  0.00    -0.744 OA
ENDBRANCH  72  75
ENDBRANCH  54  68
BRANCH  55  79
ATOM     79  C   UNL     1       1.375  12.398   3.184  1.00  0.00     0.023 A 
ATOM     80  C   UNL     1       2.731  12.342   2.717  1.00  0.00     0.012 A 
ATOM     81  C   UNL     1       0.441  13.068   2.374  1.00  0.00     0.148 A 
ATOM     82  C   UNL     1       3.045  12.616   1.377  1.00  0.00     0.002 A 
ATOM     83  C   UNL     1       0.760  13.325   1.032  1.00  0.00     0.091 A 
ATOM     84  F   UNL     1      -0.804  13.216   2.844  1.00  0.00    -0.205 F 
ATOM     85  C   UNL     1       2.042  13.048   0.520  1.00  0.00     0.022 A 
BRANCH  83  86
ATOM     86  S   UNL     1      -0.550  13.651  -0.163  1.00  0.00     0.127 S 
ATOM     87  O   UNL     1      -0.583  15.107  -0.193  1.00  0.00    -0.237 OA
ATOM     88  O   UNL     1      -0.032  13.017  -1.376  1.00  0.00    -0.237 OA
ATOM     89  O   UNL     1      -1.719  12.983   0.391  1.00  0.00    -0.744 OA
ENDBRANCH  83  86
ENDBRANCH  55  79
BRANCH  67  90
ATOM     90  C   UNL     1      -3.220   8.285   7.416  1.00  0.00     0.023 A 
ATOM     91  C   UNL     1      -3.728   9.536   7.808  1.00  0.00     0.012 A 
ATOM     92  C   UNL     1      -3.952   7.138   7.835  1.00  0.00     0.148 A 
ATOM     93  C   UNL     1      -4.849   9.652   8.631  1.00  0.00     0.002 A 
ATOM     94  C   UNL     1      -5.145   7.267   8.539  1.00  0.00     0.091 A 
ATOM     95  F   UNL     1      -3.499   5.906   7.567  1.00  0.00    -0.205 F 
ATOM     96  C   UNL     1      -5.574   8.521   8.975  1.00  0.00     0.022 A 
BRANCH  94  97
ATOM     97  S   UNL     1      -6.273   5.878   8.747  1.00  0.00     0.127 S 
ATOM     98  O   UNL     1      -5.963   5.438  10.106  1.00  0.00    -0.237 OA
ATOM     99  O   UNL     1      -7.582   6.517   8.598  1.00  0.00    -0.237 OA
ATOM    100  O   UNL     1      -5.943   4.942   7.681  1.00  0.00    -0.744 OA
ENDBRANCH  94  97
ENDBRANCH  67  90
ENDBRANCH  41  42
ENDBRANCH  34  36
ENDBRANCH  33  34
ENDBRANCH  32  33
ENDBRANCH  31  32
ENDBRANCH  30  31
ENDBRANCH  29  30
ENDBRANCH  28  29
ENDBRANCH  27  28
ENDBRANCH   1  27
TORSDOF 27
