REMARK SMILES COCC[C@H](NC(=O)c1ccc(Br)nc1)C(=O)OCCOCCOCCOCCOC(=O)c1ccc(-c2c3nc(c(-c4cccc(S(=O)(=O)[O-])c4F)c4ccc([nH]4)c(-c4cccc(S(=O)(=O)[O-])c4F)c4nc(c(-c5cccc(S(=O)(=O)[O-])c5F)c5ccc2[nH]5)C=C4)C=C3)cc1
REMARK SMILES IDX 24 1 23 2 22 3 21 4 20 5 19 6 18 7 16 8 17 9 5 10 4 11 3 12
REMARK SMILES IDX 2 13 1 14 6 15 7 16 8 18 9 19 10 20 15 21 11 22 14 23 12 24
REMARK SMILES IDX 13 25 25 26 26 27 27 28 28 29 29 30 30 31 31 32 32 33 33 34
REMARK SMILES IDX 34 35 95 36 35 37 94 38 36 39 37 40 38 41 88 42 39 43 93 44
REMARK SMILES IDX 87 45 89 46 40 47 92 48 86 49 85 50 41 52 73 53 53 54 72 55
REMARK SMILES IDX 54 56 57 57 71 58 90 59 55 60 56 61 70 63 91 64 58 65 42 66
REMARK SMILES IDX 43 67 51 68 44 69 46 70 52 71 45 72 47 73 48 74 49 75 50 76
REMARK SMILES IDX 74 77 75 78 83 79 76 80 78 81 84 82 77 83 79 84 80 85 81 86
REMARK SMILES IDX 82 87 59 88 60 89 68 90 61 91 63 92 69 93 62 94 64 95 65 96
REMARK SMILES IDX 66 97 67 98
REMARK H PARENT 6 17 89 51 57 62
REMARK Flexibility Score: inf
ROOT
ATOM      1  O   UNL     1      -2.503   1.298   4.403  1.00  0.00    -0.377 OA
ENDROOT
BRANCH   1   2
ATOM      2  C   UNL     1      -1.454   0.419   4.076  1.00  0.00     0.188 C 
BRANCH   2   3
ATOM      3  C   UNL     1      -1.701  -1.080   4.264  1.00  0.00     0.188 C 
BRANCH   3   4
ATOM      4  O   UNL     1      -1.564  -1.592   5.593  1.00  0.00    -0.376 OA
BRANCH   4   5
ATOM      5  C   UNL     1      -0.407  -1.213   6.351  1.00  0.00     0.202 C 
BRANCH   5   6
ATOM      6  C   UNL     1       0.934  -1.510   5.680  1.00  0.00     0.261 C 
BRANCH   6   7
ATOM      7  O   UNL     1       1.227  -0.441   4.756  1.00  0.00    -0.462 OA
BRANCH   7   8
ATOM      8  C   UNL     1       1.822  -0.769   3.597  1.00  0.00     0.328 C 
ATOM      9  O   UNL     1       2.253  -1.889   3.337  1.00  0.00    -0.250 OA
BRANCH   8  10
ATOM     10  C   UNL     1       1.880   0.392   2.580  1.00  0.00     0.194 C 
BRANCH  10  11
ATOM     11  C   UNL     1       3.299   0.477   1.996  1.00  0.00     0.065 C 
BRANCH  11  12
ATOM     12  C   UNL     1       3.397  -0.259   0.654  1.00  0.00     0.162 C 
BRANCH  12  13
ATOM     13  O   UNL     1       2.889   0.536  -0.419  1.00  0.00    -0.385 OA
ATOM     14  C   UNL     1       1.569   0.219  -0.835  1.00  0.00     0.194 C 
ENDBRANCH  12  13
ENDBRANCH  11  12
ENDBRANCH  10  11
BRANCH  10  15
ATOM     15  N   UNL     1       1.266   1.734   2.631  1.00  0.00    -0.338 N 
ATOM     16  C   UNL     1       1.209   2.806   3.473  1.00  0.00     0.253 C 
ATOM     17  H   UNL     1       0.741   1.906   1.816  1.00  0.00     0.164 HD
ATOM     18  O   UNL     1       0.894   3.894   2.992  1.00  0.00    -0.269 OA
BRANCH  16  19
ATOM     19  C   UNL     1       1.297   2.686   4.927  1.00  0.00     0.058 A 
ATOM     20  C   UNL     1       2.365   2.123   5.611  1.00  0.00     0.018 A 
ATOM     21  C   UNL     1       0.208   3.154   5.662  1.00  0.00     0.126 A 
ATOM     22  C   UNL     1       2.266   1.982   6.998  1.00  0.00     0.037 A 
ATOM     23  N   UNL     1       0.073   2.994   6.999  1.00  0.00    -0.249 NA
ATOM     24  C   UNL     1       1.107   2.412   7.640  1.00  0.00     0.106 A 
ATOM     25  Br  UNL     1       0.903   2.077   9.494  1.00  0.00    -0.029 Br
ENDBRANCH  16  19
ENDBRANCH  10  15
ENDBRANCH   8  10
ENDBRANCH   7   8
ENDBRANCH   6   7
ENDBRANCH   5   6
ENDBRANCH   4   5
ENDBRANCH   3   4
ENDBRANCH   2   3
ENDBRANCH   1   2
BRANCH   1  26
ATOM     26  C   UNL     1      -3.086   1.163   5.680  1.00  0.00     0.188 C 
BRANCH  26  27
ATOM     27  C   UNL     1      -4.591   0.882   5.587  1.00  0.00     0.188 C 
BRANCH  27  28
ATOM     28  O   UNL     1      -5.183   0.675   4.307  1.00  0.00    -0.376 OA
BRANCH  28  29
ATOM     29  C   UNL     1      -4.913   1.588   3.244  1.00  0.00     0.202 C 
BRANCH  29  30
ATOM     30  C   UNL     1      -5.125   3.093   3.465  1.00  0.00     0.261 C 
BRANCH  30  31
ATOM     31  O   UNL     1      -4.261   3.703   4.443  1.00  0.00    -0.460 OA
BRANCH  31  32
ATOM     32  C   UNL     1      -4.891   4.170   5.545  1.00  0.00     0.338 C 
ATOM     33  O   UNL     1      -6.084   4.063   5.805  1.00  0.00    -0.246 OA
BRANCH  32  34
ATOM     34  C   UNL     1      -3.950   4.768   6.509  1.00  0.00     0.060 A 
ATOM     35  C   UNL     1      -3.936   4.249   7.810  1.00  0.00     0.016 A 
ATOM     36  C   UNL     1      -3.253   5.941   6.208  1.00  0.00     0.016 A 
ATOM     37  C   UNL     1      -3.296   4.945   8.833  1.00  0.00     0.010 A 
ATOM     38  C   UNL     1      -2.620   6.645   7.241  1.00  0.00     0.010 A 
ATOM     39  C   UNL     1      -2.694   6.182   8.567  1.00  0.00    -0.014 A 
BRANCH  39  40
ATOM     40  C   UNL     1      -2.361   7.071   9.711  1.00  0.00     0.031 A 
ATOM     41  C   UNL     1      -3.361   8.120  10.128  1.00  0.00     0.074 A 
ATOM     42  C   UNL     1      -1.220   6.924  10.406  1.00  0.00     0.049 A 
ATOM     43  N   UNL     1      -3.325   8.944  11.144  1.00  0.00    -0.248 NA
ATOM     44  C   UNL     1      -4.563   8.256   9.289  1.00  0.00     0.031 C 
ATOM     45  C   UNL     1      -0.167   5.957  10.105  1.00  0.00     0.029 A 
ATOM     46  N   UNL     1      -0.756   7.600  11.508  1.00  0.00    -0.354 N 
ATOM     47  C   UNL     1      -4.487   9.703  11.059  1.00  0.00     0.074 A 
ATOM     48  C   UNL     1      -5.196   9.260   9.879  1.00  0.00     0.031 C 
ATOM     49  C   UNL     1       0.831   6.112  10.993  1.00  0.00     0.029 A 
ATOM     50  C   UNL     1       0.490   7.192  11.920  1.00  0.00     0.049 A 
ATOM     51  H   UNL     1      -1.267   8.309  11.959  1.00  0.00     0.167 HD
ATOM     52  C   UNL     1      -4.941  10.665  11.898  1.00  0.00     0.034 A 
ATOM     53  C   UNL     1       1.265   7.641  12.929  1.00  0.00     0.034 A 
ATOM     54  C   UNL     1      -4.252  11.097  13.084  1.00  0.00     0.049 A 
ATOM     55  C   UNL     1       0.741   8.720  13.844  1.00  0.00     0.074 A 
ATOM     56  C   UNL     1      -4.656  12.032  14.021  1.00  0.00     0.029 A 
ATOM     57  N   UNL     1      -3.012  10.634  13.491  1.00  0.00    -0.354 N 
ATOM     58  N   UNL     1      -0.425   9.322  13.836  1.00  0.00    -0.248 NA
ATOM     59  C   UNL     1       1.627   9.153  14.936  1.00  0.00     0.031 C 
ATOM     60  C   UNL     1      -3.649  12.148  14.986  1.00  0.00     0.029 A 
ATOM     61  C   UNL     1      -2.628  11.270  14.659  1.00  0.00     0.049 A 
ATOM     62  H   UNL     1      -2.481   9.952  13.018  1.00  0.00     0.167 HD
ATOM     63  C   UNL     1      -0.426  10.173  14.937  1.00  0.00     0.074 A 
ATOM     64  C   UNL     1       0.846   9.991  15.605  1.00  0.00     0.031 C 
ATOM     65  C   UNL     1      -1.384  11.040  15.349  1.00  0.00     0.034 A 
BRANCH  52  66
ATOM     66  C   UNL     1      -6.274  11.288  11.581  1.00  0.00     0.023 A 
ATOM     67  C   UNL     1      -7.454  10.547  11.799  1.00  0.00     0.012 A 
ATOM     68  C   UNL     1      -6.366  12.613  11.112  1.00  0.00     0.148 A 
ATOM     69  C   UNL     1      -8.703  11.104  11.526  1.00  0.00     0.002 A 
ATOM     70  C   UNL     1      -7.617  13.174  10.880  1.00  0.00     0.091 A 
ATOM     71  F   UNL     1      -5.232  13.293  10.887  1.00  0.00    -0.205 F 
ATOM     72  C   UNL     1      -8.784  12.419  11.076  1.00  0.00     0.022 A 
BRANCH  70  73
ATOM     73  S   UNL     1      -7.829  14.883  10.368  1.00  0.00     0.127 S 
ATOM     74  O   UNL     1      -8.228  14.726   8.970  1.00  0.00    -0.237 OA
ATOM     75  O   UNL     1      -8.896  15.342  11.258  1.00  0.00    -0.237 OA
ATOM     76  O   UNL     1      -6.542  15.529  10.584  1.00  0.00    -0.744 OA
ENDBRANCH  70  73
ENDBRANCH  52  66
BRANCH  53  77
ATOM     77  C   UNL     1       2.603   7.029  13.170  1.00  0.00     0.023 A 
ATOM     78  C   UNL     1       2.812   6.251  14.325  1.00  0.00     0.012 A 
ATOM     79  C   UNL     1       3.666   7.213  12.264  1.00  0.00     0.148 A 
ATOM     80  C   UNL     1       4.064   5.696  14.592  1.00  0.00     0.002 A 
ATOM     81  C   UNL     1       4.895   6.611  12.508  1.00  0.00     0.091 A 
ATOM     82  F   UNL     1       3.455   7.975  11.181  1.00  0.00    -0.205 F 
ATOM     83  C   UNL     1       5.102   5.868  13.681  1.00  0.00     0.022 A 
BRANCH  81  84
ATOM     84  S   UNL     1       6.249   6.671  11.329  1.00  0.00     0.127 S 
ATOM     85  O   UNL     1       7.196   7.554  12.003  1.00  0.00    -0.237 OA
ATOM     86  O   UNL     1       6.655   5.266  11.264  1.00  0.00    -0.237 OA
ATOM     87  O   UNL     1       5.672   7.183  10.093  1.00  0.00    -0.744 OA
ENDBRANCH  81  84
ENDBRANCH  53  77
BRANCH  65  88
ATOM     88  C   UNL     1      -1.115  11.846  16.596  1.00  0.00     0.023 A 
ATOM     89  C   UNL     1      -0.172  12.893  16.559  1.00  0.00     0.012 A 
ATOM     90  C   UNL     1      -1.839  11.613  17.782  1.00  0.00     0.148 A 
ATOM     91  C   UNL     1       0.074  13.669  17.692  1.00  0.00     0.002 A 
ATOM     92  C   UNL     1      -1.622  12.421  18.894  1.00  0.00     0.091 A 
ATOM     93  F   UNL     1      -2.719  10.602  17.809  1.00  0.00    -0.205 F 
ATOM     94  C   UNL     1      -0.658  13.440  18.855  1.00  0.00     0.022 A 
BRANCH  92  95
ATOM     95  S   UNL     1      -2.590  12.253  20.399  1.00  0.00     0.127 S 
ATOM     96  O   UNL     1      -1.674  11.512  21.264  1.00  0.00    -0.237 OA
ATOM     97  O   UNL     1      -2.806  13.646  20.793  1.00  0.00    -0.237 OA
ATOM     98  O   UNL     1      -3.804  11.546  20.011  1.00  0.00    -0.744 OA
ENDBRANCH  92  95
ENDBRANCH  65  88
ENDBRANCH  39  40
ENDBRANCH  32  34
ENDBRANCH  31  32
ENDBRANCH  30  31
ENDBRANCH  29  30
ENDBRANCH  28  29
ENDBRANCH  27  28
ENDBRANCH  26  27
ENDBRANCH   1  26
TORSDOF 28
