REMARK SMILES Cc1nc2scc(C)n2c1CNc1ccc(C(=O)OCCOCCOCCOCCOC(=O)c2ccc(-c3c4nc(c(-c5cccc(S(=O)(=O)[O-])c5F)c5ccc([nH]5)c(-c5cccc(S(=O)(=O)[O-])c5F)c5nc(c(-c6cccc(S(=O)(=O)[O-])c6F)c6ccc3[nH]6)C=C5)C=C4)cc2)cc1
REMARK SMILES IDX 25 1 24 2 23 3 22 4 21 5 20 6 19 7 17 8 18 9 16 10 13 11
REMARK SMILES IDX 14 12 98 13 15 14 97 15 12 16 11 18 10 19 1 20 2 21 3 22
REMARK SMILES IDX 4 23 9 24 5 25 7 26 6 27 8 28 26 29 27 30 28 31 29 32 30 33
REMARK SMILES IDX 31 34 32 35 33 36 34 37 35 38 96 39 36 40 95 41 37 42 38 43
REMARK SMILES IDX 39 44 89 45 40 46 94 47 88 48 90 49 41 50 93 51 87 52 86 53
REMARK SMILES IDX 42 55 74 56 54 57 73 58 55 59 58 60 72 61 91 62 56 63 57 64
REMARK SMILES IDX 71 66 92 67 59 68 43 69 44 70 52 71 45 72 47 73 53 74 46 75
REMARK SMILES IDX 48 76 49 77 50 78 51 79 75 80 76 81 84 82 77 83 79 84 85 85
REMARK SMILES IDX 78 86 80 87 81 88 82 89 83 90 60 91 61 92 69 93 62 94 64 95
REMARK SMILES IDX 70 96 63 97 65 98 66 99 67 100 68 101
REMARK H PARENT 12 17 90 54 58 65
REMARK Flexibility Score: inf
ROOT
ATOM      1  O   UNL     1       7.751  -8.527  -3.200  1.00  0.00    -0.377 OA
ENDROOT
BRANCH   1   2
ATOM      2  C   UNL     1       7.536  -8.091  -1.869  1.00  0.00     0.188 C 
BRANCH   2   3
ATOM      3  C   UNL     1       6.920  -9.173  -0.954  1.00  0.00     0.188 C 
BRANCH   3   4
ATOM      4  O   UNL     1       6.803 -10.528  -1.364  1.00  0.00    -0.376 OA
BRANCH   4   5
ATOM      5  C   UNL     1       6.376 -10.900  -2.664  1.00  0.00     0.202 C 
BRANCH   5   6
ATOM      6  C   UNL     1       5.266 -10.178  -3.449  1.00  0.00     0.261 C 
BRANCH   6   7
ATOM      7  O   UNL     1       4.984  -8.830  -3.083  1.00  0.00    -0.460 OA
BRANCH   7   8
ATOM      8  C   UNL     1       4.031  -8.668  -2.148  1.00  0.00     0.338 C 
ATOM      9  O   UNL     1       3.329  -9.533  -1.640  1.00  0.00    -0.246 OA
BRANCH   8  10
ATOM     10  C   UNL     1       4.077  -7.273  -1.672  1.00  0.00     0.060 A 
ATOM     11  C   UNL     1       3.885  -4.677  -0.673  1.00  0.00     0.034 A 
ATOM     12  C   UNL     1       4.025  -5.752   0.206  1.00  0.00     0.026 A 
ATOM     13  C   UNL     1       4.024  -4.903  -2.051  1.00  0.00     0.026 A 
ATOM     14  C   UNL     1       4.075  -7.051  -0.291  1.00  0.00     0.018 A 
ATOM     15  C   UNL     1       4.134  -6.198  -2.557  1.00  0.00     0.018 A 
BRANCH  11  16
ATOM     16  N   UNL     1       3.371  -3.482  -0.185  1.00  0.00    -0.379 N 
ATOM     17  H   UNL     1       3.805  -3.007   0.560  1.00  0.00     0.160 HD
BRANCH  16  18
ATOM     18  C   UNL     1       2.170  -2.958  -0.815  1.00  0.00     0.169 C 
BRANCH  18  19
ATOM     19  C   UNL     1       1.060  -2.658   0.128  1.00  0.00     0.066 A 
ATOM     20  C   UNL     1       1.041  -0.065   0.130  1.00  0.00     0.069 C 
ATOM     21  C   UNL     1       0.573  -1.413   0.532  1.00  0.00     0.062 A 
ATOM     22  N   UNL     1      -0.505  -1.538   1.380  1.00  0.00    -0.224 NA
ATOM     23  C   UNL     1      -0.666  -2.825   1.472  1.00  0.00     0.194 A 
ATOM     24  N   UNL     1       0.217  -3.571   0.734  1.00  0.00    -0.290 N 
ATOM     25  S   UNL     1      -1.825  -3.809   2.308  1.00  0.00    -0.105 S 
ATOM     26  C   UNL     1      -0.014  -4.944   0.806  1.00  0.00     0.032 A 
ATOM     27  C   UNL     1      -1.066  -5.227   1.603  1.00  0.00     0.090 A 
ATOM     28  C   UNL     1       0.750  -5.998   0.099  1.00  0.00     0.066 C 
ENDBRANCH  18  19
ENDBRANCH  16  18
ENDBRANCH  11  16
ENDBRANCH   8  10
ENDBRANCH   7   8
ENDBRANCH   6   7
ENDBRANCH   5   6
ENDBRANCH   4   5
ENDBRANCH   3   4
ENDBRANCH   2   3
ENDBRANCH   1   2
BRANCH   1  29
ATOM     29  C   UNL     1       9.070  -8.974  -3.504  1.00  0.00     0.188 C 
BRANCH  29  30
ATOM     30  C   UNL     1       9.777  -9.921  -2.502  1.00  0.00     0.188 C 
BRANCH  30  31
ATOM     31  O   UNL     1       9.581  -9.590  -1.132  1.00  0.00    -0.376 OA
BRANCH  31  32
ATOM     32  C   UNL     1      10.619  -9.040  -0.344  1.00  0.00     0.202 C 
BRANCH  32  33
ATOM     33  C   UNL     1      11.074  -7.623  -0.667  1.00  0.00     0.261 C 
BRANCH  33  34
ATOM     34  O   UNL     1      11.180  -7.354  -2.050  1.00  0.00    -0.460 OA
BRANCH  34  35
ATOM     35  C   UNL     1      12.212  -7.947  -2.663  1.00  0.00     0.338 C 
ATOM     36  O   UNL     1      12.874  -8.899  -2.246  1.00  0.00    -0.246 OA
BRANCH  35  37
ATOM     37  C   UNL     1      12.529  -7.179  -3.860  1.00  0.00     0.060 A 
ATOM     38  C   UNL     1      13.529  -7.694  -4.679  1.00  0.00     0.016 A 
ATOM     39  C   UNL     1      12.067  -5.854  -3.969  1.00  0.00     0.016 A 
ATOM     40  C   UNL     1      14.235  -6.807  -5.450  1.00  0.00     0.010 A 
ATOM     41  C   UNL     1      12.777  -4.968  -4.737  1.00  0.00     0.010 A 
ATOM     42  C   UNL     1      13.905  -5.444  -5.390  1.00  0.00    -0.014 A 
BRANCH  42  43
ATOM     43  C   UNL     1      14.747  -4.539  -6.133  1.00  0.00     0.031 A 
ATOM     44  C   UNL     1      14.577  -4.713  -7.583  1.00  0.00     0.074 A 
ATOM     45  C   UNL     1      15.565  -3.651  -5.542  1.00  0.00     0.049 A 
ATOM     46  N   UNL     1      15.381  -5.326  -8.386  1.00  0.00    -0.248 NA
ATOM     47  C   UNL     1      13.267  -4.386  -8.165  1.00  0.00     0.031 C 
ATOM     48  C   UNL     1      15.566  -3.245  -4.132  1.00  0.00     0.029 A 
ATOM     49  N   UNL     1      16.489  -2.827  -6.108  1.00  0.00    -0.354 N 
ATOM     50  C   UNL     1      14.798  -5.178  -9.637  1.00  0.00     0.074 A 
ATOM     51  C   UNL     1      13.419  -4.839  -9.410  1.00  0.00     0.031 C 
ATOM     52  C   UNL     1      16.256  -2.088  -4.011  1.00  0.00     0.029 A 
ATOM     53  C   UNL     1      16.861  -1.766  -5.292  1.00  0.00     0.049 A 
ATOM     54  H   UNL     1      16.858  -2.969  -7.009  1.00  0.00     0.167 HD
ATOM     55  C   UNL     1      15.588  -4.972 -10.723  1.00  0.00     0.034 A 
ATOM     56  C   UNL     1      17.549  -0.668  -5.680  1.00  0.00     0.034 A 
ATOM     57  C   UNL     1      16.959  -5.315 -10.443  1.00  0.00     0.049 A 
ATOM     58  C   UNL     1      18.306  -1.024  -6.900  1.00  0.00     0.074 A 
ATOM     59  C   UNL     1      17.685  -6.465 -10.233  1.00  0.00     0.029 A 
ATOM     60  N   UNL     1      17.692  -4.267  -9.954  1.00  0.00    -0.354 N 
ATOM     61  N   UNL     1      19.286  -1.885  -6.908  1.00  0.00    -0.248 NA
ATOM     62  C   UNL     1      17.774  -0.671  -8.211  1.00  0.00     0.031 C 
ATOM     63  C   UNL     1      18.812  -6.082  -9.447  1.00  0.00     0.029 A 
ATOM     64  C   UNL     1      18.760  -4.706  -9.222  1.00  0.00     0.049 A 
ATOM     65  H   UNL     1      17.478  -3.318 -10.108  1.00  0.00     0.167 HD
ATOM     66  C   UNL     1      19.171  -2.508  -8.137  1.00  0.00     0.074 A 
ATOM     67  C   UNL     1      18.379  -1.601  -8.955  1.00  0.00     0.031 C 
ATOM     68  C   UNL     1      19.430  -3.840  -8.273  1.00  0.00     0.034 A 
BRANCH  55  69
ATOM     69  C   UNL     1      15.260  -3.992 -11.831  1.00  0.00     0.023 A 
ATOM     70  C   UNL     1      16.127  -3.974 -12.945  1.00  0.00     0.012 A 
ATOM     71  C   UNL     1      14.360  -2.907 -11.707  1.00  0.00     0.148 A 
ATOM     72  C   UNL     1      16.121  -2.918 -13.862  1.00  0.00     0.002 A 
ATOM     73  C   UNL     1      14.299  -1.904 -12.665  1.00  0.00     0.091 A 
ATOM     74  F   UNL     1      13.654  -2.740 -10.586  1.00  0.00    -0.205 F 
ATOM     75  C   UNL     1      15.198  -1.887 -13.730  1.00  0.00     0.022 A 
BRANCH  73  76
ATOM     76  S   UNL     1      13.093  -0.576 -12.553  1.00  0.00     0.127 S 
ATOM     77  O   UNL     1      13.937   0.552 -12.171  1.00  0.00    -0.237 OA
ATOM     78  O   UNL     1      12.574  -0.531 -13.920  1.00  0.00    -0.237 OA
ATOM     79  O   UNL     1      12.119  -1.015 -11.562  1.00  0.00    -0.744 OA
ENDBRANCH  73  76
ENDBRANCH  55  69
BRANCH  56  80
ATOM     80  C   UNL     1      17.431   0.732  -5.217  1.00  0.00     0.023 A 
ATOM     81  C   UNL     1      18.476   1.639  -5.483  1.00  0.00     0.012 A 
ATOM     82  C   UNL     1      16.188   1.250  -4.790  1.00  0.00     0.148 A 
ATOM     83  C   UNL     1      18.276   3.020  -5.379  1.00  0.00     0.002 A 
ATOM     84  C   UNL     1      15.995   2.623  -4.682  1.00  0.00     0.091 A 
ATOM     85  F   UNL     1      15.172   0.403  -4.582  1.00  0.00    -0.205 F 
ATOM     86  C   UNL     1      17.032   3.512  -4.992  1.00  0.00     0.022 A 
BRANCH  84  87
ATOM     87  S   UNL     1      14.412   3.335  -4.213  1.00  0.00     0.127 S 
ATOM     88  O   UNL     1      14.804   4.279  -3.166  1.00  0.00    -0.237 OA
ATOM     89  O   UNL     1      13.977   3.953  -5.463  1.00  0.00    -0.237 OA
ATOM     90  O   UNL     1      13.598   2.222  -3.741  1.00  0.00    -0.744 OA
ENDBRANCH  84  87
ENDBRANCH  56  80
BRANCH  68  91
ATOM     91  C   UNL     1      20.329  -4.481  -7.254  1.00  0.00     0.023 A 
ATOM     92  C   UNL     1      19.985  -4.608  -5.894  1.00  0.00     0.012 A 
ATOM     93  C   UNL     1      21.530  -5.050  -7.712  1.00  0.00     0.148 A 
ATOM     94  C   UNL     1      20.838  -5.268  -5.005  1.00  0.00     0.002 A 
ATOM     95  C   UNL     1      22.350  -5.746  -6.836  1.00  0.00     0.091 A 
ATOM     96  F   UNL     1      21.845  -4.908  -9.008  1.00  0.00    -0.205 F 
ATOM     97  C   UNL     1      22.014  -5.848  -5.478  1.00  0.00     0.022 A 
BRANCH  95  98
ATOM     98  S   UNL     1      23.813  -6.607  -7.415  1.00  0.00     0.127 S 
ATOM     99  O   UNL     1      24.886  -5.721  -6.971  1.00  0.00    -0.237 OA
ATOM    100  O   UNL     1      23.733  -7.880  -6.697  1.00  0.00    -0.237 OA
ATOM    101  O   UNL     1      23.656  -6.731  -8.859  1.00  0.00    -0.744 OA
ENDBRANCH  95  98
ENDBRANCH  68  91
ENDBRANCH  42  43
ENDBRANCH  35  37
ENDBRANCH  34  35
ENDBRANCH  33  34
ENDBRANCH  32  33
ENDBRANCH  31  32
ENDBRANCH  30  31
ENDBRANCH  29  30
ENDBRANCH   1  29
TORSDOF 26
