REMARK SMILES CC(C)C[C@H](CNC(=O)N[C@@H]1CCC[C@@H](C)[C@H]1C)C(=O)OCCOCCOCCOCCOC(=O)c1ccc(-c2c3nc(c(-c4cccc(S(=O)(=O)[O-])c4F)c4ccc([nH]4)c(-c4cccc(S(=O)(=O)[O-])c4F)c4nc(c(-c5cccc(S(=O)(=O)[O-])c5F)c5ccc2[nH]5)C=C4)C=C3)cc1
REMARK SMILES IDX 27 1 26 2 25 3 24 4 23 5 22 6 21 7 19 8 20 9 5 10 4 11 2 12
REMARK SMILES IDX 1 13 3 14 6 15 7 16 8 17 9 19 10 20 11 22 12 23 17 24 13 25
REMARK SMILES IDX 15 26 18 27 14 28 16 29 28 30 29 31 30 32 31 33 32 34 33 35
REMARK SMILES IDX 34 36 35 37 36 38 37 39 98 40 38 41 97 42 39 43 40 44 41 45
REMARK SMILES IDX 91 46 42 47 96 48 90 49 92 50 43 51 95 52 89 53 88 54 44 56
REMARK SMILES IDX 76 57 56 58 75 59 57 60 60 61 74 62 93 63 58 64 59 65 73 67
REMARK SMILES IDX 94 68 61 69 45 70 46 71 54 72 47 73 49 74 55 75 48 76 50 77
REMARK SMILES IDX 51 78 52 79 53 80 77 81 78 82 86 83 79 84 81 85 87 86 80 87
REMARK SMILES IDX 82 88 83 89 84 90 85 91 62 92 63 93 71 94 64 95 66 96 72 97
REMARK SMILES IDX 65 98 67 99 68 100 69 101 70 102
REMARK H PARENT 7 18 10 21 92 55 60 66
REMARK Flexibility Score: inf
ROOT
ATOM      1  O   UNL     1      -3.777  -1.208   1.749  1.00  0.00    -0.377 OA
ENDROOT
BRANCH   1   2
ATOM      2  C   UNL     1      -3.398   0.070   1.283  1.00  0.00     0.188 C 
BRANCH   2   3
ATOM      3  C   UNL     1      -4.086   0.670   0.048  1.00  0.00     0.188 C 
BRANCH   3   4
ATOM      4  O   UNL     1      -5.490   0.632  -0.061  1.00  0.00    -0.376 OA
BRANCH   4   5
ATOM      5  C   UNL     1      -6.262  -0.360  -0.719  1.00  0.00     0.202 C 
BRANCH   5   6
ATOM      6  C   UNL     1      -5.773  -1.588  -1.499  1.00  0.00     0.261 C 
BRANCH   6   7
ATOM      7  O   UNL     1      -4.456  -2.033  -1.226  1.00  0.00    -0.463 OA
BRANCH   7   8
ATOM      8  C   UNL     1      -3.542  -1.524  -2.077  1.00  0.00     0.310 C 
ATOM      9  O   UNL     1      -3.792  -0.698  -2.954  1.00  0.00    -0.252 OA
BRANCH   8  10
ATOM     10  C   UNL     1      -2.134  -1.987  -1.804  1.00  0.00     0.119 C 
BRANCH  10  11
ATOM     11  C   UNL     1      -1.533  -2.620  -3.062  1.00  0.00     0.020 C 
BRANCH  11  12
ATOM     12  C   UNL     1      -2.402  -3.684  -3.752  1.00  0.00    -0.017 C 
ATOM     13  C   UNL     1      -3.370  -3.093  -4.791  1.00  0.00     0.007 C 
ATOM     14  C   UNL     1      -1.479  -4.672  -4.462  1.00  0.00     0.007 C 
ENDBRANCH  11  12
ENDBRANCH  10  11
BRANCH  10  15
ATOM     15  C   UNL     1      -1.843  -2.629  -0.415  1.00  0.00     0.133 C 
BRANCH  15  16
ATOM     16  N   UNL     1      -0.773  -3.635  -0.256  1.00  0.00    -0.337 N 
ATOM     17  C   UNL     1       0.468  -3.864   0.170  1.00  0.00     0.315 C 
ATOM     18  H   UNL     1      -1.120  -4.486  -0.610  1.00  0.00     0.165 HD
ATOM     19  O   UNL     1       0.744  -5.068   0.295  1.00  0.00    -0.249 OA
ATOM     20  N   UNL     1       1.485  -3.049   0.459  1.00  0.00    -0.335 N 
ATOM     21  H   UNL     1       2.311  -3.583   0.491  1.00  0.00     0.165 HD
BRANCH  20  22
ATOM     22  C   UNL     1       1.829  -1.637   0.749  1.00  0.00     0.087 C 
ATOM     23  C   UNL     1       0.740  -0.671   0.389  1.00  0.00     0.025 C 
ATOM     24  C   UNL     1       3.186  -1.121   0.111  1.00  0.00     0.011 C 
ATOM     25  C   UNL     1       0.601  -0.665  -1.115  1.00  0.00     0.002 C 
ATOM     26  C   UNL     1       3.099  -0.889  -1.432  1.00  0.00    -0.009 C 
ATOM     27  C   UNL     1       3.618   0.181   0.823  1.00  0.00     0.010 C 
ATOM     28  C   UNL     1       1.812  -0.185  -1.856  1.00  0.00     0.004 C 
ATOM     29  C   UNL     1       4.229  -0.048  -2.050  1.00  0.00     0.008 C 
ENDBRANCH  20  22
ENDBRANCH  15  16
ENDBRANCH  10  15
ENDBRANCH   8  10
ENDBRANCH   7   8
ENDBRANCH   6   7
ENDBRANCH   5   6
ENDBRANCH   4   5
ENDBRANCH   3   4
ENDBRANCH   2   3
ENDBRANCH   1   2
BRANCH   1  30
ATOM     30  C   UNL     1      -5.123  -1.435   2.144  1.00  0.00     0.188 C 
BRANCH  30  31
ATOM     31  C   UNL     1      -6.005  -0.297   2.714  1.00  0.00     0.188 C 
BRANCH  31  32
ATOM     32  O   UNL     1      -5.391   0.974   2.825  1.00  0.00    -0.376 OA
BRANCH  32  33
ATOM     33  C   UNL     1      -5.028   1.401   4.132  1.00  0.00     0.202 C 
BRANCH  33  34
ATOM     34  C   UNL     1      -3.961   0.569   4.866  1.00  0.00     0.261 C 
BRANCH  34  35
ATOM     35  O   UNL     1      -4.275  -0.820   5.040  1.00  0.00    -0.460 OA
BRANCH  35  36
ATOM     36  C   UNL     1      -5.357  -1.093   5.808  1.00  0.00     0.338 C 
ATOM     37  O   UNL     1      -6.058  -0.300   6.392  1.00  0.00    -0.246 OA
BRANCH  36  38
ATOM     38  C   UNL     1      -5.683  -2.523   5.628  1.00  0.00     0.060 A 
ATOM     39  C   UNL     1      -6.932  -2.857   5.087  1.00  0.00     0.016 A 
ATOM     40  C   UNL     1      -4.779  -3.516   6.008  1.00  0.00     0.016 A 
ATOM     41  C   UNL     1      -7.305  -4.192   4.975  1.00  0.00     0.010 A 
ATOM     42  C   UNL     1      -5.168  -4.854   5.929  1.00  0.00     0.010 A 
ATOM     43  C   UNL     1      -6.452  -5.188   5.463  1.00  0.00    -0.014 A 
BRANCH  43  44
ATOM     44  C   UNL     1      -7.028  -6.518   5.759  1.00  0.00     0.031 A 
ATOM     45  C   UNL     1      -7.525  -6.763   7.158  1.00  0.00     0.074 A 
ATOM     46  C   UNL     1      -7.150  -7.463   4.814  1.00  0.00     0.049 A 
ATOM     47  N   UNL     1      -8.078  -7.830   7.669  1.00  0.00    -0.248 NA
ATOM     48  C   UNL     1      -7.378  -5.647   8.110  1.00  0.00     0.031 C 
ATOM     49  C   UNL     1      -6.737  -7.326   3.419  1.00  0.00     0.029 A 
ATOM     50  N   UNL     1      -7.650  -8.737   4.898  1.00  0.00    -0.354 N 
ATOM     51  C   UNL     1      -8.309  -7.529   9.006  1.00  0.00     0.074 A 
ATOM     52  C   UNL     1      -7.829  -6.185   9.231  1.00  0.00     0.031 C 
ATOM     53  C   UNL     1      -6.982  -8.483   2.780  1.00  0.00     0.029 A 
ATOM     54  C   UNL     1      -7.543  -9.446   3.727  1.00  0.00     0.049 A 
ATOM     55  H   UNL     1      -8.047  -9.108   5.719  1.00  0.00     0.167 HD
ATOM     56  C   UNL     1      -8.878  -8.299   9.962  1.00  0.00     0.034 A 
ATOM     57  C   UNL     1      -7.847 -10.732   3.462  1.00  0.00     0.034 A 
ATOM     58  C   UNL     1      -9.357  -9.633   9.732  1.00  0.00     0.049 A 
ATOM     59  C   UNL     1      -8.440 -11.586   4.554  1.00  0.00     0.074 A 
ATOM     60  C   UNL     1      -9.982 -10.488  10.620  1.00  0.00     0.029 A 
ATOM     61  N   UNL     1      -9.240 -10.316   8.530  1.00  0.00    -0.354 N 
ATOM     62  N   UNL     1      -8.743 -11.261   5.788  1.00  0.00    -0.248 NA
ATOM     63  C   UNL     1      -8.764 -12.977   4.205  1.00  0.00     0.031 C 
ATOM     64  C   UNL     1     -10.203 -11.706   9.967  1.00  0.00     0.029 A 
ATOM     65  C   UNL     1      -9.765 -11.589   8.657  1.00  0.00     0.049 A 
ATOM     66  H   UNL     1      -8.841  -9.948   7.708  1.00  0.00     0.167 HD
ATOM     67  C   UNL     1      -9.337 -12.389   6.347  1.00  0.00     0.074 A 
ATOM     68  C   UNL     1      -9.358 -13.402   5.312  1.00  0.00     0.031 C 
ATOM     69  C   UNL     1      -9.821 -12.570   7.602  1.00  0.00     0.034 A 
BRANCH  56  70
ATOM     70  C   UNL     1      -8.992  -7.711  11.345  1.00  0.00     0.023 A 
ATOM     71  C   UNL     1      -9.882  -6.645  11.593  1.00  0.00     0.012 A 
ATOM     72  C   UNL     1      -8.216  -8.222  12.403  1.00  0.00     0.148 A 
ATOM     73  C   UNL     1      -9.960  -6.065  12.858  1.00  0.00     0.002 A 
ATOM     74  C   UNL     1      -8.339  -7.674  13.673  1.00  0.00     0.091 A 
ATOM     75  F   UNL     1      -7.355  -9.217  12.143  1.00  0.00    -0.205 F 
ATOM     76  C   UNL     1      -9.196  -6.585  13.900  1.00  0.00     0.022 A 
BRANCH  74  77
ATOM     77  S   UNL     1      -7.460  -8.331  15.095  1.00  0.00     0.127 S 
ATOM     78  O   UNL     1      -6.473  -7.280  15.343  1.00  0.00    -0.237 OA
ATOM     79  O   UNL     1      -8.522  -8.419  16.098  1.00  0.00    -0.237 OA
ATOM     80  O   UNL     1      -6.916  -9.614  14.673  1.00  0.00    -0.744 OA
ENDBRANCH  74  77
ENDBRANCH  56  70
BRANCH  57  81
ATOM     81  C   UNL     1      -7.636 -11.280   2.093  1.00  0.00     0.023 A 
ATOM     82  C   UNL     1      -8.750 -11.608   1.296  1.00  0.00     0.012 A 
ATOM     83  C   UNL     1      -6.340 -11.460   1.572  1.00  0.00     0.148 A 
ATOM     84  C   UNL     1      -8.577 -12.132   0.014  1.00  0.00     0.002 A 
ATOM     85  C   UNL     1      -6.176 -11.931   0.275  1.00  0.00     0.091 A 
ATOM     86  F   UNL     1      -5.295 -11.150   2.352  1.00  0.00    -0.205 F 
ATOM     87  C   UNL     1      -7.292 -12.284  -0.499  1.00  0.00     0.022 A 
BRANCH  85  88
ATOM     88  S   UNL     1      -4.569 -12.053  -0.517  1.00  0.00     0.127 S 
ATOM     89  O   UNL     1      -4.459 -13.491  -0.751  1.00  0.00    -0.237 OA
ATOM     90  O   UNL     1      -4.771 -11.245  -1.720  1.00  0.00    -0.237 OA
ATOM     91  O   UNL     1      -3.616 -11.498   0.434  1.00  0.00    -0.744 OA
ENDBRANCH  85  88
ENDBRANCH  57  81
BRANCH  69  92
ATOM     92  C   UNL     1     -10.479 -13.890   7.918  1.00  0.00     0.023 A 
ATOM     93  C   UNL     1      -9.707 -15.063   8.031  1.00  0.00     0.012 A 
ATOM     94  C   UNL     1     -11.864 -13.947   8.176  1.00  0.00     0.148 A 
ATOM     95  C   UNL     1     -10.310 -16.278   8.357  1.00  0.00     0.002 A 
ATOM     96  C   UNL     1     -12.447 -15.148   8.556  1.00  0.00     0.091 A 
ATOM     97  F   UNL     1     -12.585 -12.823   8.048  1.00  0.00    -0.205 F 
ATOM     98  C   UNL     1     -11.676 -16.319   8.631  1.00  0.00     0.022 A 
BRANCH  96  99
ATOM     99  S   UNL     1     -14.176 -15.271   9.029  1.00  0.00     0.127 S 
ATOM    100  O   UNL     1     -14.745 -15.993   7.893  1.00  0.00    -0.237 OA
ATOM    101  O   UNL     1     -14.103 -16.044  10.269  1.00  0.00    -0.237 OA
ATOM    102  O   UNL     1     -14.645 -13.902   9.198  1.00  0.00    -0.744 OA
ENDBRANCH  96  99
ENDBRANCH  69  92
ENDBRANCH  43  44
ENDBRANCH  36  38
ENDBRANCH  35  36
ENDBRANCH  34  35
ENDBRANCH  33  34
ENDBRANCH  32  33
ENDBRANCH  31  32
ENDBRANCH  30  31
ENDBRANCH   1  30
TORSDOF 28
