REMARK SMILES CS(=O)(=O)Nc1cc(NS(C)(=O)=O)cc(C(=O)OCCOCCOCCOCCOC(=O)c2ccc(-c3c4nc(c(-c5cccc(S(=O)(=O)[O-])c5F)c5ccc([nH]5)c(-c5cccc(S(=O)(=O)[O-])c5F)c5nc(c(-c6cccc(S(=O)(=O)[O-])c6F)c6ccc3[nH]6)C=C5)C=C4)cc2)c1
REMARK SMILES IDX 25 1 24 2 23 3 22 4 21 5 20 6 19 7 18 8 16 9 17 10 15 11
REMARK SMILES IDX 6 12 7 13 96 14 8 15 14 16 5 17 2 19 1 20 3 21 4 22 9 23
REMARK SMILES IDX 10 25 11 26 12 27 13 28 26 29 27 30 28 31 29 32 30 33 31 34
REMARK SMILES IDX 32 35 33 36 34 37 95 38 35 39 94 40 36 41 37 42 38 43 88 44
REMARK SMILES IDX 39 45 93 46 87 47 89 48 40 49 92 50 86 51 85 52 41 54 73 55
REMARK SMILES IDX 53 56 72 57 54 58 57 59 71 60 90 61 55 62 56 63 70 65 91 66
REMARK SMILES IDX 58 67 42 68 43 69 51 70 44 71 46 72 52 73 45 74 47 75 48 76
REMARK SMILES IDX 49 77 50 78 74 79 75 80 83 81 76 82 78 83 84 84 77 85 79 86
REMARK SMILES IDX 80 87 81 88 82 89 59 90 60 91 68 92 61 93 63 94 69 95 62 96
REMARK SMILES IDX 64 97 65 98 66 99 67 100
REMARK H PARENT 5 18 9 24 89 53 57 64
REMARK Flexibility Score: inf
ROOT
ATOM      1  C   UNL     1       7.514  -1.479  -0.578  1.00  0.00     0.188 C 
ENDROOT
BRANCH   1   2
ATOM      2  O   UNL     1       6.283  -0.943  -1.053  1.00  0.00    -0.377 OA
BRANCH   2   3
ATOM      3  C   UNL     1       6.134  -0.837  -2.453  1.00  0.00     0.188 C 
BRANCH   3   4
ATOM      4  C   UNL     1       6.560   0.535  -3.010  1.00  0.00     0.188 C 
BRANCH   4   5
ATOM      5  O   UNL     1       7.327   1.439  -2.232  1.00  0.00    -0.376 OA
BRANCH   5   6
ATOM      6  C   UNL     1       6.982   1.850  -0.917  1.00  0.00     0.202 C 
BRANCH   6   7
ATOM      7  C   UNL     1       5.560   1.933  -0.337  1.00  0.00     0.261 C 
BRANCH   7   8
ATOM      8  O   UNL     1       4.551   1.169  -0.979  1.00  0.00    -0.460 OA
BRANCH   8   9
ATOM      9  C   UNL     1       3.869   1.772  -1.971  1.00  0.00     0.338 C 
ATOM     10  O   UNL     1       3.998   2.910  -2.382  1.00  0.00    -0.246 OA
BRANCH   9  11
ATOM     11  C   UNL     1       3.027   0.743  -2.619  1.00  0.00     0.064 A 
ATOM     12  C   UNL     1       1.610  -1.190  -2.486  1.00  0.00     0.051 A 
ATOM     13  C   UNL     1       1.449  -1.158  -3.879  1.00  0.00     0.053 A 
ATOM     14  C   UNL     1       2.499  -0.315  -1.886  1.00  0.00     0.042 A 
ATOM     15  C   UNL     1       2.115  -0.205  -4.654  1.00  0.00     0.051 A 
ATOM     16  C   UNL     1       2.840   0.796  -4.001  1.00  0.00     0.042 A 
BRANCH  12  17
ATOM     17  N   UNL     1       0.994  -2.229  -1.730  1.00  0.00    -0.284 N 
ATOM     18  H   UNL     1       1.073  -3.156  -2.054  1.00  0.00     0.180 HD
BRANCH  17  19
ATOM     19  S   UNL     1       0.135  -1.947  -0.307  1.00  0.00     0.229 S 
ATOM     20  C   UNL     1       0.364  -0.244   0.210  1.00  0.00     0.183 C 
ATOM     21  O   UNL     1       0.709  -2.818   0.692  1.00  0.00    -0.207 OA
ATOM     22  O   UNL     1      -1.253  -2.088  -0.702  1.00  0.00    -0.207 OA
ENDBRANCH  17  19
ENDBRANCH  12  17
BRANCH  15  23
ATOM     23  N   UNL     1       2.087  -0.094  -6.084  1.00  0.00    -0.284 N 
ATOM     24  H   UNL     1       2.507   0.704  -6.480  1.00  0.00     0.180 HD
BRANCH  23  25
ATOM     25  S   UNL     1       1.399  -1.204  -7.144  1.00  0.00     0.229 S 
ATOM     26  C   UNL     1       0.535  -0.079  -8.213  1.00  0.00     0.183 C 
ATOM     27  O   UNL     1       2.497  -1.770  -7.904  1.00  0.00    -0.207 OA
ATOM     28  O   UNL     1       0.407  -2.030  -6.506  1.00  0.00    -0.207 OA
ENDBRANCH  23  25
ENDBRANCH  15  23
ENDBRANCH   9  11
ENDBRANCH   8   9
ENDBRANCH   7   8
ENDBRANCH   6   7
ENDBRANCH   5   6
ENDBRANCH   4   5
ENDBRANCH   3   4
ENDBRANCH   2   3
ENDBRANCH   1   2
BRANCH   1  29
ATOM     29  C   UNL     1       8.819  -1.168  -1.348  1.00  0.00     0.188 C 
BRANCH  29  30
ATOM     30  O   UNL     1       8.726  -1.333  -2.759  1.00  0.00    -0.376 OA
BRANCH  30  31
ATOM     31  C   UNL     1       9.297  -2.489  -3.350  1.00  0.00     0.202 C 
BRANCH  31  32
ATOM     32  C   UNL     1       8.622  -3.833  -3.037  1.00  0.00     0.261 C 
BRANCH  32  33
ATOM     33  O   UNL     1       8.528  -4.172  -1.648  1.00  0.00    -0.460 OA
BRANCH  33  34
ATOM     34  C   UNL     1       9.688  -4.327  -0.973  1.00  0.00     0.338 C 
ATOM     35  O   UNL     1      10.815  -4.241  -1.424  1.00  0.00    -0.246 OA
BRANCH  34  36
ATOM     36  C   UNL     1       9.360  -4.419   0.464  1.00  0.00     0.060 A 
ATOM     37  C   UNL     1       9.905  -3.474   1.343  1.00  0.00     0.016 A 
ATOM     38  C   UNL     1       8.518  -5.427   0.939  1.00  0.00     0.016 A 
ATOM     39  C   UNL     1       9.643  -3.562   2.709  1.00  0.00     0.010 A 
ATOM     40  C   UNL     1       8.272  -5.525   2.311  1.00  0.00     0.010 A 
ATOM     41  C   UNL     1       8.866  -4.616   3.205  1.00  0.00    -0.014 A 
BRANCH  41  42
ATOM     42  C   UNL     1       8.838  -4.883   4.663  1.00  0.00     0.031 A 
ATOM     43  C   UNL     1       9.740  -5.956   5.209  1.00  0.00     0.074 A 
ATOM     44  C   UNL     1       8.038  -4.185   5.488  1.00  0.00     0.049 A 
ATOM     45  N   UNL     1       9.871  -6.386   6.436  1.00  0.00    -0.248 NA
ATOM     46  C   UNL     1      10.612  -6.639   4.237  1.00  0.00     0.031 C 
ATOM     47  C   UNL     1       7.129  -3.115   5.082  1.00  0.00     0.029 A 
ATOM     48  N   UNL     1       7.847  -4.295   6.843  1.00  0.00    -0.354 N 
ATOM     49  C   UNL     1      10.812  -7.406   6.381  1.00  0.00     0.074 A 
ATOM     50  C   UNL     1      11.213  -7.541   4.998  1.00  0.00     0.031 C 
ATOM     51  C   UNL     1       6.455  -2.683   6.163  1.00  0.00     0.029 A 
ATOM     52  C   UNL     1       6.864  -3.465   7.329  1.00  0.00     0.049 A 
ATOM     53  H   UNL     1       8.364  -4.908   7.413  1.00  0.00     0.167 HD
ATOM     54  C   UNL     1      11.310  -8.157   7.391  1.00  0.00     0.034 A 
ATOM     55  C   UNL     1       6.337  -3.370   8.566  1.00  0.00     0.034 A 
ATOM     56  C   UNL     1      10.916  -8.016   8.766  1.00  0.00     0.049 A 
ATOM     57  C   UNL     1       6.879  -4.247   9.668  1.00  0.00     0.074 A 
ATOM     58  C   UNL     1      11.392  -8.700   9.871  1.00  0.00     0.029 A 
ATOM     59  N   UNL     1       9.938  -7.147   9.224  1.00  0.00    -0.354 N 
ATOM     60  N   UNL     1       7.849  -5.129   9.622  1.00  0.00    -0.248 NA
ATOM     61  C   UNL     1       6.276  -4.092  11.000  1.00  0.00     0.031 C 
ATOM     62  C   UNL     1      10.673  -8.273  10.991  1.00  0.00     0.029 A 
ATOM     63  C   UNL     1       9.784  -7.288  10.592  1.00  0.00     0.049 A 
ATOM     64  H   UNL     1       9.429  -6.521   8.659  1.00  0.00     0.167 HD
ATOM     65  C   UNL     1       7.999  -5.601  10.923  1.00  0.00     0.074 A 
ATOM     66  C   UNL     1       7.032  -4.894  11.736  1.00  0.00     0.031 C 
ATOM     67  C   UNL     1       8.854  -6.540  11.400  1.00  0.00     0.034 A 
BRANCH  54  68
ATOM     68  C   UNL     1      12.344  -9.196   7.046  1.00  0.00     0.023 A 
ATOM     69  C   UNL     1      13.641  -8.799   6.664  1.00  0.00     0.012 A 
ATOM     70  C   UNL     1      12.043 -10.569   7.146  1.00  0.00     0.148 A 
ATOM     71  C   UNL     1      14.613  -9.749   6.354  1.00  0.00     0.002 A 
ATOM     72  C   UNL     1      13.030 -11.510   6.883  1.00  0.00     0.091 A 
ATOM     73  F   UNL     1      10.797 -10.927   7.488  1.00  0.00    -0.205 F 
ATOM     74  C   UNL     1      14.311 -11.103   6.474  1.00  0.00     0.022 A 
BRANCH  72  75
ATOM     75  S   UNL     1      12.766 -13.275   7.087  1.00  0.00     0.127 S 
ATOM     76  O   UNL     1      12.814 -13.742   5.702  1.00  0.00    -0.237 OA
ATOM     77  O   UNL     1      13.916 -13.664   7.903  1.00  0.00    -0.237 OA
ATOM     78  O   UNL     1      11.476 -13.416   7.747  1.00  0.00    -0.744 OA
ENDBRANCH  72  75
ENDBRANCH  54  68
BRANCH  55  79
ATOM     79  C   UNL     1       5.246  -2.392   8.845  1.00  0.00     0.023 A 
ATOM     80  C   UNL     1       5.493  -1.293   9.690  1.00  0.00     0.012 A 
ATOM     81  C   UNL     1       3.965  -2.548   8.280  1.00  0.00     0.148 A 
ATOM     82  C   UNL     1       4.475  -0.388   9.998  1.00  0.00     0.002 A 
ATOM     83  C   UNL     1       2.973  -1.611   8.543  1.00  0.00     0.091 A 
ATOM     84  F   UNL     1       3.745  -3.609   7.490  1.00  0.00    -0.205 F 
ATOM     85  C   UNL     1       3.219  -0.542   9.418  1.00  0.00     0.022 A 
BRANCH  83  86
ATOM     86  S   UNL     1       1.363  -1.655   7.748  1.00  0.00     0.127 S 
ATOM     87  O   UNL     1       0.478  -1.919   8.879  1.00  0.00    -0.237 OA
ATOM     88  O   UNL     1       1.270  -0.304   7.193  1.00  0.00    -0.237 OA
ATOM     89  O   UNL     1       1.445  -2.713   6.751  1.00  0.00    -0.744 OA
ENDBRANCH  83  86
ENDBRANCH  55  79
BRANCH  67  90
ATOM     90  C   UNL     1       8.831  -6.828  12.880  1.00  0.00     0.023 A 
ATOM     91  C   UNL     1       7.742  -7.513  13.453  1.00  0.00     0.012 A 
ATOM     92  C   UNL     1       9.933  -6.483  13.689  1.00  0.00     0.148 A 
ATOM     93  C   UNL     1       7.733  -7.817  14.815  1.00  0.00     0.002 A 
ATOM     94  C   UNL     1       9.941  -6.838  15.033  1.00  0.00     0.091 A 
ATOM     95  F   UNL     1      10.954  -5.819  13.129  1.00  0.00    -0.205 F 
ATOM     96  C   UNL     1       8.836  -7.491  15.601  1.00  0.00     0.022 A 
BRANCH  94  97
ATOM     97  S   UNL     1      11.359  -6.549  16.098  1.00  0.00     0.127 S 
ATOM     98  O   UNL     1      10.855  -5.503  16.987  1.00  0.00    -0.237 OA
ATOM     99  O   UNL     1      11.538  -7.855  16.733  1.00  0.00    -0.237 OA
ATOM    100  O   UNL     1      12.449  -6.148  15.220  1.00  0.00    -0.744 OA
ENDBRANCH  94  97
ENDBRANCH  67  90
ENDBRANCH  41  42
ENDBRANCH  34  36
ENDBRANCH  33  34
ENDBRANCH  32  33
ENDBRANCH  31  32
ENDBRANCH  30  31
ENDBRANCH  29  30
ENDBRANCH   1  29
TORSDOF 27
