REMARK SMILES CCC[C@@H]([NH2+]Cc1cc(Cl)cs1)C(=O)OCCOCCOCCOCCOC(=O)c1ccc(-c2c3nc(c(-c4cccc(S(=O)(=O)[O-])c4F)c4ccc([nH]4)c(-c4cccc(S(=O)(=O)[O-])c4F)c4nc(c(-c5cccc(S(=O)(=O)[O-])c5F)c5ccc2[nH]5)C=C4)C=C3)cc1
REMARK SMILES IDX 21 1 20 2 19 3 18 4 17 5 16 6 15 7 13 8 14 9 4 10 3 11 2 12
REMARK SMILES IDX 1 13 5 14 6 17 7 18 8 19 12 20 9 21 11 22 10 23 22 24 23 25
REMARK SMILES IDX 24 26 25 27 26 28 27 29 28 30 29 31 30 32 31 33 92 34 32 35
REMARK SMILES IDX 91 36 33 37 34 38 35 39 85 40 36 41 90 42 84 43 86 44 37 45
REMARK SMILES IDX 89 46 83 47 82 48 38 50 70 51 50 52 69 53 51 54 54 55 68 56
REMARK SMILES IDX 87 57 52 58 53 59 67 61 88 62 55 63 39 64 40 65 48 66 41 67
REMARK SMILES IDX 43 68 49 69 42 70 44 71 45 72 46 73 47 74 71 75 72 76 80 77
REMARK SMILES IDX 73 78 75 79 81 80 74 81 76 82 77 83 78 84 79 85 56 86 57 87
REMARK SMILES IDX 65 88 58 89 60 90 66 91 59 92 61 93 62 94 63 95 64 96
REMARK H PARENT 5 15 5 16 86 49 54 60
REMARK Flexibility Score: inf
ROOT
ATOM      1  O   UNL     1       2.582  -2.254  -4.292  1.00  0.00    -0.377 OA
ENDROOT
BRANCH   1   2
ATOM      2  C   UNL     1       3.052  -2.609  -3.012  1.00  0.00     0.188 C 
BRANCH   2   3
ATOM      3  C   UNL     1       2.984  -4.102  -2.674  1.00  0.00     0.188 C 
BRANCH   3   4
ATOM      4  O   UNL     1       2.969  -5.073  -3.697  1.00  0.00    -0.376 OA
BRANCH   4   5
ATOM      5  C   UNL     1       1.970  -5.163  -4.701  1.00  0.00     0.202 C 
BRANCH   5   6
ATOM      6  C   UNL     1       0.537  -4.590  -4.676  1.00  0.00     0.261 C 
BRANCH   6   7
ATOM      7  O   UNL     1       0.280  -3.375  -3.967  1.00  0.00    -0.459 OA
BRANCH   7   8
ATOM      8  C   UNL     1      -0.141  -3.572  -2.701  1.00  0.00     0.364 C 
ATOM      9  O   UNL     1      -0.205  -4.691  -2.191  1.00  0.00    -0.245 OA
BRANCH   8  10
ATOM     10  C   UNL     1      -0.478  -2.292  -1.904  1.00  0.00     0.293 C 
BRANCH  10  11
ATOM     11  C   UNL     1      -0.101  -0.918  -2.508  1.00  0.00     0.077 C 
BRANCH  11  12
ATOM     12  C   UNL     1      -0.096   0.248  -1.491  1.00  0.00     0.003 C 
ATOM     13  C   UNL     1       0.881   0.098  -0.328  1.00  0.00     0.004 C 
ENDBRANCH  11  12
ENDBRANCH  10  11
BRANCH  10  14
ATOM     14  N   UNL     1      -1.915  -2.262  -1.532  1.00  0.00    -0.330 N 
ATOM     15  H   UNL     1      -2.459  -2.159  -2.388  1.00  0.00     0.347 HD
ATOM     16  H   UNL     1      -2.019  -1.482  -0.882  1.00  0.00     0.347 HD
BRANCH  14  17
ATOM     17  C   UNL     1      -2.409  -3.445  -0.822  1.00  0.00     0.309 C 
BRANCH  17  18
ATOM     18  C   UNL     1      -1.678  -3.732   0.460  1.00  0.00     0.060 A 
ATOM     19  C   UNL     1      -1.203  -2.847   1.412  1.00  0.00     0.041 A 
ATOM     20  S   UNL     1      -1.325  -5.355   0.897  1.00  0.00    -0.141 S 
ATOM     21  C   UNL     1      -0.478  -3.499   2.445  1.00  0.00     0.052 A 
ATOM     22  C   UNL     1      -0.462  -4.864   2.287  1.00  0.00     0.085 A 
ATOM     23  Cl  UNL     1       0.280  -2.650   3.718  1.00  0.00    -0.083 Cl
ENDBRANCH  17  18
ENDBRANCH  14  17
ENDBRANCH  10  14
ENDBRANCH   8  10
ENDBRANCH   7   8
ENDBRANCH   6   7
ENDBRANCH   5   6
ENDBRANCH   4   5
ENDBRANCH   3   4
ENDBRANCH   2   3
ENDBRANCH   1   2
BRANCH   1  24
ATOM     24  C   UNL     1       3.452  -2.348  -5.412  1.00  0.00     0.188 C 
BRANCH  24  25
ATOM     25  C   UNL     1       4.774  -3.134  -5.310  1.00  0.00     0.188 C 
BRANCH  25  26
ATOM     26  O   UNL     1       5.488  -2.939  -4.099  1.00  0.00    -0.376 OA
BRANCH  26  27
ATOM     27  C   UNL     1       6.514  -1.958  -4.073  1.00  0.00     0.202 C 
BRANCH  27  28
ATOM     28  C   UNL     1       6.118  -0.499  -4.346  1.00  0.00     0.261 C 
BRANCH  28  29
ATOM     29  O   UNL     1       5.558  -0.212  -5.638  1.00  0.00    -0.460 OA
BRANCH  29  30
ATOM     30  C   UNL     1       6.258  -0.569  -6.739  1.00  0.00     0.338 C 
ATOM     31  O   UNL     1       7.368  -1.052  -6.776  1.00  0.00    -0.246 OA
BRANCH  30  32
ATOM     32  C   UNL     1       5.343  -0.459  -7.899  1.00  0.00     0.060 A 
ATOM     33  C   UNL     1       5.066  -1.604  -8.657  1.00  0.00     0.016 A 
ATOM     34  C   UNL     1       4.763   0.766  -8.232  1.00  0.00     0.016 A 
ATOM     35  C   UNL     1       4.236  -1.519  -9.776  1.00  0.00     0.010 A 
ATOM     36  C   UNL     1       3.950   0.854  -9.365  1.00  0.00     0.010 A 
ATOM     37  C   UNL     1       3.711  -0.280 -10.162  1.00  0.00    -0.014 A 
BRANCH  37  38
ATOM     38  C   UNL     1       3.076  -0.124 -11.493  1.00  0.00     0.031 A 
ATOM     39  C   UNL     1       3.900   0.456 -12.611  1.00  0.00     0.074 A 
ATOM     40  C   UNL     1       1.794  -0.469 -11.706  1.00  0.00     0.049 A 
ATOM     41  N   UNL     1       3.545   0.763 -13.830  1.00  0.00    -0.248 NA
ATOM     42  C   UNL     1       5.315   0.730 -12.309  1.00  0.00     0.031 C 
ATOM     43  C   UNL     1       0.899  -1.056 -10.711  1.00  0.00     0.029 A 
ATOM     44  N   UNL     1       1.014  -0.341 -12.830  1.00  0.00    -0.354 N 
ATOM     45  C   UNL     1       4.678   1.302 -14.429  1.00  0.00     0.074 A 
ATOM     46  C   UNL     1       5.731   1.283 -13.438  1.00  0.00     0.031 C 
ATOM     47  C   UNL     1      -0.321  -1.203 -11.258  1.00  0.00     0.029 A 
ATOM     48  C   UNL     1      -0.301  -0.689 -12.626  1.00  0.00     0.049 A 
ATOM     49  H   UNL     1       1.363  -0.031 -13.696  1.00  0.00     0.167 HD
ATOM     50  C   UNL     1       4.830   1.764 -15.691  1.00  0.00     0.034 A 
ATOM     51  C   UNL     1      -1.370  -0.569 -13.439  1.00  0.00     0.034 A 
ATOM     52  C   UNL     1       3.785   1.772 -16.677  1.00  0.00     0.049 A 
ATOM     53  C   UNL     1      -1.184  -0.010 -14.828  1.00  0.00     0.074 A 
ATOM     54  C   UNL     1       3.854   2.174 -17.999  1.00  0.00     0.029 A 
ATOM     55  N   UNL     1       2.476   1.380 -16.446  1.00  0.00    -0.354 N 
ATOM     56  N   UNL     1      -0.084   0.392 -15.417  1.00  0.00    -0.248 NA
ATOM     57  C   UNL     1      -2.384   0.087 -15.674  1.00  0.00     0.031 C 
ATOM     58  C   UNL     1       2.576   2.068 -18.554  1.00  0.00     0.029 A 
ATOM     59  C   UNL     1       1.721   1.552 -17.593  1.00  0.00     0.049 A 
ATOM     60  H   UNL     1       2.133   1.031 -15.591  1.00  0.00     0.167 HD
ATOM     61  C   UNL     1      -0.451   0.753 -16.710  1.00  0.00     0.074 A 
ATOM     62  C   UNL     1      -1.873   0.505 -16.825  1.00  0.00     0.031 C 
ATOM     63  C   UNL     1       0.317   1.254 -17.710  1.00  0.00     0.034 A 
BRANCH  50  64
ATOM     64  C   UNL     1       6.181   2.304 -16.082  1.00  0.00     0.023 A 
ATOM     65  C   UNL     1       7.268   1.425 -16.256  1.00  0.00     0.012 A 
ATOM     66  C   UNL     1       6.356   3.680 -16.331  1.00  0.00     0.148 A 
ATOM     67  C   UNL     1       8.518   1.909 -16.640  1.00  0.00     0.002 A 
ATOM     68  C   UNL     1       7.591   4.149 -16.760  1.00  0.00     0.091 A 
ATOM     69  F   UNL     1       5.316   4.502 -16.138  1.00  0.00    -0.205 F 
ATOM     70  C   UNL     1       8.676   3.268 -16.903  1.00  0.00     0.022 A 
BRANCH  68  71
ATOM     71  S   UNL     1       7.875   5.866 -17.202  1.00  0.00     0.127 S 
ATOM     72  O   UNL     1       8.780   6.298 -16.137  1.00  0.00    -0.237 OA
ATOM     73  O   UNL     1       8.499   5.743 -18.520  1.00  0.00    -0.237 OA
ATOM     74  O   UNL     1       6.567   6.504 -17.204  1.00  0.00    -0.744 OA
ENDBRANCH  68  71
ENDBRANCH  50  64
BRANCH  51  75
ATOM     75  C   UNL     1      -2.721  -0.990 -12.967  1.00  0.00     0.023 A 
ATOM     76  C   UNL     1      -3.353  -2.101 -13.558  1.00  0.00     0.012 A 
ATOM     77  C   UNL     1      -3.382  -0.292 -11.938  1.00  0.00     0.148 A 
ATOM     78  C   UNL     1      -4.633  -2.488 -13.157  1.00  0.00     0.002 A 
ATOM     79  C   UNL     1      -4.631  -0.717 -11.502  1.00  0.00     0.091 A 
ATOM     80  F   UNL     1      -2.771   0.773 -11.400  1.00  0.00    -0.205 F 
ATOM     81  C   UNL     1      -5.267  -1.803 -12.123  1.00  0.00     0.022 A 
BRANCH  79  82
ATOM     82  S   UNL     1      -5.470   0.026 -10.099  1.00  0.00     0.127 S 
ATOM     83  O   UNL     1      -6.621   0.657 -10.739  1.00  0.00    -0.237 OA
ATOM     84  O   UNL     1      -5.783  -1.147  -9.283  1.00  0.00    -0.237 OA
ATOM     85  O   UNL     1      -4.505   0.937  -9.499  1.00  0.00    -0.744 OA
ENDBRANCH  79  82
ENDBRANCH  51  75
BRANCH  63  86
ATOM     86  C   UNL     1      -0.341   1.526 -19.039  1.00  0.00     0.023 A 
ATOM     87  C   UNL     1      -1.228   2.611 -19.181  1.00  0.00     0.012 A 
ATOM     88  C   UNL     1      -0.005   0.756 -20.172  1.00  0.00     0.148 A 
ATOM     89  C   UNL     1      -1.795   2.906 -20.421  1.00  0.00     0.002 A 
ATOM     90  C   UNL     1      -0.531   1.089 -21.414  1.00  0.00     0.091 A 
ATOM     91  F   UNL     1       0.831  -0.280 -20.014  1.00  0.00    -0.205 F 
ATOM     92  C   UNL     1      -1.437   2.154 -21.538  1.00  0.00     0.022 A 
BRANCH  90  93
ATOM     93  S   UNL     1      -0.053   0.242 -22.924  1.00  0.00     0.127 S 
ATOM     94  O   UNL     1      -1.290  -0.449 -23.283  1.00  0.00    -0.237 OA
ATOM     95  O   UNL     1       0.299   1.357 -23.804  1.00  0.00    -0.237 OA
ATOM     96  O   UNL     1       1.062  -0.625 -22.567  1.00  0.00    -0.744 OA
ENDBRANCH  90  93
ENDBRANCH  63  86
ENDBRANCH  37  38
ENDBRANCH  30  32
ENDBRANCH  29  30
ENDBRANCH  28  29
ENDBRANCH  27  28
ENDBRANCH  26  27
ENDBRANCH  25  26
ENDBRANCH  24  25
ENDBRANCH   1  24
TORSDOF 28
