REMARK SMILES Cc1coc2cc3c(cc12)[C@@H](C)[C@H](CCC(=O)N[C@@H](Cc1c[nH]c2ccccc12)C(=O)OCCOCCOCCOCCOC(=O)c1ccc(-c2c4nc(c(-c5cccc(S(=O)(=O)[O-])c5F)c5ccc([nH]5)c(-c5cccc(S(=O)(=O)[O-])c5F)c5nc(c(-c6cccc(S(=O)(=O)[O-])c6F)c6ccc2[nH]6)C=C5)C=C4)cc1)C(=O)O3
REMARK SMILES IDX 37 1 36 2 35 3 34 4 33 5 32 6 30 7 31 8 19 9 18 10 16 11
REMARK SMILES IDX 17 12 15 14 14 15 13 16 1 17 2 18 3 19 10 20 4 21 5 22 9 23
REMARK SMILES IDX 6 24 8 25 7 26 11 27 112 28 12 29 110 30 111 31 20 32 21 33
REMARK SMILES IDX 22 34 29 35 23 36 24 37 28 38 25 40 27 41 26 42 38 43 39 44
REMARK SMILES IDX 40 45 41 46 42 47 43 48 44 49 45 50 46 51 47 52 48 53 109 54
REMARK SMILES IDX 49 55 108 56 50 57 51 58 52 59 102 60 53 61 107 62 101 63
REMARK SMILES IDX 103 64 54 65 106 66 100 67 99 68 55 70 87 71 67 72 86 73
REMARK SMILES IDX 68 74 71 75 85 76 104 77 69 78 70 79 84 81 105 82 72 83
REMARK SMILES IDX 56 84 57 85 65 86 58 87 60 88 66 89 59 90 61 91 62 92 63 93
REMARK SMILES IDX 64 94 88 95 89 96 97 97 90 98 92 99 98 100 91 101 93 102
REMARK SMILES IDX 94 103 95 104 96 105 73 106 74 107 82 108 75 109 77 110
REMARK SMILES IDX 83 111 76 112 78 113 79 114 80 115 81 116
REMARK H PARENT 18 13 23 39 103 69 71 80
REMARK Flexibility Score: inf
ROOT
ATOM      1  C   UNL     1       4.434  -1.405  -2.428  1.00  0.00     0.188 C 
ENDROOT
BRANCH   1   2
ATOM      2  C   UNL     1       4.167  -1.406  -0.931  1.00  0.00     0.188 C 
BRANCH   2   3
ATOM      3  O   UNL     1       4.774  -0.333  -0.241  1.00  0.00    -0.376 OA
BRANCH   3   4
ATOM      4  C   UNL     1       5.705  -0.672   0.780  1.00  0.00     0.202 C 
BRANCH   4   5
ATOM      5  C   UNL     1       6.943  -1.538   0.452  1.00  0.00     0.261 C 
BRANCH   5   6
ATOM      6  O   UNL     1       6.795  -2.438  -0.663  1.00  0.00    -0.462 OA
BRANCH   6   7
ATOM      7  C   UNL     1       6.638  -3.746  -0.363  1.00  0.00     0.329 C 
ATOM      8  O   UNL     1       6.582  -4.180   0.784  1.00  0.00    -0.250 OA
BRANCH   7   9
ATOM      9  C   UNL     1       6.473  -4.673  -1.587  1.00  0.00     0.196 C 
BRANCH   9  10
ATOM     10  N   UNL     1       6.248  -4.217  -2.954  1.00  0.00    -0.342 N 
ATOM     11  C   UNL     1       5.229  -4.611  -3.780  1.00  0.00     0.220 C 
ATOM     12  O   UNL     1       5.434  -4.656  -4.995  1.00  0.00    -0.275 OA
ATOM     13  H   UNL     1       6.890  -3.565  -3.318  1.00  0.00     0.164 HD
BRANCH  11  14
ATOM     14  C   UNL     1       3.812  -4.857  -3.227  1.00  0.00     0.101 C 
BRANCH  14  15
ATOM     15  C   UNL     1       3.393  -6.214  -2.673  1.00  0.00     0.026 C 
BRANCH  15  16
ATOM     16  C   UNL     1       3.425  -6.468  -1.133  1.00  0.00     0.107 C 
ATOM     17  C   UNL     1       0.634  -0.231   0.484  1.00  0.00     0.048 C 
ATOM     18  C   UNL     1      -0.071  -1.540   0.471  1.00  0.00    -0.005 A 
ATOM     19  C   UNL     1      -1.437  -1.740   0.490  1.00  0.00     0.199 A 
ATOM     20  C   UNL     1       0.493  -2.848   0.366  1.00  0.00     0.024 A 
ATOM     21  O   UNL     1      -1.746  -3.055   0.330  1.00  0.00    -0.464 OA
ATOM     22  C   UNL     1      -0.568  -3.730   0.211  1.00  0.00     0.137 A 
ATOM     23  C   UNL     1       1.788  -3.385   0.356  1.00  0.00     0.020 A 
ATOM     24  C   UNL     1      -0.423  -5.098  -0.034  1.00  0.00     0.095 A 
ATOM     25  C   UNL     1       1.985  -4.731   0.006  1.00  0.00    -0.001 A 
ATOM     26  C   UNL     1       0.890  -5.558  -0.179  1.00  0.00     0.138 A 
ATOM     27  C   UNL     1       3.364  -5.287  -0.142  1.00  0.00     0.034 C 
ATOM     28  O   UNL     1       1.082  -6.927  -0.465  1.00  0.00    -0.426 OA
ATOM     29  C   UNL     1       3.925  -5.679   1.232  1.00  0.00     0.014 C 
ATOM     30  C   UNL     1       2.326  -7.463  -0.801  1.00  0.00     0.314 C 
ATOM     31  O   UNL     1       2.485  -8.674  -0.925  1.00  0.00    -0.251 OA
ENDBRANCH  15  16
ENDBRANCH  14  15
ENDBRANCH  11  14
ENDBRANCH   9  10
BRANCH   9  32
ATOM     32  C   UNL     1       7.535  -5.764  -1.564  1.00  0.00     0.074 C 
BRANCH  32  33
ATOM     33  C   UNL     1       8.947  -5.313  -1.412  1.00  0.00    -0.020 A 
ATOM     34  C   UNL     1       9.539  -4.099  -1.706  1.00  0.00     0.087 A 
ATOM     35  C   UNL     1       9.954  -6.139  -0.830  1.00  0.00     0.003 A 
ATOM     36  N   UNL     1      10.837  -4.143  -1.258  1.00  0.00    -0.361 N 
ATOM     37  C   UNL     1      11.118  -5.383  -0.739  1.00  0.00     0.046 A 
ATOM     38  C   UNL     1       9.947  -7.456  -0.327  1.00  0.00     0.010 A 
ATOM     39  H   UNL     1      11.474  -3.393  -1.302  1.00  0.00     0.166 HD
ATOM     40  C   UNL     1      12.287  -5.882  -0.159  1.00  0.00     0.026 A 
ATOM     41  C   UNL     1      11.102  -7.968   0.259  1.00  0.00     0.001 A 
ATOM     42  C   UNL     1      12.252  -7.188   0.340  1.00  0.00     0.002 A 
ENDBRANCH  32  33
ENDBRANCH   9  32
ENDBRANCH   7   9
ENDBRANCH   6   7
ENDBRANCH   5   6
ENDBRANCH   4   5
ENDBRANCH   3   4
ENDBRANCH   2   3
ENDBRANCH   1   2
BRANCH   1  43
ATOM     43  O   UNL     1       5.744  -1.091  -2.833  1.00  0.00    -0.377 OA
BRANCH  43  44
ATOM     44  C   UNL     1       6.185   0.217  -2.503  1.00  0.00     0.188 C 
BRANCH  44  45
ATOM     45  C   UNL     1       5.149   1.353  -2.600  1.00  0.00     0.188 C 
BRANCH  45  46
ATOM     46  O   UNL     1       4.223   1.149  -3.656  1.00  0.00    -0.376 OA
BRANCH  46  47
ATOM     47  C   UNL     1       4.491   1.810  -4.878  1.00  0.00     0.202 C 
BRANCH  47  48
ATOM     48  C   UNL     1       5.817   1.499  -5.593  1.00  0.00     0.261 C 
BRANCH  48  49
ATOM     49  O   UNL     1       7.019   1.725  -4.830  1.00  0.00    -0.460 OA
BRANCH  49  50
ATOM     50  C   UNL     1       7.387   2.986  -4.478  1.00  0.00     0.338 C 
ATOM     51  O   UNL     1       6.975   4.007  -4.963  1.00  0.00    -0.246 OA
BRANCH  50  52
ATOM     52  C   UNL     1       8.104   2.857  -3.160  1.00  0.00     0.060 A 
ATOM     53  C   UNL     1       8.990   1.808  -2.893  1.00  0.00     0.016 A 
ATOM     54  C   UNL     1       7.640   3.652  -2.098  1.00  0.00     0.016 A 
ATOM     55  C   UNL     1       9.321   1.509  -1.566  1.00  0.00     0.010 A 
ATOM     56  C   UNL     1       7.967   3.345  -0.768  1.00  0.00     0.010 A 
ATOM     57  C   UNL     1       8.802   2.265  -0.487  1.00  0.00    -0.014 A 
BRANCH  57  58
ATOM     58  C   UNL     1       9.482   2.114   0.821  1.00  0.00     0.031 A 
ATOM     59  C   UNL     1      10.929   2.437   0.679  1.00  0.00     0.074 A 
ATOM     60  C   UNL     1       9.017   1.946   2.082  1.00  0.00     0.049 A 
ATOM     61  N   UNL     1      11.949   1.653   0.809  1.00  0.00    -0.248 NA
ATOM     62  C   UNL     1      11.244   3.776   0.154  1.00  0.00     0.031 C 
ATOM     63  C   UNL     1       7.634   2.029   2.547  1.00  0.00     0.029 A 
ATOM     64  N   UNL     1       9.723   1.751   3.255  1.00  0.00    -0.354 N 
ATOM     65  C   UNL     1      13.051   2.479   0.595  1.00  0.00     0.074 A 
ATOM     66  C   UNL     1      12.561   3.687  -0.008  1.00  0.00     0.031 C 
ATOM     67  C   UNL     1       7.608   2.039   3.900  1.00  0.00     0.029 A 
ATOM     68  C   UNL     1       8.960   1.890   4.415  1.00  0.00     0.049 A 
ATOM     69  H   UNL     1      10.682   1.532   3.271  1.00  0.00     0.167 HD
ATOM     70  C   UNL     1      14.243   2.242   1.198  1.00  0.00     0.034 A 
ATOM     71  C   UNL     1       9.386   1.929   5.705  1.00  0.00     0.034 A 
ATOM     72  C   UNL     1      14.338   0.907   1.715  1.00  0.00     0.049 A 
ATOM     73  C   UNL     1      10.746   1.360   5.791  1.00  0.00     0.074 A 
ATOM     74  C   UNL     1      14.606  -0.356   1.241  1.00  0.00     0.029 A 
ATOM     75  N   UNL     1      13.851   0.777   2.982  1.00  0.00    -0.354 N 
ATOM     76  N   UNL     1      11.013   0.089   5.702  1.00  0.00    -0.248 NA
ATOM     77  C   UNL     1      11.904   2.248   5.856  1.00  0.00     0.031 C 
ATOM     78  C   UNL     1      14.167  -1.267   2.247  1.00  0.00     0.029 A 
ATOM     79  C   UNL     1      13.630  -0.535   3.301  1.00  0.00     0.049 A 
ATOM     80  H   UNL     1      13.679   1.532   3.590  1.00  0.00     0.167 HD
ATOM     81  C   UNL     1      12.329   0.054   5.296  1.00  0.00     0.074 A 
ATOM     82  C   UNL     1      12.874   1.369   5.597  1.00  0.00     0.031 C 
ATOM     83  C   UNL     1      12.749  -0.875   4.396  1.00  0.00     0.034 A 
BRANCH  70  84
ATOM     84  C   UNL     1      15.160   3.331   1.721  1.00  0.00     0.023 A 
ATOM     85  C   UNL     1      16.420   2.928   2.216  1.00  0.00     0.012 A 
ATOM     86  C   UNL     1      14.764   4.660   2.005  1.00  0.00     0.148 A 
ATOM     87  C   UNL     1      17.228   3.791   2.966  1.00  0.00     0.002 A 
ATOM     88  C   UNL     1      15.611   5.543   2.665  1.00  0.00     0.091 A 
ATOM     89  F   UNL     1      13.507   5.052   1.777  1.00  0.00    -0.205 F 
ATOM     90  C   UNL     1      16.833   5.105   3.176  1.00  0.00     0.022 A 
BRANCH  88  91
ATOM     91  S   UNL     1      15.167   7.270   2.892  1.00  0.00     0.127 S 
ATOM     92  O   UNL     1      14.812   7.301   4.307  1.00  0.00    -0.237 OA
ATOM     93  O   UNL     1      16.417   7.948   2.548  1.00  0.00    -0.237 OA
ATOM     94  O   UNL     1      14.081   7.515   1.950  1.00  0.00    -0.744 OA
ENDBRANCH  88  91
ENDBRANCH  70  84
BRANCH  71  95
ATOM     95  C   UNL     1       8.778   2.465   6.956  1.00  0.00     0.023 A 
ATOM     96  C   UNL     1       9.236   1.980   8.205  1.00  0.00     0.012 A 
ATOM     97  C   UNL     1       7.986   3.628   6.954  1.00  0.00     0.148 A 
ATOM     98  C   UNL     1       8.972   2.663   9.398  1.00  0.00     0.002 A 
ATOM     99  C   UNL     1       7.716   4.300   8.147  1.00  0.00     0.091 A 
ATOM    100  F   UNL     1       7.581   4.131   5.781  1.00  0.00    -0.205 F 
ATOM    101  C   UNL     1       8.221   3.831   9.367  1.00  0.00     0.022 A 
BRANCH  99 102
ATOM    102  S   UNL     1       6.767   5.826   8.179  1.00  0.00     0.127 S 
ATOM    103  O   UNL     1       5.951   5.659   9.383  1.00  0.00    -0.237 OA
ATOM    104  O   UNL     1       7.820   6.831   8.288  1.00  0.00    -0.237 OA
ATOM    105  O   UNL     1       6.002   5.829   6.938  1.00  0.00    -0.744 OA
ENDBRANCH  99 102
ENDBRANCH  71  95
BRANCH  83 106
ATOM    106  C   UNL     1      12.067  -2.207   4.376  1.00  0.00     0.023 A 
ATOM    107  C   UNL     1      10.711  -2.368   4.036  1.00  0.00     0.012 A 
ATOM    108  C   UNL     1      12.854  -3.346   4.616  1.00  0.00     0.148 A 
ATOM    109  C   UNL     1      10.153  -3.645   3.939  1.00  0.00     0.002 A 
ATOM    110  C   UNL     1      12.308  -4.615   4.475  1.00  0.00     0.091 A 
ATOM    111  F   UNL     1      14.136  -3.167   4.971  1.00  0.00    -0.205 F 
ATOM    112  C   UNL     1      10.955  -4.769   4.139  1.00  0.00     0.022 A 
BRANCH 110 113
ATOM    113  S   UNL     1      13.330  -6.082   4.631  1.00  0.00     0.127 S 
ATOM    114  O   UNL     1      12.994  -6.549   5.974  1.00  0.00    -0.237 OA
ATOM    115  O   UNL     1      12.844  -6.936   3.548  1.00  0.00    -0.237 OA
ATOM    116  O   UNL     1      14.703  -5.625   4.446  1.00  0.00    -0.744 OA
ENDBRANCH 110 113
ENDBRANCH  83 106
ENDBRANCH  57  58
ENDBRANCH  50  52
ENDBRANCH  49  50
ENDBRANCH  48  49
ENDBRANCH  47  48
ENDBRANCH  46  47
ENDBRANCH  45  46
ENDBRANCH  44  45
ENDBRANCH  43  44
ENDBRANCH   1  43
TORSDOF 29
