REMARK SMILES CCc1cc(OC[C@@H]2C[N@@H+](CC)CCO2)c(C(=O)OCCOCCOCCOCCOC(=O)c2ccc(-c3c4nc(c(-c5cccc(S(=O)(=O)[O-])c5F)c5ccc([nH]5)c(-c5cccc(S(=O)(=O)[O-])c5F)c5nc(c(-c6cccc(S(=O)(=O)[O-])c6F)c6ccc3[nH]6)C=C5)C=C4)cc2)s1
REMARK SMILES IDX 24 1 23 2 22 3 21 4 20 5 19 6 17 7 18 8 16 9 3 10 4 11 97 12
REMARK SMILES IDX 5 13 2 14 1 15 6 16 7 17 8 18 9 19 15 20 10 21 14 22 13 23
REMARK SMILES IDX 11 25 12 26 25 27 26 28 27 29 28 30 29 31 30 32 31 33 32 34
REMARK SMILES IDX 33 35 34 36 35 37 96 38 36 39 95 40 37 41 38 42 39 43 89 44
REMARK SMILES IDX 40 45 94 46 88 47 90 48 41 49 93 50 87 51 86 52 42 54 74 55
REMARK SMILES IDX 54 56 73 57 55 58 58 59 72 60 91 61 56 62 57 63 71 65 92 66
REMARK SMILES IDX 59 67 43 68 44 69 52 70 45 71 47 72 53 73 46 74 48 75 49 76
REMARK SMILES IDX 50 77 51 78 75 79 76 80 84 81 77 82 79 83 85 84 78 85 80 86
REMARK SMILES IDX 81 87 82 88 83 89 60 90 61 91 69 92 62 93 64 94 70 95 63 96
REMARK SMILES IDX 65 97 66 98 67 99 68 100
REMARK H PARENT 10 24 90 53 58 64
REMARK Flexibility Score: inf
ROOT
ATOM      1  C   UNL     1       0.490  -0.686   6.965  1.00  0.00     0.188 C 
ENDROOT
BRANCH   1   2
ATOM      2  C   UNL     1       1.753  -1.441   7.412  1.00  0.00     0.188 C 
BRANCH   2   3
ATOM      3  O   UNL     1       2.398  -0.877   8.550  1.00  0.00    -0.376 OA
BRANCH   3   4
ATOM      4  C   UNL     1       3.729  -0.417   8.354  1.00  0.00     0.202 C 
BRANCH   4   5
ATOM      5  C   UNL     1       3.849   0.929   7.631  1.00  0.00     0.261 C 
BRANCH   5   6
ATOM      6  O   UNL     1       3.129   0.993   6.398  1.00  0.00    -0.459 OA
BRANCH   6   7
ATOM      7  C   UNL     1       3.598   0.312   5.323  1.00  0.00     0.352 C 
ATOM      8  O   UNL     1       4.646  -0.326   5.316  1.00  0.00    -0.245 OA
BRANCH   7   9
ATOM      9  C   UNL     1       2.583   0.330   4.287  1.00  0.00     0.155 A 
ATOM     10  C   UNL     1       1.075  -0.312   2.430  1.00  0.00     0.009 A 
ATOM     11  C   UNL     1       0.677   0.859   3.043  1.00  0.00     0.062 A 
ATOM     12  S   UNL     1       2.473  -0.968   3.173  1.00  0.00    -0.130 S 
ATOM     13  C   UNL     1       1.608   1.280   4.038  1.00  0.00     0.145 A 
BRANCH  10  14
ATOM     14  C   UNL     1       0.460  -0.977   1.236  1.00  0.00     0.043 C 
ATOM     15  C   UNL     1       0.900  -0.295  -0.054  1.00  0.00     0.010 C 
ENDBRANCH  10  14
BRANCH  13  16
ATOM     16  O   UNL     1       1.659   2.469   4.688  1.00  0.00    -0.489 OA
BRANCH  16  17
ATOM     17  C   UNL     1       1.163   3.598   3.968  1.00  0.00     0.267 C 
BRANCH  17  18
ATOM     18  C   UNL     1       2.012   4.074   2.759  1.00  0.00     0.210 C 
ATOM     19  C   UNL     1       3.121   3.113   2.272  1.00  0.00     0.298 C 
ATOM     20  O   UNL     1       2.617   5.340   3.082  1.00  0.00    -0.363 OA
ATOM     21  N   UNL     1       3.925   3.591   1.137  1.00  0.00    -0.331 N 
ATOM     22  C   UNL     1       3.241   5.912   1.926  1.00  0.00     0.222 C 
ATOM     23  C   UNL     1       4.321   4.989   1.334  1.00  0.00     0.291 C 
ATOM     24  H   UNL     1       4.799   3.066   1.131  1.00  0.00     0.348 HD
BRANCH  21  25
ATOM     25  C   UNL     1       3.415   3.222  -0.179  1.00  0.00     0.258 C 
ATOM     26  C   UNL     1       2.031   3.709  -0.582  1.00  0.00     0.071 C 
ENDBRANCH  21  25
ENDBRANCH  17  18
ENDBRANCH  16  17
ENDBRANCH  13  16
ENDBRANCH   7   9
ENDBRANCH   6   7
ENDBRANCH   5   6
ENDBRANCH   4   5
ENDBRANCH   3   4
ENDBRANCH   2   3
ENDBRANCH   1   2
BRANCH   1  27
ATOM     27  O   UNL     1       0.211   0.566   7.561  1.00  0.00    -0.377 OA
BRANCH  27  28
ATOM     28  C   UNL     1       0.120   0.666   8.978  1.00  0.00     0.188 C 
BRANCH  28  29
ATOM     29  C   UNL     1      -0.144  -0.575   9.861  1.00  0.00     0.188 C 
BRANCH  29  30
ATOM     30  O   UNL     1      -0.703  -1.700   9.192  1.00  0.00    -0.376 OA
BRANCH  30  31
ATOM     31  C   UNL     1      -2.081  -1.952   9.426  1.00  0.00     0.202 C 
BRANCH  31  32
ATOM     32  C   UNL     1      -3.031  -0.963   8.741  1.00  0.00     0.261 C 
BRANCH  32  33
ATOM     33  O   UNL     1      -2.958   0.381   9.240  1.00  0.00    -0.460 OA
BRANCH  33  34
ATOM     34  C   UNL     1      -3.238   0.563  10.549  1.00  0.00     0.338 C 
ATOM     35  O   UNL     1      -3.595  -0.279  11.353  1.00  0.00    -0.246 OA
BRANCH  34  36
ATOM     36  C   UNL     1      -2.869   1.945  10.897  1.00  0.00     0.060 A 
ATOM     37  C   UNL     1      -1.938   2.159  11.920  1.00  0.00     0.016 A 
ATOM     38  C   UNL     1      -3.451   3.019  10.220  1.00  0.00     0.016 A 
ATOM     39  C   UNL     1      -1.619   3.460  12.302  1.00  0.00     0.010 A 
ATOM     40  C   UNL     1      -3.141   4.320  10.613  1.00  0.00     0.010 A 
ATOM     41  C   UNL     1      -2.255   4.543  11.681  1.00  0.00    -0.014 A 
BRANCH  41  42
ATOM     42  C   UNL     1      -2.152   5.895  12.273  1.00  0.00     0.031 A 
ATOM     43  C   UNL     1      -3.237   6.343  13.212  1.00  0.00     0.074 A 
ATOM     44  C   UNL     1      -1.132   6.715  11.966  1.00  0.00     0.049 A 
ATOM     45  N   UNL     1      -3.369   7.479  13.843  1.00  0.00    -0.248 NA
ATOM     46  C   UNL     1      -4.324   5.381  13.469  1.00  0.00     0.031 C 
ATOM     47  C   UNL     1      -0.034   6.397  11.056  1.00  0.00     0.029 A 
ATOM     48  N   UNL     1      -0.875   7.999  12.374  1.00  0.00    -0.354 N 
ATOM     49  C   UNL     1      -4.559   7.379  14.554  1.00  0.00     0.074 A 
ATOM     50  C   UNL     1      -5.120   6.078  14.265  1.00  0.00     0.031 C 
ATOM     51  C   UNL     1       0.767   7.472  10.951  1.00  0.00     0.029 A 
ATOM     52  C   UNL     1       0.231   8.554  11.775  1.00  0.00     0.049 A 
ATOM     53  H   UNL     1      -1.429   8.478  13.032  1.00  0.00     0.167 HD
ATOM     54  C   UNL     1      -5.124   8.280  15.389  1.00  0.00     0.034 A 
ATOM     55  C   UNL     1       0.740   9.799  11.875  1.00  0.00     0.034 A 
ATOM     56  C   UNL     1      -4.559   9.567  15.685  1.00  0.00     0.049 A 
ATOM     57  C   UNL     1       0.084  10.790  12.804  1.00  0.00     0.074 A 
ATOM     58  C   UNL     1      -5.028  10.532  16.557  1.00  0.00     0.029 A 
ATOM     59  N   UNL     1      -3.407  10.074  15.105  1.00  0.00    -0.354 N 
ATOM     60  N   UNL     1      -0.959  10.629  13.583  1.00  0.00    -0.248 NA
ATOM     61  C   UNL     1       0.698  12.123  12.896  1.00  0.00     0.031 C 
ATOM     62  C   UNL     1      -4.169  11.634  16.489  1.00  0.00     0.029 A 
ATOM     63  C   UNL     1      -3.154  11.345  15.591  1.00  0.00     0.049 A 
ATOM     64  H   UNL     1      -2.851   9.601  14.445  1.00  0.00     0.167 HD
ATOM     65  C   UNL     1      -1.103  11.823  14.283  1.00  0.00     0.074 A 
ATOM     66  C   UNL     1      -0.029  12.693  13.848  1.00  0.00     0.031 C 
ATOM     67  C   UNL     1      -2.046  12.174  15.192  1.00  0.00     0.034 A 
BRANCH  54  68
ATOM     68  C   UNL     1      -6.408   7.886  16.068  1.00  0.00     0.023 A 
ATOM     69  C   UNL     1      -6.377   6.943  17.115  1.00  0.00     0.012 A 
ATOM     70  C   UNL     1      -7.633   8.474  15.700  1.00  0.00     0.148 A 
ATOM     71  C   UNL     1      -7.550   6.568  17.767  1.00  0.00     0.002 A 
ATOM     72  C   UNL     1      -8.793   8.125  16.381  1.00  0.00     0.091 A 
ATOM     73  F   UNL     1      -7.645   9.346  14.682  1.00  0.00    -0.205 F 
ATOM     74  C   UNL     1      -8.755   7.166  17.407  1.00  0.00     0.022 A 
BRANCH  72  75
ATOM     75  S   UNL     1     -10.380   8.892  16.038  1.00  0.00     0.127 S 
ATOM     76  O   UNL     1     -11.084   7.815  15.344  1.00  0.00    -0.237 OA
ATOM     77  O   UNL     1     -10.881   9.181  17.383  1.00  0.00    -0.237 OA
ATOM     78  O   UNL     1     -10.089  10.071  15.235  1.00  0.00    -0.744 OA
ENDBRANCH  72  75
ENDBRANCH  54  68
BRANCH  55  79
ATOM     79  C   UNL     1       1.966  10.165  11.112  1.00  0.00     0.023 A 
ATOM     80  C   UNL     1       3.174  10.376  11.804  1.00  0.00     0.012 A 
ATOM     81  C   UNL     1       1.945  10.295   9.710  1.00  0.00     0.148 A 
ATOM     82  C   UNL     1       4.334  10.737  11.117  1.00  0.00     0.002 A 
ATOM     83  C   UNL     1       3.115  10.607   9.026  1.00  0.00     0.091 A 
ATOM     84  F   UNL     1       0.780  10.110   9.072  1.00  0.00    -0.205 F 
ATOM     85  C   UNL     1       4.307  10.843   9.729  1.00  0.00     0.022 A 
BRANCH  83  86
ATOM     86  S   UNL     1       3.199  10.657   7.232  1.00  0.00     0.127 S 
ATOM     87  O   UNL     1       3.339  12.089   6.980  1.00  0.00    -0.237 OA
ATOM     88  O   UNL     1       4.400   9.866   6.964  1.00  0.00    -0.237 OA
ATOM     89  O   UNL     1       1.960  10.051   6.764  1.00  0.00    -0.744 OA
ENDBRANCH  83  86
ENDBRANCH  55  79
BRANCH  67  90
ATOM     90  C   UNL     1      -1.950  13.544  15.814  1.00  0.00     0.023 A 
ATOM     91  C   UNL     1      -2.295  14.680  15.057  1.00  0.00     0.012 A 
ATOM     92  C   UNL     1      -1.609  13.694  17.173  1.00  0.00     0.148 A 
ATOM     93  C   UNL     1      -2.276  15.949  15.636  1.00  0.00     0.002 A 
ATOM     94  C   UNL     1      -1.637  14.956  17.755  1.00  0.00     0.091 A 
ATOM     95  F   UNL     1      -1.266  12.603  17.872  1.00  0.00    -0.205 F 
ATOM     96  C   UNL     1      -1.960  16.086  16.986  1.00  0.00     0.022 A 
BRANCH  94  97
ATOM     97  S   UNL     1      -1.340  15.212  19.509  1.00  0.00     0.127 S 
ATOM     98  O   UNL     1       0.004  15.786  19.503  1.00  0.00    -0.237 OA
ATOM     99  O   UNL     1      -2.402  16.150  19.873  1.00  0.00    -0.237 OA
ATOM    100  O   UNL     1      -1.459  13.899  20.129  1.00  0.00    -0.744 OA
ENDBRANCH  94  97
ENDBRANCH  67  90
ENDBRANCH  41  42
ENDBRANCH  34  36
ENDBRANCH  33  34
ENDBRANCH  32  33
ENDBRANCH  31  32
ENDBRANCH  30  31
ENDBRANCH  29  30
ENDBRANCH  28  29
ENDBRANCH  27  28
ENDBRANCH   1  27
TORSDOF 28
