REMARK SMILES O=C(OCCOCCOCCOCCOC(=O)[C@H]1CCCC[N@@H+]1Cc1ccc(F)cc1Cl)c1ccc(-c2c3nc(c(-c4cccc(S(=O)(=O)[O-])c4F)c4ccc([nH]4)c(-c4cccc(S(=O)(=O)[O-])c4F)c4nc(c(-c5cccc(S(=O)(=O)[O-])c5F)c5ccc2[nH]5)C=C4)C=C3)cc1
REMARK SMILES IDX 8 1 7 2 6 3 5 4 4 5 3 6 2 7 1 8 33 9 34 10 95 11 35 12 94 13
REMARK SMILES IDX 36 14 37 15 38 16 88 17 39 18 93 19 87 20 89 21 40 22 92 23
REMARK SMILES IDX 86 24 85 25 41 27 73 28 53 29 72 30 54 31 57 32 71 33 90 34
REMARK SMILES IDX 55 35 56 36 70 38 91 39 58 40 42 41 43 42 51 43 44 44 46 45
REMARK SMILES IDX 52 46 45 47 47 48 48 49 49 50 50 51 74 52 75 53 83 54 76 55
REMARK SMILES IDX 78 56 84 57 77 58 79 59 80 60 81 61 82 62 59 63 60 64 68 65
REMARK SMILES IDX 61 66 63 67 69 68 62 69 64 70 65 71 66 72 67 73 9 74 10 75
REMARK SMILES IDX 11 76 12 77 13 78 14 79 15 80 16 81 17 82 18 83 19 84 23 85
REMARK SMILES IDX 20 86 22 87 21 89 24 90 25 91 26 92 31 93 27 94 30 95 32 96
REMARK SMILES IDX 28 97 29 98
REMARK H PARENT 89 26 57 37 23 88
REMARK Flexibility Score: inf
ROOT
ATOM      1  C   UNL     1       8.310  -2.759   3.814  1.00  0.00     0.188 C 
ENDROOT
BRANCH   1   2
ATOM      2  C   UNL     1       7.843  -2.677   2.365  1.00  0.00     0.188 C 
BRANCH   2   3
ATOM      3  O   UNL     1       7.870  -1.310   1.930  1.00  0.00    -0.376 OA
BRANCH   3   4
ATOM      4  C   UNL     1       6.980  -1.011   0.857  1.00  0.00     0.202 C 
BRANCH   4   5
ATOM      5  C   UNL     1       7.538  -1.346  -0.528  1.00  0.00     0.261 C 
BRANCH   5   6
ATOM      6  O   UNL     1       8.494  -2.415  -0.511  1.00  0.00    -0.460 OA
BRANCH   6   7
ATOM      7  C   UNL     1       9.834  -2.358  -0.305  1.00  0.00     0.338 C 
ATOM      8  O   UNL     1      10.458  -3.420  -0.330  1.00  0.00    -0.246 OA
BRANCH   7   9
ATOM      9  C   UNL     1      10.615  -1.102  -0.060  1.00  0.00     0.060 A 
ATOM     10  C   UNL     1      10.114   0.076   0.490  1.00  0.00     0.016 A 
ATOM     11  C   UNL     1      11.995  -1.149  -0.338  1.00  0.00     0.016 A 
ATOM     12  C   UNL     1      10.940   1.167   0.742  1.00  0.00     0.010 A 
ATOM     13  C   UNL     1      12.838  -0.066  -0.050  1.00  0.00     0.010 A 
ATOM     14  C   UNL     1      12.306   1.098   0.506  1.00  0.00    -0.014 A 
BRANCH  14  15
ATOM     15  C   UNL     1      13.093   2.329   0.709  1.00  0.00     0.031 A 
ATOM     16  C   UNL     1      13.388   3.169  -0.493  1.00  0.00     0.074 A 
ATOM     17  C   UNL     1      13.410   2.754   1.947  1.00  0.00     0.049 A 
ATOM     18  N   UNL     1      14.115   4.245  -0.591  1.00  0.00    -0.248 NA
ATOM     19  C   UNL     1      12.758   2.745  -1.757  1.00  0.00     0.031 C 
ATOM     20  C   UNL     1      13.034   2.086   3.195  1.00  0.00     0.029 A 
ATOM     21  N   UNL     1      14.111   3.859   2.361  1.00  0.00    -0.354 N 
ATOM     22  C   UNL     1      14.100   4.580  -1.937  1.00  0.00     0.074 A 
ATOM     23  C   UNL     1      13.244   3.632  -2.611  1.00  0.00     0.031 C 
ATOM     24  C   UNL     1      13.515   2.792   4.233  1.00  0.00     0.029 A 
ATOM     25  C   UNL     1      14.293   3.918   3.725  1.00  0.00     0.049 A 
ATOM     26  H   UNL     1      14.450   4.545   1.742  1.00  0.00     0.167 HD
ATOM     27  C   UNL     1      14.774   5.574  -2.553  1.00  0.00     0.034 A 
ATOM     28  C   UNL     1      15.051   4.756   4.461  1.00  0.00     0.034 A 
ATOM     29  C   UNL     1      15.606   6.514  -1.859  1.00  0.00     0.049 A 
ATOM     30  C   UNL     1      15.838   5.822   3.735  1.00  0.00     0.074 A 
ATOM     31  C   UNL     1      16.370   7.537  -2.386  1.00  0.00     0.029 A 
ATOM     32  N   UNL     1      15.792   6.533  -0.485  1.00  0.00    -0.354 N 
ATOM     33  N   UNL     1      15.828   6.133   2.460  1.00  0.00    -0.248 NA
ATOM     34  C   UNL     1      16.744   6.649   4.545  1.00  0.00     0.031 C 
ATOM     35  C   UNL     1      17.052   8.150  -1.331  1.00  0.00     0.029 A 
ATOM     36  C   UNL     1      16.675   7.538  -0.144  1.00  0.00     0.049 A 
ATOM     37  H   UNL     1      15.358   5.921   0.153  1.00  0.00     0.167 HD
ATOM     38  C   UNL     1      16.711   7.197   2.318  1.00  0.00     0.074 A 
ATOM     39  C   UNL     1      17.206   7.505   3.644  1.00  0.00     0.031 C 
ATOM     40  C   UNL     1      17.105   7.846   1.195  1.00  0.00     0.034 A 
BRANCH  27  41
ATOM     41  C   UNL     1      14.706   5.630  -4.051  1.00  0.00     0.023 A 
ATOM     42  C   UNL     1      13.554   6.109  -4.703  1.00  0.00     0.012 A 
ATOM     43  C   UNL     1      15.817   5.216  -4.810  1.00  0.00     0.148 A 
ATOM     44  C   UNL     1      13.504   6.154  -6.097  1.00  0.00     0.002 A 
ATOM     45  C   UNL     1      15.777   5.308  -6.193  1.00  0.00     0.091 A 
ATOM     46  F   UNL     1      16.887   4.733  -4.162  1.00  0.00    -0.205 F 
ATOM     47  C   UNL     1      14.617   5.765  -6.840  1.00  0.00     0.022 A 
BRANCH  45  48
ATOM     48  S   UNL     1      17.182   4.894  -7.231  1.00  0.00     0.127 S 
ATOM     49  O   UNL     1      16.652   3.779  -8.015  1.00  0.00    -0.237 OA
ATOM     50  O   UNL     1      17.375   6.133  -7.983  1.00  0.00    -0.237 OA
ATOM     51  O   UNL     1      18.269   4.549  -6.325  1.00  0.00    -0.744 OA
ENDBRANCH  45  48
ENDBRANCH  27  41
BRANCH  28  52
ATOM     52  C   UNL     1      15.170   4.600   5.944  1.00  0.00     0.023 A 
ATOM     53  C   UNL     1      14.778   5.650   6.798  1.00  0.00     0.012 A 
ATOM     54  C   UNL     1      15.721   3.434   6.515  1.00  0.00     0.148 A 
ATOM     55  C   UNL     1      14.976   5.562   8.179  1.00  0.00     0.002 A 
ATOM     56  C   UNL     1      15.853   3.325   7.895  1.00  0.00     0.091 A 
ATOM     57  F   UNL     1      16.129   2.454   5.696  1.00  0.00    -0.205 F 
ATOM     58  C   UNL     1      15.504   4.397   8.729  1.00  0.00     0.022 A 
BRANCH  56  59
ATOM     59  S   UNL     1      16.402   1.811   8.689  1.00  0.00     0.127 S 
ATOM     60  O   UNL     1      17.764   2.150   9.079  1.00  0.00    -0.237 OA
ATOM     61  O   UNL     1      15.454   1.681   9.794  1.00  0.00    -0.237 OA
ATOM     62  O   UNL     1      16.271   0.770   7.668  1.00  0.00    -0.744 OA
ENDBRANCH  56  59
ENDBRANCH  28  52
BRANCH  40  63
ATOM     63  C   UNL     1      18.094   8.970   1.351  1.00  0.00     0.023 A 
ATOM     64  C   UNL     1      19.439   8.684   1.655  1.00  0.00     0.012 A 
ATOM     65  C   UNL     1      17.705  10.300   1.098  1.00  0.00     0.148 A 
ATOM     66  C   UNL     1      20.377   9.711   1.736  1.00  0.00     0.002 A 
ATOM     67  C   UNL     1      18.656  11.310   1.125  1.00  0.00     0.091 A 
ATOM     68  F   UNL     1      16.415  10.548   0.824  1.00  0.00    -0.205 F 
ATOM     69  C   UNL     1      19.989  11.020   1.457  1.00  0.00     0.022 A 
BRANCH  67  70
ATOM     70  S   UNL     1      18.271  13.004   0.671  1.00  0.00     0.127 S 
ATOM     71  O   UNL     1      18.369  13.686   1.960  1.00  0.00    -0.237 OA
ATOM     72  O   UNL     1      19.344  13.323  -0.271  1.00  0.00    -0.237 OA
ATOM     73  O   UNL     1      16.939  12.972   0.083  1.00  0.00    -0.744 OA
ENDBRANCH  67  70
ENDBRANCH  40  63
ENDBRANCH  14  15
ENDBRANCH   7   9
ENDBRANCH   6   7
ENDBRANCH   5   6
ENDBRANCH   4   5
ENDBRANCH   3   4
ENDBRANCH   2   3
ENDBRANCH   1   2
BRANCH   1  74
ATOM     74  O   UNL     1       7.259  -2.388   4.704  1.00  0.00    -0.377 OA
BRANCH  74  75
ATOM     75  C   UNL     1       6.973  -0.997   4.669  1.00  0.00     0.188 C 
BRANCH  75  76
ATOM     76  C   UNL     1       8.044  -0.086   5.304  1.00  0.00     0.188 C 
BRANCH  76  77
ATOM     77  O   UNL     1       9.074  -0.837   5.905  1.00  0.00    -0.376 OA
BRANCH  77  78
ATOM     78  C   UNL     1       9.030  -0.868   7.314  1.00  0.00     0.202 C 
BRANCH  78  79
ATOM     79  C   UNL     1       7.708  -1.333   7.966  1.00  0.00     0.261 C 
BRANCH  79  80
ATOM     80  O   UNL     1       6.466  -0.870   7.359  1.00  0.00    -0.459 OA
BRANCH  80  81
ATOM     81  C   UNL     1       5.976   0.368   7.657  1.00  0.00     0.364 C 
ATOM     82  O   UNL     1       6.394   1.033   8.596  1.00  0.00    -0.245 OA
BRANCH  81  83
ATOM     83  C   UNL     1       4.835   0.826   6.637  1.00  0.00     0.295 C 
ATOM     84  C   UNL     1       3.572   1.061   7.490  1.00  0.00     0.078 C 
ATOM     85  N   UNL     1       5.294   1.985   5.792  1.00  0.00    -0.319 N 
ATOM     86  C   UNL     1       3.635   2.376   8.246  1.00  0.00     0.013 C 
ATOM     87  C   UNL     1       5.094   3.294   6.417  1.00  0.00     0.263 C 
ATOM     88  H   UNL     1       6.282   1.730   5.802  1.00  0.00     0.349 HD
ATOM     89  C   UNL     1       3.820   3.485   7.236  1.00  0.00     0.062 C 
BRANCH  85  90
ATOM     90  C   UNL     1       5.130   2.012   4.304  1.00  0.00     0.301 C 
BRANCH  90  91
ATOM     91  C   UNL     1       6.278   2.768   3.572  1.00  0.00     0.025 A 
ATOM     92  C   UNL     1       7.415   2.064   3.170  1.00  0.00     0.014 A 
ATOM     93  C   UNL     1       6.362   4.158   3.396  1.00  0.00     0.052 A 
ATOM     94  C   UNL     1       8.667   2.674   3.063  1.00  0.00     0.040 A 
ATOM     95  C   UNL     1       7.600   4.796   3.188  1.00  0.00     0.060 A 
ATOM     96  Cl  UNL     1       4.945   5.141   3.298  1.00  0.00    -0.084 Cl
ATOM     97  C   UNL     1       8.758   4.044   3.118  1.00  0.00     0.124 A 
ATOM     98  F   UNL     1       9.956   4.634   3.045  1.00  0.00    -0.207 F 
ENDBRANCH  90  91
ENDBRANCH  85  90
ENDBRANCH  81  83
ENDBRANCH  80  81
ENDBRANCH  79  80
ENDBRANCH  78  79
ENDBRANCH  77  78
ENDBRANCH  76  77
ENDBRANCH  75  76
ENDBRANCH  74  75
ENDBRANCH   1  74
TORSDOF 25
