REMARK SMILES Cc1cccc(CC(=O)N2CCC3(CCC(=O)N([C@H](C)C(=O)OCCOCCOCCOCCOC(=O)c4ccc(-c5c6nc(c(-c7cccc(S(=O)(=O)[O-])c7F)c7ccc([nH]7)c(-c7cccc(S(=O)(=O)[O-])c7F)c7nc(c(-c8cccc(S(=O)(=O)[O-])c8F)c8ccc5[nH]8)C=C7)C=C6)cc4)C3)CC2)c1
REMARK SMILES IDX 29 1 28 2 27 3 26 4 25 5 24 6 23 7 21 8 22 9 19 10 20 11
REMARK SMILES IDX 18 12 8 13 9 14 10 15 11 16 103 17 12 18 102 19 13 20 14 21
REMARK SMILES IDX 101 22 15 23 16 24 17 25 7 26 6 27 1 28 2 29 3 30 104 31
REMARK SMILES IDX 4 32 5 33 30 34 31 35 32 36 33 37 34 38 35 39 36 40 37 41
REMARK SMILES IDX 38 42 39 43 100 44 40 45 99 46 41 47 42 48 43 49 93 50 44 51
REMARK SMILES IDX 98 52 92 53 94 54 45 55 97 56 91 57 90 58 46 60 78 61 58 62
REMARK SMILES IDX 77 63 59 64 62 65 76 66 95 67 60 68 61 69 75 71 96 72 63 73
REMARK SMILES IDX 47 74 48 75 56 76 49 77 51 78 57 79 50 80 52 81 53 82 54 83
REMARK SMILES IDX 55 84 79 85 80 86 88 87 81 88 83 89 89 90 82 91 84 92 85 93
REMARK SMILES IDX 86 94 87 95 64 96 65 97 73 98 66 99 68 100 74 101 67 102
REMARK SMILES IDX 69 103 70 104 71 105 72 106
REMARK H PARENT 94 59 62 70
REMARK Flexibility Score: inf
ROOT
ATOM      1  O   UNL     1      -1.014   4.154  -5.797  1.00  0.00    -0.377 OA
ENDROOT
BRANCH   1   2
ATOM      2  C   UNL     1      -0.695   4.226  -4.413  1.00  0.00     0.188 C 
BRANCH   2   3
ATOM      3  C   UNL     1      -0.441   5.581  -3.719  1.00  0.00     0.188 C 
BRANCH   3   4
ATOM      4  O   UNL     1      -1.486   6.505  -3.490  1.00  0.00    -0.376 OA
BRANCH   4   5
ATOM      5  C   UNL     1      -1.706   7.491  -4.495  1.00  0.00     0.202 C 
BRANCH   5   6
ATOM      6  C   UNL     1      -0.622   8.529  -4.768  1.00  0.00     0.261 C 
BRANCH   6   7
ATOM      7  O   UNL     1       0.308   8.009  -5.714  1.00  0.00    -0.462 OA
BRANCH   7   8
ATOM      8  C   UNL     1       1.548   7.736  -5.269  1.00  0.00     0.328 C 
ATOM      9  O   UNL     1       2.020   8.043  -4.189  1.00  0.00    -0.250 OA
BRANCH   8  10
ATOM     10  C   UNL     1       2.244   6.816  -6.260  1.00  0.00     0.192 C 
ATOM     11  C   UNL     1       1.449   5.559  -6.561  1.00  0.00     0.044 C 
BRANCH  10  12
ATOM     12  N   UNL     1       2.688   7.577  -7.420  1.00  0.00    -0.329 N 
ATOM     13  C   UNL     1       8.332   5.152  -6.998  1.00  0.00     0.226 C 
ATOM     14  O   UNL     1       8.499   3.978  -6.641  1.00  0.00    -0.275 OA
ATOM     15  N   UNL     1       7.342   5.468  -7.913  1.00  0.00    -0.342 N 
ATOM     16  C   UNL     1       6.094   4.728  -7.841  1.00  0.00     0.120 C 
ATOM     17  C   UNL     1       7.279   6.634  -8.787  1.00  0.00     0.120 C 
ATOM     18  C   UNL     1       5.021   5.675  -7.305  1.00  0.00     0.030 C 
ATOM     19  C   UNL     1       6.303   7.642  -8.226  1.00  0.00     0.030 C 
ATOM     20  C   UNL     1       4.915   7.009  -8.116  1.00  0.00    -0.008 C 
ATOM     21  C   UNL     1       4.325   6.743  -9.541  1.00  0.00     0.019 C 
ATOM     22  C   UNL     1       4.035   8.050  -7.392  1.00  0.00     0.127 C 
ATOM     23  C   UNL     1       2.843   6.388  -9.500  1.00  0.00     0.101 C 
ATOM     24  C   UNL     1       2.185   7.485  -8.707  1.00  0.00     0.223 C 
ATOM     25  O   UNL     1       1.655   8.414  -9.301  1.00  0.00    -0.275 OA
BRANCH  13  26
ATOM     26  C   UNL     1       9.041   6.256  -6.214  1.00  0.00     0.135 C 
BRANCH  26  27
ATOM     27  C   UNL     1       9.576   7.443  -6.968  1.00  0.00    -0.038 A 
ATOM     28  C   UNL     1       8.759  11.157  -7.256  1.00  0.00     0.044 C 
ATOM     29  C   UNL     1       9.375   9.812  -7.509  1.00  0.00    -0.051 A 
ATOM     30  C   UNL     1      10.192   9.607  -8.625  1.00  0.00     0.003 A 
ATOM     31  C   UNL     1       9.097   8.730  -6.667  1.00  0.00     0.007 A 
ATOM     32  C   UNL     1      10.746   8.350  -8.880  1.00  0.00     0.001 A 
ATOM     33  C   UNL     1      10.459   7.273  -8.041  1.00  0.00     0.004 A 
ENDBRANCH  26  27
ENDBRANCH  13  26
ENDBRANCH  10  12
ENDBRANCH   8  10
ENDBRANCH   7   8
ENDBRANCH   6   7
ENDBRANCH   5   6
ENDBRANCH   4   5
ENDBRANCH   3   4
ENDBRANCH   2   3
ENDBRANCH   1   2
BRANCH   1  34
ATOM     34  C   UNL     1      -2.387   4.245  -6.187  1.00  0.00     0.188 C 
BRANCH  34  35
ATOM     35  C   UNL     1      -3.382   3.576  -5.247  1.00  0.00     0.188 C 
BRANCH  35  36
ATOM     36  O   UNL     1      -3.512   4.406  -4.096  1.00  0.00    -0.376 OA
BRANCH  36  37
ATOM     37  C   UNL     1      -3.714   3.783  -2.836  1.00  0.00     0.202 C 
BRANCH  37  38
ATOM     38  C   UNL     1      -4.922   2.851  -2.785  1.00  0.00     0.261 C 
BRANCH  38  39
ATOM     39  O   UNL     1      -6.129   3.628  -2.891  1.00  0.00    -0.460 OA
BRANCH  39  40
ATOM     40  C   UNL     1      -6.688   3.630  -4.131  1.00  0.00     0.338 C 
ATOM     41  O   UNL     1      -7.035   2.612  -4.722  1.00  0.00    -0.246 OA
BRANCH  40  42
ATOM     42  C   UNL     1      -6.584   4.984  -4.753  1.00  0.00     0.060 A 
ATOM     43  C   UNL     1      -6.887   5.164  -6.108  1.00  0.00     0.016 A 
ATOM     44  C   UNL     1      -5.863   5.969  -4.093  1.00  0.00     0.016 A 
ATOM     45  C   UNL     1      -6.282   6.203  -6.840  1.00  0.00     0.010 A 
ATOM     46  C   UNL     1      -5.182   6.906  -4.850  1.00  0.00     0.010 A 
ATOM     47  C   UNL     1      -5.326   7.010  -6.245  1.00  0.00    -0.014 A 
BRANCH  47  48
ATOM     48  C   UNL     1      -4.370   7.914  -6.939  1.00  0.00     0.031 A 
ATOM     49  C   UNL     1      -4.161   9.295  -6.345  1.00  0.00     0.074 A 
ATOM     50  C   UNL     1      -3.412   7.382  -7.750  1.00  0.00     0.049 A 
ATOM     51  N   UNL     1      -3.173  10.095  -6.574  1.00  0.00    -0.248 NA
ATOM     52  C   UNL     1      -5.091   9.870  -5.372  1.00  0.00     0.031 C 
ATOM     53  C   UNL     1      -2.027   7.857  -7.764  1.00  0.00     0.029 A 
ATOM     54  N   UNL     1      -3.340   6.274  -8.611  1.00  0.00    -0.354 N 
ATOM     55  C   UNL     1      -3.173  11.109  -5.626  1.00  0.00     0.074 A 
ATOM     56  C   UNL     1      -4.428  10.950  -4.942  1.00  0.00     0.031 C 
ATOM     57  C   UNL     1      -1.284   7.097  -8.566  1.00  0.00     0.029 A 
ATOM     58  C   UNL     1      -2.198   6.416  -9.420  1.00  0.00     0.049 A 
ATOM     59  H   UNL     1      -3.979   5.526  -8.643  1.00  0.00     0.167 HD
ATOM     60  C   UNL     1      -2.060  11.892  -5.468  1.00  0.00     0.034 A 
ATOM     61  C   UNL     1      -2.120   6.622 -10.772  1.00  0.00     0.034 A 
ATOM     62  C   UNL     1      -1.067  11.630  -6.537  1.00  0.00     0.049 A 
ATOM     63  C   UNL     1      -1.543   8.006 -11.139  1.00  0.00     0.074 A 
ATOM     64  C   UNL     1       0.269  11.263  -6.555  1.00  0.00     0.029 A 
ATOM     65  N   UNL     1      -1.481  11.620  -7.871  1.00  0.00    -0.354 N 
ATOM     66  N   UNL     1      -1.454   8.996 -10.279  1.00  0.00    -0.248 NA
ATOM     67  C   UNL     1      -0.974   8.389 -12.433  1.00  0.00     0.031 C 
ATOM     68  C   UNL     1       0.621  10.947  -7.894  1.00  0.00     0.029 A 
ATOM     69  C   UNL     1      -0.479  11.174  -8.705  1.00  0.00     0.049 A 
ATOM     70  H   UNL     1      -2.375  11.897  -8.177  1.00  0.00     0.167 HD
ATOM     71  C   UNL     1      -0.840  10.085 -10.835  1.00  0.00     0.074 A 
ATOM     72  C   UNL     1      -0.569   9.655 -12.197  1.00  0.00     0.031 C 
ATOM     73  C   UNL     1      -0.617  11.256 -10.153  1.00  0.00     0.034 A 
BRANCH  60  74
ATOM     74  C   UNL     1      -1.712  12.819  -4.277  1.00  0.00     0.023 A 
ATOM     75  C   UNL     1      -0.475  13.512  -4.346  1.00  0.00     0.012 A 
ATOM     76  C   UNL     1      -2.434  13.021  -3.071  1.00  0.00     0.148 A 
ATOM     77  C   UNL     1       0.048  14.281  -3.296  1.00  0.00     0.002 A 
ATOM     78  C   UNL     1      -1.944  13.850  -2.042  1.00  0.00     0.091 A 
ATOM     79  F   UNL     1      -3.590  12.388  -2.868  1.00  0.00    -0.205 F 
ATOM     80  C   UNL     1      -0.690  14.455  -2.141  1.00  0.00     0.022 A 
BRANCH  78  81
ATOM     81  S   UNL     1      -2.867  14.220  -0.532  1.00  0.00     0.127 S 
ATOM     82  O   UNL     1      -1.959  13.746   0.514  1.00  0.00    -0.237 OA
ATOM     83  O   UNL     1      -3.004  15.675  -0.598  1.00  0.00    -0.237 OA
ATOM     84  O   UNL     1      -4.122  13.485  -0.625  1.00  0.00    -0.744 OA
ENDBRANCH  78  81
ENDBRANCH  60  74
BRANCH  61  85
ATOM     85  C   UNL     1      -2.924   5.645 -11.562  1.00  0.00     0.023 A 
ATOM     86  C   UNL     1      -2.450   4.315 -11.413  1.00  0.00     0.012 A 
ATOM     87  C   UNL     1      -4.307   5.863 -11.591  1.00  0.00     0.148 A 
ATOM     88  C   UNL     1      -3.297   3.327 -10.906  1.00  0.00     0.002 A 
ATOM     89  C   UNL     1      -5.147   4.879 -11.073  1.00  0.00     0.091 A 
ATOM     90  F   UNL     1      -4.756   7.077 -11.937  1.00  0.00    -0.205 F 
ATOM     91  C   UNL     1      -4.632   3.635 -10.665  1.00  0.00     0.022 A 
BRANCH  89  92
ATOM     92  S   UNL     1      -6.824   5.310 -10.591  1.00  0.00     0.127 S 
ATOM     93  O   UNL     1      -7.580   5.019 -11.802  1.00  0.00    -0.237 OA
ATOM     94  O   UNL     1      -7.072   4.403  -9.471  1.00  0.00    -0.237 OA
ATOM     95  O   UNL     1      -6.728   6.710 -10.202  1.00  0.00    -0.744 OA
ENDBRANCH  89  92
ENDBRANCH  61  85
BRANCH  73  96
ATOM     96  C   UNL     1      -0.495  12.643 -10.781  1.00  0.00     0.023 A 
ATOM     97  C   UNL     1      -0.852  12.874 -12.121  1.00  0.00     0.012 A 
ATOM     98  C   UNL     1      -0.248  13.802  -9.983  1.00  0.00     0.148 A 
ATOM     99  C   UNL     1      -0.935  14.165 -12.653  1.00  0.00     0.002 A 
ATOM    100  C   UNL     1      -0.437  15.084 -10.489  1.00  0.00     0.091 A 
ATOM    101  F   UNL     1       0.181  13.678  -8.720  1.00  0.00    -0.205 F 
ATOM    102  C   UNL     1      -0.756  15.270 -11.833  1.00  0.00     0.022 A 
BRANCH 100 103
ATOM    103  S   UNL     1      -0.435  16.546  -9.433  1.00  0.00     0.127 S 
ATOM    104  O   UNL     1       0.830  17.178  -9.803  1.00  0.00    -0.237 OA
ATOM    105  O   UNL     1      -1.628  17.256  -9.898  1.00  0.00    -0.237 OA
ATOM    106  O   UNL     1      -0.520  16.058  -8.064  1.00  0.00    -0.744 OA
ENDBRANCH 100 103
ENDBRANCH  73  96
ENDBRANCH  47  48
ENDBRANCH  40  42
ENDBRANCH  39  40
ENDBRANCH  38  39
ENDBRANCH  37  38
ENDBRANCH  36  37
ENDBRANCH  35  36
ENDBRANCH  34  35
ENDBRANCH   1  34
TORSDOF 26
