REMARK SMILES CC(C)[C@@H](CNC(=O)[C@@H]1CC[C@@H]2CCCC[C@@H]2[NH2+]1)C(=O)OCCOCCOCCOCCOC(=O)c1ccc(-c2c3nc(c(-c4cccc(S(=O)(=O)[O-])c4F)c4ccc([nH]4)c(-c4cccc(S(=O)(=O)[O-])c4F)c4nc(c(-c5cccc(S(=O)(=O)[O-])c5F)c5ccc2[nH]5)C=C4)C=C3)cc1
REMARK SMILES IDX 27 1 26 2 25 3 24 4 23 5 22 6 21 7 19 8 20 9 4 10 2 11 1 12
REMARK SMILES IDX 3 13 5 14 6 15 7 16 8 18 9 19 10 20 18 21 11 22 17 23 12 26
REMARK SMILES IDX 16 27 13 28 15 29 14 30 28 31 29 32 30 33 31 34 32 35 33 36
REMARK SMILES IDX 34 37 35 38 36 39 37 40 98 41 38 42 97 43 39 44 40 45 41 46
REMARK SMILES IDX 91 47 42 48 96 49 90 50 92 51 43 52 95 53 89 54 88 55 44 57
REMARK SMILES IDX 76 58 56 59 75 60 57 61 60 62 74 63 93 64 58 65 59 66 73 68
REMARK SMILES IDX 94 69 61 70 45 71 46 72 54 73 47 74 49 75 55 76 48 77 50 78
REMARK SMILES IDX 51 79 52 80 53 81 77 82 78 83 86 84 79 85 81 86 87 87 80 88
REMARK SMILES IDX 82 89 83 90 84 91 85 92 62 93 63 94 71 95 64 96 66 97 72 98
REMARK SMILES IDX 65 99 67 100 68 101 69 102 70 103
REMARK H PARENT 6 17 18 24 18 25 92 56 60 67
REMARK Flexibility Score: inf
ROOT
ATOM      1  O   UNL     1       0.742   0.026   5.152  1.00  0.00    -0.377 OA
ENDROOT
BRANCH   1   2
ATOM      2  C   UNL     1      -0.316   0.978   5.222  1.00  0.00     0.188 C 
BRANCH   2   3
ATOM      3  C   UNL     1      -1.762   0.629   5.747  1.00  0.00     0.188 C 
BRANCH   3   4
ATOM      4  O   UNL     1      -2.281  -0.624   6.230  1.00  0.00    -0.376 OA
BRANCH   4   5
ATOM      5  C   UNL     1      -2.352  -1.963   5.684  1.00  0.00     0.202 C 
BRANCH   5   6
ATOM      6  C   UNL     1      -2.765  -2.623   4.128  1.00  0.00     0.261 C 
BRANCH   6   7
ATOM      7  O   UNL     1      -2.228  -2.155   2.301  1.00  0.00    -0.463 OA
BRANCH   7   8
ATOM      8  C   UNL     1      -1.844  -1.088   1.319  1.00  0.00     0.311 C 
ATOM      9  O   UNL     1      -2.136   0.118   1.422  1.00  0.00    -0.252 OA
BRANCH   8  10
ATOM     10  C   UNL     1      -0.904  -1.308   0.147  1.00  0.00     0.121 C 
BRANCH  10  11
ATOM     11  C   UNL     1       0.654  -1.254   0.319  1.00  0.00    -0.001 C 
ATOM     12  C   UNL     1       1.327  -0.763  -0.984  1.00  0.00     0.008 C 
ATOM     13  C   UNL     1       1.160  -0.277   1.406  1.00  0.00     0.008 C 
ENDBRANCH  10  11
BRANCH  10  14
ATOM     14  C   UNL     1      -1.533  -2.092  -0.981  1.00  0.00     0.131 C 
BRANCH  14  15
ATOM     15  N   UNL     1      -1.586  -3.497  -0.789  1.00  0.00    -0.350 N 
ATOM     16  C   UNL     1      -2.657  -4.306  -0.657  1.00  0.00     0.278 C 
ATOM     17  H   UNL     1      -0.712  -3.947  -0.745  1.00  0.00     0.163 HD
ATOM     18  O   UNL     1      -2.424  -5.513  -0.815  1.00  0.00    -0.268 OA
BRANCH  16  19
ATOM     19  C   UNL     1      -4.072  -3.886  -0.162  1.00  0.00     0.272 C 
ATOM     20  C   UNL     1      -4.764  -2.520  -0.230  1.00  0.00     0.076 C 
ATOM     21  N   UNL     1      -4.277  -4.496   1.153  1.00  0.00    -0.333 N 
ATOM     22  C   UNL     1      -4.666  -1.490   0.916  1.00  0.00     0.016 C 
ATOM     23  C   UNL     1      -3.603  -3.740   2.195  1.00  0.00     0.186 C 
ATOM     24  H   UNL     1      -3.907  -5.447   1.139  1.00  0.00     0.347 HD
ATOM     25  H   UNL     1      -5.277  -4.501   1.353  1.00  0.00     0.347 HD
ATOM     26  C   UNL     1      -4.253  -1.987   2.321  1.00  0.00     0.048 C 
ATOM     27  C   UNL     1      -1.801  -4.150   2.436  1.00  0.00     0.065 C 
ATOM     28  C   UNL     1      -3.211  -0.708   3.338  1.00  0.00     0.010 C 
ATOM     29  C   UNL     1      -0.638  -2.909   3.227  1.00  0.00     0.006 C 
ATOM     30  C   UNL     1      -1.282  -1.132   3.600  1.00  0.00     0.001 C 
ENDBRANCH  16  19
ENDBRANCH  14  15
ENDBRANCH  10  14
ENDBRANCH   8  10
ENDBRANCH   7   8
ENDBRANCH   6   7
ENDBRANCH   5   6
ENDBRANCH   4   5
ENDBRANCH   3   4
ENDBRANCH   2   3
ENDBRANCH   1   2
BRANCH   1  31
ATOM     31  C   UNL     1       0.956  -0.832   6.260  1.00  0.00     0.188 C 
BRANCH  31  32
ATOM     32  C   UNL     1       0.998  -0.123   7.604  1.00  0.00     0.188 C 
BRANCH  32  33
ATOM     33  O   UNL     1       1.295   1.259   7.490  1.00  0.00    -0.376 OA
BRANCH  33  34
ATOM     34  C   UNL     1       2.654   1.653   7.353  1.00  0.00     0.202 C 
BRANCH  34  35
ATOM     35  C   UNL     1       3.532   1.051   6.238  1.00  0.00     0.261 C 
BRANCH  35  36
ATOM     36  O   UNL     1       3.866  -0.350   6.306  1.00  0.00    -0.460 OA
BRANCH  36  37
ATOM     37  C   UNL     1       4.209  -0.903   7.487  1.00  0.00     0.338 C 
ATOM     38  O   UNL     1       4.356  -0.346   8.555  1.00  0.00    -0.246 OA
BRANCH  37  39
ATOM     39  C   UNL     1       4.208  -2.371   7.320  1.00  0.00     0.060 A 
ATOM     40  C   UNL     1       3.308  -3.136   8.075  1.00  0.00     0.016 A 
ATOM     41  C   UNL     1       5.127  -2.988   6.471  1.00  0.00     0.016 A 
ATOM     42  C   UNL     1       3.367  -4.528   8.029  1.00  0.00     0.010 A 
ATOM     43  C   UNL     1       5.198  -4.383   6.440  1.00  0.00     0.010 A 
ATOM     44  C   UNL     1       4.352  -5.156   7.257  1.00  0.00    -0.014 A 
BRANCH  44  45
ATOM     45  C   UNL     1       4.652  -6.590   7.481  1.00  0.00     0.031 A 
ATOM     46  C   UNL     1       5.793  -6.941   8.398  1.00  0.00     0.074 A 
ATOM     47  C   UNL     1       3.935  -7.561   6.890  1.00  0.00     0.049 A 
ATOM     48  N   UNL     1       6.271  -8.115   8.718  1.00  0.00    -0.248 NA
ATOM     49  C   UNL     1       6.492  -5.813   9.037  1.00  0.00     0.031 C 
ATOM     50  C   UNL     1       2.803  -7.349   5.990  1.00  0.00     0.029 A 
ATOM     51  N   UNL     1       4.080  -8.925   6.940  1.00  0.00    -0.354 N 
ATOM     52  C   UNL     1       7.345  -7.867   9.564  1.00  0.00     0.074 A 
ATOM     53  C   UNL     1       7.456  -6.432   9.702  1.00  0.00     0.031 C 
ATOM     54  C   UNL     1       2.377  -8.544   5.543  1.00  0.00     0.029 A 
ATOM     55  C   UNL     1       3.221  -9.598   6.105  1.00  0.00     0.049 A 
ATOM     56  H   UNL     1       4.736  -9.377   7.518  1.00  0.00     0.167 HD
ATOM     57  C   UNL     1       8.162  -8.752  10.181  1.00  0.00     0.034 A 
ATOM     58  C   UNL     1       3.145 -10.911   5.809  1.00  0.00     0.034 A 
ATOM     59  C   UNL     1       8.044 -10.179  10.054  1.00  0.00     0.049 A 
ATOM     60  C   UNL     1       4.082 -11.878   6.487  1.00  0.00     0.074 A 
ATOM     61  C   UNL     1       8.788 -11.162  10.679  1.00  0.00     0.029 A 
ATOM     62  N   UNL     1       7.136 -10.826   9.231  1.00  0.00    -0.354 N 
ATOM     63  N   UNL     1       5.015 -11.639   7.378  1.00  0.00    -0.248 NA
ATOM     64  C   UNL     1       3.935 -13.300   6.142  1.00  0.00     0.031 C 
ATOM     65  C   UNL     1       8.354 -12.405  10.206  1.00  0.00     0.029 A 
ATOM     66  C   UNL     1       7.312 -12.196   9.317  1.00  0.00     0.049 A 
ATOM     67  H   UNL     1       6.464 -10.378   8.668  1.00  0.00     0.167 HD
ATOM     68  C   UNL     1       5.540 -12.880   7.725  1.00  0.00     0.074 A 
ATOM     69  C   UNL     1       4.807 -13.870   6.963  1.00  0.00     0.031 C 
ATOM     70  C   UNL     1       6.545 -13.174   8.588  1.00  0.00     0.034 A 
BRANCH  57  71
ATOM     71  C   UNL     1       9.254  -8.198  11.057  1.00  0.00     0.023 A 
ATOM     72  C   UNL     1       8.929  -7.604  12.294  1.00  0.00     0.012 A 
ATOM     73  C   UNL     1      10.605  -8.300  10.673  1.00  0.00     0.148 A 
ATOM     74  C   UNL     1       9.928  -7.086  13.117  1.00  0.00     0.002 A 
ATOM     75  C   UNL     1      11.598  -7.824  11.520  1.00  0.00     0.091 A 
ATOM     76  F   UNL     1      10.892  -8.844   9.482  1.00  0.00    -0.205 F 
ATOM     77  C   UNL     1      11.262  -7.206  12.735  1.00  0.00     0.022 A 
BRANCH  75  78
ATOM     78  S   UNL     1      13.347  -8.003  11.154  1.00  0.00     0.127 S 
ATOM     79  O   UNL     1      13.729  -6.623  10.857  1.00  0.00    -0.237 OA
ATOM     80  O   UNL     1      13.874  -8.523  12.416  1.00  0.00    -0.237 OA
ATOM     81  O   UNL     1      13.431  -8.930  10.034  1.00  0.00    -0.744 OA
ENDBRANCH  75  78
ENDBRANCH  57  71
BRANCH  58  82
ATOM     82  C   UNL     1       2.128 -11.395   4.835  1.00  0.00     0.023 A 
ATOM     83  C   UNL     1       1.046 -12.176   5.284  1.00  0.00     0.012 A 
ATOM     84  C   UNL     1       2.223 -11.072   3.467  1.00  0.00     0.148 A 
ATOM     85  C   UNL     1       0.089 -12.649   4.384  1.00  0.00     0.002 A 
ATOM     86  C   UNL     1       1.238 -11.501   2.585  1.00  0.00     0.091 A 
ATOM     87  F   UNL     1       3.271 -10.344   3.059  1.00  0.00    -0.205 F 
ATOM     88  C   UNL     1       0.179 -12.302   3.038  1.00  0.00     0.022 A 
BRANCH  86  89
ATOM     89  S   UNL     1       1.206 -11.000   0.861  1.00  0.00     0.127 S 
ATOM     90  O   UNL     1       1.498 -12.258   0.179  1.00  0.00    -0.237 OA
ATOM     91  O   UNL     1      -0.169 -10.523   0.717  1.00  0.00    -0.237 OA
ATOM     92  O   UNL     1       2.221  -9.962   0.734  1.00  0.00    -0.744 OA
ENDBRANCH  86  89
ENDBRANCH  58  82
BRANCH  70  93
ATOM     93  C   UNL     1       6.893 -14.627   8.793  1.00  0.00     0.023 A 
ATOM     94  C   UNL     1       7.551 -15.345   7.776  1.00  0.00     0.012 A 
ATOM     95  C   UNL     1       6.635 -15.258  10.027  1.00  0.00     0.148 A 
ATOM     96  C   UNL     1       7.915 -16.678   7.969  1.00  0.00     0.002 A 
ATOM     97  C   UNL     1       7.047 -16.569  10.232  1.00  0.00     0.091 A 
ATOM     98  F   UNL     1       5.994 -14.563  10.979  1.00  0.00    -0.205 F 
ATOM     99  C   UNL     1       7.674 -17.285   9.200  1.00  0.00     0.022 A 
BRANCH  97 100
ATOM    100  S   UNL     1       6.868 -17.399  11.815  1.00  0.00     0.127 S 
ATOM    101  O   UNL     1       5.803 -18.359  11.530  1.00  0.00    -0.237 OA
ATOM    102  O   UNL     1       8.192 -17.994  12.004  1.00  0.00    -0.237 OA
ATOM    103  O   UNL     1       6.531 -16.360  12.778  1.00  0.00    -0.744 OA
ENDBRANCH  97 100
ENDBRANCH  70  93
ENDBRANCH  44  45
ENDBRANCH  37  39
ENDBRANCH  36  37
ENDBRANCH  35  36
ENDBRANCH  34  35
ENDBRANCH  33  34
ENDBRANCH  32  33
ENDBRANCH  31  32
ENDBRANCH   1  31
TORSDOF 27
