REMARK SMILES O=C(OCCOCCOCCOCCOC(=O)c1ccc(-c2c3nc(c(-c4cccc(S(=O)(=O)[O-])c4F)c4ccc([nH]4)c(-c4cccc(S(=O)(=O)[O-])c4F)c4nc(c(-c5cccc(S(=O)(=O)[O-])c5F)c5ccc2[nH]5)C=C4)C=C3)cc1)c1ccc(N[C@H]2OC[C@@H](O)[C@@H](O)[C@H]2O)cc1
REMARK SMILES IDX 9 1 8 2 7 3 6 4 5 5 4 6 3 7 2 8 1 9 81 10 82 11 96 12 83 13
REMARK SMILES IDX 95 14 84 15 85 16 86 18 87 19 93 20 88 21 91 22 89 23 94 24
REMARK SMILES IDX 92 26 90 28 10 30 11 31 12 32 13 33 14 34 15 35 16 36 17 37
REMARK SMILES IDX 18 38 19 39 80 40 20 41 79 42 21 43 22 44 23 45 73 46 24 47
REMARK SMILES IDX 78 48 72 49 74 50 25 51 77 52 71 53 70 54 26 56 58 57 38 58
REMARK SMILES IDX 57 59 39 60 42 61 56 62 75 63 40 64 41 65 55 67 76 68 43 69
REMARK SMILES IDX 27 70 28 71 36 72 29 73 31 74 37 75 30 76 32 77 33 78 34 79
REMARK SMILES IDX 35 80 59 81 60 82 68 83 61 84 63 85 69 86 62 87 64 88 65 89
REMARK SMILES IDX 66 90 67 91 44 92 45 93 53 94 46 95 48 96 54 97 47 98 49 99
REMARK SMILES IDX 50 100 51 101 52 102
REMARK H PARENT 85 17 94 25 92 27 90 29 74 55 42 66
REMARK Flexibility Score: inf
ROOT
ATOM      1  O   UNL     1       1.866   4.918   9.796  1.00  0.00    -0.377 OA
ENDROOT
BRANCH   1   2
ATOM      2  C   UNL     1       2.967   4.236  10.398  1.00  0.00     0.188 C 
BRANCH   2   3
ATOM      3  C   UNL     1       2.765   2.738  10.643  1.00  0.00     0.188 C 
BRANCH   3   4
ATOM      4  O   UNL     1       2.732   2.048   9.397  1.00  0.00    -0.376 OA
BRANCH   4   5
ATOM      5  C   UNL     1       1.934   0.879   9.299  1.00  0.00     0.202 C 
BRANCH   5   6
ATOM      6  C   UNL     1       2.305  -0.277  10.225  1.00  0.00     0.261 C 
BRANCH   6   7
ATOM      7  O   UNL     1       3.358   0.006  11.166  1.00  0.00    -0.460 OA
BRANCH   7   8
ATOM      8  C   UNL     1       4.698  -0.095  11.002  1.00  0.00     0.338 C 
ATOM      9  O   UNL     1       5.451   0.054  11.961  1.00  0.00    -0.246 OA
BRANCH   8  10
ATOM     10  C   UNL     1       5.304  -0.421   9.690  1.00  0.00     0.060 A 
ATOM     11  C   UNL     1       4.983   0.264   8.533  1.00  0.00     0.018 A 
ATOM     12  C   UNL     1       6.377  -1.315   9.637  1.00  0.00     0.018 A 
ATOM     13  C   UNL     1       5.594  -0.030   7.324  1.00  0.00     0.026 A 
ATOM     14  C   UNL     1       7.045  -1.563   8.422  1.00  0.00     0.026 A 
ATOM     15  C   UNL     1       6.639  -0.948   7.233  1.00  0.00     0.036 A 
BRANCH  15  16
ATOM     16  N   UNL     1       7.310  -1.168   6.038  1.00  0.00    -0.358 N 
ATOM     17  H   UNL     1       8.114  -1.736   6.024  1.00  0.00     0.163 HD
BRANCH  16  18
ATOM     18  C   UNL     1       6.827  -0.562   4.807  1.00  0.00     0.244 C 
ATOM     19  O   UNL     1       7.016   0.856   4.910  1.00  0.00    -0.353 OA
ATOM     20  C   UNL     1       7.630  -1.040   3.586  1.00  0.00     0.195 C 
ATOM     21  C   UNL     1       6.363   1.565   3.852  1.00  0.00     0.197 C 
ATOM     22  C   UNL     1       7.063  -0.323   2.345  1.00  0.00     0.178 C 
ATOM     23  C   UNL     1       7.021   1.208   2.521  1.00  0.00     0.171 C 
BRANCH  20  24
ATOM     24  O   UNL     1       9.028  -0.708   3.754  1.00  0.00    -0.386 OA
ATOM     25  H   UNL     1       9.123   0.252   3.856  1.00  0.00     0.211 HD
ENDBRANCH  20  24
BRANCH  22  26
ATOM     26  O   UNL     1       7.834  -0.661   1.191  1.00  0.00    -0.387 OA
ATOM     27  H   UNL     1       8.748  -0.357   1.312  1.00  0.00     0.211 HD
ENDBRANCH  22  26
BRANCH  23  28
ATOM     28  O   UNL     1       8.356   1.739   2.498  1.00  0.00    -0.388 OA
ATOM     29  H   UNL     1       8.869   1.356   3.226  1.00  0.00     0.211 HD
ENDBRANCH  23  28
ENDBRANCH  16  18
ENDBRANCH  15  16
ENDBRANCH   8  10
ENDBRANCH   7   8
ENDBRANCH   6   7
ENDBRANCH   5   6
ENDBRANCH   4   5
ENDBRANCH   3   4
ENDBRANCH   2   3
ENDBRANCH   1   2
BRANCH   1  30
ATOM     30  C   UNL     1       1.210   4.242   8.728  1.00  0.00     0.188 C 
BRANCH  30  31
ATOM     31  C   UNL     1       2.008   4.014   7.423  1.00  0.00     0.188 C 
BRANCH  31  32
ATOM     32  O   UNL     1       3.405   4.195   7.567  1.00  0.00    -0.376 OA
BRANCH  32  33
ATOM     33  C   UNL     1       3.971   5.413   7.103  1.00  0.00     0.202 C 
BRANCH  33  34
ATOM     34  C   UNL     1       3.363   6.792   7.440  1.00  0.00     0.261 C 
BRANCH  34  35
ATOM     35  O   UNL     1       1.945   6.872   7.613  1.00  0.00    -0.460 OA
BRANCH  35  36
ATOM     36  C   UNL     1       1.165   6.999   6.509  1.00  0.00     0.338 C 
ATOM     37  O   UNL     1       1.532   7.070   5.365  1.00  0.00    -0.246 OA
BRANCH  36  38
ATOM     38  C   UNL     1      -0.238   6.757   6.955  1.00  0.00     0.060 A 
ATOM     39  C   UNL     1      -0.968   5.745   6.312  1.00  0.00     0.016 A 
ATOM     40  C   UNL     1      -0.773   7.406   8.073  1.00  0.00     0.016 A 
ATOM     41  C   UNL     1      -2.238   5.391   6.778  1.00  0.00     0.010 A 
ATOM     42  C   UNL     1      -2.055   7.070   8.521  1.00  0.00     0.010 A 
ATOM     43  C   UNL     1      -2.804   6.080   7.859  1.00  0.00    -0.014 A 
BRANCH  43  44
ATOM     44  C   UNL     1      -4.260   5.966   8.119  1.00  0.00     0.031 A 
ATOM     45  C   UNL     1      -5.155   6.975   7.452  1.00  0.00     0.074 A 
ATOM     46  C   UNL     1      -4.785   5.029   8.928  1.00  0.00     0.049 A 
ATOM     47  N   UNL     1      -6.447   7.135   7.549  1.00  0.00    -0.248 NA
ATOM     48  C   UNL     1      -4.493   7.940   6.556  1.00  0.00     0.031 C 
ATOM     49  C   UNL     1      -4.032   3.994   9.632  1.00  0.00     0.029 A 
ATOM     50  N   UNL     1      -6.087   4.822   9.319  1.00  0.00    -0.354 N 
ATOM     51  C   UNL     1      -6.747   8.237   6.757  1.00  0.00     0.074 A 
ATOM     52  C   UNL     1      -5.504   8.710   6.191  1.00  0.00     0.031 C 
ATOM     53  C   UNL     1      -4.880   3.287  10.402  1.00  0.00     0.029 A 
ATOM     54  C   UNL     1      -6.230   3.835  10.266  1.00  0.00     0.049 A 
ATOM     55  H   UNL     1      -6.846   5.333   8.954  1.00  0.00     0.167 HD
ATOM     56  C   UNL     1      -7.950   8.805   6.514  1.00  0.00     0.034 A 
ATOM     57  C   UNL     1      -7.317   3.446  10.964  1.00  0.00     0.034 A 
ATOM     58  C   UNL     1      -9.186   8.338   7.074  1.00  0.00     0.049 A 
ATOM     59  C   UNL     1      -8.646   4.114  10.701  1.00  0.00     0.074 A 
ATOM     60  C   UNL     1     -10.464   8.813   6.848  1.00  0.00     0.029 A 
ATOM     61  N   UNL     1      -9.296   7.307   7.993  1.00  0.00    -0.354 N 
ATOM     62  N   UNL     1      -8.938   5.067   9.850  1.00  0.00    -0.248 NA
ATOM     63  C   UNL     1      -9.802   3.632  11.474  1.00  0.00     0.031 C 
ATOM     64  C   UNL     1     -11.345   8.094   7.661  1.00  0.00     0.029 A 
ATOM     65  C   UNL     1     -10.619   7.142   8.360  1.00  0.00     0.049 A 
ATOM     66  H   UNL     1      -8.543   6.771   8.334  1.00  0.00     0.167 HD
ATOM     67  C   UNL     1     -10.311   5.274   9.958  1.00  0.00     0.074 A 
ATOM     68  C   UNL     1     -10.797   4.334  10.947  1.00  0.00     0.031 C 
ATOM     69  C   UNL     1     -11.097   6.166   9.306  1.00  0.00     0.034 A 
BRANCH  56  70
ATOM     70  C   UNL     1      -7.978   9.999   5.601  1.00  0.00     0.023 A 
ATOM     71  C   UNL     1      -7.744   9.835   4.220  1.00  0.00     0.012 A 
ATOM     72  C   UNL     1      -8.259  11.282   6.108  1.00  0.00     0.148 A 
ATOM     73  C   UNL     1      -7.752  10.935   3.364  1.00  0.00     0.002 A 
ATOM     74  C   UNL     1      -8.315  12.365   5.241  1.00  0.00     0.091 A 
ATOM     75  F   UNL     1      -8.448  11.420   7.428  1.00  0.00    -0.205 F 
ATOM     76  C   UNL     1      -8.048  12.197   3.873  1.00  0.00     0.022 A 
BRANCH  74  77
ATOM     77  S   UNL     1      -8.767  14.015   5.787  1.00  0.00     0.127 S 
ATOM     78  O   UNL     1      -7.492  14.721   5.679  1.00  0.00    -0.237 OA
ATOM     79  O   UNL     1      -9.767  14.403   4.792  1.00  0.00    -0.237 OA
ATOM     80  O   UNL     1      -9.285  13.862   7.140  1.00  0.00    -0.744 OA
ENDBRANCH  74  77
ENDBRANCH  56  70
BRANCH  57  81
ATOM     81  C   UNL     1      -7.204   2.360  11.981  1.00  0.00     0.023 A 
ATOM     82  C   UNL     1      -7.830   1.119  11.756  1.00  0.00     0.012 A 
ATOM     83  C   UNL     1      -6.474   2.553  13.171  1.00  0.00     0.148 A 
ATOM     84  C   UNL     1      -7.755   0.100  12.708  1.00  0.00     0.002 A 
ATOM     85  C   UNL     1      -6.356   1.516  14.088  1.00  0.00     0.091 A 
ATOM     86  F   UNL     1      -5.903   3.748  13.377  1.00  0.00    -0.205 F 
ATOM     87  C   UNL     1      -7.010   0.294  13.867  1.00  0.00     0.022 A 
BRANCH  85  88
ATOM     88  S   UNL     1      -5.312   1.629  15.546  1.00  0.00     0.127 S 
ATOM     89  O   UNL     1      -6.298   1.590  16.623  1.00  0.00    -0.237 OA
ATOM     90  O   UNL     1      -4.491   0.424  15.417  1.00  0.00    -0.237 OA
ATOM     91  O   UNL     1      -4.576   2.877  15.408  1.00  0.00    -0.744 OA
ENDBRANCH  85  88
ENDBRANCH  57  81
BRANCH  69  92
ATOM     92  C   UNL     1     -12.578   6.152   9.589  1.00  0.00     0.023 A 
ATOM     93  C   UNL     1     -13.069   6.649  10.812  1.00  0.00     0.012 A 
ATOM     94  C   UNL     1     -13.489   5.741   8.594  1.00  0.00     0.148 A 
ATOM     95  C   UNL     1     -14.442   6.713  11.050  1.00  0.00     0.002 A 
ATOM     96  C   UNL     1     -14.855   5.856   8.819  1.00  0.00     0.091 A 
ATOM     97  F   UNL     1     -13.001   5.258   7.442  1.00  0.00    -0.205 F 
ATOM     98  C   UNL     1     -15.334   6.330  10.051  1.00  0.00     0.022 A 
BRANCH  96  99
ATOM     99  S   UNL     1     -16.076   5.483   7.554  1.00  0.00     0.127 S 
ATOM    100  O   UNL     1     -16.696   4.271   8.087  1.00  0.00    -0.237 OA
ATOM    101  O   UNL     1     -16.929   6.671   7.589  1.00  0.00    -0.237 OA
ATOM    102  O   UNL     1     -15.332   5.308   6.314  1.00  0.00    -0.744 OA
ENDBRANCH  96  99
ENDBRANCH  69  92
ENDBRANCH  43  44
ENDBRANCH  36  38
ENDBRANCH  35  36
ENDBRANCH  34  35
ENDBRANCH  33  34
ENDBRANCH  32  33
ENDBRANCH  31  32
ENDBRANCH  30  31
ENDBRANCH   1  30
TORSDOF 28
