REMARK SMILES COc1ccc(N2C(=O)S[C@H](CC(=O)Nc3ccc(O)c(C(=O)OCCOCCOCCOCCOC(=O)c4ccc(-c5c6nc(c(-c7cccc(S(=O)(=O)[O-])c7F)c7ccc([nH]7)c(-c7cccc(S(=O)(=O)[O-])c7F)c7nc(c(-c8cccc(S(=O)(=O)[O-])c8F)c8ccc5[nH]8)C=C7)C=C6)cc4)c3)C2=O)c(OC)c1
REMARK SMILES IDX 29 1 28 2 27 3 26 4 25 5 24 6 22 7 23 8 21 9 16 10 17 11
REMARK SMILES IDX 102 12 18 13 19 14 15 15 13 16 14 17 12 19 11 20 7 21 8 22
REMARK SMILES IDX 103 23 9 24 10 25 104 26 6 27 3 28 4 29 108 30 5 31 105 32
REMARK SMILES IDX 2 33 1 34 106 35 107 36 20 37 30 39 31 40 32 41 33 42 34 43
REMARK SMILES IDX 35 44 36 45 37 46 38 47 39 48 40 49 101 50 41 51 100 52
REMARK SMILES IDX 42 53 43 54 44 55 94 56 45 57 99 58 93 59 95 60 46 61 98 62
REMARK SMILES IDX 92 63 91 64 47 66 79 67 59 68 78 69 60 70 63 71 77 72 96 73
REMARK SMILES IDX 61 74 62 75 76 77 97 78 64 79 48 80 49 81 57 82 50 83 52 84
REMARK SMILES IDX 58 85 51 86 53 87 54 88 55 89 56 90 80 91 81 92 89 93 82 94
REMARK SMILES IDX 84 95 90 96 83 97 85 98 86 99 87 100 88 101 65 102 66 103
REMARK SMILES IDX 74 104 67 105 69 106 75 107 68 108 70 109 71 110 72 111
REMARK SMILES IDX 73 112
REMARK H PARENT 15 18 20 38 95 65 63 76
REMARK Flexibility Score: inf
ROOT
ATOM      1  C   UNL     1       3.264  -6.146   7.467  1.00  0.00     0.188 C 
ENDROOT
BRANCH   1   2
ATOM      2  C   UNL     1       3.976  -4.772   7.544  1.00  0.00     0.188 C 
BRANCH   2   3
ATOM      3  O   UNL     1       3.268  -3.559   7.286  1.00  0.00    -0.376 OA
BRANCH   3   4
ATOM      4  C   UNL     1       2.342  -3.504   6.209  1.00  0.00     0.202 C 
BRANCH   4   5
ATOM      5  C   UNL     1       2.858  -3.899   4.831  1.00  0.00     0.261 C 
BRANCH   5   6
ATOM      6  O   UNL     1       3.415  -5.224   4.806  1.00  0.00    -0.460 OA
BRANCH   6   7
ATOM      7  C   UNL     1       4.712  -5.352   4.444  1.00  0.00     0.342 C 
ATOM      8  O   UNL     1       5.521  -4.437   4.334  1.00  0.00    -0.246 OA
BRANCH   7   9
ATOM      9  C   UNL     1       5.119  -6.774   4.211  1.00  0.00     0.103 A 
ATOM     10  C   UNL     1       4.552  -9.061   3.531  1.00  0.00     0.042 A 
ATOM     11  C   UNL     1       5.912  -9.374   3.533  1.00  0.00     0.030 A 
ATOM     12  C   UNL     1       4.182  -7.800   3.986  1.00  0.00     0.045 A 
ATOM     13  C   UNL     1       6.869  -8.393   3.841  1.00  0.00     0.049 A 
ATOM     14  C   UNL     1       6.474  -7.090   4.136  1.00  0.00     0.130 A 
BRANCH  10  15
ATOM     15  N   UNL     1       3.618 -10.059   3.182  1.00  0.00    -0.326 N 
ATOM     16  C   UNL     1       2.370 -10.021   2.597  1.00  0.00     0.226 C 
ATOM     17  O   UNL     1       1.637 -11.000   2.764  1.00  0.00    -0.275 OA
ATOM     18  H   UNL     1       3.920 -10.970   3.400  1.00  0.00     0.169 HD
BRANCH  16  19
ATOM     19  C   UNL     1       1.982  -8.947   1.573  1.00  0.00     0.125 C 
BRANCH  19  20
ATOM     20  C   UNL     1       0.633  -8.233   1.824  1.00  0.00     0.156 C 
ATOM     21  N   UNL     1       0.973  -5.904   1.270  1.00  0.00    -0.236 N 
ATOM     22  C   UNL     1       1.705  -6.133   2.371  1.00  0.00     0.293 C 
ATOM     23  C   UNL     1       0.334  -7.050   0.840  1.00  0.00     0.248 C 
ATOM     24  O   UNL     1       2.887  -5.877   2.508  1.00  0.00    -0.261 OA
ATOM     25  S   UNL     1       0.815  -7.274   3.366  1.00  0.00    -0.050 SA
ATOM     26  O   UNL     1      -0.301  -7.159  -0.200  1.00  0.00    -0.273 OA
BRANCH  21  27
ATOM     27  C   UNL     1       0.789  -4.554   0.885  1.00  0.00     0.095 A 
ATOM     28  C   UNL     1       0.418  -1.780   1.021  1.00  0.00     0.122 A 
ATOM     29  C   UNL     1      -0.673  -2.636   1.148  1.00  0.00     0.049 A 
ATOM     30  C   UNL     1       1.701  -2.289   0.833  1.00  0.00     0.095 A 
ATOM     31  C   UNL     1      -0.497  -4.020   1.051  1.00  0.00     0.034 A 
ATOM     32  C   UNL     1       1.895  -3.671   0.766  1.00  0.00     0.146 A 
BRANCH  28  33
ATOM     33  O   UNL     1       0.180  -0.437   1.137  1.00  0.00    -0.497 OA
ATOM     34  C   UNL     1       0.668   0.281   0.004  1.00  0.00     0.278 C 
ENDBRANCH  28  33
BRANCH  32  35
ATOM     35  O   UNL     1       3.128  -4.229   0.525  1.00  0.00    -0.494 OA
ATOM     36  C   UNL     1       4.269  -3.484   0.948  1.00  0.00     0.278 C 
ENDBRANCH  32  35
ENDBRANCH  21  27
ENDBRANCH  19  20
ENDBRANCH  16  19
ENDBRANCH  10  15
BRANCH  14  37
ATOM     37  O   UNL     1       7.469  -6.175   4.354  1.00  0.00    -0.507 OA
ATOM     38  H   UNL     1       8.367  -6.436   4.292  1.00  0.00     0.293 HD
ENDBRANCH  14  37
ENDBRANCH   7   9
ENDBRANCH   6   7
ENDBRANCH   5   6
ENDBRANCH   4   5
ENDBRANCH   3   4
ENDBRANCH   2   3
ENDBRANCH   1   2
BRANCH   1  39
ATOM     39  O   UNL     1       1.879  -6.086   7.169  1.00  0.00    -0.377 OA
BRANCH  39  40
ATOM     40  C   UNL     1       1.012  -6.164   8.296  1.00  0.00     0.188 C 
BRANCH  40  41
ATOM     41  C   UNL     1       1.321  -5.180   9.435  1.00  0.00     0.188 C 
BRANCH  41  42
ATOM     42  O   UNL     1       2.603  -5.404  10.027  1.00  0.00    -0.376 OA
BRANCH  42  43
ATOM     43  C   UNL     1       2.645  -6.134  11.247  1.00  0.00     0.202 C 
BRANCH  43  44
ATOM     44  C   UNL     1       2.390  -7.642  11.114  1.00  0.00     0.261 C 
BRANCH  44  45
ATOM     45  O   UNL     1       1.057  -8.007  10.723  1.00  0.00    -0.460 OA
BRANCH  45  46
ATOM     46  C   UNL     1       0.038  -7.531  11.473  1.00  0.00     0.338 C 
ATOM     47  O   UNL     1       0.113  -6.913  12.510  1.00  0.00    -0.246 OA
BRANCH  46  48
ATOM     48  C   UNL     1      -1.206  -7.716  10.698  1.00  0.00     0.060 A 
ATOM     49  C   UNL     1      -2.026  -6.603  10.480  1.00  0.00     0.016 A 
ATOM     50  C   UNL     1      -1.567  -8.978  10.221  1.00  0.00     0.016 A 
ATOM     51  C   UNL     1      -3.250  -6.762   9.834  1.00  0.00     0.010 A 
ATOM     52  C   UNL     1      -2.800  -9.140   9.592  1.00  0.00     0.010 A 
ATOM     53  C   UNL     1      -3.663  -8.041   9.441  1.00  0.00    -0.014 A 
BRANCH  53  54
ATOM     54  C   UNL     1      -5.084  -8.274   9.104  1.00  0.00     0.031 A 
ATOM     55  C   UNL     1      -6.008  -8.702  10.211  1.00  0.00     0.074 A 
ATOM     56  C   UNL     1      -5.538  -8.134   7.848  1.00  0.00     0.049 A 
ATOM     57  N   UNL     1      -7.280  -8.991  10.164  1.00  0.00    -0.248 NA
ATOM     58  C   UNL     1      -5.410  -8.824  11.553  1.00  0.00     0.031 C 
ATOM     59  C   UNL     1      -4.733  -7.734   6.696  1.00  0.00     0.029 A 
ATOM     60  N   UNL     1      -6.791  -8.345   7.332  1.00  0.00    -0.354 N 
ATOM     61  C   UNL     1      -7.631  -9.349  11.460  1.00  0.00     0.074 A 
ATOM     62  C   UNL     1      -6.437  -9.254  12.269  1.00  0.00     0.031 C 
ATOM     63  C   UNL     1      -5.507  -7.763   5.596  1.00  0.00     0.029 A 
ATOM     64  C   UNL     1      -6.853  -8.197   5.968  1.00  0.00     0.049 A 
ATOM     65  H   UNL     1      -7.570  -8.580   7.886  1.00  0.00     0.167 HD
ATOM     66  C   UNL     1      -8.844  -9.708  11.940  1.00  0.00     0.034 A 
ATOM     67  C   UNL     1      -7.879  -8.410   5.119  1.00  0.00     0.034 A 
ATOM     68  C   UNL     1     -10.029  -9.797  11.135  1.00  0.00     0.049 A 
ATOM     69  C   UNL     1      -9.215  -8.833   5.671  1.00  0.00     0.074 A 
ATOM     70  C   UNL     1     -11.317 -10.108  11.530  1.00  0.00     0.029 A 
ATOM     71  N   UNL     1     -10.067  -9.590   9.764  1.00  0.00    -0.354 N 
ATOM     72  N   UNL     1      -9.568  -9.034   6.919  1.00  0.00    -0.248 NA
ATOM     73  C   UNL     1     -10.304  -9.027   4.702  1.00  0.00     0.031 C 
ATOM     74  C   UNL     1     -12.132 -10.109  10.392  1.00  0.00     0.029 A 
ATOM     75  C   UNL     1     -11.354  -9.778   9.293  1.00  0.00     0.049 A 
ATOM     76  H   UNL     1      -9.292  -9.345   9.209  1.00  0.00     0.167 HD
ATOM     77  C   UNL     1     -10.923  -9.346   6.888  1.00  0.00     0.074 A 
ATOM     78  C   UNL     1     -11.332  -9.289   5.500  1.00  0.00     0.031 C 
ATOM     79  C   UNL     1     -11.752  -9.664   7.914  1.00  0.00     0.034 A 
BRANCH  66  80
ATOM     80  C   UNL     1      -8.943 -10.004  13.411  1.00  0.00     0.023 A 
ATOM     81  C   UNL     1      -8.894  -8.941  14.336  1.00  0.00     0.012 A 
ATOM     82  C   UNL     1      -9.102 -11.322  13.877  1.00  0.00     0.148 A 
ATOM     83  C   UNL     1      -8.970  -9.189  15.706  1.00  0.00     0.002 A 
ATOM     84  C   UNL     1      -9.217 -11.557  15.242  1.00  0.00     0.091 A 
ATOM     85  F   UNL     1      -9.112 -12.321  12.984  1.00  0.00    -0.205 F 
ATOM     86  C   UNL     1      -9.141 -10.494  16.158  1.00  0.00     0.022 A 
BRANCH  84  87
ATOM     87  S   UNL     1      -9.505 -13.198  15.914  1.00  0.00     0.127 S 
ATOM     88  O   UNL     1      -8.186 -13.536  16.445  1.00  0.00    -0.237 OA
ATOM     89  O   UNL     1     -10.525 -12.942  16.932  1.00  0.00    -0.237 OA
ATOM     90  O   UNL     1      -9.961 -14.010  14.794  1.00  0.00    -0.744 OA
ENDBRANCH  84  87
ENDBRANCH  66  80
BRANCH  67  91
ATOM     91  C   UNL     1      -7.689  -8.186   3.659  1.00  0.00     0.023 A 
ATOM     92  C   UNL     1      -8.311  -7.085   3.039  1.00  0.00     0.012 A 
ATOM     93  C   UNL     1      -6.874  -9.039   2.891  1.00  0.00     0.148 A 
ATOM     94  C   UNL     1      -8.142  -6.850   1.674  1.00  0.00     0.002 A 
ATOM     95  C   UNL     1      -6.668  -8.770   1.544  1.00  0.00     0.091 A 
ATOM     96  F   UNL     1      -6.308 -10.092   3.497  1.00  0.00    -0.205 F 
ATOM     97  C   UNL     1      -7.313  -7.684   0.929  1.00  0.00     0.022 A 
BRANCH  95  98
ATOM     98  S   UNL     1      -5.514  -9.713   0.542  1.00  0.00     0.127 S 
ATOM     99  O   UNL     1      -6.418 -10.480  -0.312  1.00  0.00    -0.237 OA
ATOM    100  O   UNL     1      -4.773  -8.651  -0.139  1.00  0.00    -0.237 OA
ATOM    101  O   UNL     1      -4.720 -10.486   1.487  1.00  0.00    -0.744 OA
ENDBRANCH  95  98
ENDBRANCH  67  91
BRANCH  79 102
ATOM    102  C   UNL     1     -13.194  -9.951   7.587  1.00  0.00     0.023 A 
ATOM    103  C   UNL     1     -13.541 -11.170   6.973  1.00  0.00     0.012 A 
ATOM    104  C   UNL     1     -14.211  -9.056   7.973  1.00  0.00     0.148 A 
ATOM    105  C   UNL     1     -14.877 -11.482   6.724  1.00  0.00     0.002 A 
ATOM    106  C   UNL     1     -15.543  -9.394   7.764  1.00  0.00     0.091 A 
ATOM    107  F   UNL     1     -13.859  -7.892   8.539  1.00  0.00    -0.205 F 
ATOM    108  C   UNL     1     -15.877 -10.602   7.131  1.00  0.00     0.022 A 
BRANCH 106 109
ATOM    109  S   UNL     1     -16.896  -8.363   8.343  1.00  0.00     0.127 S 
ATOM    110  O   UNL     1     -17.356  -7.748   7.099  1.00  0.00    -0.237 OA
ATOM    111  O   UNL     1     -17.817  -9.347   8.914  1.00  0.00    -0.237 OA
ATOM    112  O   UNL     1     -16.312  -7.450   9.317  1.00  0.00    -0.744 OA
ENDBRANCH 106 109
ENDBRANCH  79 102
ENDBRANCH  53  54
ENDBRANCH  46  48
ENDBRANCH  45  46
ENDBRANCH  44  45
ENDBRANCH  43  44
ENDBRANCH  42  43
ENDBRANCH  41  42
ENDBRANCH  40  41
ENDBRANCH  39  40
ENDBRANCH   1  39
TORSDOF 30
