REMARK SMILES CCC[C@]1(C(=O)OCCOCCOCCOCCOC(=O)c2ccc(-c3c4nc(c(-c5cccc(S(=O)(=O)[O-])c5F)c5ccc([nH]5)c(-c5cccc(S(=O)(=O)[O-])c5F)c5nc(c(-c6cccc(S(=O)(=O)[O-])c6F)c6ccc3[nH]6)C=C5)C=C4)cc2)CCCN(C(=O)c2ccc(NS(=O)(=O)CC)cc2)C1
REMARK SMILES IDX 12 1 11 2 10 3 9 4 8 5 7 6 5 7 6 8 4 9 85 10 103 11 86 12
REMARK SMILES IDX 88 13 87 14 3 15 2 16 1 17 89 18 90 19 91 20 92 21 102 22
REMARK SMILES IDX 93 23 101 24 94 25 95 26 96 28 97 29 98 30 99 31 100 32
REMARK SMILES IDX 13 33 14 34 15 35 16 36 17 37 18 38 19 39 20 40 21 41 22 42
REMARK SMILES IDX 23 43 84 44 24 45 83 46 25 47 26 48 27 49 77 50 28 51 82 52
REMARK SMILES IDX 76 53 78 54 29 55 81 56 75 57 74 58 30 60 62 61 42 62 61 63
REMARK SMILES IDX 43 64 46 65 60 66 79 67 44 68 45 69 59 71 80 72 47 73 31 74
REMARK SMILES IDX 32 75 40 76 33 77 35 78 41 79 34 80 36 81 37 82 38 83 39 84
REMARK SMILES IDX 63 85 64 86 72 87 65 88 67 89 73 90 66 91 68 92 69 93 70 94
REMARK SMILES IDX 71 95 48 96 49 97 57 98 50 99 52 100 58 101 51 102 53 103
REMARK SMILES IDX 54 104 55 105 56 106
REMARK H PARENT 95 27 78 59 46 70
REMARK Flexibility Score: inf
ROOT
ATOM      1  C   UNL     1      -2.393  -0.838   1.266  1.00  0.00     0.188 C 
ENDROOT
BRANCH   1   2
ATOM      2  C   UNL     1      -2.791  -2.269   0.875  1.00  0.00     0.188 C 
BRANCH   2   3
ATOM      3  O   UNL     1      -3.730  -3.009   1.636  1.00  0.00    -0.376 OA
BRANCH   3   4
ATOM      4  C   UNL     1      -3.775  -2.921   3.052  1.00  0.00     0.202 C 
BRANCH   4   5
ATOM      5  C   UNL     1      -2.517  -3.037   3.932  1.00  0.00     0.261 C 
BRANCH   5   6
ATOM      6  O   UNL     1      -1.401  -2.190   3.607  1.00  0.00    -0.463 OA
BRANCH   6   7
ATOM      7  C   UNL     1      -0.421  -2.767   2.874  1.00  0.00     0.313 C 
ATOM      8  O   UNL     1      -0.464  -3.932   2.486  1.00  0.00    -0.252 OA
BRANCH   7   9
ATOM      9  C   UNL     1       0.803  -1.864   2.647  1.00  0.00     0.086 C 
ATOM     10  C   UNL     1       0.660  -0.339   2.915  1.00  0.00     0.022 C 
ATOM     11  C   UNL     1       1.713  -2.388   3.789  1.00  0.00     0.138 C 
ATOM     12  C   UNL     1       2.020   0.371   2.928  1.00  0.00     0.023 C 
ATOM     13  N   UNL     1       2.999  -1.715   3.772  1.00  0.00    -0.338 N 
ATOM     14  C   UNL     1       2.955  -0.261   3.950  1.00  0.00     0.120 C 
BRANCH   9  15
ATOM     15  C   UNL     1       1.433  -2.196   1.236  1.00  0.00     0.020 C 
BRANCH  15  16
ATOM     16  C   UNL     1       0.834  -1.641  -0.075  1.00  0.00    -0.002 C 
ATOM     17  C   UNL     1       1.185  -0.203  -0.435  1.00  0.00     0.004 C 
ENDBRANCH  15  16
ENDBRANCH   9  15
BRANCH  13  18
ATOM     18  C   UNL     1       4.093  -2.471   3.402  1.00  0.00     0.253 C 
ATOM     19  O   UNL     1       4.072  -3.678   3.175  1.00  0.00    -0.269 OA
BRANCH  18  20
ATOM     20  C   UNL     1       5.355  -1.783   3.163  1.00  0.00     0.040 A 
ATOM     21  C   UNL     1       5.826  -1.745   1.855  1.00  0.00     0.016 A 
ATOM     22  C   UNL     1       6.090  -1.259   4.221  1.00  0.00     0.016 A 
ATOM     23  C   UNL     1       7.084  -1.212   1.605  1.00  0.00     0.027 A 
ATOM     24  C   UNL     1       7.364  -0.761   3.964  1.00  0.00     0.027 A 
ATOM     25  C   UNL     1       7.889  -0.784   2.663  1.00  0.00     0.049 A 
BRANCH  25  26
ATOM     26  N   UNL     1       9.307  -0.697   2.569  1.00  0.00    -0.284 N 
ATOM     27  H   UNL     1       9.810  -0.746   3.414  1.00  0.00     0.180 HD
BRANCH  26  28
ATOM     28  S   UNL     1      10.198  -0.520   1.184  1.00  0.00     0.232 S 
ATOM     29  O   UNL     1       9.703   0.639   0.475  1.00  0.00    -0.207 OA
ATOM     30  O   UNL     1      11.577  -0.568   1.629  1.00  0.00    -0.207 OA
BRANCH  28  31
ATOM     31  C   UNL     1       9.916  -1.971   0.162  1.00  0.00     0.156 C 
ATOM     32  C   UNL     1       9.702  -3.279   0.893  1.00  0.00     0.023 C 
ENDBRANCH  28  31
ENDBRANCH  26  28
ENDBRANCH  25  26
ENDBRANCH  18  20
ENDBRANCH  13  18
ENDBRANCH   7   9
ENDBRANCH   6   7
ENDBRANCH   5   6
ENDBRANCH   4   5
ENDBRANCH   3   4
ENDBRANCH   2   3
ENDBRANCH   1   2
BRANCH   1  33
ATOM     33  O   UNL     1      -2.921  -0.351   2.478  1.00  0.00    -0.377 OA
BRANCH  33  34
ATOM     34  C   UNL     1      -4.140   0.370   2.410  1.00  0.00     0.188 C 
BRANCH  34  35
ATOM     35  C   UNL     1      -5.117   0.016   1.273  1.00  0.00     0.188 C 
BRANCH  35  36
ATOM     36  O   UNL     1      -4.524  -0.031  -0.019  1.00  0.00    -0.376 OA
BRANCH  36  37
ATOM     37  C   UNL     1      -4.537   1.129  -0.838  1.00  0.00     0.202 C 
BRANCH  37  38
ATOM     38  C   UNL     1      -3.784   2.381  -0.354  1.00  0.00     0.261 C 
BRANCH  38  39
ATOM     39  O   UNL     1      -4.208   2.949   0.894  1.00  0.00    -0.460 OA
BRANCH  39  40
ATOM     40  C   UNL     1      -5.509   3.273   1.029  1.00  0.00     0.338 C 
ATOM     41  O   UNL     1      -6.367   3.227   0.159  1.00  0.00    -0.246 OA
BRANCH  40  42
ATOM     42  C   UNL     1      -5.789   3.482   2.464  1.00  0.00     0.060 A 
ATOM     43  C   UNL     1      -6.774   2.692   3.072  1.00  0.00     0.016 A 
ATOM     44  C   UNL     1      -5.100   4.446   3.205  1.00  0.00     0.016 A 
ATOM     45  C   UNL     1      -7.112   2.902   4.406  1.00  0.00     0.010 A 
ATOM     46  C   UNL     1      -5.460   4.673   4.538  1.00  0.00     0.010 A 
ATOM     47  C   UNL     1      -6.499   3.933   5.128  1.00  0.00    -0.014 A 
BRANCH  47  48
ATOM     48  C   UNL     1      -7.113   4.359   6.410  1.00  0.00     0.031 A 
ATOM     49  C   UNL     1      -8.039   5.548   6.397  1.00  0.00     0.074 A 
ATOM     50  C   UNL     1      -6.921   3.659   7.543  1.00  0.00     0.049 A 
ATOM     51  N   UNL     1      -8.727   6.074   7.375  1.00  0.00    -0.248 NA
ATOM     52  C   UNL     1      -8.218   6.231   5.103  1.00  0.00     0.031 C 
ATOM     53  C   UNL     1      -6.073   2.476   7.675  1.00  0.00     0.029 A 
ATOM     54  N   UNL     1      -7.431   3.851   8.802  1.00  0.00    -0.354 N 
ATOM     55  C   UNL     1      -9.412   7.150   6.821  1.00  0.00     0.074 A 
ATOM     56  C   UNL     1      -9.034   7.222   5.428  1.00  0.00     0.031 C 
ATOM     57  C   UNL     1      -6.108   2.056   8.952  1.00  0.00     0.029 A 
ATOM     58  C   UNL     1      -6.962   2.951   9.730  1.00  0.00     0.049 A 
ATOM     59  H   UNL     1      -8.072   4.566   9.021  1.00  0.00     0.167 HD
ATOM     60  C   UNL     1     -10.297   7.987   7.410  1.00  0.00     0.034 A 
ATOM     61  C   UNL     1      -7.188   2.873  11.057  1.00  0.00     0.034 A 
ATOM     62  C   UNL     1     -10.677   7.912   8.794  1.00  0.00     0.049 A 
ATOM     63  C   UNL     1      -8.130   3.862  11.699  1.00  0.00     0.074 A 
ATOM     64  C   UNL     1     -11.567   8.713   9.487  1.00  0.00     0.029 A 
ATOM     65  N   UNL     1     -10.185   6.986   9.700  1.00  0.00    -0.354 N 
ATOM     66  N   UNL     1      -8.836   4.817  11.143  1.00  0.00    -0.248 NA
ATOM     67  C   UNL     1      -8.335   3.736  13.150  1.00  0.00     0.031 C 
ATOM     68  C   UNL     1     -11.592   8.289  10.819  1.00  0.00     0.029 A 
ATOM     69  C   UNL     1     -10.749   7.197  10.946  1.00  0.00     0.049 A 
ATOM     70  H   UNL     1      -9.531   6.281   9.488  1.00  0.00     0.167 HD
ATOM     71  C   UNL     1      -9.602   5.370  12.164  1.00  0.00     0.074 A 
ATOM     72  C   UNL     1      -9.293   4.626  13.367  1.00  0.00     0.031 C 
ATOM     73  C   UNL     1     -10.474   6.409  12.119  1.00  0.00     0.034 A 
BRANCH  60  74
ATOM     74  C   UNL     1     -10.940   9.044   6.550  1.00  0.00     0.023 A 
ATOM     75  C   UNL     1     -11.905   8.670   5.592  1.00  0.00     0.012 A 
ATOM     76  C   UNL     1     -10.640  10.408   6.732  1.00  0.00     0.148 A 
ATOM     77  C   UNL     1     -12.540   9.633   4.810  1.00  0.00     0.002 A 
ATOM     78  C   UNL     1     -11.311  11.366   5.981  1.00  0.00     0.091 A 
ATOM     79  F   UNL     1      -9.706  10.741   7.633  1.00  0.00    -0.205 F 
ATOM     80  C   UNL     1     -12.253  10.980   5.013  1.00  0.00     0.022 A 
BRANCH  78  81
ATOM     81  S   UNL     1     -11.070  13.130   6.217  1.00  0.00     0.127 S 
ATOM     82  O   UNL     1     -10.470  13.518   4.941  1.00  0.00    -0.237 OA
ATOM     83  O   UNL     1     -12.441  13.601   6.414  1.00  0.00    -0.237 OA
ATOM     84  O   UNL     1     -10.202  13.268   7.377  1.00  0.00    -0.744 OA
ENDBRANCH  78  81
ENDBRANCH  60  74
BRANCH  61  85
ATOM     85  C   UNL     1      -6.532   1.817  11.882  1.00  0.00     0.023 A 
ATOM     86  C   UNL     1      -7.317   0.833  12.516  1.00  0.00     0.012 A 
ATOM     87  C   UNL     1      -5.137   1.810  12.079  1.00  0.00     0.148 A 
ATOM     88  C   UNL     1      -6.733  -0.101  13.373  1.00  0.00     0.002 A 
ATOM     89  C   UNL     1      -4.555   0.838  12.884  1.00  0.00     0.091 A 
ATOM     90  F   UNL     1      -4.406   2.763  11.483  1.00  0.00    -0.205 F 
ATOM     91  C   UNL     1      -5.353  -0.104  13.551  1.00  0.00     0.022 A 
BRANCH  89  92
ATOM     92  S   UNL     1      -2.776   0.685  13.068  1.00  0.00     0.127 S 
ATOM     93  O   UNL     1      -2.575   1.147  14.439  1.00  0.00    -0.237 OA
ATOM     94  O   UNL     1      -2.573  -0.749  12.864  1.00  0.00    -0.237 OA
ATOM     95  O   UNL     1      -2.200   1.525  12.025  1.00  0.00    -0.744 OA
ENDBRANCH  89  92
ENDBRANCH  61  85
BRANCH  73  96
ATOM     96  C   UNL     1     -11.203   6.764  13.391  1.00  0.00     0.023 A 
ATOM     97  C   UNL     1     -10.506   7.339  14.472  1.00  0.00     0.012 A 
ATOM     98  C   UNL     1     -12.595   6.566  13.495  1.00  0.00     0.148 A 
ATOM     99  C   UNL     1     -11.172   7.663  15.654  1.00  0.00     0.002 A 
ATOM    100  C   UNL     1     -13.261   6.944  14.654  1.00  0.00     0.091 A 
ATOM    101  F   UNL     1     -13.241   6.005  12.462  1.00  0.00    -0.205 F 
ATOM    102  C   UNL     1     -12.549   7.474  15.741  1.00  0.00     0.022 A 
BRANCH 100 103
ATOM    103  S   UNL     1     -15.046   6.832  14.820  1.00  0.00     0.127 S 
ATOM    104  O   UNL     1     -15.189   5.724  15.761  1.00  0.00    -0.237 OA
ATOM    105  O   UNL     1     -15.388   8.146  15.367  1.00  0.00    -0.237 OA
ATOM    106  O   UNL     1     -15.559   6.584  13.479  1.00  0.00    -0.744 OA
ENDBRANCH 100 103
ENDBRANCH  73  96
ENDBRANCH  47  48
ENDBRANCH  40  42
ENDBRANCH  39  40
ENDBRANCH  38  39
ENDBRANCH  37  38
ENDBRANCH  36  37
ENDBRANCH  35  36
ENDBRANCH  34  35
ENDBRANCH  33  34
ENDBRANCH   1  33
TORSDOF 30
