REMARK SMILES Cc1cc2c(c(C)c1Cl)C=C(C(=O)OCCOCCOCCOCCOC(=O)c1ccc(-c3c4nc(c(-c5cccc(S(=O)(=O)[O-])c5F)c5ccc([nH]5)c(-c5cccc(S(=O)(=O)[O-])c5F)c5nc(c(-c6cccc(S(=O)(=O)[O-])c6F)c6ccc3[nH]6)C=C5)C=C4)cc1)[C@H](C(F)(F)F)O2
REMARK SMILES IDX 21 1 20 2 19 3 18 4 17 5 16 6 15 7 14 8 12 9 13 10 11 11
REMARK SMILES IDX 1 12 2 13 3 14 8 15 4 16 6 17 9 18 5 19 97 20 7 21 10 22
REMARK SMILES IDX 92 23 93 24 94 25 95 26 96 27 22 28 23 29 24 30 25 31 26 32
REMARK SMILES IDX 27 33 28 34 29 35 30 36 91 37 31 38 90 39 32 40 33 41 34 42
REMARK SMILES IDX 84 43 35 44 89 45 83 46 85 47 36 48 88 49 82 50 81 51 37 53
REMARK SMILES IDX 69 54 49 55 68 56 50 57 53 58 67 59 86 60 51 61 52 62 66 64
REMARK SMILES IDX 87 65 54 66 38 67 39 68 47 69 40 70 42 71 48 72 41 73 43 74
REMARK SMILES IDX 44 75 45 76 46 77 70 78 71 79 79 80 72 81 74 82 80 83 73 84
REMARK SMILES IDX 75 85 76 86 77 87 78 88 55 89 56 90 64 91 57 92 59 93 65 94
REMARK SMILES IDX 58 95 60 96 61 97 62 98 63 99
REMARK H PARENT 85 52 53 63
REMARK Flexibility Score: inf
ROOT
ATOM      1  C   UNL     1      -2.951   8.209   4.606  1.00  0.00     0.188 C 
ENDROOT
BRANCH   1   2
ATOM      2  O   UNL     1      -2.403   7.113   3.876  1.00  0.00    -0.377 OA
BRANCH   2   3
ATOM      3  C   UNL     1      -1.215   7.283   3.123  1.00  0.00     0.188 C 
BRANCH   3   4
ATOM      4  C   UNL     1      -1.185   8.389   2.055  1.00  0.00     0.188 C 
BRANCH   4   5
ATOM      5  O   UNL     1      -2.124   9.418   2.296  1.00  0.00    -0.376 OA
BRANCH   5   6
ATOM      6  C   UNL     1      -3.201   9.597   1.393  1.00  0.00     0.202 C 
BRANCH   6   7
ATOM      7  C   UNL     1      -4.160   8.437   1.064  1.00  0.00     0.261 C 
BRANCH   7   8
ATOM      8  O   UNL     1      -3.619   7.116   1.176  1.00  0.00    -0.460 OA
BRANCH   8   9
ATOM      9  C   UNL     1      -3.107   6.569   0.061  1.00  0.00     0.338 C 
ATOM     10  O   UNL     1      -3.024   7.100  -1.035  1.00  0.00    -0.246 OA
BRANCH   9  11
ATOM     11  C   UNL     1      -2.478   5.279   0.393  1.00  0.00     0.087 C 
ATOM     12  C   UNL     1       0.976  -0.190   0.108  1.00  0.00     0.046 C 
ATOM     13  C   UNL     1       0.512   1.240   0.191  1.00  0.00    -0.028 A 
ATOM     14  C   UNL     1      -0.840   1.470   0.483  1.00  0.00     0.052 A 
ATOM     15  C   UNL     1       1.344   2.340  -0.104  1.00  0.00     0.047 A 
ATOM     16  C   UNL     1      -1.365   2.759   0.467  1.00  0.00     0.128 A 
ATOM     17  C   UNL     1       0.835   3.661  -0.091  1.00  0.00    -0.021 A 
ATOM     18  Cl  UNL     1       3.001   2.043  -0.541  1.00  0.00    -0.084 Cl
ATOM     19  C   UNL     1      -0.546   3.853   0.167  1.00  0.00     0.022 A 
ATOM     20  O   UNL     1      -2.718   2.846   0.666  1.00  0.00    -0.475 OA
ATOM     21  C   UNL     1       1.717   4.858  -0.365  1.00  0.00     0.047 C 
ATOM     22  C   UNL     1      -1.197   5.152   0.017  1.00  0.00     0.027 C 
ATOM     23  C   UNL     1      -3.285   4.154   0.978  1.00  0.00     0.316 C 
BRANCH  23  24
ATOM     24  C   UNL     1      -3.565   4.224   2.492  1.00  0.00     0.430 C 
ATOM     25  F   UNL     1      -2.423   4.265   3.216  1.00  0.00    -0.167 F 
ATOM     26  F   UNL     1      -4.329   5.282   2.828  1.00  0.00    -0.167 F 
ATOM     27  F   UNL     1      -4.245   3.119   2.895  1.00  0.00    -0.167 F 
ENDBRANCH  23  24
ENDBRANCH   9  11
ENDBRANCH   8   9
ENDBRANCH   7   8
ENDBRANCH   6   7
ENDBRANCH   5   6
ENDBRANCH   4   5
ENDBRANCH   3   4
ENDBRANCH   2   3
ENDBRANCH   1   2
BRANCH   1  28
ATOM     28  C   UNL     1      -2.064   9.384   5.079  1.00  0.00     0.188 C 
BRANCH  28  29
ATOM     29  O   UNL     1      -0.667   9.121   5.104  1.00  0.00    -0.376 OA
BRANCH  29  30
ATOM     30  C   UNL     1      -0.110   8.828   6.378  1.00  0.00     0.202 C 
BRANCH  30  31
ATOM     31  C   UNL     1      -0.588   7.516   7.013  1.00  0.00     0.261 C 
BRANCH  31  32
ATOM     32  O   UNL     1      -1.971   7.490   7.404  1.00  0.00    -0.460 OA
BRANCH  32  33
ATOM     33  C   UNL     1      -2.400   8.437   8.265  1.00  0.00     0.338 C 
ATOM     34  O   UNL     1      -1.737   9.300   8.813  1.00  0.00    -0.246 OA
BRANCH  33  35
ATOM     35  C   UNL     1      -3.872   8.371   8.293  1.00  0.00     0.060 A 
ATOM     36  C   UNL     1      -4.613   9.474   7.848  1.00  0.00     0.016 A 
ATOM     37  C   UNL     1      -4.510   7.223   8.764  1.00  0.00     0.016 A 
ATOM     38  C   UNL     1      -6.005   9.441   7.908  1.00  0.00     0.010 A 
ATOM     39  C   UNL     1      -5.902   7.200   8.843  1.00  0.00     0.010 A 
ATOM     40  C   UNL     1      -6.652   8.321   8.449  1.00  0.00    -0.014 A 
BRANCH  40  41
ATOM     41  C   UNL     1      -8.088   8.402   8.801  1.00  0.00     0.031 A 
ATOM     42  C   UNL     1      -8.448   8.769  10.215  1.00  0.00     0.074 A 
ATOM     43  C   UNL     1      -9.047   8.163   7.890  1.00  0.00     0.049 A 
ATOM     44  N   UNL     1      -9.626   8.871  10.768  1.00  0.00    -0.248 NA
ATOM     45  C   UNL     1      -7.327   9.061  11.127  1.00  0.00     0.031 C 
ATOM     46  C   UNL     1      -8.817   7.822   6.487  1.00  0.00     0.029 A 
ATOM     47  N   UNL     1     -10.414   8.156   8.019  1.00  0.00    -0.354 N 
ATOM     48  C   UNL     1      -9.391   9.226  12.090  1.00  0.00     0.074 A 
ATOM     49  C   UNL     1      -7.958   9.302  12.266  1.00  0.00     0.031 C 
ATOM     50  C   UNL     1     -10.004   7.622   5.888  1.00  0.00     0.029 A 
ATOM     51  C   UNL     1     -11.075   7.795   6.868  1.00  0.00     0.049 A 
ATOM     52  H   UNL     1     -10.877   8.388   8.856  1.00  0.00     0.167 HD
ATOM     53  C   UNL     1     -10.290   9.490  13.066  1.00  0.00     0.034 A 
ATOM     54  C   UNL     1     -12.393   7.613   6.643  1.00  0.00     0.034 A 
ATOM     55  C   UNL     1     -11.713   9.427  12.884  1.00  0.00     0.049 A 
ATOM     56  C   UNL     1     -13.370   7.857   7.768  1.00  0.00     0.074 A 
ATOM     57  C   UNL     1     -12.706   9.691  13.809  1.00  0.00     0.029 A 
ATOM     58  N   UNL     1     -12.345   9.070  11.704  1.00  0.00    -0.354 N 
ATOM     59  N   UNL     1     -13.139   8.287   8.986  1.00  0.00    -0.248 NA
ATOM     60  C   UNL     1     -14.793   7.615   7.482  1.00  0.00     0.031 C 
ATOM     61  C   UNL     1     -13.941   9.471  13.194  1.00  0.00     0.029 A 
ATOM     62  C   UNL     1     -13.717   9.099  11.878  1.00  0.00     0.049 A 
ATOM     63  H   UNL     1     -11.886   8.832  10.866  1.00  0.00     0.167 HD
ATOM     64  C   UNL     1     -14.385   8.402   9.596  1.00  0.00     0.074 A 
ATOM     65  C   UNL     1     -15.370   8.017   8.607  1.00  0.00     0.031 C 
ATOM     66  C   UNL     1     -14.687   8.773  10.865  1.00  0.00     0.034 A 
BRANCH  53  67
ATOM     67  C   UNL     1      -9.768   9.920  14.410  1.00  0.00     0.023 A 
ATOM     68  C   UNL     1      -9.247  11.220  14.564  1.00  0.00     0.012 A 
ATOM     69  C   UNL     1      -9.886   9.082  15.536  1.00  0.00     0.148 A 
ATOM     70  C   UNL     1      -8.839  11.677  15.816  1.00  0.00     0.002 A 
ATOM     71  C   UNL     1      -9.520   9.560  16.788  1.00  0.00     0.091 A 
ATOM     72  F   UNL     1     -10.365   7.842  15.361  1.00  0.00    -0.205 F 
ATOM     73  C   UNL     1      -8.989  10.853  16.928  1.00  0.00     0.022 A 
BRANCH  71  74
ATOM     74  S   UNL     1      -9.749   8.613  18.297  1.00  0.00     0.127 S 
ATOM     75  O   UNL     1      -8.368   8.418  18.735  1.00  0.00    -0.237 OA
ATOM     76  O   UNL     1     -10.526   9.538  19.121  1.00  0.00    -0.237 OA
ATOM     77  O   UNL     1     -10.452   7.398  17.909  1.00  0.00    -0.744 OA
ENDBRANCH  71  74
ENDBRANCH  53  67
BRANCH  54  78
ATOM     78  C   UNL     1     -12.877   7.226   5.285  1.00  0.00     0.023 A 
ATOM     79  C   UNL     1     -13.653   8.139   4.544  1.00  0.00     0.012 A 
ATOM     80  C   UNL     1     -12.571   5.973   4.720  1.00  0.00     0.148 A 
ATOM     81  C   UNL     1     -14.140   7.801   3.280  1.00  0.00     0.002 A 
ATOM     82  C   UNL     1     -13.009   5.665   3.436  1.00  0.00     0.091 A 
ATOM     83  F   UNL     1     -11.851   5.107   5.447  1.00  0.00    -0.205 F 
ATOM     84  C   UNL     1     -13.809   6.570   2.722  1.00  0.00     0.022 A 
BRANCH  82  85
ATOM     85  S   UNL     1     -12.523   4.160   2.583  1.00  0.00     0.127 S 
ATOM     86  O   UNL     1     -13.786   3.429   2.522  1.00  0.00    -0.237 OA
ATOM     87  O   UNL     1     -12.050   4.682   1.300  1.00  0.00    -0.237 OA
ATOM     88  O   UNL     1     -11.483   3.559   3.407  1.00  0.00    -0.744 OA
ENDBRANCH  82  85
ENDBRANCH  54  78
BRANCH  66  89
ATOM     89  C   UNL     1     -16.138   8.814  11.272  1.00  0.00     0.023 A 
ATOM     90  C   UNL     1     -16.838   7.608  11.474  1.00  0.00     0.012 A 
ATOM     91  C   UNL     1     -16.766  10.038  11.579  1.00  0.00     0.148 A 
ATOM     92  C   UNL     1     -18.146   7.621  11.956  1.00  0.00     0.002 A 
ATOM     93  C   UNL     1     -18.051  10.040  12.108  1.00  0.00     0.091 A 
ATOM     94  F   UNL     1     -16.087  11.175  11.368  1.00  0.00    -0.205 F 
ATOM     95  C   UNL     1     -18.747   8.834  12.287  1.00  0.00     0.022 A 
BRANCH  93  96
ATOM     96  S   UNL     1     -18.865  11.541  12.668  1.00  0.00     0.127 S 
ATOM     97  O   UNL     1     -19.925  11.694  11.673  1.00  0.00    -0.237 OA
ATOM     98  O   UNL     1     -19.331  11.162  14.002  1.00  0.00    -0.237 OA
ATOM     99  O   UNL     1     -17.846  12.582  12.656  1.00  0.00    -0.744 OA
ENDBRANCH  93  96
ENDBRANCH  66  89
ENDBRANCH  40  41
ENDBRANCH  33  35
ENDBRANCH  32  33
ENDBRANCH  31  32
ENDBRANCH  30  31
ENDBRANCH  29  30
ENDBRANCH  28  29
ENDBRANCH   1  28
TORSDOF 24
