REMARK SMILES O=C(OCCOCCOCCOCCOC(=O)c1cc(OCc2ccccc2C(F)(F)F)cs1)c1ccc(-c2c3nc(c(-c4cccc(S(=O)(=O)[O-])c4F)c4ccc([nH]4)c(-c4cccc(S(=O)(=O)[O-])c4F)c4nc(c(-c5cccc(S(=O)(=O)[O-])c5F)c5ccc2[nH]5)C=C4)C=C3)cc1
REMARK SMILES IDX 10 1 9 2 8 3 7 4 6 5 5 6 4 7 3 8 2 9 1 10 35 11 36 12 97 13
REMARK SMILES IDX 37 14 96 15 38 16 39 17 40 18 90 19 41 20 95 21 89 22 91 23
REMARK SMILES IDX 42 24 94 25 88 26 87 27 43 29 75 30 55 31 74 32 56 33 59 34
REMARK SMILES IDX 73 35 92 36 57 37 58 38 72 40 93 41 60 42 44 43 45 44 53 45
REMARK SMILES IDX 46 46 48 47 54 48 47 49 49 50 50 51 51 52 52 53 76 54 77 55
REMARK SMILES IDX 85 56 78 57 80 58 86 59 79 60 81 61 82 62 83 63 84 64 61 65
REMARK SMILES IDX 62 66 70 67 63 68 65 69 71 70 64 71 66 72 67 73 68 74 69 75
REMARK SMILES IDX 11 76 12 77 13 78 14 79 15 80 16 81 17 82 18 83 19 84 34 85
REMARK SMILES IDX 20 86 33 87 21 88 22 89 23 90 24 91 28 92 25 93 27 94 26 95
REMARK SMILES IDX 29 96 30 97 31 98 32 99
REMARK H PARENT 91 28 59 39
REMARK Flexibility Score: inf
ROOT
ATOM      1  C   UNL     1       3.888  -1.454  -3.703  1.00  0.00     0.188 C 
ENDROOT
BRANCH   1   2
ATOM      2  O   UNL     1       2.463  -1.432  -3.735  1.00  0.00    -0.377 OA
BRANCH   2   3
ATOM      3  C   UNL     1       1.799  -0.742  -2.675  1.00  0.00     0.188 C 
BRANCH   3   4
ATOM      4  C   UNL     1       2.203  -1.177  -1.266  1.00  0.00     0.188 C 
BRANCH   4   5
ATOM      5  O   UNL     1       3.544  -0.770  -0.987  1.00  0.00    -0.376 OA
BRANCH   5   6
ATOM      6  C   UNL     1       4.279  -1.638  -0.127  1.00  0.00     0.202 C 
BRANCH   6   7
ATOM      7  C   UNL     1       4.116  -1.324   1.362  1.00  0.00     0.261 C 
BRANCH   7   8
ATOM      8  O   UNL     1       2.754  -1.020   1.692  1.00  0.00    -0.460 OA
BRANCH   8   9
ATOM      9  C   UNL     1       2.170   0.203   1.778  1.00  0.00     0.338 C 
ATOM     10  O   UNL     1       0.983   0.250   2.101  1.00  0.00    -0.246 OA
BRANCH   9  11
ATOM     11  C   UNL     1       2.885   1.499   1.538  1.00  0.00     0.060 A 
ATOM     12  C   UNL     1       4.025   1.672   0.748  1.00  0.00     0.016 A 
ATOM     13  C   UNL     1       2.323   2.645   2.129  1.00  0.00     0.016 A 
ATOM     14  C   UNL     1       4.657   2.905   0.640  1.00  0.00     0.010 A 
ATOM     15  C   UNL     1       2.927   3.899   1.993  1.00  0.00     0.010 A 
ATOM     16  C   UNL     1       4.128   4.018   1.287  1.00  0.00    -0.014 A 
BRANCH  16  17
ATOM     17  C   UNL     1       4.949   5.240   1.358  1.00  0.00     0.031 A 
ATOM     18  C   UNL     1       5.678   5.519   2.639  1.00  0.00     0.074 A 
ATOM     19  C   UNL     1       5.116   6.011   0.270  1.00  0.00     0.049 A 
ATOM     20  N   UNL     1       6.444   6.527   2.954  1.00  0.00    -0.248 NA
ATOM     21  C   UNL     1       5.535   4.514   3.707  1.00  0.00     0.031 C 
ATOM     22  C   UNL     1       4.519   5.756  -1.042  1.00  0.00     0.029 A 
ATOM     23  N   UNL     1       5.844   7.157   0.091  1.00  0.00    -0.354 N 
ATOM     24  C   UNL     1       6.829   6.305   4.270  1.00  0.00     0.074 A 
ATOM     25  C   UNL     1       6.227   5.062   4.693  1.00  0.00     0.031 C 
ATOM     26  C   UNL     1       4.909   6.720  -1.894  1.00  0.00     0.029 A 
ATOM     27  C   UNL     1       5.738   7.682  -1.175  1.00  0.00     0.049 A 
ATOM     28  H   UNL     1       6.392   7.564   0.801  1.00  0.00     0.167 HD
ATOM     29  C   UNL     1       7.617   7.074   5.055  1.00  0.00     0.034 A 
ATOM     30  C   UNL     1       6.237   8.828  -1.677  1.00  0.00     0.034 A 
ATOM     31  C   UNL     1       8.216   8.298   4.606  1.00  0.00     0.049 A 
ATOM     32  C   UNL     1       7.073   9.692  -0.769  1.00  0.00     0.074 A 
ATOM     33  C   UNL     1       9.004   9.186   5.312  1.00  0.00     0.029 A 
ATOM     34  N   UNL     1       8.080   8.808   3.321  1.00  0.00    -0.354 N 
ATOM     35  N   UNL     1       7.450   9.466   0.469  1.00  0.00    -0.248 NA
ATOM     36  C   UNL     1       7.562  10.961  -1.323  1.00  0.00     0.031 C 
ATOM     37  C   UNL     1       9.327  10.246   4.457  1.00  0.00     0.029 A 
ATOM     38  C   UNL     1       8.762  10.004   3.212  1.00  0.00     0.049 A 
ATOM     39  H   UNL     1       7.572   8.380   2.595  1.00  0.00     0.167 HD
ATOM     40  C   UNL     1       8.237  10.550   0.835  1.00  0.00     0.074 A 
ATOM     41  C   UNL     1       8.302  11.422  -0.322  1.00  0.00     0.031 C 
ATOM     42  C   UNL     1       8.838  10.816   2.022  1.00  0.00     0.034 A 
BRANCH  29  43
ATOM     43  C   UNL     1       7.829   6.609   6.470  1.00  0.00     0.023 A 
ATOM     44  C   UNL     1       8.663   5.503   6.734  1.00  0.00     0.012 A 
ATOM     45  C   UNL     1       7.158   7.239   7.536  1.00  0.00     0.148 A 
ATOM     46  C   UNL     1       8.789   5.003   8.030  1.00  0.00     0.002 A 
ATOM     47  C   UNL     1       7.319   6.758   8.831  1.00  0.00     0.091 A 
ATOM     48  F   UNL     1       6.342   8.267   7.261  1.00  0.00    -0.205 F 
ATOM     49  C   UNL     1       8.122   5.633   9.078  1.00  0.00     0.022 A 
BRANCH  47  50
ATOM     50  S   UNL     1       6.537   7.534  10.249  1.00  0.00     0.127 S 
ATOM     51  O   UNL     1       5.476   6.578  10.561  1.00  0.00    -0.237 OA
ATOM     52  O   UNL     1       7.630   7.569  11.222  1.00  0.00    -0.237 OA
ATOM     53  O   UNL     1       6.091   8.843   9.793  1.00  0.00    -0.744 OA
ENDBRANCH  47  50
ENDBRANCH  29  43
BRANCH  30  54
ATOM     54  C   UNL     1       5.976   9.202  -3.097  1.00  0.00     0.023 A 
ATOM     55  C   UNL     1       7.040   9.229  -4.019  1.00  0.00     0.012 A 
ATOM     56  C   UNL     1       4.672   9.491  -3.551  1.00  0.00     0.148 A 
ATOM     57  C   UNL     1       6.815   9.552  -5.359  1.00  0.00     0.002 A 
ATOM     58  C   UNL     1       4.446   9.757  -4.898  1.00  0.00     0.091 A 
ATOM     59  F   UNL     1       3.673   9.485  -2.658  1.00  0.00    -0.205 F 
ATOM     60  C   UNL     1       5.518   9.803  -5.801  1.00  0.00     0.022 A 
BRANCH  58  61
ATOM     61  S   UNL     1       2.795   9.960  -5.577  1.00  0.00     0.127 S 
ATOM     62  O   UNL     1       2.777  11.384  -5.900  1.00  0.00    -0.237 OA
ATOM     63  O   UNL     1       2.832   9.066  -6.735  1.00  0.00    -0.237 OA
ATOM     64  O   UNL     1       1.881   9.538  -4.524  1.00  0.00    -0.744 OA
ENDBRANCH  58  61
ENDBRANCH  30  54
BRANCH  42  65
ATOM     65  C   UNL     1       9.637  12.086   2.121  1.00  0.00     0.023 A 
ATOM     66  C   UNL     1       8.970  13.321   2.235  1.00  0.00     0.012 A 
ATOM     67  C   UNL     1      11.041  12.041   2.206  1.00  0.00     0.148 A 
ATOM     68  C   UNL     1       9.694  14.498   2.411  1.00  0.00     0.002 A 
ATOM     69  C   UNL     1      11.752  13.212   2.431  1.00  0.00     0.091 A 
ATOM     70  F   UNL     1      11.653  10.855   2.073  1.00  0.00    -0.205 F 
ATOM     71  C   UNL     1      11.082  14.443   2.524  1.00  0.00     0.022 A 
BRANCH  69  72
ATOM     72  S   UNL     1      13.528  13.213   2.695  1.00  0.00     0.127 S 
ATOM     73  O   UNL     1      14.019  13.730   1.419  1.00  0.00    -0.237 OA
ATOM     74  O   UNL     1      13.676  14.133   3.824  1.00  0.00    -0.237 OA
ATOM     75  O   UNL     1      13.888  11.834   2.994  1.00  0.00    -0.744 OA
ENDBRANCH  69  72
ENDBRANCH  42  65
ENDBRANCH  16  17
ENDBRANCH   9  11
ENDBRANCH   8   9
ENDBRANCH   7   8
ENDBRANCH   6   7
ENDBRANCH   5   6
ENDBRANCH   4   5
ENDBRANCH   3   4
ENDBRANCH   2   3
ENDBRANCH   1   2
BRANCH   1  76
ATOM     76  C   UNL     1       4.651  -0.113  -3.636  1.00  0.00     0.188 C 
BRANCH  76  77
ATOM     77  O   UNL     1       3.831   1.034  -3.795  1.00  0.00    -0.376 OA
BRANCH  77  78
ATOM     78  C   UNL     1       3.965   1.733  -5.028  1.00  0.00     0.202 C 
BRANCH  78  79
ATOM     79  C   UNL     1       3.262   1.042  -6.200  1.00  0.00     0.261 C 
BRANCH  79  80
ATOM     80  O   UNL     1       3.816  -0.225  -6.602  1.00  0.00    -0.459 OA
BRANCH  80  81
ATOM     81  C   UNL     1       5.130  -0.313  -6.943  1.00  0.00     0.348 C 
ATOM     82  O   UNL     1       5.903   0.630  -7.049  1.00  0.00    -0.245 OA
BRANCH  81  83
ATOM     83  C   UNL     1       5.453  -1.718  -7.035  1.00  0.00     0.116 A 
ATOM     84  C   UNL     1       4.709  -2.706  -7.649  1.00  0.00     0.074 A 
ATOM     85  S   UNL     1       6.797  -2.376  -6.213  1.00  0.00    -0.133 S 
ATOM     86  C   UNL     1       5.091  -4.013  -7.243  1.00  0.00     0.131 A 
ATOM     87  C   UNL     1       6.216  -3.976  -6.448  1.00  0.00     0.112 A 
BRANCH  86  88
ATOM     88  O   UNL     1       4.499  -5.208  -7.510  1.00  0.00    -0.488 OA
BRANCH  88  89
ATOM     89  C   UNL     1       3.324  -5.169  -8.327  1.00  0.00     0.266 C 
BRANCH  89  90
ATOM     90  C   UNL     1       2.055  -5.053  -7.498  1.00  0.00     0.001 A 
ATOM     91  C   UNL     1       1.459  -3.783  -7.358  1.00  0.00     0.008 A 
ATOM     92  C   UNL     1       1.456  -6.150  -6.838  1.00  0.00     0.062 A 
ATOM     93  C   UNL     1       0.331  -3.582  -6.565  1.00  0.00     0.000 A 
ATOM     94  C   UNL     1       0.299  -5.927  -6.056  1.00  0.00     0.013 A 
ATOM     95  C   UNL     1      -0.250  -4.655  -5.911  1.00  0.00     0.001 A 
BRANCH  92  96
ATOM     96  C   UNL     1       1.925  -7.585  -6.958  1.00  0.00     0.416 C 
ATOM     97  F   UNL     1       1.915  -8.243  -5.763  1.00  0.00    -0.166 F 
ATOM     98  F   UNL     1       1.107  -8.310  -7.776  1.00  0.00    -0.166 F 
ATOM     99  F   UNL     1       3.178  -7.758  -7.455  1.00  0.00    -0.166 F 
ENDBRANCH  92  96
ENDBRANCH  89  90
ENDBRANCH  88  89
ENDBRANCH  86  88
ENDBRANCH  81  83
ENDBRANCH  80  81
ENDBRANCH  79  80
ENDBRANCH  78  79
ENDBRANCH  77  78
ENDBRANCH  76  77
ENDBRANCH   1  76
TORSDOF 27
