REMARK SMILES CN(CC(N)=O)c1ccccc1/C=C/C(=O)OCCOCCOCCOCCOC(=O)c1ccc(-c2c3nc(c(-c4cccc(S(=O)(=O)[O-])c4F)c4ccc([nH]4)c(-c4cccc(S(=O)(=O)[O-])c4F)c4nc(c(-c5cccc(S(=O)(=O)[O-])c5F)c5ccc2[nH]5)C=C4)C=C3)cc1
REMARK SMILES IDX 22 1 21 2 20 3 19 4 18 5 17 6 15 7 16 8 14 9 13 10 12 11
REMARK SMILES IDX 7 12 8 13 9 14 11 15 10 16 2 17 1 18 3 19 4 20 5 21 6 22
REMARK SMILES IDX 23 25 24 26 25 27 26 28 27 29 28 30 29 31 30 32 31 33 32 34
REMARK SMILES IDX 33 35 94 36 34 37 93 38 35 39 36 40 37 41 87 42 38 43 92 44
REMARK SMILES IDX 86 45 88 46 39 47 91 48 85 49 84 50 40 52 72 53 52 54 71 55
REMARK SMILES IDX 53 56 56 57 70 58 89 59 54 60 55 61 69 63 90 64 57 65 41 66
REMARK SMILES IDX 42 67 50 68 43 69 45 70 51 71 44 72 46 73 47 74 48 75 49 76
REMARK SMILES IDX 73 77 74 78 82 79 75 80 77 81 83 82 76 83 78 84 79 85 80 86
REMARK SMILES IDX 81 87 58 88 59 89 67 90 60 91 62 92 68 93 61 94 63 95 64 96
REMARK SMILES IDX 65 97 66 98
REMARK H PARENT 5 23 5 24 88 51 56 62
REMARK Flexibility Score: inf
ROOT
ATOM      1  C   UNL     1       5.845  -0.496  -1.810  1.00  0.00     0.188 C 
ENDROOT
BRANCH   1   2
ATOM      2  C   UNL     1       6.906   0.220  -0.955  1.00  0.00     0.188 C 
BRANCH   2   3
ATOM      3  O   UNL     1       7.597  -0.620  -0.050  1.00  0.00    -0.376 OA
BRANCH   3   4
ATOM      4  C   UNL     1       7.127  -0.855   1.268  1.00  0.00     0.202 C 
BRANCH   4   5
ATOM      5  C   UNL     1       5.658  -0.794   1.722  1.00  0.00     0.261 C 
BRANCH   5   6
ATOM      6  O   UNL     1       4.762  -0.004   0.949  1.00  0.00    -0.460 OA
BRANCH   6   7
ATOM      7  C   UNL     1       4.719   1.317   1.195  1.00  0.00     0.330 C 
ATOM      8  O   UNL     1       5.398   1.929   2.006  1.00  0.00    -0.247 OA
BRANCH   7   9
ATOM      9  C   UNL     1       3.786   1.988   0.265  1.00  0.00     0.094 C 
ATOM     10  C   UNL     1       3.053   1.355  -0.668  1.00  0.00     0.018 C 
BRANCH  10  11
ATOM     11  C   UNL     1       2.123   2.066  -1.558  1.00  0.00    -0.002 A 
ATOM     12  C   UNL     1       0.801   1.613  -1.786  1.00  0.00     0.044 A 
ATOM     13  C   UNL     1      -0.019   2.443  -2.575  1.00  0.00     0.026 A 
ATOM     14  C   UNL     1       0.450   3.608  -3.188  1.00  0.00     0.002 A 
ATOM     15  C   UNL     1       2.608   3.207  -2.235  1.00  0.00     0.010 A 
ATOM     16  C   UNL     1       1.778   3.974  -3.046  1.00  0.00     0.001 A 
BRANCH  12  17
ATOM     17  N   UNL     1       0.288   0.425  -1.279  1.00  0.00    -0.365 N 
ATOM     18  C   UNL     1       0.312   0.131   0.148  1.00  0.00     0.144 C 
BRANCH  17  19
ATOM     19  C   UNL     1      -0.415  -0.530  -2.154  1.00  0.00     0.215 C 
BRANCH  19  20
ATOM     20  C   UNL     1      -1.878  -0.145  -2.409  1.00  0.00     0.236 C 
ATOM     21  N   UNL     1      -2.236  -0.034  -3.729  1.00  0.00    -0.368 N 
ATOM     22  O   UNL     1      -2.703   0.104  -1.535  1.00  0.00    -0.273 OA
ATOM     23  H   UNL     1      -1.579  -0.231  -4.435  1.00  0.00     0.159 HD
ATOM     24  H   UNL     1      -3.149   0.244  -3.970  1.00  0.00     0.159 HD
ENDBRANCH  19  20
ENDBRANCH  17  19
ENDBRANCH  12  17
ENDBRANCH  10  11
ENDBRANCH   7   9
ENDBRANCH   6   7
ENDBRANCH   5   6
ENDBRANCH   4   5
ENDBRANCH   3   4
ENDBRANCH   2   3
ENDBRANCH   1   2
BRANCH   1  25
ATOM     25  O   UNL     1       5.316  -1.663  -1.210  1.00  0.00    -0.377 OA
BRANCH  25  26
ATOM     26  C   UNL     1       6.055  -2.880  -1.309  1.00  0.00     0.188 C 
BRANCH  26  27
ATOM     27  C   UNL     1       7.554  -2.913  -1.699  1.00  0.00     0.188 C 
BRANCH  27  28
ATOM     28  O   UNL     1       7.961  -1.913  -2.623  1.00  0.00    -0.376 OA
BRANCH  28  29
ATOM     29  C   UNL     1       8.199  -2.288  -3.968  1.00  0.00     0.202 C 
BRANCH  29  30
ATOM     30  C   UNL     1       6.981  -2.743  -4.784  1.00  0.00     0.261 C 
BRANCH  30  31
ATOM     31  O   UNL     1       6.232  -3.833  -4.232  1.00  0.00    -0.460 OA
BRANCH  31  32
ATOM     32  C   UNL     1       6.870  -5.016  -4.117  1.00  0.00     0.338 C 
ATOM     33  O   UNL     1       8.019  -5.267  -4.453  1.00  0.00    -0.246 OA
BRANCH  32  34
ATOM     34  C   UNL     1       6.006  -5.926  -3.343  1.00  0.00     0.060 A 
ATOM     35  C   UNL     1       6.494  -6.474  -2.149  1.00  0.00     0.016 A 
ATOM     36  C   UNL     1       4.726  -6.246  -3.801  1.00  0.00     0.016 A 
ATOM     37  C   UNL     1       5.723  -7.394  -1.440  1.00  0.00     0.010 A 
ATOM     38  C   UNL     1       3.962  -7.180  -3.098  1.00  0.00     0.010 A 
ATOM     39  C   UNL     1       4.478  -7.793  -1.942  1.00  0.00    -0.014 A 
BRANCH  39  40
ATOM     40  C   UNL     1       3.828  -9.014  -1.405  1.00  0.00     0.031 A 
ATOM     41  C   UNL     1       3.999 -10.299  -2.175  1.00  0.00     0.074 A 
ATOM     42  C   UNL     1       3.118  -8.995  -0.263  1.00  0.00     0.049 A 
ATOM     43  N   UNL     1       3.483 -11.477  -1.948  1.00  0.00    -0.248 NA
ATOM     44  C   UNL     1       4.870 -10.243  -3.363  1.00  0.00     0.031 C 
ATOM     45  C   UNL     1       2.901  -7.822   0.583  1.00  0.00     0.029 A 
ATOM     46  N   UNL     1       2.426  -9.998   0.369  1.00  0.00    -0.354 N 
ATOM     47  C   UNL     1       3.944 -12.294  -2.974  1.00  0.00     0.074 A 
ATOM     48  C   UNL     1       4.765 -11.475  -3.837  1.00  0.00     0.031 C 
ATOM     49  C   UNL     1       2.102  -8.167   1.608  1.00  0.00     0.029 A 
ATOM     50  C   UNL     1       1.728  -9.574   1.475  1.00  0.00     0.049 A 
ATOM     51  H   UNL     1       2.430 -10.933   0.059  1.00  0.00     0.167 HD
ATOM     52  C   UNL     1       3.722 -13.614  -3.172  1.00  0.00     0.034 A 
ATOM     53  C   UNL     1       0.865 -10.243   2.267  1.00  0.00     0.034 A 
ATOM     54  C   UNL     1       2.917 -14.431  -2.307  1.00  0.00     0.049 A 
ATOM     55  C   UNL     1       0.594 -11.703   1.991  1.00  0.00     0.074 A 
ATOM     56  C   UNL     1       2.640 -15.782  -2.413  1.00  0.00     0.029 A 
ATOM     57  N   UNL     1       2.257 -13.973  -1.179  1.00  0.00    -0.354 N 
ATOM     58  N   UNL     1       1.103 -12.480   1.065  1.00  0.00    -0.248 NA
ATOM     59  C   UNL     1      -0.345 -12.387   2.894  1.00  0.00     0.031 C 
ATOM     60  C   UNL     1       1.788 -16.136  -1.364  1.00  0.00     0.029 A 
ATOM     61  C   UNL     1       1.573 -15.015  -0.578  1.00  0.00     0.049 A 
ATOM     62  H   UNL     1       2.272 -13.045  -0.853  1.00  0.00     0.167 HD
ATOM     63  C   UNL     1       0.592 -13.751   1.311  1.00  0.00     0.074 A 
ATOM     64  C   UNL     1      -0.255 -13.643   2.479  1.00  0.00     0.031 C 
ATOM     65  C   UNL     1       0.796 -14.905   0.627  1.00  0.00     0.034 A 
BRANCH  52  66
ATOM     66  C   UNL     1       4.381 -14.269  -4.357  1.00  0.00     0.023 A 
ATOM     67  C   UNL     1       5.772 -14.496  -4.344  1.00  0.00     0.012 A 
ATOM     68  C   UNL     1       3.615 -14.725  -5.447  1.00  0.00     0.148 A 
ATOM     69  C   UNL     1       6.394 -15.145  -5.409  1.00  0.00     0.002 A 
ATOM     70  C   UNL     1       4.234 -15.413  -6.482  1.00  0.00     0.091 A 
ATOM     71  F   UNL     1       2.297 -14.480  -5.447  1.00  0.00    -0.205 F 
ATOM     72  C   UNL     1       5.625 -15.614  -6.471  1.00  0.00     0.022 A 
BRANCH  70  73
ATOM     73  S   UNL     1       3.325 -16.127  -7.856  1.00  0.00     0.127 S 
ATOM     74  O   UNL     1       3.835 -15.348  -8.984  1.00  0.00    -0.237 OA
ATOM     75  O   UNL     1       3.770 -17.520  -7.825  1.00  0.00    -0.237 OA
ATOM     76  O   UNL     1       1.914 -15.927  -7.556  1.00  0.00    -0.744 OA
ENDBRANCH  70  73
ENDBRANCH  52  66
BRANCH  53  77
ATOM     77  C   UNL     1       0.189  -9.559   3.408  1.00  0.00     0.023 A 
ATOM     78  C   UNL     1       0.459  -9.969   4.729  1.00  0.00     0.012 A 
ATOM     79  C   UNL     1      -0.758  -8.541   3.189  1.00  0.00     0.148 A 
ATOM     80  C   UNL     1      -0.241  -9.419   5.804  1.00  0.00     0.002 A 
ATOM     81  C   UNL     1      -1.407  -7.954   4.269  1.00  0.00     0.091 A 
ATOM     82  F   UNL     1      -1.017  -8.174   1.926  1.00  0.00    -0.205 F 
ATOM     83  C   UNL     1      -1.169  -8.407   5.575  1.00  0.00     0.022 A 
BRANCH  81  84
ATOM     84  S   UNL     1      -2.526  -6.562   4.075  1.00  0.00     0.127 S 
ATOM     85  O   UNL     1      -3.821  -7.180   4.347  1.00  0.00    -0.237 OA
ATOM     86  O   UNL     1      -2.048  -5.647   5.112  1.00  0.00    -0.237 OA
ATOM     87  O   UNL     1      -2.322  -6.085   2.714  1.00  0.00    -0.744 OA
ENDBRANCH  81  84
ENDBRANCH  53  77
BRANCH  65  88
ATOM     88  C   UNL     1       0.170 -16.165   1.168  1.00  0.00     0.023 A 
ATOM     89  C   UNL     1      -1.223 -16.359   1.095  1.00  0.00     0.012 A 
ATOM     90  C   UNL     1       0.985 -17.192   1.686  1.00  0.00     0.148 A 
ATOM     91  C   UNL     1      -1.799 -17.538   1.568  1.00  0.00     0.002 A 
ATOM     92  C   UNL     1       0.410 -18.386   2.102  1.00  0.00     0.091 A 
ATOM     93  F   UNL     1       2.308 -16.983   1.760  1.00  0.00    -0.205 F 
ATOM     94  C   UNL     1      -0.983 -18.555   2.059  1.00  0.00     0.022 A 
BRANCH  92  95
ATOM     95  S   UNL     1       1.391 -19.787   2.651  1.00  0.00     0.127 S 
ATOM     96  O   UNL     1       1.096 -19.813   4.083  1.00  0.00    -0.237 OA
ATOM     97  O   UNL     1       0.807 -20.890   1.888  1.00  0.00    -0.237 OA
ATOM     98  O   UNL     1       2.770 -19.475   2.304  1.00  0.00    -0.744 OA
ENDBRANCH  92  95
ENDBRANCH  65  88
ENDBRANCH  39  40
ENDBRANCH  32  34
ENDBRANCH  31  32
ENDBRANCH  30  31
ENDBRANCH  29  30
ENDBRANCH  28  29
ENDBRANCH  27  28
ENDBRANCH  26  27
ENDBRANCH  25  26
ENDBRANCH   1  25
TORSDOF 27
