REMARK SMILES O=C(OCCOCCOCCOCCOC(=O)[C@H]1CCCN(c2cc(-c3ccccn3)nc(-c3ccccc3F)n2)C1)c1ccc(-c2c3nc(c(-c4cccc(S(=O)(=O)[O-])c4F)c4ccc([nH]4)c(-c4cccc(S(=O)(=O)[O-])c4F)c4nc(c(-c5cccc(S(=O)(=O)[O-])c5F)c5ccc2[nH]5)C=C4)C=C3)cc1
REMARK SMILES IDX 8 1 7 2 6 3 5 4 4 5 3 6 2 7 1 8 43 9 44 10 105 11 45 12
REMARK SMILES IDX 104 13 46 14 47 15 48 16 98 17 49 18 103 19 97 20 99 21
REMARK SMILES IDX 50 22 102 23 96 24 95 25 51 27 83 28 63 29 82 30 64 31 67 32
REMARK SMILES IDX 81 33 100 34 65 35 66 36 80 38 101 39 68 40 52 41 53 42
REMARK SMILES IDX 61 43 54 44 56 45 62 46 55 47 57 48 58 49 59 50 60 51 84 52
REMARK SMILES IDX 85 53 93 54 86 55 88 56 94 57 87 58 89 59 90 60 91 61 92 62
REMARK SMILES IDX 69 63 70 64 78 65 71 66 73 67 79 68 72 69 74 70 75 71 76 72
REMARK SMILES IDX 77 73 9 74 10 75 11 76 12 77 13 78 14 79 15 80 16 81 17 82
REMARK SMILES IDX 18 83 19 84 42 85 20 86 22 87 21 88 23 89 24 90 41 91 25 92
REMARK SMILES IDX 33 93 32 94 26 95 27 96 31 97 28 98 30 99 29 100 34 101
REMARK SMILES IDX 35 102 39 103 36 104 38 105 40 106 37 107
REMARK H PARENT 99 26 67 37
REMARK Flexibility Score: inf
ROOT
ATOM      1  C   UNL     1       5.653  -1.928   1.623  1.00  0.00     0.188 C 
ENDROOT
BRANCH   1   2
ATOM      2  C   UNL     1       5.132  -2.383   2.993  1.00  0.00     0.188 C 
BRANCH   2   3
ATOM      3  O   UNL     1       5.515  -3.715   3.350  1.00  0.00    -0.376 OA
BRANCH   3   4
ATOM      4  C   UNL     1       4.516  -4.611   3.851  1.00  0.00     0.202 C 
BRANCH   4   5
ATOM      5  C   UNL     1       3.765  -4.213   5.121  1.00  0.00     0.261 C 
BRANCH   5   6
ATOM      6  O   UNL     1       3.821  -2.826   5.473  1.00  0.00    -0.460 OA
BRANCH   6   7
ATOM      7  C   UNL     1       4.816  -2.100   6.033  1.00  0.00     0.338 C 
ATOM      8  O   UNL     1       4.603  -0.903   6.228  1.00  0.00    -0.246 OA
BRANCH   7   9
ATOM      9  C   UNL     1       6.177  -2.627   6.361  1.00  0.00     0.060 A 
ATOM     10  C   UNL     1       6.715  -3.825   5.897  1.00  0.00     0.016 A 
ATOM     11  C   UNL     1       7.008  -1.804   7.138  1.00  0.00     0.016 A 
ATOM     12  C   UNL     1       8.024  -4.192   6.117  1.00  0.00     0.010 A 
ATOM     13  C   UNL     1       8.308  -2.200   7.453  1.00  0.00     0.010 A 
ATOM     14  C   UNL     1       8.800  -3.406   6.946  1.00  0.00    -0.014 A 
BRANCH  14  15
ATOM     15  C   UNL     1       9.980  -4.059   7.506  1.00  0.00     0.031 A 
ATOM     16  C   UNL     1       9.797  -4.714   8.836  1.00  0.00     0.074 A 
ATOM     17  C   UNL     1      11.087  -4.202   6.762  1.00  0.00     0.049 A 
ATOM     18  N   UNL     1      10.692  -5.196   9.645  1.00  0.00    -0.248 NA
ATOM     19  C   UNL     1       8.407  -4.862   9.320  1.00  0.00     0.031 C 
ATOM     20  C   UNL     1      11.231  -3.784   5.365  1.00  0.00     0.029 A 
ATOM     21  N   UNL     1      12.299  -4.740   7.081  1.00  0.00    -0.354 N 
ATOM     22  C   UNL     1       9.986  -5.625  10.760  1.00  0.00     0.074 A 
ATOM     23  C   UNL     1       8.584  -5.403  10.514  1.00  0.00     0.031 C 
ATOM     24  C   UNL     1      12.486  -4.041   4.961  1.00  0.00     0.029 A 
ATOM     25  C   UNL     1      13.240  -4.558   6.096  1.00  0.00     0.049 A 
ATOM     26  H   UNL     1      12.481  -5.210   7.927  1.00  0.00     0.167 HD
ATOM     27  C   UNL     1      10.496  -6.135  11.898  1.00  0.00     0.034 A 
ATOM     28  C   UNL     1      14.573  -4.722   6.163  1.00  0.00     0.034 A 
ATOM     29  C   UNL     1      11.904  -6.335  12.072  1.00  0.00     0.049 A 
ATOM     30  C   UNL     1      15.130  -5.189   7.484  1.00  0.00     0.074 A 
ATOM     31  C   UNL     1      12.587  -6.758  13.192  1.00  0.00     0.029 A 
ATOM     32  N   UNL     1      12.845  -6.118  11.073  1.00  0.00    -0.354 N 
ATOM     33  N   UNL     1      14.486  -5.525   8.580  1.00  0.00    -0.248 NA
ATOM     34  C   UNL     1      16.588  -5.304   7.583  1.00  0.00     0.031 C 
ATOM     35  C   UNL     1      13.949  -6.773  12.875  1.00  0.00     0.029 A 
ATOM     36  C   UNL     1      14.107  -6.402  11.545  1.00  0.00     0.049 A 
ATOM     37  H   UNL     1      12.640  -5.807  10.162  1.00  0.00     0.167 HD
ATOM     38  C   UNL     1      15.455  -5.920   9.490  1.00  0.00     0.074 A 
ATOM     39  C   UNL     1      16.729  -5.809   8.801  1.00  0.00     0.031 C 
ATOM     40  C   UNL     1      15.327  -6.316  10.782  1.00  0.00     0.034 A 
BRANCH  27  41
ATOM     41  C   UNL     1       9.551  -6.441  13.022  1.00  0.00     0.023 A 
ATOM     42  C   UNL     1       8.720  -7.577  12.965  1.00  0.00     0.012 A 
ATOM     43  C   UNL     1       9.515  -5.611  14.159  1.00  0.00     0.148 A 
ATOM     44  C   UNL     1       7.862  -7.878  14.024  1.00  0.00     0.002 A 
ATOM     45  C   UNL     1       8.694  -5.942  15.227  1.00  0.00     0.091 A 
ATOM     46  F   UNL     1      10.286  -4.514  14.170  1.00  0.00    -0.205 F 
ATOM     47  C   UNL     1       7.860  -7.070  15.159  1.00  0.00     0.022 A 
BRANCH  45  48
ATOM     48  S   UNL     1       8.665  -5.007  16.759  1.00  0.00     0.127 S 
ATOM     49  O   UNL     1       7.256  -4.633  16.856  1.00  0.00    -0.237 OA
ATOM     50  O   UNL     1       9.104  -6.004  17.730  1.00  0.00    -0.237 OA
ATOM     51  O   UNL     1       9.581  -3.885  16.565  1.00  0.00    -0.744 OA
ENDBRANCH  45  48
ENDBRANCH  27  41
BRANCH  28  52
ATOM     52  C   UNL     1      15.449  -4.405   4.999  1.00  0.00     0.023 A 
ATOM     53  C   UNL     1      16.213  -5.429   4.408  1.00  0.00     0.012 A 
ATOM     54  C   UNL     1      15.536  -3.100   4.470  1.00  0.00     0.148 A 
ATOM     55  C   UNL     1      17.074  -5.154   3.344  1.00  0.00     0.002 A 
ATOM     56  C   UNL     1      16.350  -2.844   3.372  1.00  0.00     0.091 A 
ATOM     57  F   UNL     1      14.820  -2.126   5.052  1.00  0.00    -0.205 F 
ATOM     58  C   UNL     1      17.136  -3.866   2.820  1.00  0.00     0.022 A 
BRANCH  56  59
ATOM     59  S   UNL     1      16.397  -1.245   2.554  1.00  0.00     0.127 S 
ATOM     60  O   UNL     1      17.713  -0.748   2.942  1.00  0.00    -0.237 OA
ATOM     61  O   UNL     1      16.270  -1.620   1.145  1.00  0.00    -0.237 OA
ATOM     62  O   UNL     1      15.258  -0.502   3.079  1.00  0.00    -0.744 OA
ENDBRANCH  56  59
ENDBRANCH  28  52
BRANCH  40  63
ATOM     63  C   UNL     1      16.587  -6.700  11.501  1.00  0.00     0.023 A 
ATOM     64  C   UNL     1      17.503  -5.704  11.889  1.00  0.00     0.012 A 
ATOM     65  C   UNL     1      16.805  -8.039  11.874  1.00  0.00     0.148 A 
ATOM     66  C   UNL     1      18.644  -6.045  12.609  1.00  0.00     0.002 A 
ATOM     67  C   UNL     1      17.909  -8.360  12.647  1.00  0.00     0.091 A 
ATOM     68  F   UNL     1      15.923  -8.968  11.476  1.00  0.00    -0.205 F 
ATOM     69  C   UNL     1      18.839  -7.368  13.001  1.00  0.00     0.022 A 
BRANCH  67  70
ATOM     70  S   UNL     1      18.163 -10.010  13.304  1.00  0.00     0.127 S 
ATOM     71  O   UNL     1      19.256 -10.498  12.466  1.00  0.00    -0.237 OA
ATOM     72  O   UNL     1      18.532  -9.736  14.693  1.00  0.00    -0.237 OA
ATOM     73  O   UNL     1      16.892 -10.705  13.144  1.00  0.00    -0.744 OA
ENDBRANCH  67  70
ENDBRANCH  40  63
ENDBRANCH  14  15
ENDBRANCH   7   9
ENDBRANCH   6   7
ENDBRANCH   5   6
ENDBRANCH   4   5
ENDBRANCH   3   4
ENDBRANCH   2   3
ENDBRANCH   1   2
BRANCH   1  74
ATOM     74  O   UNL     1       5.259  -2.669   0.478  1.00  0.00    -0.377 OA
BRANCH  74  75
ATOM     75  C   UNL     1       4.874  -3.999   0.733  1.00  0.00     0.188 C 
BRANCH  75  76
ATOM     76  C   UNL     1       5.975  -5.080   0.886  1.00  0.00     0.188 C 
BRANCH  76  77
ATOM     77  O   UNL     1       7.276  -4.635   1.184  1.00  0.00    -0.376 OA
BRANCH  77  78
ATOM     78  C   UNL     1       8.017  -3.936   0.195  1.00  0.00     0.202 C 
BRANCH  78  79
ATOM     79  C   UNL     1       7.542  -3.695  -1.263  1.00  0.00     0.261 C 
BRANCH  79  80
ATOM     80  O   UNL     1       6.294  -4.288  -1.697  1.00  0.00    -0.463 OA
BRANCH  80  81
ATOM     81  C   UNL     1       6.352  -5.399  -2.472  1.00  0.00     0.310 C 
ATOM     82  O   UNL     1       7.404  -5.886  -2.872  1.00  0.00    -0.252 OA
BRANCH  81  83
ATOM     83  C   UNL     1       4.969  -6.000  -2.823  1.00  0.00     0.118 C 
ATOM     84  C   UNL     1       5.161  -7.512  -2.985  1.00  0.00     0.019 C 
ATOM     85  C   UNL     1       3.866  -5.729  -1.796  1.00  0.00     0.133 C 
ATOM     86  C   UNL     1       3.838  -8.252  -3.145  1.00  0.00     0.022 C 
ATOM     87  N   UNL     1       2.661  -6.575  -1.875  1.00  0.00    -0.356 N 
ATOM     88  C   UNL     1       2.905  -8.003  -1.963  1.00  0.00     0.118 C 
BRANCH  87  89
ATOM     89  C   UNL     1       1.516  -6.058  -1.275  1.00  0.00     0.133 A 
ATOM     90  C   UNL     1       0.660  -6.789  -0.464  1.00  0.00     0.077 A 
ATOM     91  N   UNL     1       1.221  -4.782  -1.560  1.00  0.00    -0.211 NA
ATOM     92  C   UNL     1      -0.494  -6.165   0.005  1.00  0.00     0.095 A 
ATOM     93  C   UNL     1       0.082  -4.246  -1.079  1.00  0.00     0.165 A 
ATOM     94  N   UNL     1      -0.790  -4.885  -0.294  1.00  0.00    -0.226 NA
BRANCH  92  95
ATOM     95  C   UNL     1      -1.507  -6.866   0.818  1.00  0.00     0.089 A 
ATOM     96  C   UNL     1      -1.341  -7.096   2.184  1.00  0.00     0.030 A 
ATOM     97  N   UNL     1      -2.644  -7.231   0.165  1.00  0.00    -0.255 NA
ATOM     98  C   UNL     1      -2.374  -7.701   2.903  1.00  0.00     0.004 A 
ATOM     99  C   UNL     1      -3.635  -7.796   0.892  1.00  0.00     0.112 A 
ATOM    100  C   UNL     1      -3.547  -8.053   2.248  1.00  0.00     0.020 A 
ENDBRANCH  92  95
BRANCH  93 101
ATOM    101  C   UNL     1      -0.270  -2.919  -1.582  1.00  0.00     0.055 A 
ATOM    102  C   UNL     1      -0.078  -2.609  -2.945  1.00  0.00     0.015 A 
ATOM    103  C   UNL     1      -0.786  -1.914  -0.759  1.00  0.00     0.134 A 
ATOM    104  C   UNL     1      -0.379  -1.344  -3.455  1.00  0.00     0.001 A 
ATOM    105  C   UNL     1      -1.082  -0.643  -1.260  1.00  0.00     0.040 A 
ATOM    106  F   UNL     1      -0.979  -2.130   0.551  1.00  0.00    -0.206 F 
ATOM    107  C   UNL     1      -0.876  -0.357  -2.609  1.00  0.00     0.003 A 
ENDBRANCH  93 101
ENDBRANCH  87  89
ENDBRANCH  81  83
ENDBRANCH  80  81
ENDBRANCH  79  80
ENDBRANCH  78  79
ENDBRANCH  77  78
ENDBRANCH  76  77
ENDBRANCH  75  76
ENDBRANCH  74  75
ENDBRANCH   1  74
TORSDOF 26
