REMARK SMILES Cc1ccc(C(=O)Nc2ccc(C(=O)OCCOCCOCCOCCOC(=O)c3ccc(-c4c5nc(c(-c6cccc(S(=O)(=O)[O-])c6F)c6ccc([nH]6)c(-c6cccc(S(=O)(=O)[O-])c6F)c6nc(c(-c7cccc(S(=O)(=O)[O-])c7F)c7ccc4[nH]7)C=C6)C=C5)cc3)c(Cl)c2)cc1C
REMARK SMILES IDX 22 1 21 2 20 3 19 4 18 5 17 6 16 7 15 8 13 9 14 10 12 11
REMARK SMILES IDX 9 12 10 13 95 14 11 15 93 16 94 17 8 18 6 19 7 20 5 22 1 23
REMARK SMILES IDX 2 24 3 25 97 26 4 27 96 28 98 29 23 30 24 31 25 32 26 33
REMARK SMILES IDX 27 34 28 35 29 36 30 37 31 38 92 39 32 40 91 41 33 42 34 43
REMARK SMILES IDX 35 44 85 45 36 46 90 47 84 48 86 49 37 50 89 51 83 52 82 53
REMARK SMILES IDX 38 55 70 56 50 57 69 58 51 59 54 60 68 61 87 62 52 63 53 64
REMARK SMILES IDX 67 66 88 67 55 68 39 69 40 70 48 71 41 72 43 73 49 74 42 75
REMARK SMILES IDX 44 76 45 77 46 78 47 79 71 80 72 81 80 82 73 83 75 84 81 85
REMARK SMILES IDX 74 86 76 87 77 88 78 89 79 90 56 91 57 92 65 93 58 94 60 95
REMARK SMILES IDX 66 96 59 97 61 98 62 99 63 100 64 101
REMARK H PARENT 8 21 86 54 54 65
REMARK Flexibility Score: inf
ROOT
ATOM      1  C   UNL     1      -3.503   6.788   3.042  1.00  0.00     0.188 C 
ENDROOT
BRANCH   1   2
ATOM      2  O   UNL     1      -3.651   5.434   2.628  1.00  0.00    -0.377 OA
BRANCH   2   3
ATOM      3  C   UNL     1      -3.018   4.964   1.448  1.00  0.00     0.188 C 
BRANCH   3   4
ATOM      4  C   UNL     1      -2.943   5.844   0.180  1.00  0.00     0.188 C 
BRANCH   4   5
ATOM      5  O   UNL     1      -3.364   7.181   0.362  1.00  0.00    -0.376 OA
BRANCH   5   6
ATOM      6  C   UNL     1      -4.595   7.605  -0.193  1.00  0.00     0.202 C 
BRANCH   6   7
ATOM      7  C   UNL     1      -5.879   6.838   0.148  1.00  0.00     0.261 C 
BRANCH   7   8
ATOM      8  O   UNL     1      -5.746   5.414   0.195  1.00  0.00    -0.460 OA
BRANCH   8   9
ATOM      9  C   UNL     1      -5.860   4.729  -0.961  1.00  0.00     0.339 C 
ATOM     10  O   UNL     1      -5.973   5.199  -2.080  1.00  0.00    -0.246 OA
BRANCH   9  11
ATOM     11  C   UNL     1      -5.558   3.304  -0.687  1.00  0.00     0.078 A 
ATOM     12  C   UNL     1      -4.704   0.680  -0.158  1.00  0.00     0.043 A 
ATOM     13  C   UNL     1      -4.144   1.393  -1.219  1.00  0.00     0.027 A 
ATOM     14  C   UNL     1      -5.738   1.254   0.588  1.00  0.00     0.047 A 
ATOM     15  C   UNL     1      -4.572   2.699  -1.485  1.00  0.00     0.019 A 
ATOM     16  C   UNL     1      -6.151   2.571   0.346  1.00  0.00     0.057 A 
ATOM     17  Cl  UNL     1      -7.394   3.204   1.360  1.00  0.00    -0.083 Cl
BRANCH  12  18
ATOM     18  N   UNL     1      -4.295  -0.613   0.196  1.00  0.00    -0.322 N 
ATOM     19  C   UNL     1      -3.077  -1.254   0.115  1.00  0.00     0.255 C 
ATOM     20  O   UNL     1      -3.069  -2.487   0.139  1.00  0.00    -0.269 OA
ATOM     21  H   UNL     1      -5.014  -1.169   0.574  1.00  0.00     0.170 HD
BRANCH  19  22
ATOM     22  C   UNL     1      -1.769  -0.526   0.134  1.00  0.00     0.040 A 
ATOM     23  C   UNL     1       2.088   1.448   0.083  1.00  0.00     0.044 C 
ATOM     24  C   UNL     1       0.778   0.715   0.139  1.00  0.00    -0.048 A 
ATOM     25  C   UNL     1      -0.378   1.431   0.480  1.00  0.00     0.004 A 
ATOM     26  C   UNL     1       0.675  -0.667  -0.094  1.00  0.00    -0.047 A 
ATOM     27  C   UNL     1      -1.625   0.805   0.524  1.00  0.00     0.014 A 
ATOM     28  C   UNL     1      -0.602  -1.262  -0.131  1.00  0.00     0.017 A 
ATOM     29  C   UNL     1       1.874  -1.567  -0.229  1.00  0.00     0.044 C 
ENDBRANCH  19  22
ENDBRANCH  12  18
ENDBRANCH   9  11
ENDBRANCH   8   9
ENDBRANCH   7   8
ENDBRANCH   6   7
ENDBRANCH   5   6
ENDBRANCH   4   5
ENDBRANCH   3   4
ENDBRANCH   2   3
ENDBRANCH   1   2
BRANCH   1  30
ATOM     30  C   UNL     1      -2.178   7.545   2.801  1.00  0.00     0.188 C 
BRANCH  30  31
ATOM     31  O   UNL     1      -1.146   6.751   2.236  1.00  0.00    -0.376 OA
BRANCH  31  32
ATOM     32  C   UNL     1      -0.073   6.396   3.090  1.00  0.00     0.202 C 
BRANCH  32  33
ATOM     33  C   UNL     1      -0.413   5.500   4.290  1.00  0.00     0.261 C 
BRANCH  33  34
ATOM     34  O   UNL     1      -1.433   5.987   5.175  1.00  0.00    -0.460 OA
BRANCH  34  35
ATOM     35  C   UNL     1      -1.163   7.119   5.867  1.00  0.00     0.338 C 
ATOM     36  O   UNL     1      -0.144   7.776   5.826  1.00  0.00    -0.246 OA
BRANCH  35  37
ATOM     37  C   UNL     1      -2.412   7.532   6.546  1.00  0.00     0.060 A 
ATOM     38  C   UNL     1      -2.974   8.777   6.237  1.00  0.00     0.016 A 
ATOM     39  C   UNL     1      -3.025   6.687   7.473  1.00  0.00     0.016 A 
ATOM     40  C   UNL     1      -4.135   9.197   6.888  1.00  0.00     0.010 A 
ATOM     41  C   UNL     1      -4.178   7.117   8.136  1.00  0.00     0.010 A 
ATOM     42  C   UNL     1      -4.717   8.388   7.873  1.00  0.00    -0.014 A 
BRANCH  42  43
ATOM     43  C   UNL     1      -5.776   8.947   8.749  1.00  0.00     0.031 A 
ATOM     44  C   UNL     1      -5.389   9.442  10.117  1.00  0.00     0.074 A 
ATOM     45  C   UNL     1      -7.054   9.024   8.340  1.00  0.00     0.049 A 
ATOM     46  N   UNL     1      -6.137   9.963  11.053  1.00  0.00    -0.248 NA
ATOM     47  C   UNL     1      -3.965   9.331  10.476  1.00  0.00     0.031 C 
ATOM     48  C   UNL     1      -7.556   8.580   7.041  1.00  0.00     0.029 A 
ATOM     49  N   UNL     1      -8.170   9.487   8.992  1.00  0.00    -0.354 N 
ATOM     50  C   UNL     1      -5.284  10.215  12.121  1.00  0.00     0.074 A 
ATOM     51  C   UNL     1      -3.965   9.777  11.723  1.00  0.00     0.031 C 
ATOM     52  C   UNL     1      -8.886   8.770   7.000  1.00  0.00     0.029 A 
ATOM     53  C   UNL     1      -9.333   9.324   8.277  1.00  0.00     0.049 A 
ATOM     54  H   UNL     1      -8.140   9.897   9.887  1.00  0.00     0.167 HD
ATOM     55  C   UNL     1      -5.569  10.774  13.321  1.00  0.00     0.034 A 
ATOM     56  C   UNL     1     -10.612   9.573   8.624  1.00  0.00     0.034 A 
ATOM     57  C   UNL     1      -6.879  11.216  13.714  1.00  0.00     0.049 A 
ATOM     58  C   UNL     1     -10.907  10.169   9.977  1.00  0.00     0.074 A 
ATOM     59  C   UNL     1      -7.261  11.838  14.889  1.00  0.00     0.029 A 
ATOM     60  N   UNL     1      -8.027  11.064  12.952  1.00  0.00    -0.354 N 
ATOM     61  N   UNL     1     -10.075  10.515  10.930  1.00  0.00    -0.248 NA
ATOM     62  C   UNL     1     -12.318  10.443  10.289  1.00  0.00     0.031 C 
ATOM     63  C   UNL     1      -8.646  12.026  14.854  1.00  0.00     0.029 A 
ATOM     64  C   UNL     1      -9.121  11.564  13.638  1.00  0.00     0.049 A 
ATOM     65  H   UNL     1      -8.060  10.661  12.054  1.00  0.00     0.167 HD
ATOM     66  C   UNL     1     -10.854  11.079  11.935  1.00  0.00     0.074 A 
ATOM     67  C   UNL     1     -12.224  11.050  11.464  1.00  0.00     0.031 C 
ATOM     68  C   UNL     1     -10.475  11.568  13.142  1.00  0.00     0.034 A 
BRANCH  55  69
ATOM     69  C   UNL     1      -4.434  10.944  14.297  1.00  0.00     0.023 A 
ATOM     70  C   UNL     1      -3.432  11.905  14.050  1.00  0.00     0.012 A 
ATOM     71  C   UNL     1      -4.383  10.182  15.480  1.00  0.00     0.148 A 
ATOM     72  C   UNL     1      -2.378  12.079  14.947  1.00  0.00     0.002 A 
ATOM     73  C   UNL     1      -3.357  10.395  16.393  1.00  0.00     0.091 A 
ATOM     74  F   UNL     1      -5.331   9.257  15.686  1.00  0.00    -0.205 F 
ATOM     75  C   UNL     1      -2.347  11.332  16.122  1.00  0.00     0.022 A 
BRANCH  73  76
ATOM     76  S   UNL     1      -3.272   9.543  17.971  1.00  0.00     0.127 S 
ATOM     77  O   UNL     1      -2.108   8.679  17.778  1.00  0.00    -0.237 OA
ATOM     78  O   UNL     1      -3.062  10.649  18.905  1.00  0.00    -0.237 OA
ATOM     79  O   UNL     1      -4.544   8.851  18.125  1.00  0.00    -0.744 OA
ENDBRANCH  73  76
ENDBRANCH  55  69
BRANCH  56  80
ATOM     80  C   UNL     1     -11.716   9.283   7.665  1.00  0.00     0.023 A 
ATOM     81  C   UNL     1     -12.448  10.344   7.099  1.00  0.00     0.012 A 
ATOM     82  C   UNL     1     -12.041   7.959   7.310  1.00  0.00     0.148 A 
ATOM     83  C   UNL     1     -13.505  10.092   6.223  1.00  0.00     0.002 A 
ATOM     84  C   UNL     1     -13.057   7.717   6.393  1.00  0.00     0.091 A 
ATOM     85  F   UNL     1     -11.344   6.962   7.873  1.00  0.00    -0.205 F 
ATOM     86  C   UNL     1     -13.802   8.781   5.863  1.00  0.00     0.022 A 
BRANCH  84  87
ATOM     87  S   UNL     1     -13.430   6.072   5.776  1.00  0.00     0.127 S 
ATOM     88  O   UNL     1     -14.763   5.841   6.327  1.00  0.00    -0.237 OA
ATOM     89  O   UNL     1     -13.388   6.281   4.329  1.00  0.00    -0.237 OA
ATOM     90  O   UNL     1     -12.377   5.208   6.292  1.00  0.00    -0.744 OA
ENDBRANCH  84  87
ENDBRANCH  56  80
BRANCH  68  91
ATOM     91  C   UNL     1     -11.545  12.155  14.029  1.00  0.00     0.023 A 
ATOM     92  C   UNL     1     -12.502  11.315  14.633  1.00  0.00     0.012 A 
ATOM     93  C   UNL     1     -11.565  13.536  14.310  1.00  0.00     0.148 A 
ATOM     94  C   UNL     1     -13.489  11.847  15.464  1.00  0.00     0.002 A 
ATOM     95  C   UNL     1     -12.517  14.050  15.182  1.00  0.00     0.091 A 
ATOM     96  F   UNL     1     -10.656  14.323  13.716  1.00  0.00    -0.205 F 
ATOM     97  C   UNL     1     -13.490  13.210  15.747  1.00  0.00     0.022 A 
BRANCH  95  98
ATOM     98  S   UNL     1     -12.533  15.776  15.683  1.00  0.00     0.127 S 
ATOM     99  O   UNL     1     -13.709  16.280  14.976  1.00  0.00    -0.237 OA
ATOM    100  O   UNL     1     -12.690  15.676  17.134  1.00  0.00    -0.237 OA
ATOM    101  O   UNL     1     -11.258  16.331  15.251  1.00  0.00    -0.744 OA
ENDBRANCH  95  98
ENDBRANCH  68  91
ENDBRANCH  42  43
ENDBRANCH  35  37
ENDBRANCH  34  35
ENDBRANCH  33  34
ENDBRANCH  32  33
ENDBRANCH  31  32
ENDBRANCH  30  31
ENDBRANCH   1  30
TORSDOF 25
