REMARK SMILES CSCC[C@@H](NC(=O)[C@@H]1CC(=O)N(C)C1)C(=O)OCCOCCOCCOCCOC(=O)c1ccc(-c2c3nc(c(-c4cccc(S(=O)(=O)[O-])c4F)c4ccc([nH]4)c(-c4cccc(S(=O)(=O)[O-])c4F)c4nc(c(-c5cccc(S(=O)(=O)[O-])c5F)c5ccc2[nH]5)C=C4)C=C3)cc1
REMARK SMILES IDX 24 1 23 2 22 3 21 4 20 5 19 6 18 7 16 8 17 9 5 10 4 11 3 12
REMARK SMILES IDX 2 13 1 14 6 15 7 16 8 18 9 19 10 20 15 21 11 22 13 23 12 24
REMARK SMILES IDX 14 25 25 26 26 27 27 28 28 29 29 30 30 31 31 32 32 33 33 34
REMARK SMILES IDX 34 35 95 36 35 37 94 38 36 39 37 40 38 41 88 42 39 43 93 44
REMARK SMILES IDX 87 45 89 46 40 47 92 48 86 49 85 50 41 52 73 53 53 54 72 55
REMARK SMILES IDX 54 56 57 57 71 58 90 59 55 60 56 61 70 63 91 64 58 65 42 66
REMARK SMILES IDX 43 67 51 68 44 69 46 70 52 71 45 72 47 73 48 74 49 75 50 76
REMARK SMILES IDX 74 77 75 78 83 79 76 80 78 81 84 82 77 83 79 84 80 85 81 86
REMARK SMILES IDX 82 87 59 88 60 89 68 90 61 91 63 92 69 93 62 94 64 95 65 96
REMARK SMILES IDX 66 97 67 98
REMARK H PARENT 6 17 89 51 57 62
REMARK Flexibility Score: inf
ROOT
ATOM      1  O   UNL     1      -1.407  -3.886   3.140  1.00  0.00    -0.377 OA
ENDROOT
BRANCH   1   2
ATOM      2  C   UNL     1      -1.985  -3.187   2.054  1.00  0.00     0.188 C 
BRANCH   2   3
ATOM      3  C   UNL     1      -2.155  -3.948   0.724  1.00  0.00     0.188 C 
BRANCH   3   4
ATOM      4  O   UNL     1      -2.271  -5.358   0.707  1.00  0.00    -0.376 OA
BRANCH   4   5
ATOM      5  C   UNL     1      -1.200  -6.178   1.140  1.00  0.00     0.202 C 
BRANCH   5   6
ATOM      6  C   UNL     1       0.247  -5.711   1.083  1.00  0.00     0.261 C 
BRANCH   6   7
ATOM      7  O   UNL     1       0.570  -4.423   1.637  1.00  0.00    -0.462 OA
BRANCH   7   8
ATOM      8  C   UNL     1       1.103  -3.513   0.781  1.00  0.00     0.328 C 
ATOM      9  O   UNL     1       1.058  -3.608  -0.443  1.00  0.00    -0.250 OA
BRANCH   8  10
ATOM     10  C   UNL     1       1.982  -2.461   1.476  1.00  0.00     0.193 C 
BRANCH  10  11
ATOM     11  C   UNL     1       1.503  -1.837   2.794  1.00  0.00     0.048 C 
BRANCH  11  12
ATOM     12  C   UNL     1       1.605  -0.296   2.801  1.00  0.00     0.072 C 
BRANCH  12  13
ATOM     13  S   UNL     1       0.332   0.586   1.806  1.00  0.00    -0.165 SA
ATOM     14  C   UNL     1       1.072   0.568   0.147  1.00  0.00     0.085 C 
ENDBRANCH  12  13
ENDBRANCH  11  12
ENDBRANCH  10  11
BRANCH  10  15
ATOM     15  N   UNL     1       3.445  -2.667   1.410  1.00  0.00    -0.342 N 
ATOM     16  C   UNL     1       4.223  -3.772   1.634  1.00  0.00     0.226 C 
ATOM     17  H   UNL     1       3.953  -1.862   1.160  1.00  0.00     0.164 HD
ATOM     18  O   UNL     1       5.440  -3.623   1.708  1.00  0.00    -0.275 OA
BRANCH  16  19
ATOM     19  C   UNL     1       3.576  -5.127   1.621  1.00  0.00     0.107 C 
ATOM     20  C   UNL     1       4.187  -6.271   2.418  1.00  0.00     0.115 C 
ATOM     21  C   UNL     1       3.569  -5.686   0.202  1.00  0.00     0.133 C 
ATOM     22  C   UNL     1       3.594  -7.473   1.701  1.00  0.00     0.223 C 
ATOM     23  N   UNL     1       3.264  -7.074   0.413  1.00  0.00    -0.345 N 
ATOM     24  O   UNL     1       3.422  -8.584   2.170  1.00  0.00    -0.275 OA
ATOM     25  C   UNL     1       2.709  -7.926  -0.614  1.00  0.00     0.146 C 
ENDBRANCH  16  19
ENDBRANCH  10  15
ENDBRANCH   8  10
ENDBRANCH   7   8
ENDBRANCH   6   7
ENDBRANCH   5   6
ENDBRANCH   4   5
ENDBRANCH   3   4
ENDBRANCH   2   3
ENDBRANCH   1   2
BRANCH   1  26
ATOM     26  C   UNL     1      -2.180  -4.809   3.899  1.00  0.00     0.188 C 
BRANCH  26  27
ATOM     27  C   UNL     1      -3.571  -5.260   3.410  1.00  0.00     0.188 C 
BRANCH  27  28
ATOM     28  O   UNL     1      -4.309  -4.263   2.725  1.00  0.00    -0.376 OA
BRANCH  28  29
ATOM     29  C   UNL     1      -5.219  -3.464   3.464  1.00  0.00     0.202 C 
BRANCH  29  30
ATOM     30  C   UNL     1      -4.683  -2.683   4.676  1.00  0.00     0.261 C 
BRANCH  30  31
ATOM     31  O   UNL     1      -4.113  -3.463   5.740  1.00  0.00    -0.460 OA
BRANCH  31  32
ATOM     32  C   UNL     1      -4.873  -4.431   6.286  1.00  0.00     0.338 C 
ATOM     33  O   UNL     1      -6.045  -4.677   6.030  1.00  0.00    -0.246 OA
BRANCH  32  34
ATOM     34  C   UNL     1      -4.005  -5.298   7.104  1.00  0.00     0.060 A 
ATOM     35  C   UNL     1      -3.925  -6.660   6.785  1.00  0.00     0.016 A 
ATOM     36  C   UNL     1      -3.311  -4.784   8.202  1.00  0.00     0.016 A 
ATOM     37  C   UNL     1      -3.209  -7.525   7.606  1.00  0.00     0.010 A 
ATOM     38  C   UNL     1      -2.610  -5.659   9.038  1.00  0.00     0.010 A 
ATOM     39  C   UNL     1      -2.607  -7.039   8.773  1.00  0.00    -0.014 A 
BRANCH  39  40
ATOM     40  C   UNL     1      -2.195  -8.016   9.809  1.00  0.00     0.031 A 
ATOM     41  C   UNL     1      -3.135  -8.281  10.955  1.00  0.00     0.074 A 
ATOM     42  C   UNL     1      -1.051  -8.712   9.694  1.00  0.00     0.049 A 
ATOM     43  N   UNL     1      -3.028  -9.137  11.936  1.00  0.00    -0.248 NA
ATOM     44  C   UNL     1      -4.367  -7.473  10.997  1.00  0.00     0.031 C 
ATOM     45  C   UNL     1      -0.071  -8.559   8.621  1.00  0.00     0.029 A 
ATOM     46  N   UNL     1      -0.522  -9.688  10.500  1.00  0.00    -0.354 N 
ATOM     47  C   UNL     1      -4.160  -8.957  12.723  1.00  0.00     0.074 A 
ATOM     48  C   UNL     1      -4.933  -7.896  12.117  1.00  0.00     0.031 C 
ATOM     49  C   UNL     1       0.951  -9.404   8.843  1.00  0.00     0.029 A 
ATOM     50  C   UNL     1       0.707 -10.140  10.082  1.00  0.00     0.049 A 
ATOM     51  H   UNL     1      -0.978 -10.032  11.302  1.00  0.00     0.167 HD
ATOM     52  C   UNL     1      -4.533  -9.624  13.840  1.00  0.00     0.034 A 
ATOM     53  C   UNL     1       1.541 -11.036  10.644  1.00  0.00     0.034 A 
ATOM     54  C   UNL     1      -3.767 -10.685  14.435  1.00  0.00     0.049 A 
ATOM     55  C   UNL     1       1.115 -11.748  11.902  1.00  0.00     0.074 A 
ATOM     56  C   UNL     1      -4.071 -11.446  15.549  1.00  0.00     0.029 A 
ATOM     57  N   UNL     1      -2.535 -11.126  13.974  1.00  0.00    -0.354 N 
ATOM     58  N   UNL     1      -0.002 -11.635  12.580  1.00  0.00    -0.248 NA
ATOM     59  C   UNL     1       2.048 -12.743  12.448  1.00  0.00     0.031 C 
ATOM     60  C   UNL     1      -3.004 -12.319  15.786  1.00  0.00     0.029 A 
ATOM     61  C   UNL     1      -2.060 -12.139  14.788  1.00  0.00     0.049 A 
ATOM     62  H   UNL     1      -2.068 -10.770  13.184  1.00  0.00     0.167 HD
ATOM     63  C   UNL     1       0.074 -12.573  13.604  1.00  0.00     0.074 A 
ATOM     64  C   UNL     1       1.341 -13.259  13.443  1.00  0.00     0.031 C 
ATOM     65  C   UNL     1      -0.817 -12.842  14.591  1.00  0.00     0.034 A 
BRANCH  52  66
ATOM     66  C   UNL     1      -5.832  -9.223  14.491  1.00  0.00     0.023 A 
ATOM     67  C   UNL     1      -7.059  -9.521  13.861  1.00  0.00     0.012 A 
ATOM     68  C   UNL     1      -5.838  -8.587  15.747  1.00  0.00     0.148 A 
ATOM     69  C   UNL     1      -8.268  -9.158  14.455  1.00  0.00     0.002 A 
ATOM     70  C   UNL     1      -7.047  -8.274  16.355  1.00  0.00     0.091 A 
ATOM     71  F   UNL     1      -4.662  -8.290  16.318  1.00  0.00    -0.205 F 
ATOM     72  C   UNL     1      -8.262  -8.546  15.705  1.00  0.00     0.022 A 
BRANCH  70  73
ATOM     73  S   UNL     1      -7.147  -7.559  18.000  1.00  0.00     0.127 S 
ATOM     74  O   UNL     1      -7.646  -6.216  17.707  1.00  0.00    -0.237 OA
ATOM     75  O   UNL     1      -8.114  -8.439  18.657  1.00  0.00    -0.237 OA
ATOM     76  O   UNL     1      -5.800  -7.618  18.548  1.00  0.00    -0.744 OA
ENDBRANCH  70  73
ENDBRANCH  52  66
BRANCH  53  77
ATOM     77  C   UNL     1       2.854 -11.335  10.006  1.00  0.00     0.023 A 
ATOM     78  C   UNL     1       3.088 -12.602   9.436  1.00  0.00     0.012 A 
ATOM     79  C   UNL     1       3.872 -10.363   9.960  1.00  0.00     0.148 A 
ATOM     80  C   UNL     1       4.324 -12.905   8.863  1.00  0.00     0.002 A 
ATOM     81  C   UNL     1       5.079 -10.652   9.337  1.00  0.00     0.091 A 
ATOM     82  F   UNL     1       3.634  -9.170  10.523  1.00  0.00    -0.205 F 
ATOM     83  C   UNL     1       5.315 -11.928   8.804  1.00  0.00     0.022 A 
BRANCH  81  84
ATOM     84  S   UNL     1       6.366  -9.419   9.114  1.00  0.00     0.127 S 
ATOM     85  O   UNL     1       7.416  -9.919   9.997  1.00  0.00    -0.237 OA
ATOM     86  O   UNL     1       6.653  -9.539   7.685  1.00  0.00    -0.237 OA
ATOM     87  O   UNL     1       5.768  -8.149   9.503  1.00  0.00    -0.744 OA
ENDBRANCH  81  84
ENDBRANCH  53  77
BRANCH  65  88
ATOM     88  C   UNL     1      -0.485 -13.963  15.544  1.00  0.00     0.023 A 
ATOM     89  C   UNL     1       0.571 -13.826  16.467  1.00  0.00     0.012 A 
ATOM     90  C   UNL     1      -1.254 -15.145  15.548  1.00  0.00     0.148 A 
ATOM     91  C   UNL     1       0.892 -14.867  17.338  1.00  0.00     0.002 A 
ATOM     92  C   UNL     1      -0.965 -16.154  16.458  1.00  0.00     0.091 A 
ATOM     93  F   UNL     1      -2.246 -15.267  14.654  1.00  0.00    -0.205 F 
ATOM     94  C   UNL     1       0.119 -16.026  17.340  1.00  0.00     0.022 A 
BRANCH  92  95
ATOM     95  S   UNL     1      -1.973 -17.635  16.600  1.00  0.00     0.127 S 
ATOM     96  O   UNL     1      -1.112 -18.642  15.982  1.00  0.00    -0.237 OA
ATOM     97  O   UNL     1      -2.124 -17.769  18.050  1.00  0.00    -0.237 OA
ATOM     98  O   UNL     1      -3.211 -17.346  15.890  1.00  0.00    -0.744 OA
ENDBRANCH  92  95
ENDBRANCH  65  88
ENDBRANCH  39  40
ENDBRANCH  32  34
ENDBRANCH  31  32
ENDBRANCH  30  31
ENDBRANCH  29  30
ENDBRANCH  28  29
ENDBRANCH  27  28
ENDBRANCH  26  27
ENDBRANCH   1  26
TORSDOF 28
