REMARK SMILES C[C@H](C(=O)OCCOCCOCCOCCOC(=O)c1ccc(-c2c3nc(c(-c4cccc(S(=O)(=O)[O-])c4F)c4ccc([nH]4)c(-c4cccc(S(=O)(=O)[O-])c4F)c4nc(c(-c5cccc(S(=O)(=O)[O-])c5F)c5ccc2[nH]5)C=C4)C=C3)cc1)[C@H](C)[NH+]1CC[NH+](CCO)CC1
REMARK SMILES IDX 10 1 9 2 8 3 7 4 6 5 5 6 3 7 4 8 2 9 1 10 83 11 84 12 85 13
REMARK SMILES IDX 86 14 93 15 87 17 92 18 88 19 89 21 90 22 91 23 11 25 12 26
REMARK SMILES IDX 13 27 14 28 15 29 16 30 17 31 18 32 19 33 20 34 21 35 82 36
REMARK SMILES IDX 22 37 81 38 23 39 24 40 25 41 75 42 26 43 80 44 74 45 76 46
REMARK SMILES IDX 27 47 79 48 73 49 72 50 28 52 60 53 40 54 59 55 41 56 44 57
REMARK SMILES IDX 58 58 77 59 42 60 43 61 57 63 78 64 45 65 29 66 30 67 38 68
REMARK SMILES IDX 31 69 33 70 39 71 32 72 34 73 35 74 36 75 37 76 61 77 62 78
REMARK SMILES IDX 70 79 63 80 65 81 71 82 64 83 66 84 67 85 68 86 69 87 46 88
REMARK SMILES IDX 47 89 55 90 48 91 50 92 56 93 49 94 51 95 52 96 53 97 54 98
REMARK H PARENT 85 16 88 20 91 24 76 51 44 62
REMARK Flexibility Score: inf
ROOT
ATOM      1  C   UNL     1      -4.444   0.397   1.318  1.00  0.00     0.188 C 
ENDROOT
BRANCH   1   2
ATOM      2  C   UNL     1      -4.385  -0.355   2.667  1.00  0.00     0.188 C 
BRANCH   2   3
ATOM      3  O   UNL     1      -4.869   0.402   3.770  1.00  0.00    -0.376 OA
BRANCH   3   4
ATOM      4  C   UNL     1      -3.917   1.044   4.610  1.00  0.00     0.202 C 
BRANCH   4   5
ATOM      5  C   UNL     1      -2.979   2.064   3.959  1.00  0.00     0.261 C 
BRANCH   5   6
ATOM      6  O   UNL     1      -2.243   1.553   2.836  1.00  0.00    -0.463 OA
BRANCH   6   7
ATOM      7  C   UNL     1      -1.172   0.755   3.002  1.00  0.00     0.314 C 
ATOM      8  O   UNL     1      -0.784   0.364   4.098  1.00  0.00    -0.252 OA
BRANCH   7   9
ATOM      9  C   UNL     1      -0.579   0.248   1.676  1.00  0.00     0.154 C 
ATOM     10  C   UNL     1      -1.269  -1.045   1.224  1.00  0.00     0.026 C 
BRANCH   9  11
ATOM     11  C   UNL     1      -0.419   1.230   0.459  1.00  0.00     0.195 C 
ATOM     12  C   UNL     1       1.062   1.608   0.323  1.00  0.00     0.076 C 
BRANCH  11  13
ATOM     13  N   UNL     1      -1.359   2.346   0.442  1.00  0.00    -0.323 N 
ATOM     14  C   UNL     1      -0.933   3.665   0.922  1.00  0.00     0.324 C 
ATOM     15  C   UNL     1      -2.280   2.453  -0.694  1.00  0.00     0.324 C 
ATOM     16  H   UNL     1      -1.907   1.976   1.219  1.00  0.00     0.348 HD
ATOM     17  C   UNL     1      -0.553   4.693  -0.175  1.00  0.00     0.324 C 
ATOM     18  C   UNL     1      -1.832   3.424  -1.802  1.00  0.00     0.324 C 
ATOM     19  N   UNL     1      -1.421   4.758  -1.357  1.00  0.00    -0.324 N 
ATOM     20  H   UNL     1      -0.849   5.132  -2.115  1.00  0.00     0.348 HD
BRANCH  19  21
ATOM     21  C   UNL     1      -2.496   5.767  -1.284  1.00  0.00     0.291 C 
BRANCH  21  22
ATOM     22  C   UNL     1      -3.558   5.718  -0.171  1.00  0.00     0.217 C 
BRANCH  22  23
ATOM     23  O   UNL     1      -3.019   6.025   1.110  1.00  0.00    -0.391 OA
ATOM     24  H   UNL     1      -2.341   5.371   1.341  1.00  0.00     0.210 HD
ENDBRANCH  22  23
ENDBRANCH  21  22
ENDBRANCH  19  21
ENDBRANCH  11  13
ENDBRANCH   9  11
ENDBRANCH   7   9
ENDBRANCH   6   7
ENDBRANCH   5   6
ENDBRANCH   4   5
ENDBRANCH   3   4
ENDBRANCH   2   3
ENDBRANCH   1   2
BRANCH   1  25
ATOM     25  O   UNL     1      -5.665   0.966   0.873  1.00  0.00    -0.377 OA
BRANCH  25  26
ATOM     26  C   UNL     1      -6.473   1.541   1.880  1.00  0.00     0.188 C 
BRANCH  26  27
ATOM     27  C   UNL     1      -7.473   0.525   2.457  1.00  0.00     0.188 C 
BRANCH  27  28
ATOM     28  O   UNL     1      -7.327  -0.849   2.143  1.00  0.00    -0.376 OA
BRANCH  28  29
ATOM     29  C   UNL     1      -7.295  -1.346   0.815  1.00  0.00     0.202 C 
BRANCH  29  30
ATOM     30  C   UNL     1      -7.722  -0.613  -0.475  1.00  0.00     0.261 C 
BRANCH  30  31
ATOM     31  O   UNL     1      -8.092   0.758  -0.408  1.00  0.00    -0.460 OA
BRANCH  31  32
ATOM     32  C   UNL     1      -9.368   1.020  -0.068  1.00  0.00     0.338 C 
ATOM     33  O   UNL     1     -10.244   0.215   0.201  1.00  0.00    -0.246 OA
BRANCH  32  34
ATOM     34  C   UNL     1      -9.469   2.480   0.115  1.00  0.00     0.060 A 
ATOM     35  C   UNL     1      -9.798   2.978   1.383  1.00  0.00     0.016 A 
ATOM     36  C   UNL     1      -9.200   3.348  -0.946  1.00  0.00     0.016 A 
ATOM     37  C   UNL     1      -9.878   4.350   1.591  1.00  0.00     0.010 A 
ATOM     38  C   UNL     1      -9.324   4.723  -0.747  1.00  0.00     0.010 A 
ATOM     39  C   UNL     1      -9.695   5.222   0.514  1.00  0.00    -0.014 A 
BRANCH  39  40
ATOM     40  C   UNL     1     -10.126   6.628   0.655  1.00  0.00     0.031 A 
ATOM     41  C   UNL     1     -11.505   6.989   0.179  1.00  0.00     0.074 A 
ATOM     42  C   UNL     1      -9.322   7.553   1.203  1.00  0.00     0.049 A 
ATOM     43  N   UNL     1     -12.094   8.153   0.155  1.00  0.00    -0.248 NA
ATOM     44  C   UNL     1     -12.329   5.883  -0.342  1.00  0.00     0.031 C 
ATOM     45  C   UNL     1      -7.976   7.309   1.718  1.00  0.00     0.029 A 
ATOM     46  N   UNL     1      -9.521   8.897   1.391  1.00  0.00    -0.354 N 
ATOM     47  C   UNL     1     -13.343   7.928  -0.409  1.00  0.00     0.074 A 
ATOM     48  C   UNL     1     -13.424   6.520  -0.725  1.00  0.00     0.031 C 
ATOM     49  C   UNL     1      -7.453   8.476   2.130  1.00  0.00     0.029 A 
ATOM     50  C   UNL     1      -8.415   9.549   1.881  1.00  0.00     0.049 A 
ATOM     51  H   UNL     1     -10.372   9.350   1.194  1.00  0.00     0.167 HD
ATOM     52  C   UNL     1     -14.339   8.815  -0.634  1.00  0.00     0.034 A 
ATOM     53  C   UNL     1      -8.200  10.866   2.071  1.00  0.00     0.034 A 
ATOM     54  C   UNL     1     -14.252  10.213  -0.315  1.00  0.00     0.049 A 
ATOM     55  C   UNL     1      -9.310  11.841   1.773  1.00  0.00     0.074 A 
ATOM     56  C   UNL     1     -15.216  11.192  -0.474  1.00  0.00     0.029 A 
ATOM     57  N   UNL     1     -13.131  10.835   0.211  1.00  0.00    -0.354 N 
ATOM     58  N   UNL     1     -10.523  11.606   1.332  1.00  0.00    -0.248 NA
ATOM     59  C   UNL     1      -9.034  13.262   2.030  1.00  0.00     0.031 C 
ATOM     60  C   UNL     1     -14.662  12.414  -0.082  1.00  0.00     0.029 A 
ATOM     61  C   UNL     1     -13.371  12.188   0.369  1.00  0.00     0.049 A 
ATOM     62  H   UNL     1     -12.287  10.380   0.438  1.00  0.00     0.167 HD
ATOM     63  C   UNL     1     -11.165  12.839   1.297  1.00  0.00     0.074 A 
ATOM     64  C   UNL     1     -10.212  13.818   1.778  1.00  0.00     0.031 C 
ATOM     65  C   UNL     1     -12.426  13.139   0.895  1.00  0.00     0.034 A 
BRANCH  52  66
ATOM     66  C   UNL     1     -15.609   8.294  -1.251  1.00  0.00     0.023 A 
ATOM     67  C   UNL     1     -16.470   7.468  -0.499  1.00  0.00     0.012 A 
ATOM     68  C   UNL     1     -15.968   8.654  -2.564  1.00  0.00     0.148 A 
ATOM     69  C   UNL     1     -17.653   6.983  -1.055  1.00  0.00     0.002 A 
ATOM     70  C   UNL     1     -17.172   8.208  -3.094  1.00  0.00     0.091 A 
ATOM     71  F   UNL     1     -15.123   9.418  -3.271  1.00  0.00    -0.205 F 
ATOM     72  C   UNL     1     -18.009   7.362  -2.347  1.00  0.00     0.022 A 
BRANCH  70  73
ATOM     73  S   UNL     1     -17.759   8.704  -4.717  1.00  0.00     0.127 S 
ATOM     74  O   UNL     1     -17.684   7.445  -5.456  1.00  0.00    -0.237 OA
ATOM     75  O   UNL     1     -19.117   9.161  -4.424  1.00  0.00    -0.237 OA
ATOM     76  O   UNL     1     -16.851   9.747  -5.173  1.00  0.00    -0.744 OA
ENDBRANCH  70  73
ENDBRANCH  52  66
BRANCH  53  77
ATOM     77  C   UNL     1      -6.880  11.339   2.574  1.00  0.00     0.023 A 
ATOM     78  C   UNL     1      -6.783  11.915   3.855  1.00  0.00     0.012 A 
ATOM     79  C   UNL     1      -5.718  11.211   1.788  1.00  0.00     0.148 A 
ATOM     80  C   UNL     1      -5.559  12.392   4.328  1.00  0.00     0.002 A 
ATOM     81  C   UNL     1      -4.492  11.629   2.291  1.00  0.00     0.091 A 
ATOM     82  F   UNL     1      -5.833  10.675   0.565  1.00  0.00    -0.205 F 
ATOM     83  C   UNL     1      -4.413  12.240   3.551  1.00  0.00     0.022 A 
BRANCH  81  84
ATOM     84  S   UNL     1      -2.950  11.339   1.416  1.00  0.00     0.127 S 
ATOM     85  O   UNL     1      -2.572  12.692   1.019  1.00  0.00    -0.237 OA
ATOM     86  O   UNL     1      -2.118  10.744   2.462  1.00  0.00    -0.237 OA
ATOM     87  O   UNL     1      -3.277  10.423   0.330  1.00  0.00    -0.744 OA
ENDBRANCH  81  84
ENDBRANCH  53  77
BRANCH  65  88
ATOM     88  C   UNL     1     -12.876  14.575   1.003  1.00  0.00     0.023 A 
ATOM     89  C   UNL     1     -12.355  15.549   0.129  1.00  0.00     0.012 A 
ATOM     90  C   UNL     1     -13.879  14.938   1.925  1.00  0.00     0.148 A 
ATOM     91  C   UNL     1     -12.798  16.869   0.196  1.00  0.00     0.002 A 
ATOM     92  C   UNL     1     -14.354  16.243   1.948  1.00  0.00     0.091 A 
ATOM     93  F   UNL     1     -14.353  14.000   2.757  1.00  0.00    -0.205 F 
ATOM     94  C   UNL     1     -13.805  17.214   1.095  1.00  0.00     0.022 A 
BRANCH  92  95
ATOM     95  S   UNL     1     -15.717  16.756   3.000  1.00  0.00     0.127 S 
ATOM     96  O   UNL     1     -15.038  17.616   3.968  1.00  0.00    -0.237 OA
ATOM     97  O   UNL     1     -16.585  17.464   2.058  1.00  0.00    -0.237 OA
ATOM     98  O   UNL     1     -16.287  15.532   3.547  1.00  0.00    -0.744 OA
ENDBRANCH  92  95
ENDBRANCH  65  88
ENDBRANCH  39  40
ENDBRANCH  32  34
ENDBRANCH  31  32
ENDBRANCH  30  31
ENDBRANCH  29  30
ENDBRANCH  28  29
ENDBRANCH  27  28
ENDBRANCH  26  27
ENDBRANCH  25  26
ENDBRANCH   1  25
TORSDOF 28
