REMARK SMILES Cc1ccc2c(CC(=O)N3CCC(C(=O)OCCOCCOCCOCCOC(=O)c4ccc(-c5c6nc(c(-c7cccc(S(=O)(=O)[O-])c7F)c7ccc([nH]7)c(-c7cccc(S(=O)(=O)[O-])c7F)c7nc(c(-c8cccc(S(=O)(=O)[O-])c8F)c8ccc5[nH]8)C=C7)C=C6)cc4)CC3)coc2c1
REMARK SMILES IDX 23 1 22 2 21 3 20 4 19 5 18 6 17 7 16 8 14 9 15 10 13 11
REMARK SMILES IDX 8 12 9 13 10 14 11 15 95 16 12 17 94 18 7 19 6 20 1 21 2 22
REMARK SMILES IDX 3 23 99 24 4 25 98 26 5 27 97 28 96 29 24 30 25 31 26 32
REMARK SMILES IDX 27 33 28 34 29 35 30 36 31 37 32 38 93 39 33 40 92 41 34 42
REMARK SMILES IDX 35 43 36 44 86 45 37 46 91 47 85 48 87 49 38 50 90 51 84 52
REMARK SMILES IDX 83 53 39 55 71 56 51 57 70 58 52 59 55 60 69 61 88 62 53 63
REMARK SMILES IDX 54 64 68 66 89 67 56 68 40 69 41 70 49 71 42 72 44 73 50 74
REMARK SMILES IDX 43 75 45 76 46 77 47 78 48 79 72 80 73 81 81 82 74 83 76 84
REMARK SMILES IDX 82 85 75 86 77 87 78 88 79 89 80 90 57 91 58 92 66 93 59 94
REMARK SMILES IDX 61 95 67 96 60 97 62 98 63 99 64 100 65 101
REMARK H PARENT 87 54 55 65
REMARK Flexibility Score: inf
ROOT
ATOM      1  C   UNL     1       4.534  -7.614   9.320  1.00  0.00     0.188 C 
ENDROOT
BRANCH   1   2
ATOM      2  O   UNL     1       4.536  -6.784   8.170  1.00  0.00    -0.377 OA
BRANCH   2   3
ATOM      3  C   UNL     1       5.738  -6.567   7.477  1.00  0.00     0.188 C 
BRANCH   3   4
ATOM      4  C   UNL     1       6.235  -5.123   7.563  1.00  0.00     0.188 C 
BRANCH   4   5
ATOM      5  O   UNL     1       6.109  -4.335   8.735  1.00  0.00    -0.376 OA
BRANCH   5   6
ATOM      6  C   UNL     1       4.939  -4.312   9.540  1.00  0.00     0.202 C 
BRANCH   6   7
ATOM      7  C   UNL     1       3.548  -3.917   9.022  1.00  0.00     0.261 C 
BRANCH   7   8
ATOM      8  O   UNL     1       3.132  -4.601   7.839  1.00  0.00    -0.463 OA
BRANCH   8   9
ATOM      9  C   UNL     1       3.418  -3.949   6.698  1.00  0.00     0.309 C 
ATOM     10  O   UNL     1       3.916  -2.829   6.627  1.00  0.00    -0.252 OA
BRANCH   9  11
ATOM     11  C   UNL     1       3.124  -4.750   5.457  1.00  0.00     0.103 C 
ATOM     12  C   UNL     1       0.292  -6.586   3.171  1.00  0.00     0.227 C 
ATOM     13  O   UNL     1      -0.033  -7.665   3.688  1.00  0.00    -0.275 OA
ATOM     14  N   UNL     1       1.540  -6.031   3.432  1.00  0.00    -0.342 N 
ATOM     15  C   UNL     1       2.498  -6.817   4.200  1.00  0.00     0.120 C 
ATOM     16  C   UNL     1       1.933  -4.631   3.295  1.00  0.00     0.120 C 
ATOM     17  C   UNL     1       2.680  -6.214   5.592  1.00  0.00     0.037 C 
ATOM     18  C   UNL     1       2.072  -3.986   4.663  1.00  0.00     0.037 C 
BRANCH  12  19
ATOM     19  C   UNL     1      -0.617  -6.030   2.078  1.00  0.00     0.139 C 
BRANCH  19  20
ATOM     20  C   UNL     1      -0.989  -4.595   2.147  1.00  0.00     0.008 A 
ATOM     21  C   UNL     1       0.981   0.258  -0.064  1.00  0.00     0.044 C 
ATOM     22  C   UNL     1       0.422  -1.058   0.395  1.00  0.00    -0.047 A 
ATOM     23  C   UNL     1       0.870  -2.243  -0.210  1.00  0.00     0.004 A 
ATOM     24  C   UNL     1      -0.526  -1.102   1.431  1.00  0.00     0.051 A 
ATOM     25  C   UNL     1       0.413  -3.495   0.218  1.00  0.00     0.012 A 
ATOM     26  C   UNL     1      -0.939  -2.363   1.852  1.00  0.00     0.134 A 
ATOM     27  C   UNL     1      -0.494  -3.552   1.295  1.00  0.00     0.024 A 
ATOM     28  O   UNL     1      -1.772  -2.619   2.896  1.00  0.00    -0.464 OA
ATOM     29  C   UNL     1      -1.795  -3.966   3.075  1.00  0.00     0.200 A 
ENDBRANCH  19  20
ENDBRANCH  12  19
ENDBRANCH   9  11
ENDBRANCH   8   9
ENDBRANCH   7   8
ENDBRANCH   6   7
ENDBRANCH   5   6
ENDBRANCH   4   5
ENDBRANCH   3   4
ENDBRANCH   2   3
ENDBRANCH   1   2
BRANCH   1  30
ATOM     30  C   UNL     1       5.828  -7.755  10.140  1.00  0.00     0.188 C 
BRANCH  30  31
ATOM     31  O   UNL     1       6.877  -8.391   9.416  1.00  0.00    -0.376 OA
BRANCH  31  32
ATOM     32  C   UNL     1       7.060  -9.786   9.617  1.00  0.00     0.202 C 
BRANCH  32  33
ATOM     33  C   UNL     1       5.939 -10.691   9.085  1.00  0.00     0.261 C 
BRANCH  33  34
ATOM     34  O   UNL     1       4.708 -10.567   9.814  1.00  0.00    -0.460 OA
BRANCH  34  35
ATOM     35  C   UNL     1       4.678 -11.011  11.095  1.00  0.00     0.338 C 
ATOM     36  O   UNL     1       5.452 -11.788  11.609  1.00  0.00    -0.246 OA
BRANCH  35  37
ATOM     37  C   UNL     1       3.772 -10.070  11.806  1.00  0.00     0.060 A 
ATOM     38  C   UNL     1       2.589  -9.613  11.211  1.00  0.00     0.016 A 
ATOM     39  C   UNL     1       4.309  -9.417  12.923  1.00  0.00     0.016 A 
ATOM     40  C   UNL     1       2.017  -8.427  11.662  1.00  0.00     0.010 A 
ATOM     41  C   UNL     1       3.754  -8.215  13.348  1.00  0.00     0.010 A 
ATOM     42  C   UNL     1       2.637  -7.695  12.688  1.00  0.00    -0.014 A 
BRANCH  42  43
ATOM     43  C   UNL     1       1.984  -6.466  13.155  1.00  0.00     0.031 A 
ATOM     44  C   UNL     1       0.720  -6.720  13.893  1.00  0.00     0.074 A 
ATOM     45  C   UNL     1       2.520  -5.228  13.109  1.00  0.00     0.049 A 
ATOM     46  N   UNL     1      -0.475  -6.293  13.640  1.00  0.00    -0.248 NA
ATOM     47  C   UNL     1       0.808  -7.678  15.009  1.00  0.00     0.031 C 
ATOM     48  C   UNL     1       3.892  -4.893  12.736  1.00  0.00     0.029 A 
ATOM     49  N   UNL     1       2.002  -4.020  13.508  1.00  0.00    -0.354 N 
ATOM     50  C   UNL     1      -1.247  -6.763  14.698  1.00  0.00     0.074 A 
ATOM     51  C   UNL     1      -0.459  -7.738  15.408  1.00  0.00     0.031 C 
ATOM     52  C   UNL     1       4.157  -3.618  13.089  1.00  0.00     0.029 A 
ATOM     53  C   UNL     1       2.968  -3.026  13.673  1.00  0.00     0.049 A 
ATOM     54  H   UNL     1       1.042  -3.870  13.662  1.00  0.00     0.167 HD
ATOM     55  C   UNL     1      -2.385  -6.152  15.114  1.00  0.00     0.034 A 
ATOM     56  C   UNL     1       2.846  -1.846  14.335  1.00  0.00     0.034 A 
ATOM     57  C   UNL     1      -2.941  -5.251  14.155  1.00  0.00     0.049 A 
ATOM     58  C   UNL     1       1.401  -1.566  14.489  1.00  0.00     0.074 A 
ATOM     59  C   UNL     1      -3.448  -5.371  12.879  1.00  0.00     0.029 A 
ATOM     60  N   UNL     1      -2.712  -3.915  14.362  1.00  0.00    -0.354 N 
ATOM     61  N   UNL     1       0.595  -1.270  13.509  1.00  0.00    -0.248 NA
ATOM     62  C   UNL     1       0.760  -1.942  15.738  1.00  0.00     0.031 C 
ATOM     63  C   UNL     1      -3.128  -4.145  12.230  1.00  0.00     0.029 A 
ATOM     64  C   UNL     1      -2.453  -3.337  13.147  1.00  0.00     0.049 A 
ATOM     65  H   UNL     1      -2.731  -3.453  15.231  1.00  0.00     0.167 HD
ATOM     66  C   UNL     1      -0.624  -1.817  13.885  1.00  0.00     0.074 A 
ATOM     67  C   UNL     1      -0.493  -2.102  15.308  1.00  0.00     0.031 C 
ATOM     68  C   UNL     1      -1.519  -2.247  12.951  1.00  0.00     0.034 A 
BRANCH  55  69
ATOM     69  C   UNL     1      -2.771  -6.148  16.562  1.00  0.00     0.023 A 
ATOM     70  C   UNL     1      -4.122  -6.044  16.925  1.00  0.00     0.012 A 
ATOM     71  C   UNL     1      -1.802  -6.064  17.590  1.00  0.00     0.148 A 
ATOM     72  C   UNL     1      -4.494  -5.920  18.268  1.00  0.00     0.002 A 
ATOM     73  C   UNL     1      -2.177  -6.038  18.924  1.00  0.00     0.091 A 
ATOM     74  F   UNL     1      -0.510  -5.911  17.264  1.00  0.00    -0.205 F 
ATOM     75  C   UNL     1      -3.525  -5.949  19.270  1.00  0.00     0.022 A 
BRANCH  73  76
ATOM     76  S   UNL     1      -0.956  -6.184  20.231  1.00  0.00     0.127 S 
ATOM     77  O   UNL     1      -0.828  -4.799  20.672  1.00  0.00    -0.237 OA
ATOM     78  O   UNL     1      -1.627  -7.078  21.175  1.00  0.00    -0.237 OA
ATOM     79  O   UNL     1       0.214  -6.772  19.589  1.00  0.00    -0.744 OA
ENDBRANCH  73  76
ENDBRANCH  55  69
BRANCH  56  80
ATOM     80  C   UNL     1       3.880  -1.043  15.051  1.00  0.00     0.023 A 
ATOM     81  C   UNL     1       3.605   0.290  15.426  1.00  0.00     0.012 A 
ATOM     82  C   UNL     1       5.048  -1.635  15.582  1.00  0.00     0.148 A 
ATOM     83  C   UNL     1       4.444   0.989  16.309  1.00  0.00     0.002 A 
ATOM     84  C   UNL     1       5.897  -0.927  16.429  1.00  0.00     0.091 A 
ATOM     85  F   UNL     1       5.288  -2.932  15.354  1.00  0.00    -0.205 F 
ATOM     86  C   UNL     1       5.592   0.382  16.810  1.00  0.00     0.022 A 
BRANCH  84  87
ATOM     87  S   UNL     1       7.399  -1.683  17.065  1.00  0.00     0.127 S 
ATOM     88  O   UNL     1       8.311  -0.542  17.169  1.00  0.00    -0.237 OA
ATOM     89  O   UNL     1       6.952  -2.227  18.343  1.00  0.00    -0.237 OA
ATOM     90  O   UNL     1       7.788  -2.657  16.051  1.00  0.00    -0.744 OA
ENDBRANCH  84  87
ENDBRANCH  56  80
BRANCH  68  91
ATOM     91  C   UNL     1      -1.350  -1.765  11.535  1.00  0.00     0.023 A 
ATOM     92  C   UNL     1      -0.270  -2.173  10.726  1.00  0.00     0.012 A 
ATOM     93  C   UNL     1      -2.405  -1.036  10.958  1.00  0.00     0.148 A 
ATOM     94  C   UNL     1      -0.243  -1.855   9.366  1.00  0.00     0.002 A 
ATOM     95  C   UNL     1      -2.393  -0.756   9.598  1.00  0.00     0.091 A 
ATOM     96  F   UNL     1      -3.423  -0.664  11.749  1.00  0.00    -0.205 F 
ATOM     97  C   UNL     1      -1.312  -1.160   8.799  1.00  0.00     0.022 A 
BRANCH  95  98
ATOM     98  S   UNL     1      -3.785   0.032   8.783  1.00  0.00     0.127 S 
ATOM     99  O   UNL     1      -3.240   1.345   8.446  1.00  0.00    -0.237 OA
ATOM    100  O   UNL     1      -4.015  -0.850   7.638  1.00  0.00    -0.237 OA
ATOM    101  O   UNL     1      -4.871   0.041   9.756  1.00  0.00    -0.744 OA
ENDBRANCH  95  98
ENDBRANCH  68  91
ENDBRANCH  42  43
ENDBRANCH  35  37
ENDBRANCH  34  35
ENDBRANCH  33  34
ENDBRANCH  32  33
ENDBRANCH  31  32
ENDBRANCH  30  31
ENDBRANCH   1  30
TORSDOF 25
