REMARK SMILES Cc1oc2cc3c(cc2c1C)[C@H](C)[C@@H](CC(=O)N[C@H](CC1=c2ccccc2=NC1)C(=O)OCCOCCOCCOCCOC(=O)c1ccc(-c2c4nc(c(-c5cccc(S(=O)(=O)[O-])c5F)c5ccc([nH]5)c(-c5cccc(S(=O)(=O)[O-])c5F)c5nc(c(-c6cccc(S(=O)(=O)[O-])c6F)c6ccc2[nH]6)C=C5)C=C4)cc1)C(=O)O3
REMARK SMILES IDX 38 1 37 2 36 3 35 4 34 5 33 6 32 7 30 8 31 9 19 10 18 11
REMARK SMILES IDX 16 12 17 13 15 15 14 16 1 17 2 18 3 19 10 20 4 21 9 22 11 23
REMARK SMILES IDX 5 24 8 25 6 26 7 27 112 28 12 29 110 30 13 31 111 32 20 33
REMARK SMILES IDX 21 34 22 35 29 36 23 37 27 38 28 39 24 40 26 41 25 42 39 43
REMARK SMILES IDX 40 44 41 45 42 46 43 47 44 48 45 49 46 50 47 51 48 52 109 53
REMARK SMILES IDX 49 54 108 55 50 56 51 57 52 58 102 59 53 60 107 61 101 62
REMARK SMILES IDX 103 63 54 64 106 65 100 66 99 67 55 69 87 70 67 71 86 72
REMARK SMILES IDX 68 73 71 74 85 75 104 76 69 77 70 78 84 80 105 81 72 82
REMARK SMILES IDX 56 83 57 84 65 85 58 86 60 87 66 88 59 89 61 90 62 91 63 92
REMARK SMILES IDX 64 93 88 94 89 95 97 96 90 97 92 98 98 99 91 100 93 101
REMARK SMILES IDX 94 102 95 103 96 104 73 105 74 106 82 107 75 108 77 109
REMARK SMILES IDX 83 110 76 111 78 112 79 113 80 114 81 115
REMARK H PARENT 18 14 103 68 71 79
REMARK Flexibility Score: inf
ROOT
ATOM      1  O   UNL     1      -4.565   9.788  -7.334  1.00  0.00    -0.377 OA
ENDROOT
BRANCH   1   2
ATOM      2  C   UNL     1      -4.916   8.414  -7.226  1.00  0.00     0.188 C 
BRANCH   2   3
ATOM      3  C   UNL     1      -5.013   8.077  -5.732  1.00  0.00     0.188 C 
BRANCH   3   4
ATOM      4  O   UNL     1      -5.625   9.175  -5.052  1.00  0.00    -0.376 OA
BRANCH   4   5
ATOM      5  C   UNL     1      -5.294   9.345  -3.677  1.00  0.00     0.202 C 
BRANCH   5   6
ATOM      6  C   UNL     1      -3.837   9.668  -3.291  1.00  0.00     0.261 C 
BRANCH   6   7
ATOM      7  O   UNL     1      -2.905   9.416  -4.348  1.00  0.00    -0.462 OA
BRANCH   7   8
ATOM      8  C   UNL     1      -1.865   8.614  -4.061  1.00  0.00     0.329 C 
ATOM      9  O   UNL     1      -1.856   7.836  -3.105  1.00  0.00    -0.250 OA
BRANCH   8  10
ATOM     10  C   UNL     1      -0.827   8.502  -5.204  1.00  0.00     0.196 C 
BRANCH  10  11
ATOM     11  N   UNL     1       0.466   8.141  -4.600  1.00  0.00    -0.342 N 
ATOM     12  C   UNL     1       0.899   6.864  -4.339  1.00  0.00     0.221 C 
ATOM     13  O   UNL     1       1.801   6.648  -3.527  1.00  0.00    -0.275 OA
ATOM     14  H   UNL     1       1.073   8.879  -4.363  1.00  0.00     0.164 HD
BRANCH  12  15
ATOM     15  C   UNL     1       0.323   5.683  -5.131  1.00  0.00     0.116 C 
BRANCH  15  16
ATOM     16  C   UNL     1      -0.962   5.068  -4.542  1.00  0.00     0.116 C 
ATOM     17  C   UNL     1      -7.596  -0.273  -4.568  1.00  0.00     0.088 C 
ATOM     18  C   UNL     1      -6.330   0.487  -4.581  1.00  0.00     0.105 A 
ATOM     19  O   UNL     1      -6.459   1.825  -4.364  1.00  0.00    -0.461 OA
ATOM     20  C   UNL     1      -5.000   0.153  -4.774  1.00  0.00    -0.002 A 
ATOM     21  C   UNL     1      -5.212   2.361  -4.402  1.00  0.00     0.138 A 
ATOM     22  C   UNL     1      -4.266   1.370  -4.625  1.00  0.00     0.024 A 
ATOM     23  C   UNL     1      -4.420  -1.175  -5.083  1.00  0.00     0.049 C 
ATOM     24  C   UNL     1      -4.916   3.709  -4.274  1.00  0.00     0.095 A 
ATOM     25  C   UNL     1      -2.903   1.732  -4.685  1.00  0.00     0.020 A 
ATOM     26  C   UNL     1      -3.564   4.039  -4.399  1.00  0.00     0.138 A 
ATOM     27  C   UNL     1      -2.538   3.082  -4.546  1.00  0.00    -0.001 A 
ATOM     28  O   UNL     1      -3.306   5.407  -4.466  1.00  0.00    -0.426 OA
ATOM     29  C   UNL     1      -1.079   3.531  -4.707  1.00  0.00     0.035 C 
ATOM     30  C   UNL     1      -2.202   5.542  -5.268  1.00  0.00     0.315 C 
ATOM     31  C   UNL     1      -0.130   2.798  -3.755  1.00  0.00     0.014 C 
ATOM     32  O   UNL     1      -2.272   5.880  -6.444  1.00  0.00    -0.251 OA
ENDBRANCH  15  16
ENDBRANCH  12  15
ENDBRANCH  10  11
BRANCH  10  33
ATOM     33  C   UNL     1      -0.790   9.352  -6.515  1.00  0.00     0.070 C 
BRANCH  33  34
ATOM     34  C   UNL     1      -0.824  10.873  -6.551  1.00  0.00    -0.037 C 
ATOM     35  C   UNL     1      -1.925  11.550  -6.937  1.00  0.00     0.001 A 
ATOM     36  C   UNL     1      -0.360  11.507  -5.293  1.00  0.00     0.174 C 
ATOM     37  C   UNL     1      -1.940  12.893  -7.504  1.00  0.00     0.010 A 
ATOM     38  C   UNL     1      -2.479  11.768  -5.565  1.00  0.00     0.065 A 
ATOM     39  N   UNL     1      -1.634  11.735  -4.587  1.00  0.00    -0.280 NA
ATOM     40  C   UNL     1      -2.981  13.709  -7.227  1.00  0.00     0.001 A 
ATOM     41  C   UNL     1      -3.879  12.238  -5.557  1.00  0.00     0.028 A 
ATOM     42  C   UNL     1      -4.100  13.216  -6.448  1.00  0.00     0.002 A 
ENDBRANCH  33  34
ENDBRANCH  10  33
ENDBRANCH   8  10
ENDBRANCH   7   8
ENDBRANCH   6   7
ENDBRANCH   5   6
ENDBRANCH   4   5
ENDBRANCH   3   4
ENDBRANCH   2   3
ENDBRANCH   1   2
BRANCH   1  43
ATOM     43  C   UNL     1      -4.449  10.325  -8.637  1.00  0.00     0.188 C 
BRANCH  43  44
ATOM     44  C   UNL     1      -5.745  10.338  -9.445  1.00  0.00     0.188 C 
BRANCH  44  45
ATOM     45  O   UNL     1      -5.910   9.252 -10.356  1.00  0.00    -0.376 OA
BRANCH  45  46
ATOM     46  C   UNL     1      -4.765   8.857 -11.111  1.00  0.00     0.202 C 
BRANCH  46  47
ATOM     47  C   UNL     1      -4.115   9.915 -12.028  1.00  0.00     0.261 C 
BRANCH  47  48
ATOM     48  O   UNL     1      -3.211  10.849 -11.373  1.00  0.00    -0.460 OA
BRANCH  48  49
ATOM     49  C   UNL     1      -3.482  12.171 -11.560  1.00  0.00     0.338 C 
ATOM     50  O   UNL     1      -4.486  12.604 -12.119  1.00  0.00    -0.246 OA
BRANCH  49  51
ATOM     51  C   UNL     1      -2.464  13.099 -10.976  1.00  0.00     0.060 A 
ATOM     52  C   UNL     1      -1.081  12.882 -10.967  1.00  0.00     0.016 A 
ATOM     53  C   UNL     1      -2.935  14.303 -10.453  1.00  0.00     0.016 A 
ATOM     54  C   UNL     1      -0.196  13.828 -10.364  1.00  0.00     0.010 A 
ATOM     55  C   UNL     1      -2.056  15.226  -9.856  1.00  0.00     0.010 A 
ATOM     56  C   UNL     1      -0.671  14.991  -9.721  1.00  0.00    -0.014 A 
BRANCH  56  57
ATOM     57  C   UNL     1       0.198  15.969  -8.940  1.00  0.00     0.031 A 
ATOM     58  C   UNL     1      -0.551  17.098  -8.250  1.00  0.00     0.074 A 
ATOM     59  C   UNL     1       1.407  15.748  -8.350  1.00  0.00     0.049 A 
ATOM     60  N   UNL     1      -1.114  17.000  -7.074  1.00  0.00    -0.248 NA
ATOM     61  C   UNL     1      -0.912  18.320  -8.972  1.00  0.00     0.031 C 
ATOM     62  C   UNL     1       1.833  14.481  -7.745  1.00  0.00     0.029 A 
ATOM     63  N   UNL     1       2.388  16.646  -7.934  1.00  0.00    -0.354 N 
ATOM     64  C   UNL     1      -1.923  18.118  -6.904  1.00  0.00     0.074 A 
ATOM     65  C   UNL     1      -1.772  18.896  -8.119  1.00  0.00     0.031 C 
ATOM     66  C   UNL     1       2.887  14.711  -6.929  1.00  0.00     0.029 A 
ATOM     67  C   UNL     1       3.340  16.096  -7.067  1.00  0.00     0.049 A 
ATOM     68  H   UNL     1       2.409  17.587  -8.225  1.00  0.00     0.167 HD
ATOM     69  C   UNL     1      -2.676  18.382  -5.796  1.00  0.00     0.034 A 
ATOM     70  C   UNL     1       4.074  16.743  -6.109  1.00  0.00     0.034 A 
ATOM     71  C   UNL     1      -2.552  17.461  -4.697  1.00  0.00     0.049 A 
ATOM     72  C   UNL     1       3.041  17.116  -5.088  1.00  0.00     0.074 A 
ATOM     73  C   UNL     1      -3.186  16.321  -4.245  1.00  0.00     0.029 A 
ATOM     74  N   UNL     1      -1.545  17.652  -3.776  1.00  0.00    -0.354 N 
ATOM     75  N   UNL     1       2.584  16.370  -4.120  1.00  0.00    -0.248 NA
ATOM     76  C   UNL     1       2.241  18.297  -5.401  1.00  0.00     0.031 C 
ATOM     77  C   UNL     1      -2.234  15.643  -3.409  1.00  0.00     0.029 A 
ATOM     78  C   UNL     1      -1.075  16.411  -3.404  1.00  0.00     0.049 A 
ATOM     79  H   UNL     1      -1.220  18.520  -3.443  1.00  0.00     0.167 HD
ATOM     80  C   UNL     1       1.281  16.824  -3.905  1.00  0.00     0.074 A 
ATOM     81  C   UNL     1       1.132  17.997  -4.748  1.00  0.00     0.031 C 
ATOM     82  C   UNL     1       0.335  16.157  -3.177  1.00  0.00     0.034 A 
BRANCH  69  83
ATOM     83  C   UNL     1      -3.448  19.648  -5.626  1.00  0.00     0.023 A 
ATOM     84  C   UNL     1      -2.848  20.678  -4.875  1.00  0.00     0.012 A 
ATOM     85  C   UNL     1      -4.773  19.811  -6.074  1.00  0.00     0.148 A 
ATOM     86  C   UNL     1      -3.556  21.831  -4.537  1.00  0.00     0.002 A 
ATOM     87  C   UNL     1      -5.476  20.971  -5.739  1.00  0.00     0.091 A 
ATOM     88  F   UNL     1      -5.329  18.829  -6.799  1.00  0.00    -0.205 F 
ATOM     89  C   UNL     1      -4.871  21.974  -4.962  1.00  0.00     0.022 A 
BRANCH  87  90
ATOM     90  S   UNL     1      -7.177  21.282  -6.236  1.00  0.00     0.127 S 
ATOM     91  O   UNL     1      -7.862  21.363  -4.947  1.00  0.00    -0.237 OA
ATOM     92  O   UNL     1      -7.055  22.558  -6.943  1.00  0.00    -0.237 OA
ATOM     93  O   UNL     1      -7.561  20.156  -7.075  1.00  0.00    -0.744 OA
ENDBRANCH  87  90
ENDBRANCH  69  83
BRANCH  70  94
ATOM     94  C   UNL     1       5.157  17.707  -6.518  1.00  0.00     0.023 A 
ATOM     95  C   UNL     1       6.124  17.231  -7.431  1.00  0.00     0.012 A 
ATOM     96  C   UNL     1       5.335  19.020  -6.021  1.00  0.00     0.148 A 
ATOM     97  C   UNL     1       7.166  18.043  -7.895  1.00  0.00     0.002 A 
ATOM     98  C   UNL     1       6.332  19.850  -6.539  1.00  0.00     0.091 A 
ATOM     99  F   UNL     1       4.546  19.460  -5.035  1.00  0.00    -0.205 F 
ATOM    100  C   UNL     1       7.253  19.362  -7.472  1.00  0.00     0.022 A 
BRANCH  98 101
ATOM    101  S   UNL     1       6.460  21.599  -6.121  1.00  0.00     0.127 S 
ATOM    102  O   UNL     1       7.866  21.723  -5.738  1.00  0.00    -0.237 OA
ATOM    103  O   UNL     1       6.113  22.224  -7.396  1.00  0.00    -0.237 OA
ATOM    104  O   UNL     1       5.506  21.822  -5.044  1.00  0.00    -0.744 OA
ENDBRANCH  98 101
ENDBRANCH  70  94
BRANCH  82 105
ATOM    105  C   UNL     1       0.830  15.056  -2.272  1.00  0.00     0.023 A 
ATOM    106  C   UNL     1       1.651  15.409  -1.188  1.00  0.00     0.012 A 
ATOM    107  C   UNL     1       0.484  13.699  -2.416  1.00  0.00     0.148 A 
ATOM    108  C   UNL     1       2.108  14.446  -0.285  1.00  0.00     0.002 A 
ATOM    109  C   UNL     1       0.928  12.729  -1.509  1.00  0.00     0.091 A 
ATOM    110  F   UNL     1      -0.272  13.376  -3.457  1.00  0.00    -0.205 F 
ATOM    111  C   UNL     1       1.745  13.112  -0.442  1.00  0.00     0.022 A 
BRANCH 109 112
ATOM    112  S   UNL     1       0.411  10.993  -1.589  1.00  0.00     0.127 S 
ATOM    113  O   UNL     1       0.960  10.424  -0.355  1.00  0.00    -0.237 OA
ATOM    114  O   UNL     1      -1.045  11.056  -1.596  1.00  0.00    -0.237 OA
ATOM    115  O   UNL     1       1.061  10.468  -2.789  1.00  0.00    -0.744 OA
ENDBRANCH 109 112
ENDBRANCH  82 105
ENDBRANCH  56  57
ENDBRANCH  49  51
ENDBRANCH  48  49
ENDBRANCH  47  48
ENDBRANCH  46  47
ENDBRANCH  45  46
ENDBRANCH  44  45
ENDBRANCH  43  44
ENDBRANCH   1  43
TORSDOF 28
