REMARK SMILES CNC(=O)[C@H](C)S(=O)(=O)c1cc(C(=O)OCCOCCOCCOCCOC(=O)c2ccc(-c3c4nc(c(-c5cccc(S(=O)(=O)[O-])c5F)c5ccc([nH]5)c(-c5cccc(S(=O)(=O)[O-])c5F)c5nc(c(-c6cccc(S(=O)(=O)[O-])c6F)c6ccc3[nH]6)C=C5)C=C4)cc2)c(C)cc1C
REMARK SMILES IDX 21 1 20 2 19 3 18 4 17 5 16 6 15 7 13 8 14 9 12 10 10 11
REMARK SMILES IDX 11 12 96 13 95 14 97 15 93 16 94 17 7 18 8 19 9 20 5 21 6 22
REMARK SMILES IDX 3 23 1 24 2 25 4 27 22 28 23 29 24 30 25 31 26 32 27 33
REMARK SMILES IDX 28 34 29 35 30 36 31 37 92 38 32 39 91 40 33 41 34 42 35 43
REMARK SMILES IDX 85 44 36 45 90 46 84 47 86 48 37 49 89 50 83 51 82 52 38 54
REMARK SMILES IDX 70 55 50 56 69 57 51 58 54 59 68 60 87 61 52 62 53 63 67 65
REMARK SMILES IDX 88 66 55 67 39 68 40 69 48 70 41 71 43 72 49 73 42 74 44 75
REMARK SMILES IDX 45 76 46 77 47 78 71 79 72 80 80 81 73 82 75 83 81 84 74 85
REMARK SMILES IDX 76 86 77 87 78 88 79 89 56 90 57 91 65 92 58 93 60 94 66 95
REMARK SMILES IDX 59 96 61 97 62 98 63 99 64 100
REMARK H PARENT 2 26 86 53 54 64
REMARK Flexibility Score: inf
ROOT
ATOM      1  O   UNL     1       1.619  -0.440   6.208  1.00  0.00    -0.377 OA
ENDROOT
BRANCH   1   2
ATOM      2  C   UNL     1       0.827  -1.246   5.361  1.00  0.00     0.188 C 
BRANCH   2   3
ATOM      3  C   UNL     1       1.575  -2.450   4.757  1.00  0.00     0.188 C 
BRANCH   3   4
ATOM      4  O   UNL     1       2.757  -2.925   5.377  1.00  0.00    -0.376 OA
BRANCH   4   5
ATOM      5  C   UNL     1       3.941  -2.146   5.474  1.00  0.00     0.202 C 
BRANCH   5   6
ATOM      6  C   UNL     1       4.281  -0.893   4.645  1.00  0.00     0.261 C 
BRANCH   6   7
ATOM      7  O   UNL     1       3.192  -0.192   4.055  1.00  0.00    -0.460 OA
BRANCH   7   8
ATOM      8  C   UNL     1       3.028  -0.351   2.730  1.00  0.00     0.338 C 
ATOM      9  O   UNL     1       3.707  -1.048   1.993  1.00  0.00    -0.246 OA
BRANCH   8  10
ATOM     10  C   UNL     1       1.741   0.250   2.301  1.00  0.00     0.064 A 
ATOM     11  C   UNL     1      -0.295  -0.170   1.012  1.00  0.00     0.071 A 
ATOM     12  C   UNL     1       0.914  -0.610   1.564  1.00  0.00     0.036 A 
ATOM     13  C   UNL     1      -0.649   1.180   1.117  1.00  0.00    -0.032 A 
ATOM     14  C   UNL     1       0.126   1.999   1.963  1.00  0.00     0.009 A 
ATOM     15  C   UNL     1      -1.821   1.815   0.427  1.00  0.00     0.046 C 
ATOM     16  C   UNL     1       1.290   1.539   2.610  1.00  0.00    -0.036 A 
ATOM     17  C   UNL     1       1.980   2.478   3.560  1.00  0.00     0.045 C 
BRANCH  11  18
ATOM     18  S   UNL     1      -1.383  -1.441   0.382  1.00  0.00     0.190 S 
ATOM     19  O   UNL     1      -2.643  -0.831  -0.011  1.00  0.00    -0.223 OA
ATOM     20  O   UNL     1      -1.426  -2.466   1.411  1.00  0.00    -0.223 OA
BRANCH  18  21
ATOM     21  C   UNL     1      -0.654  -2.107  -1.097  1.00  0.00     0.199 C 
ATOM     22  C   UNL     1      -0.442  -1.005  -2.138  1.00  0.00     0.036 C 
BRANCH  21  23
ATOM     23  C   UNL     1       0.646  -2.817  -0.804  1.00  0.00     0.238 C 
ATOM     24  C   UNL     1      -0.401  -4.909   0.206  1.00  0.00     0.142 C 
ATOM     25  N   UNL     1       0.677  -4.064  -0.260  1.00  0.00    -0.358 N 
ATOM     26  H   UNL     1       1.577  -4.454  -0.170  1.00  0.00     0.163 HD
ATOM     27  O   UNL     1       1.731  -2.306  -1.090  1.00  0.00    -0.274 OA
ENDBRANCH  21  23
ENDBRANCH  18  21
ENDBRANCH  11  18
ENDBRANCH   8  10
ENDBRANCH   7   8
ENDBRANCH   6   7
ENDBRANCH   5   6
ENDBRANCH   4   5
ENDBRANCH   3   4
ENDBRANCH   2   3
ENDBRANCH   1   2
BRANCH   1  28
ATOM     28  C   UNL     1       1.693  -0.785   7.586  1.00  0.00     0.188 C 
BRANCH  28  29
ATOM     29  C   UNL     1       1.466  -2.241   8.054  1.00  0.00     0.188 C 
BRANCH  29  30
ATOM     30  O   UNL     1       0.398  -2.922   7.405  1.00  0.00    -0.376 OA
BRANCH  30  31
ATOM     31  C   UNL     1      -0.814  -3.101   8.123  1.00  0.00     0.202 C 
BRANCH  31  32
ATOM     32  C   UNL     1      -1.662  -1.837   8.322  1.00  0.00     0.261 C 
BRANCH  32  33
ATOM     33  O   UNL     1      -1.022  -0.781   9.050  1.00  0.00    -0.460 OA
BRANCH  33  34
ATOM     34  C   UNL     1      -0.659  -1.063  10.321  1.00  0.00     0.338 C 
ATOM     35  O   UNL     1      -0.854  -2.099  10.926  1.00  0.00    -0.246 OA
BRANCH  34  36
ATOM     36  C   UNL     1       0.191   0.038  10.810  1.00  0.00     0.060 A 
ATOM     37  C   UNL     1       1.462  -0.273  11.309  1.00  0.00     0.016 A 
ATOM     38  C   UNL     1      -0.277   1.355  10.815  1.00  0.00     0.016 A 
ATOM     39  C   UNL     1       2.238   0.724  11.892  1.00  0.00     0.010 A 
ATOM     40  C   UNL     1       0.499   2.352  11.410  1.00  0.00     0.010 A 
ATOM     41  C   UNL     1       1.730   2.025  12.005  1.00  0.00    -0.014 A 
BRANCH  41  42
ATOM     42  C   UNL     1       2.365   2.954  12.969  1.00  0.00     0.031 A 
ATOM     43  C   UNL     1       1.760   3.069  14.343  1.00  0.00     0.074 A 
ATOM     44  C   UNL     1       3.474   3.645  12.655  1.00  0.00     0.049 A 
ATOM     45  N   UNL     1       2.158   3.772  15.370  1.00  0.00    -0.248 NA
ATOM     46  C   UNL     1       0.537   2.284  14.591  1.00  0.00     0.031 C 
ATOM     47  C   UNL     1       4.152   3.617  11.361  1.00  0.00     0.029 A 
ATOM     48  N   UNL     1       4.217   4.518  13.409  1.00  0.00    -0.354 N 
ATOM     49  C   UNL     1       1.224   3.536  16.373  1.00  0.00     0.074 A 
ATOM     50  C   UNL     1       0.228   2.643  15.826  1.00  0.00     0.031 C 
ATOM     51  C   UNL     1       5.204   4.454  11.404  1.00  0.00     0.029 A 
ATOM     52  C   UNL     1       5.263   5.085  12.722  1.00  0.00     0.049 A 
ATOM     53  H   UNL     1       4.019   4.719  14.352  1.00  0.00     0.167 HD
ATOM     54  C   UNL     1       1.205   4.003  17.643  1.00  0.00     0.034 A 
ATOM     55  C   UNL     1       6.157   6.014  13.114  1.00  0.00     0.034 A 
ATOM     56  C   UNL     1       2.204   4.879  18.190  1.00  0.00     0.049 A 
ATOM     57  C   UNL     1       6.115   6.524  14.533  1.00  0.00     0.074 A 
ATOM     58  C   UNL     1       2.300   5.380  19.476  1.00  0.00     0.029 A 
ATOM     59  N   UNL     1       3.274   5.398  17.477  1.00  0.00    -0.354 N 
ATOM     60  N   UNL     1       5.294   6.202  15.504  1.00  0.00    -0.248 NA
ATOM     61  C   UNL     1       7.151   7.491  14.921  1.00  0.00     0.031 C 
ATOM     62  C   UNL     1       3.412   6.227  19.531  1.00  0.00     0.029 A 
ATOM     63  C   UNL     1       4.033   6.218  18.293  1.00  0.00     0.049 A 
ATOM     64  H   UNL     1       3.466   5.210  16.530  1.00  0.00     0.167 HD
ATOM     65  C   UNL     1       5.743   6.889  16.628  1.00  0.00     0.074 A 
ATOM     66  C   UNL     1       6.917   7.632  16.218  1.00  0.00     0.031 C 
ATOM     67  C   UNL     1       5.229   6.909  17.884  1.00  0.00     0.034 A 
BRANCH  54  68
ATOM     68  C   UNL     1       0.068   3.563  18.527  1.00  0.00     0.023 A 
ATOM     69  C   UNL     1       0.001   2.228  18.976  1.00  0.00     0.012 A 
ATOM     70  C   UNL     1      -0.921   4.479  18.934  1.00  0.00     0.148 A 
ATOM     71  C   UNL     1      -1.054   1.802  19.783  1.00  0.00     0.002 A 
ATOM     72  C   UNL     1      -1.942   4.060  19.779  1.00  0.00     0.091 A 
ATOM     73  F   UNL     1      -0.857   5.737  18.474  1.00  0.00    -0.205 F 
ATOM     74  C   UNL     1      -2.018   2.720  20.192  1.00  0.00     0.022 A 
BRANCH  72  75
ATOM     75  S   UNL     1      -3.183   5.184  20.427  1.00  0.00     0.127 S 
ATOM     76  O   UNL     1      -4.378   4.752  19.704  1.00  0.00    -0.237 OA
ATOM     77  O   UNL     1      -3.180   4.856  21.852  1.00  0.00    -0.237 OA
ATOM     78  O   UNL     1      -2.713   6.526  20.112  1.00  0.00    -0.744 OA
ENDBRANCH  72  75
ENDBRANCH  54  68
BRANCH  55  79
ATOM     79  C   UNL     1       7.202   6.489  12.164  1.00  0.00     0.023 A 
ATOM     80  C   UNL     1       8.552   6.152  12.379  1.00  0.00     0.012 A 
ATOM     81  C   UNL     1       6.859   7.267  11.040  1.00  0.00     0.148 A 
ATOM     82  C   UNL     1       9.546   6.609  11.513  1.00  0.00     0.002 A 
ATOM     83  C   UNL     1       7.847   7.671  10.151  1.00  0.00     0.091 A 
ATOM     84  F   UNL     1       5.570   7.588  10.861  1.00  0.00    -0.205 F 
ATOM     85  C   UNL     1       9.193   7.359  10.395  1.00  0.00     0.022 A 
BRANCH  83  86
ATOM     86  S   UNL     1       7.473   8.532   8.620  1.00  0.00     0.127 S 
ATOM     87  O   UNL     1       8.060   9.847   8.865  1.00  0.00    -0.237 OA
ATOM     88  O   UNL     1       8.182   7.713   7.636  1.00  0.00    -0.237 OA
ATOM     89  O   UNL     1       6.022   8.504   8.494  1.00  0.00    -0.744 OA
ENDBRANCH  83  86
ENDBRANCH  55  79
BRANCH  67  90
ATOM     90  C   UNL     1       5.964   7.710  18.929  1.00  0.00     0.023 A 
ATOM     91  C   UNL     1       5.963   9.118  18.878  1.00  0.00     0.012 A 
ATOM     92  C   UNL     1       6.612   7.060  19.999  1.00  0.00     0.148 A 
ATOM     93  C   UNL     1       6.636   9.864  19.847  1.00  0.00     0.002 A 
ATOM     94  C   UNL     1       7.232   7.810  20.991  1.00  0.00     0.091 A 
ATOM     95  F   UNL     1       6.619   5.719  20.024  1.00  0.00    -0.205 F 
ATOM     96  C   UNL     1       7.260   9.211  20.908  1.00  0.00     0.022 A 
BRANCH  94  97
ATOM     97  S   UNL     1       7.969   7.052  22.443  1.00  0.00     0.127 S 
ATOM     98  O   UNL     1       9.395   7.139  22.135  1.00  0.00    -0.237 OA
ATOM     99  O   UNL     1       7.522   7.939  23.519  1.00  0.00    -0.237 OA
ATOM    100  O   UNL     1       7.420   5.704  22.510  1.00  0.00    -0.744 OA
ENDBRANCH  94  97
ENDBRANCH  67  90
ENDBRANCH  41  42
ENDBRANCH  34  36
ENDBRANCH  33  34
ENDBRANCH  32  33
ENDBRANCH  31  32
ENDBRANCH  30  31
ENDBRANCH  29  30
ENDBRANCH  28  29
ENDBRANCH   1  28
TORSDOF 26
