REMARK SMILES NC(=O)c1ccc(C(=O)OCCOCCOCCOCCOC(=O)c2ccc(-c3c4nc(c(-c5cccc(S(=O)(=O)[O-])c5F)c5ccc([nH]5)c(-c5cccc(S(=O)(=O)[O-])c5F)c5nc(c(-c6cccc(S(=O)(=O)[O-])c6F)c6ccc3[nH]6)C=C5)C=C4)cc2)c(F)c1
REMARK SMILES IDX 17 1 16 2 15 3 14 4 13 5 12 6 11 7 10 8 8 9 9 10 7 11 4 12
REMARK SMILES IDX 5 13 90 14 6 15 88 16 89 17 2 18 1 19 3 22 18 23 19 24 20 25
REMARK SMILES IDX 21 26 22 27 23 28 24 29 25 30 26 31 87 32 27 33 86 34 28 35
REMARK SMILES IDX 29 36 30 37 80 38 31 39 85 40 79 41 81 42 32 43 84 44 78 45
REMARK SMILES IDX 77 46 33 48 65 49 45 50 64 51 46 52 49 53 63 54 82 55 47 56
REMARK SMILES IDX 48 57 62 59 83 60 50 61 34 62 35 63 43 64 36 65 38 66 44 67
REMARK SMILES IDX 37 68 39 69 40 70 41 71 42 72 66 73 67 74 75 75 68 76 70 77
REMARK SMILES IDX 76 78 69 79 71 80 72 81 73 82 74 83 51 84 52 85 60 86 53 87
REMARK SMILES IDX 55 88 61 89 54 90 56 91 57 92 58 93 59 94
REMARK H PARENT 1 20 1 21 81 47 49 58
REMARK Flexibility Score: inf
ROOT
ATOM      1  C   UNL     1       5.443   6.609  -3.517  1.00  0.00     0.188 C 
ENDROOT
BRANCH   1   2
ATOM      2  O   UNL     1       4.505   5.668  -3.006  1.00  0.00    -0.377 OA
BRANCH   2   3
ATOM      3  C   UNL     1       4.728   4.276  -3.156  1.00  0.00     0.188 C 
BRANCH   3   4
ATOM      4  C   UNL     1       5.273   3.708  -4.485  1.00  0.00     0.188 C 
BRANCH   4   5
ATOM      5  O   UNL     1       5.704   4.686  -5.411  1.00  0.00    -0.376 OA
BRANCH   5   6
ATOM      6  C   UNL     1       4.927   4.946  -6.564  1.00  0.00     0.202 C 
BRANCH   6   7
ATOM      7  C   UNL     1       3.442   5.315  -6.424  1.00  0.00     0.261 C 
BRANCH   7   8
ATOM      8  O   UNL     1       2.716   4.616  -5.409  1.00  0.00    -0.460 OA
BRANCH   8   9
ATOM      9  C   UNL     1       2.271   3.377  -5.700  1.00  0.00     0.341 C 
ATOM     10  O   UNL     1       2.473   2.749  -6.726  1.00  0.00    -0.246 OA
BRANCH   9  11
ATOM     11  C   UNL     1       1.726   2.778  -4.466  1.00  0.00     0.095 A 
ATOM     12  C   UNL     1       0.790   1.609  -2.105  1.00  0.00     0.042 A 
ATOM     13  C   UNL     1       1.716   0.923  -2.903  1.00  0.00     0.015 A 
ATOM     14  C   UNL     1       0.348   2.883  -2.479  1.00  0.00     0.054 A 
ATOM     15  C   UNL     1       2.174   1.503  -4.089  1.00  0.00     0.019 A 
ATOM     16  C   UNL     1       0.828   3.465  -3.651  1.00  0.00     0.138 A 
ATOM     17  F   UNL     1       0.392   4.686  -3.985  1.00  0.00    -0.206 F 
BRANCH  12  18
ATOM     18  C   UNL     1       0.198   0.974  -0.905  1.00  0.00     0.248 C 
ATOM     19  N   UNL     1       1.018   0.193  -0.142  1.00  0.00    -0.366 N 
ATOM     20  H   UNL     1       0.666  -0.248   0.665  1.00  0.00     0.159 HD
ATOM     21  H   UNL     1       1.961   0.072  -0.398  1.00  0.00     0.159 HD
ATOM     22  O   UNL     1      -0.977   1.141  -0.609  1.00  0.00    -0.270 OA
ENDBRANCH  12  18
ENDBRANCH   9  11
ENDBRANCH   8   9
ENDBRANCH   7   8
ENDBRANCH   6   7
ENDBRANCH   5   6
ENDBRANCH   4   5
ENDBRANCH   3   4
ENDBRANCH   2   3
ENDBRANCH   1   2
BRANCH   1  23
ATOM     23  C   UNL     1       6.953   6.277  -3.557  1.00  0.00     0.188 C 
BRANCH  23  24
ATOM     24  O   UNL     1       7.301   5.033  -2.970  1.00  0.00    -0.376 OA
BRANCH  24  25
ATOM     25  C   UNL     1       7.952   5.070  -1.712  1.00  0.00     0.202 C 
BRANCH  25  26
ATOM     26  C   UNL     1       7.169   5.668  -0.535  1.00  0.00     0.261 C 
BRANCH  26  27
ATOM     27  O   UNL     1       6.654   6.993  -0.722  1.00  0.00    -0.460 OA
BRANCH  27  28
ATOM     28  C   UNL     1       7.556   7.993  -0.872  1.00  0.00     0.338 C 
ATOM     29  O   UNL     1       8.762   7.898  -0.869  1.00  0.00    -0.246 OA
BRANCH  28  30
ATOM     30  C   UNL     1       6.797   9.212  -1.231  1.00  0.00     0.060 A 
ATOM     31  C   UNL     1       7.042   9.832  -2.463  1.00  0.00     0.016 A 
ATOM     32  C   UNL     1       5.838   9.725  -0.356  1.00  0.00     0.016 A 
ATOM     33  C   UNL     1       6.347  10.993  -2.808  1.00  0.00     0.010 A 
ATOM     34  C   UNL     1       5.159  10.897  -0.694  1.00  0.00     0.010 A 
ATOM     35  C   UNL     1       5.435  11.555  -1.906  1.00  0.00    -0.014 A 
BRANCH  35  36
ATOM     36  C   UNL     1       4.908  12.921  -2.135  1.00  0.00     0.031 A 
ATOM     37  C   UNL     1       5.556  14.065  -1.405  1.00  0.00     0.074 A 
ATOM     38  C   UNL     1       3.875  13.145  -2.967  1.00  0.00     0.049 A 
ATOM     39  N   UNL     1       5.233  15.330  -1.395  1.00  0.00    -0.248 NA
ATOM     40  C   UNL     1       6.726  13.737  -0.570  1.00  0.00     0.031 C 
ATOM     41  C   UNL     1       3.178  12.121  -3.743  1.00  0.00     0.029 A 
ATOM     42  N   UNL     1       3.217  14.310  -3.275  1.00  0.00    -0.354 N 
ATOM     43  C   UNL     1       6.136  15.944  -0.537  1.00  0.00     0.074 A 
ATOM     44  C   UNL     1       7.016  14.914  -0.034  1.00  0.00     0.031 C 
ATOM     45  C   UNL     1       2.173  12.701  -4.423  1.00  0.00     0.029 A 
ATOM     46  C   UNL     1       2.134  14.128  -4.104  1.00  0.00     0.049 A 
ATOM     47  H   UNL     1       3.494  15.192  -2.936  1.00  0.00     0.167 HD
ATOM     48  C   UNL     1       6.234  17.253  -0.209  1.00  0.00     0.034 A 
ATOM     49  C   UNL     1       1.206  15.008  -4.534  1.00  0.00     0.034 A 
ATOM     50  C   UNL     1       5.370  18.277  -0.726  1.00  0.00     0.049 A 
ATOM     51  C   UNL     1       1.313  16.454  -4.120  1.00  0.00     0.074 A 
ATOM     52  C   UNL     1       5.415  19.638  -0.480  1.00  0.00     0.029 A 
ATOM     53  N   UNL     1       4.303  18.058  -1.582  1.00  0.00    -0.354 N 
ATOM     54  N   UNL     1       2.227  17.037  -3.382  1.00  0.00    -0.248 NA
ATOM     55  C   UNL     1       0.278  17.373  -4.621  1.00  0.00     0.031 C 
ATOM     56  C   UNL     1       4.352  20.237  -1.158  1.00  0.00     0.029 A 
ATOM     57  C   UNL     1       3.673  19.257  -1.864  1.00  0.00     0.049 A 
ATOM     58  H   UNL     1       4.033  17.180  -1.936  1.00  0.00     0.167 HD
ATOM     59  C   UNL     1       1.901  18.389  -3.362  1.00  0.00     0.074 A 
ATOM     60  C   UNL     1       0.712  18.544  -4.173  1.00  0.00     0.031 C 
ATOM     61  C   UNL     1       2.525  19.408  -2.721  1.00  0.00     0.034 A 
BRANCH  48  62
ATOM     62  C   UNL     1       7.332  17.669   0.733  1.00  0.00     0.023 A 
ATOM     63  C   UNL     1       8.666  17.696   0.280  1.00  0.00     0.012 A 
ATOM     64  C   UNL     1       7.029  18.136   2.027  1.00  0.00     0.148 A 
ATOM     65  C   UNL     1       9.685  18.168   1.106  1.00  0.00     0.002 A 
ATOM     66  C   UNL     1       8.042  18.649   2.826  1.00  0.00     0.091 A 
ATOM     67  F   UNL     1       5.756  18.080   2.443  1.00  0.00    -0.205 F 
ATOM     68  C   UNL     1       9.371  18.657   2.372  1.00  0.00     0.022 A 
BRANCH  66  69
ATOM     69  S   UNL     1       7.731  19.386   4.434  1.00  0.00     0.127 S 
ATOM     70  O   UNL     1       8.431  18.459   5.324  1.00  0.00    -0.237 OA
ATOM     71  O   UNL     1       8.368  20.696   4.298  1.00  0.00    -0.237 OA
ATOM     72  O   UNL     1       6.284  19.421   4.592  1.00  0.00    -0.744 OA
ENDBRANCH  66  69
ENDBRANCH  48  62
BRANCH  49  73
ATOM     73  C   UNL     1       0.110  14.551  -5.437  1.00  0.00     0.023 A 
ATOM     74  C   UNL     1       0.082  14.992  -6.774  1.00  0.00     0.012 A 
ATOM     75  C   UNL     1      -0.885  13.661  -4.988  1.00  0.00     0.148 A 
ATOM     76  C   UNL     1      -0.929  14.575  -7.641  1.00  0.00     0.002 A 
ATOM     77  C   UNL     1      -1.855  13.203  -5.872  1.00  0.00     0.091 A 
ATOM     78  F   UNL     1      -0.852  13.267  -3.707  1.00  0.00    -0.205 F 
ATOM     79  C   UNL     1      -1.889  13.672  -7.194  1.00  0.00     0.022 A 
BRANCH  77  80
ATOM     80  S   UNL     1      -3.053  11.941  -5.426  1.00  0.00     0.127 S 
ATOM     81  O   UNL     1      -4.309  12.686  -5.487  1.00  0.00    -0.237 OA
ATOM     82  O   UNL     1      -2.865  10.961  -6.496  1.00  0.00    -0.237 OA
ATOM     83  O   UNL     1      -2.663  11.475  -4.103  1.00  0.00    -0.744 OA
ENDBRANCH  77  80
ENDBRANCH  49  73
BRANCH  61  84
ATOM     84  C   UNL     1       1.980  20.804  -2.891  1.00  0.00     0.023 A 
ATOM     85  C   UNL     1       0.780  21.173  -2.254  1.00  0.00     0.012 A 
ATOM     86  C   UNL     1       2.733  21.784  -3.571  1.00  0.00     0.148 A 
ATOM     87  C   UNL     1       0.327  22.491  -2.308  1.00  0.00     0.002 A 
ATOM     88  C   UNL     1       2.303  23.105  -3.574  1.00  0.00     0.091 A 
ATOM     89  F   UNL     1       3.867  21.409  -4.181  1.00  0.00    -0.205 F 
ATOM     90  C   UNL     1       1.094  23.458  -2.953  1.00  0.00     0.022 A 
BRANCH  88  91
ATOM     91  S   UNL     1       3.278  24.438  -4.282  1.00  0.00     0.127 S 
ATOM     92  O   UNL     1       2.457  24.832  -5.426  1.00  0.00    -0.237 OA
ATOM     93  O   UNL     1       3.309  25.411  -3.189  1.00  0.00    -0.237 OA
ATOM     94  O   UNL     1       4.572  23.860  -4.617  1.00  0.00    -0.744 OA
ENDBRANCH  88  91
ENDBRANCH  61  84
ENDBRANCH  35  36
ENDBRANCH  28  30
ENDBRANCH  27  28
ENDBRANCH  26  27
ENDBRANCH  25  26
ENDBRANCH  24  25
ENDBRANCH  23  24
ENDBRANCH   1  23
TORSDOF 24
