REMARK SMILES COCc1cc(SCC(=O)OCCOCCOCCOCCOC(=O)c2ccc(-c3c4nc(c(-c5cccc(S(=O)(=O)[O-])c5F)c5ccc([nH]5)c(-c5cccc(S(=O)(=O)[O-])c5F)c5nc(c(-c6cccc(S(=O)(=O)[O-])c6F)c6ccc3[nH]6)C=C5)C=C4)cc2)nc(-c2ccncc2)n1
REMARK SMILES IDX 16 1 15 2 14 3 13 4 12 5 11 6 9 7 10 8 8 9 7 10 6 11 4 12
REMARK SMILES IDX 5 13 97 14 90 15 89 16 3 17 2 18 1 19 91 20 92 21 96 22
REMARK SMILES IDX 93 23 95 24 94 25 17 26 18 27 19 28 20 29 21 30 22 31 23 32
REMARK SMILES IDX 24 33 25 34 26 35 27 36 88 37 28 38 87 39 29 40 30 41 31 42
REMARK SMILES IDX 81 43 32 44 86 45 80 46 82 47 33 48 85 49 79 50 78 51 34 53
REMARK SMILES IDX 66 54 46 55 65 56 47 57 50 58 64 59 83 60 48 61 49 62 63 64
REMARK SMILES IDX 84 65 51 66 35 67 36 68 44 69 37 70 39 71 45 72 38 73 40 74
REMARK SMILES IDX 41 75 42 76 43 77 67 78 68 79 76 80 69 81 71 82 77 83 70 84
REMARK SMILES IDX 72 85 73 86 74 87 75 88 52 89 53 90 61 91 54 92 56 93 62 94
REMARK SMILES IDX 55 95 57 96 58 97 59 98 60 99
REMARK H PARENT 82 52 50 63
REMARK Flexibility Score: inf
ROOT
ATOM      1  C   UNL     1      -2.423   2.227   0.192  1.00  0.00     0.188 C 
ENDROOT
BRANCH   1   2
ATOM      2  C   UNL     1      -2.231   0.771  -0.262  1.00  0.00     0.188 C 
BRANCH   2   3
ATOM      3  O   UNL     1      -3.343  -0.043  -0.579  1.00  0.00    -0.376 OA
BRANCH   3   4
ATOM      4  C   UNL     1      -4.495  -0.080   0.236  1.00  0.00     0.202 C 
BRANCH   4   5
ATOM      5  C   UNL     1      -4.446  -0.037   1.777  1.00  0.00     0.261 C 
BRANCH   5   6
ATOM      6  O   UNL     1      -3.433   0.781   2.407  1.00  0.00    -0.463 OA
BRANCH   6   7
ATOM      7  C   UNL     1      -2.362   0.145   2.937  1.00  0.00     0.316 C 
ATOM      8  O   UNL     1      -2.244  -1.081   2.923  1.00  0.00    -0.251 OA
BRANCH   7   9
ATOM      9  C   UNL     1      -1.281   0.999   3.594  1.00  0.00     0.199 C 
BRANCH   9  10
ATOM     10  S   UNL     1      -1.206   2.812   3.353  1.00  0.00    -0.094 SA
BRANCH  10  11
ATOM     11  C   UNL     1       0.125   3.182   2.172  1.00  0.00     0.101 A 
ATOM     12  C   UNL     1       1.454   2.619   0.301  1.00  0.00     0.071 A 
ATOM     13  C   UNL     1       0.762   2.207   1.431  1.00  0.00     0.062 A 
ATOM     14  N   UNL     1       1.620   3.924  -0.000  1.00  0.00    -0.231 NA
ATOM     15  C   UNL     1       1.040   4.822   0.818  1.00  0.00     0.160 A 
ATOM     16  N   UNL     1       0.300   4.501   1.900  1.00  0.00    -0.222 NA
BRANCH  12  17
ATOM     17  C   UNL     1       1.977   1.622  -0.712  1.00  0.00     0.215 C 
BRANCH  17  18
ATOM     18  O   UNL     1       1.154   0.454  -0.801  1.00  0.00    -0.378 OA
ATOM     19  C   UNL     1       1.742  -0.701  -0.222  1.00  0.00     0.195 C 
ENDBRANCH  17  18
ENDBRANCH  12  17
BRANCH  15  20
ATOM     20  C   UNL     1       1.240   6.236   0.458  1.00  0.00     0.022 A 
ATOM     21  C   UNL     1       2.071   7.071   1.210  1.00  0.00     0.032 A 
ATOM     22  C   UNL     1       0.680   6.788  -0.705  1.00  0.00     0.032 A 
ATOM     23  C   UNL     1       2.310   8.367   0.768  1.00  0.00     0.111 A 
ATOM     24  C   UNL     1       0.972   8.095  -1.069  1.00  0.00     0.111 A 
ATOM     25  N   UNL     1       1.788   8.894  -0.360  1.00  0.00    -0.265 NA
ENDBRANCH  15  20
ENDBRANCH  10  11
ENDBRANCH   9  10
ENDBRANCH   7   9
ENDBRANCH   6   7
ENDBRANCH   5   6
ENDBRANCH   4   5
ENDBRANCH   3   4
ENDBRANCH   2   3
ENDBRANCH   1   2
BRANCH   1  26
ATOM     26  O   UNL     1      -2.828   3.250  -0.673  1.00  0.00    -0.377 OA
BRANCH  26  27
ATOM     27  C   UNL     1      -4.059   3.052  -1.312  1.00  0.00     0.188 C 
BRANCH  27  28
ATOM     28  C   UNL     1      -3.826   2.645  -2.762  1.00  0.00     0.188 C 
BRANCH  28  29
ATOM     29  O   UNL     1      -2.572   2.048  -3.037  1.00  0.00    -0.376 OA
BRANCH  29  30
ATOM     30  C   UNL     1      -1.369   2.810  -3.055  1.00  0.00     0.202 C 
BRANCH  30  31
ATOM     31  C   UNL     1      -1.161   4.286  -2.651  1.00  0.00     0.261 C 
BRANCH  31  32
ATOM     32  O   UNL     1      -2.278   5.113  -2.333  1.00  0.00    -0.460 OA
BRANCH  32  33
ATOM     33  C   UNL     1      -2.853   5.812  -3.322  1.00  0.00     0.338 C 
ATOM     34  O   UNL     1      -2.510   5.861  -4.492  1.00  0.00    -0.246 OA
BRANCH  33  35
ATOM     35  C   UNL     1      -4.123   6.328  -2.777  1.00  0.00     0.060 A 
ATOM     36  C   UNL     1      -5.306   5.793  -3.298  1.00  0.00     0.016 A 
ATOM     37  C   UNL     1      -4.158   7.258  -1.731  1.00  0.00     0.016 A 
ATOM     38  C   UNL     1      -6.532   6.188  -2.785  1.00  0.00     0.010 A 
ATOM     39  C   UNL     1      -5.397   7.698  -1.252  1.00  0.00     0.010 A 
ATOM     40  C   UNL     1      -6.583   7.183  -1.803  1.00  0.00    -0.014 A 
BRANCH  40  41
ATOM     41  C   UNL     1      -7.886   7.842  -1.579  1.00  0.00     0.031 A 
ATOM     42  C   UNL     1      -8.194   9.056  -2.411  1.00  0.00     0.074 A 
ATOM     43  C   UNL     1      -8.796   7.320  -0.739  1.00  0.00     0.049 A 
ATOM     44  N   UNL     1      -9.286   9.767  -2.462  1.00  0.00    -0.248 NA
ATOM     45  C   UNL     1      -7.131   9.521  -3.322  1.00  0.00     0.031 C 
ATOM     46  C   UNL     1      -8.605   6.126   0.083  1.00  0.00     0.029 A 
ATOM     47  N   UNL     1     -10.066   7.740  -0.434  1.00  0.00    -0.354 N 
ATOM     48  C   UNL     1      -9.031  10.780  -3.378  1.00  0.00     0.074 A 
ATOM     49  C   UNL     1      -7.688  10.589  -3.871  1.00  0.00     0.031 C 
ATOM     50  C   UNL     1      -9.708   5.928   0.826  1.00  0.00     0.029 A 
ATOM     51  C   UNL     1     -10.670   6.992   0.549  1.00  0.00     0.049 A 
ATOM     52  H   UNL     1     -10.503   8.503  -0.877  1.00  0.00     0.167 HD
ATOM     53  C   UNL     1      -9.849  11.780  -3.771  1.00  0.00     0.034 A 
ATOM     54  C   UNL     1     -11.852   7.176   1.169  1.00  0.00     0.034 A 
ATOM     55  C   UNL     1     -11.187  11.951  -3.281  1.00  0.00     0.049 A 
ATOM     56  C   UNL     1     -12.728   8.323   0.728  1.00  0.00     0.074 A 
ATOM     57  C   UNL     1     -12.118  12.904  -3.647  1.00  0.00     0.029 A 
ATOM     58  N   UNL     1     -11.772  11.167  -2.300  1.00  0.00    -0.354 N 
ATOM     59  N   UNL     1     -12.523   9.201  -0.225  1.00  0.00    -0.248 NA
ATOM     60  C   UNL     1     -14.013   8.487   1.423  1.00  0.00     0.031 C 
ATOM     61  C   UNL     1     -13.251  12.727  -2.850  1.00  0.00     0.029 A 
ATOM     62  C   UNL     1     -13.045  11.629  -2.029  1.00  0.00     0.049 A 
ATOM     63  H   UNL     1     -11.344  10.395  -1.863  1.00  0.00     0.167 HD
ATOM     64  C   UNL     1     -13.666   9.991  -0.271  1.00  0.00     0.074 A 
ATOM     65  C   UNL     1     -14.569   9.474   0.735  1.00  0.00     0.031 C 
ATOM     66  C   UNL     1     -13.944  11.057  -1.062  1.00  0.00     0.034 A 
BRANCH  53  67
ATOM     67  C   UNL     1      -9.322  12.783  -4.758  1.00  0.00     0.023 A 
ATOM     68  C   UNL     1      -9.176  12.437  -6.116  1.00  0.00     0.012 A 
ATOM     69  C   UNL     1      -9.057  14.103  -4.345  1.00  0.00     0.148 A 
ATOM     70  C   UNL     1      -8.764  13.390  -7.047  1.00  0.00     0.002 A 
ATOM     71  C   UNL     1      -8.695  15.057  -5.285  1.00  0.00     0.091 A 
ATOM     72  F   UNL     1      -9.176  14.398  -3.043  1.00  0.00    -0.205 F 
ATOM     73  C   UNL     1      -8.538  14.701  -6.634  1.00  0.00     0.022 A 
BRANCH  71  74
ATOM     74  S   UNL     1      -8.467  16.789  -4.867  1.00  0.00     0.127 S 
ATOM     75  O   UNL     1      -7.050  16.983  -5.172  1.00  0.00    -0.237 OA
ATOM     76  O   UNL     1      -9.387  17.447  -5.795  1.00  0.00    -0.237 OA
ATOM     77  O   UNL     1      -8.819  16.917  -3.460  1.00  0.00    -0.744 OA
ENDBRANCH  71  74
ENDBRANCH  53  67
BRANCH  54  78
ATOM     78  C   UNL     1     -12.280   6.276   2.279  1.00  0.00     0.023 A 
ATOM     79  C   UNL     1     -13.425   5.468   2.136  1.00  0.00     0.012 A 
ATOM     80  C   UNL     1     -11.572   6.247   3.497  1.00  0.00     0.148 A 
ATOM     81  C   UNL     1     -13.887   4.692   3.201  1.00  0.00     0.002 A 
ATOM     82  C   UNL     1     -12.002   5.425   4.532  1.00  0.00     0.091 A 
ATOM     83  F   UNL     1     -10.496   7.035   3.626  1.00  0.00    -0.205 F 
ATOM     84  C   UNL     1     -13.173   4.665   4.396  1.00  0.00     0.022 A 
BRANCH  82  85
ATOM     85  S   UNL     1     -11.067   5.232   6.053  1.00  0.00     0.127 S 
ATOM     86  O   UNL     1     -11.894   5.964   7.008  1.00  0.00    -0.237 OA
ATOM     87  O   UNL     1     -11.065   3.778   6.225  1.00  0.00    -0.237 OA
ATOM     88  O   UNL     1      -9.754   5.801   5.780  1.00  0.00    -0.744 OA
ENDBRANCH  82  85
ENDBRANCH  54  78
BRANCH  66  89
ATOM     89  C   UNL     1     -15.299  11.698  -0.921  1.00  0.00     0.023 A 
ATOM     90  C   UNL     1     -15.609  12.457   0.224  1.00  0.00     0.012 A 
ATOM     91  C   UNL     1     -16.233  11.613  -1.972  1.00  0.00     0.148 A 
ATOM     92  C   UNL     1     -16.846  13.089   0.338  1.00  0.00     0.002 A 
ATOM     93  C   UNL     1     -17.440  12.292  -1.877  1.00  0.00     0.091 A 
ATOM     94  F   UNL     1     -15.921  10.874  -3.047  1.00  0.00    -0.205 F 
ATOM     95  C   UNL     1     -17.755  13.017  -0.716  1.00  0.00     0.022 A 
BRANCH  93  96
ATOM     96  S   UNL     1     -18.622  12.345  -3.227  1.00  0.00     0.127 S 
ATOM     97  O   UNL     1     -19.713  11.527  -2.698  1.00  0.00    -0.237 OA
ATOM     98  O   UNL     1     -18.921  13.774  -3.320  1.00  0.00    -0.237 OA
ATOM     99  O   UNL     1     -17.936  11.793  -4.387  1.00  0.00    -0.744 OA
ENDBRANCH  93  96
ENDBRANCH  66  89
ENDBRANCH  40  41
ENDBRANCH  33  35
ENDBRANCH  32  33
ENDBRANCH  31  32
ENDBRANCH  30  31
ENDBRANCH  29  30
ENDBRANCH  28  29
ENDBRANCH  27  28
ENDBRANCH  26  27
ENDBRANCH   1  26
TORSDOF 28
