REMARK SMILES Nc1ccc(-c2cc(Cl)cc3c2O[C@H](C(F)(F)F)C(C(=O)OCCOCCOCCOCCOC(=O)c2ccc(-c4c5nc(c(-c6cccc(S(=O)(=O)[O-])c6F)c6ccc([nH]6)c(-c6cccc(S(=O)(=O)[O-])c6F)c6nc(c(-c7cccc(S(=O)(=O)[O-])c7F)c7ccc4[nH]7)C=C6)C=C5)cc2)=C3)cc1
REMARK SMILES IDX 29 1 28 2 27 3 26 4 25 5 24 6 23 7 22 8 20 9 21 10 19 11
REMARK SMILES IDX 6 12 7 13 12 14 8 15 11 16 13 17 9 18 10 19 100 20 14 21
REMARK SMILES IDX 5 22 2 23 3 24 102 25 4 26 101 27 1 28 15 31 16 32 17 33
REMARK SMILES IDX 18 34 30 35 31 36 32 37 33 38 34 39 35 40 36 41 37 42 38 43
REMARK SMILES IDX 99 44 39 45 98 46 40 47 41 48 42 49 92 50 43 51 97 52 91 53
REMARK SMILES IDX 93 54 44 55 96 56 90 57 89 58 45 60 77 61 57 62 76 63 58 64
REMARK SMILES IDX 61 65 75 66 94 67 59 68 60 69 74 71 95 72 62 73 46 74 47 75
REMARK SMILES IDX 55 76 48 77 50 78 56 79 49 80 51 81 52 82 53 83 54 84 78 85
REMARK SMILES IDX 79 86 87 87 80 88 82 89 88 90 81 91 83 92 84 93 85 94 86 95
REMARK SMILES IDX 63 96 64 97 72 98 65 99 67 100 73 101 66 102 68 103 69 104
REMARK SMILES IDX 70 105 71 106
REMARK H PARENT 1 29 1 30 93 59 61 70
REMARK Flexibility Score: inf
ROOT
ATOM      1  C   UNL     1      -6.012  -1.062   7.730  1.00  0.00     0.188 C 
ENDROOT
BRANCH   1   2
ATOM      2  O   UNL     1      -5.758  -1.518   6.401  1.00  0.00    -0.377 OA
BRANCH   2   3
ATOM      3  C   UNL     1      -6.420  -0.822   5.355  1.00  0.00     0.188 C 
BRANCH   3   4
ATOM      4  C   UNL     1      -7.783  -1.451   5.018  1.00  0.00     0.188 C 
BRANCH   4   5
ATOM      5  O   UNL     1      -8.236  -2.355   6.015  1.00  0.00    -0.376 OA
BRANCH   5   6
ATOM      6  C   UNL     1      -7.940  -3.741   5.899  1.00  0.00     0.202 C 
BRANCH   6   7
ATOM      7  C   UNL     1      -6.529  -4.261   5.565  1.00  0.00     0.261 C 
BRANCH   7   8
ATOM      8  O   UNL     1      -5.810  -3.570   4.536  1.00  0.00    -0.460 OA
BRANCH   8   9
ATOM      9  C   UNL     1      -6.214  -3.708   3.263  1.00  0.00     0.338 C 
ATOM     10  O   UNL     1      -7.131  -4.396   2.851  1.00  0.00    -0.246 OA
BRANCH   9  11
ATOM     11  C   UNL     1      -5.459  -2.722   2.453  1.00  0.00     0.087 C 
ATOM     12  C   UNL     1      -3.319  -0.036   0.040  1.00  0.00     0.026 A 
ATOM     13  C   UNL     1      -4.035   0.721  -0.906  1.00  0.00     0.033 A 
ATOM     14  C   UNL     1      -4.053  -0.873   0.913  1.00  0.00     0.135 A 
ATOM     15  C   UNL     1      -5.425   0.637  -0.984  1.00  0.00     0.042 A 
ATOM     16  C   UNL     1      -5.442  -1.002   0.785  1.00  0.00     0.019 A 
ATOM     17  O   UNL     1      -3.346  -1.532   1.882  1.00  0.00    -0.475 OA
ATOM     18  Cl  UNL     1      -6.272   1.572  -2.156  1.00  0.00    -0.084 Cl
ATOM     19  C   UNL     1      -6.130  -0.224  -0.150  1.00  0.00     0.032 A 
ATOM     20  C   UNL     1      -6.158  -1.990   1.577  1.00  0.00     0.027 C 
ATOM     21  C   UNL     1      -3.988  -2.527   2.718  1.00  0.00     0.316 C 
BRANCH  12  22
ATOM     22  C   UNL     1      -1.840   0.003   0.040  1.00  0.00    -0.014 A 
ATOM     23  C   UNL     1       1.001   0.037   0.007  1.00  0.00     0.031 A 
ATOM     24  C   UNL     1       0.305  -1.168  -0.045  1.00  0.00     0.026 A 
ATOM     25  C   UNL     1       0.272   1.226   0.015  1.00  0.00     0.026 A 
ATOM     26  C   UNL     1      -1.093  -1.185  -0.022  1.00  0.00     0.011 A 
ATOM     27  C   UNL     1      -1.130   1.212   0.049  1.00  0.00     0.011 A 
BRANCH  23  28
ATOM     28  N   UNL     1       2.384   0.052  -0.102  1.00  0.00    -0.399 N 
ATOM     29  H   UNL     1       2.887  -0.794  -0.107  1.00  0.00     0.156 HD
ATOM     30  H   UNL     1       2.863   0.910  -0.174  1.00  0.00     0.156 HD
ENDBRANCH  23  28
ENDBRANCH  12  22
BRANCH  21  31
ATOM     31  C   UNL     1      -3.189  -3.831   2.587  1.00  0.00     0.430 C 
ATOM     32  F   UNL     1      -1.866  -3.620   2.788  1.00  0.00    -0.167 F 
ATOM     33  F   UNL     1      -3.580  -4.764   3.483  1.00  0.00    -0.167 F 
ATOM     34  F   UNL     1      -3.326  -4.371   1.353  1.00  0.00    -0.167 F 
ENDBRANCH  21  31
ENDBRANCH   9  11
ENDBRANCH   8   9
ENDBRANCH   7   8
ENDBRANCH   6   7
ENDBRANCH   5   6
ENDBRANCH   4   5
ENDBRANCH   3   4
ENDBRANCH   2   3
ENDBRANCH   1   2
BRANCH   1  35
ATOM     35  C   UNL     1      -7.418  -0.554   8.121  1.00  0.00     0.188 C 
BRANCH  35  36
ATOM     36  O   UNL     1      -7.901   0.490   7.272  1.00  0.00    -0.376 OA
BRANCH  36  37
ATOM     37  C   UNL     1      -7.930   1.800   7.826  1.00  0.00     0.202 C 
BRANCH  37  38
ATOM     38  C   UNL     1      -6.564   2.497   7.855  1.00  0.00     0.261 C 
BRANCH  38  39
ATOM     39  O   UNL     1      -5.573   1.867   8.681  1.00  0.00    -0.460 OA
BRANCH  39  40
ATOM     40  C   UNL     1      -5.861   1.702   9.992  1.00  0.00     0.338 C 
ATOM     41  O   UNL     1      -6.850   2.105  10.579  1.00  0.00    -0.246 OA
BRANCH  40  42
ATOM     42  C   UNL     1      -4.865   0.761  10.549  1.00  0.00     0.060 A 
ATOM     43  C   UNL     1      -3.501   0.953  10.312  1.00  0.00     0.016 A 
ATOM     44  C   UNL     1      -5.308  -0.342  11.290  1.00  0.00     0.016 A 
ATOM     45  C   UNL     1      -2.576   0.062  10.857  1.00  0.00     0.010 A 
ATOM     46  C   UNL     1      -4.381  -1.237  11.830  1.00  0.00     0.010 A 
ATOM     47  C   UNL     1      -3.007  -1.022  11.642  1.00  0.00    -0.014 A 
BRANCH  47  48
ATOM     48  C   UNL     1      -2.014  -1.768  12.451  1.00  0.00     0.031 A 
ATOM     49  C   UNL     1      -1.509  -3.124  12.067  1.00  0.00     0.074 A 
ATOM     50  C   UNL     1      -1.576  -1.178  13.580  1.00  0.00     0.049 A 
ATOM     51  N   UNL     1      -0.552  -3.820  12.624  1.00  0.00    -0.248 NA
ATOM     52  C   UNL     1      -2.155  -3.791  10.927  1.00  0.00     0.031 C 
ATOM     53  C   UNL     1      -2.053   0.112  14.087  1.00  0.00     0.029 A 
ATOM     54  N   UNL     1      -0.641  -1.573  14.500  1.00  0.00    -0.354 N 
ATOM     55  C   UNL     1      -0.477  -5.008  11.911  1.00  0.00     0.074 A 
ATOM     56  C   UNL     1      -1.500  -4.947  10.887  1.00  0.00     0.031 C 
ATOM     57  C   UNL     1      -1.393   0.410  15.215  1.00  0.00     0.029 A 
ATOM     58  C   UNL     1      -0.455  -0.667  15.515  1.00  0.00     0.049 A 
ATOM     59  H   UNL     1      -0.150  -2.425  14.439  1.00  0.00     0.167 HD
ATOM     60  C   UNL     1       0.384  -6.040  12.087  1.00  0.00     0.034 A 
ATOM     61  C   UNL     1       0.389  -0.684  16.564  1.00  0.00     0.034 A 
ATOM     62  C   UNL     1       1.408  -6.082  13.099  1.00  0.00     0.049 A 
ATOM     63  C   UNL     1       1.350  -1.824  16.715  1.00  0.00     0.074 A 
ATOM     64  C   UNL     1       2.378  -7.051  13.295  1.00  0.00     0.029 A 
ATOM     65  N   UNL     1       1.589  -5.131  14.091  1.00  0.00    -0.354 N 
ATOM     66  N   UNL     1       1.518  -2.861  15.933  1.00  0.00    -0.248 NA
ATOM     67  C   UNL     1       2.260  -1.784  17.868  1.00  0.00     0.031 C 
ATOM     68  C   UNL     1       3.135  -6.694  14.415  1.00  0.00     0.029 A 
ATOM     69  C   UNL     1       2.645  -5.496  14.908  1.00  0.00     0.049 A 
ATOM     70  H   UNL     1       1.046  -4.317  14.198  1.00  0.00     0.167 HD
ATOM     71  C   UNL     1       2.564  -3.587  16.484  1.00  0.00     0.074 A 
ATOM     72  C   UNL     1       3.002  -2.866  17.662  1.00  0.00     0.031 C 
ATOM     73  C   UNL     1       3.102  -4.753  16.054  1.00  0.00     0.034 A 
BRANCH  60  74
ATOM     74  C   UNL     1       0.323  -7.196  11.127  1.00  0.00     0.023 A 
ATOM     75  C   UNL     1       0.927  -7.059   9.861  1.00  0.00     0.012 A 
ATOM     76  C   UNL     1      -0.185  -8.449  11.523  1.00  0.00     0.148 A 
ATOM     77  C   UNL     1       1.024  -8.152   9.001  1.00  0.00     0.002 A 
ATOM     78  C   UNL     1      -0.062  -9.540  10.670  1.00  0.00     0.091 A 
ATOM     79  F   UNL     1      -0.758  -8.551  12.731  1.00  0.00    -0.205 F 
ATOM     80  C   UNL     1       0.541  -9.393   9.409  1.00  0.00     0.022 A 
BRANCH  78  81
ATOM     81  S   UNL     1      -0.598 -11.195  11.119  1.00  0.00     0.127 S 
ATOM     82  O   UNL     1      -1.685 -11.420  10.166  1.00  0.00    -0.237 OA
ATOM     83  O   UNL     1       0.606 -11.987  10.868  1.00  0.00    -0.237 OA
ATOM     84  O   UNL     1      -1.005 -11.124  12.515  1.00  0.00    -0.744 OA
ENDBRANCH  78  81
ENDBRANCH  60  74
BRANCH  61  85
ATOM     85  C   UNL     1       0.408   0.480  17.488  1.00  0.00     0.023 A 
ATOM     86  C   UNL     1       1.445   1.425  17.375  1.00  0.00     0.012 A 
ATOM     87  C   UNL     1      -0.642   0.705  18.397  1.00  0.00     0.148 A 
ATOM     88  C   UNL     1       1.438   2.578  18.160  1.00  0.00     0.002 A 
ATOM     89  C   UNL     1      -0.663   1.874  19.147  1.00  0.00     0.091 A 
ATOM     90  F   UNL     1      -1.617  -0.211  18.477  1.00  0.00    -0.205 F 
ATOM     91  C   UNL     1       0.380   2.807  19.037  1.00  0.00     0.022 A 
BRANCH  89  92
ATOM     92  S   UNL     1      -2.034   2.311  20.222  1.00  0.00     0.127 S 
ATOM     93  O   UNL     1      -1.393   2.312  21.535  1.00  0.00    -0.237 OA
ATOM     94  O   UNL     1      -2.401   3.632  19.713  1.00  0.00    -0.237 OA
ATOM     95  O   UNL     1      -3.043   1.280  20.019  1.00  0.00    -0.744 OA
ENDBRANCH  89  92
ENDBRANCH  61  85
BRANCH  73  96
ATOM     96  C   UNL     1       4.236  -5.345  16.845  1.00  0.00     0.023 A 
ATOM     97  C   UNL     1       3.953  -6.056  18.026  1.00  0.00     0.012 A 
ATOM     98  C   UNL     1       5.553  -5.312  16.348  1.00  0.00     0.148 A 
ATOM     99  C   UNL     1       4.969  -6.728  18.705  1.00  0.00     0.002 A 
ATOM    100  C   UNL     1       6.554  -6.011  17.012  1.00  0.00     0.091 A 
ATOM    101  F   UNL     1       5.794  -4.621  15.225  1.00  0.00    -0.205 F 
ATOM    102  C   UNL     1       6.264  -6.716  18.192  1.00  0.00     0.022 A 
BRANCH 100 103
ATOM    103  S   UNL     1       8.237  -6.119  16.394  1.00  0.00     0.127 S 
ATOM    104  O   UNL     1       8.986  -5.436  17.448  1.00  0.00    -0.237 OA
ATOM    105  O   UNL     1       8.450  -7.565  16.333  1.00  0.00    -0.237 OA
ATOM    106  O   UNL     1       8.239  -5.447  15.102  1.00  0.00    -0.744 OA
ENDBRANCH 100 103
ENDBRANCH  73  96
ENDBRANCH  47  48
ENDBRANCH  40  42
ENDBRANCH  39  40
ENDBRANCH  38  39
ENDBRANCH  37  38
ENDBRANCH  36  37
ENDBRANCH  35  36
ENDBRANCH   1  35
TORSDOF 26
