REMARK SMILES CCCCCNC(=O)Oc1cccc(-c2ccc([C@@H](C)C(=O)OCCOCCOCCOCCOC(=O)c3ccc(-c4c5nc(c(-c6cccc(S(=O)(=O)[O-])c6F)c6ccc([nH]6)c(-c6cccc(S(=O)(=O)[O-])c6F)c6nc(c(-c7cccc(S(=O)(=O)[O-])c7F)c7ccc4[nH]7)C=C6)C=C5)cc3)cc2F)c1
REMARK SMILES IDX 27 1 26 2 25 3 24 4 23 5 21 6 22 7 19 8 20 9 18 10 15 11
REMARK SMILES IDX 16 12 102 13 17 14 101 15 103 16 14 17 10 18 11 19 104 20
REMARK SMILES IDX 12 21 13 22 9 23 7 24 6 25 8 27 5 28 4 29 3 30 2 31 1 32
REMARK SMILES IDX 28 33 29 34 30 35 31 36 32 37 33 38 34 39 35 40 36 41 37 42
REMARK SMILES IDX 38 43 39 44 100 45 40 46 99 47 41 48 42 49 43 50 93 51 44 52
REMARK SMILES IDX 98 53 92 54 94 55 45 56 97 57 91 58 90 59 46 61 78 62 58 63
REMARK SMILES IDX 77 64 59 65 62 66 76 67 95 68 60 69 61 70 75 72 96 73 63 74
REMARK SMILES IDX 47 75 48 76 56 77 49 78 51 79 57 80 50 81 52 82 53 83 54 84
REMARK SMILES IDX 55 85 79 86 80 87 88 88 81 89 83 90 89 91 82 92 84 93 85 94
REMARK SMILES IDX 86 95 87 96 64 97 65 98 73 99 66 100 68 101 74 102 67 103
REMARK SMILES IDX 69 104 70 105 71 106 72 107
REMARK H PARENT 6 26 94 60 62 71
REMARK Flexibility Score: inf
ROOT
ATOM      1  C   UNL     1      -0.964  -2.498 -12.925  1.00  0.00     0.188 C 
ENDROOT
BRANCH   1   2
ATOM      2  O   UNL     1      -1.341  -1.691 -14.033  1.00  0.00    -0.376 OA
BRANCH   2   3
ATOM      3  C   UNL     1      -2.701  -1.604 -14.438  1.00  0.00     0.202 C 
BRANCH   3   4
ATOM      4  C   UNL     1      -3.517  -2.875 -14.745  1.00  0.00     0.261 C 
BRANCH   4   5
ATOM      5  O   UNL     1      -3.506  -3.917 -13.747  1.00  0.00    -0.463 OA
BRANCH   5   6
ATOM      6  C   UNL     1      -2.756  -5.007 -14.022  1.00  0.00     0.313 C 
ATOM      7  O   UNL     1      -2.105  -5.138 -15.059  1.00  0.00    -0.252 OA
BRANCH   6   8
ATOM      8  C   UNL     1      -2.767  -6.113 -12.967  1.00  0.00     0.126 C 
ATOM      9  C   UNL     1      -3.567  -7.292 -13.509  1.00  0.00     0.025 C 
BRANCH   8  10
ATOM     10  C   UNL     1      -3.121  -5.824 -11.508  1.00  0.00    -0.031 A 
ATOM     11  C   UNL     1      -3.654  -5.307  -8.728  1.00  0.00     0.018 A 
ATOM     12  C   UNL     1      -4.612  -5.053  -9.727  1.00  0.00     0.012 A 
ATOM     13  C   UNL     1      -2.426  -5.823  -9.155  1.00  0.00     0.131 A 
ATOM     14  C   UNL     1      -4.354  -5.307 -11.092  1.00  0.00     0.005 A 
ATOM     15  C   UNL     1      -2.166  -6.090 -10.506  1.00  0.00     0.044 A 
ATOM     16  F   UNL     1      -1.457  -6.091  -8.265  1.00  0.00    -0.206 F 
BRANCH  11  17
ATOM     17  C   UNL     1      -3.949  -5.085  -7.296  1.00  0.00    -0.012 A 
ATOM     18  C   UNL     1      -3.450  -4.090  -5.126  1.00  0.00     0.133 A 
ATOM     19  C   UNL     1      -4.526  -4.753  -4.541  1.00  0.00     0.047 A 
ATOM     20  C   UNL     1      -3.147  -4.261  -6.483  1.00  0.00     0.056 A 
ATOM     21  C   UNL     1      -5.327  -5.574  -5.329  1.00  0.00     0.004 A 
ATOM     22  C   UNL     1      -5.042  -5.735  -6.690  1.00  0.00     0.009 A 
BRANCH  18  23
ATOM     23  O   UNL     1      -2.623  -3.341  -4.269  1.00  0.00    -0.410 OA
BRANCH  23  24
ATOM     24  C   UNL     1      -2.494  -1.987  -4.542  1.00  0.00     0.412 C 
ATOM     25  N   UNL     1      -1.708  -1.315  -3.645  1.00  0.00    -0.321 N 
ATOM     26  H   UNL     1      -1.529  -0.368  -3.846  1.00  0.00     0.167 HD
ATOM     27  O   UNL     1      -3.009  -1.390  -5.480  1.00  0.00    -0.224 OA
BRANCH  25  28
ATOM     28  C   UNL     1      -1.108  -1.839  -2.435  1.00  0.00     0.119 C 
BRANCH  28  29
ATOM     29  C   UNL     1       0.417  -1.733  -2.447  1.00  0.00     0.021 C 
BRANCH  29  30
ATOM     30  C   UNL     1       0.977  -0.306  -2.511  1.00  0.00     0.002 C 
BRANCH  30  31
ATOM     31  C   UNL     1       0.555   0.629  -1.375  1.00  0.00    -0.003 C 
ATOM     32  C   UNL     1       1.000   0.157   0.001  1.00  0.00     0.004 C 
ENDBRANCH  30  31
ENDBRANCH  29  30
ENDBRANCH  28  29
ENDBRANCH  25  28
ENDBRANCH  23  24
ENDBRANCH  18  23
ENDBRANCH  11  17
ENDBRANCH   8  10
ENDBRANCH   6   8
ENDBRANCH   5   6
ENDBRANCH   4   5
ENDBRANCH   3   4
ENDBRANCH   2   3
ENDBRANCH   1   2
BRANCH   1  33
ATOM     33  C   UNL     1      -1.878  -2.657 -11.701  1.00  0.00     0.188 C 
BRANCH  33  34
ATOM     34  O   UNL     1      -3.159  -2.082 -11.832  1.00  0.00    -0.377 OA
BRANCH  34  35
ATOM     35  C   UNL     1      -3.376  -0.853 -11.160  1.00  0.00     0.188 C 
BRANCH  35  36
ATOM     36  C   UNL     1      -2.230   0.175 -11.206  1.00  0.00     0.188 C 
BRANCH  36  37
ATOM     37  O   UNL     1      -0.974  -0.327 -10.756  1.00  0.00    -0.376 OA
BRANCH  37  38
ATOM     38  C   UNL     1      -0.611  -0.113  -9.398  1.00  0.00     0.202 C 
BRANCH  38  39
ATOM     39  C   UNL     1      -1.454  -0.788  -8.305  1.00  0.00     0.261 C 
BRANCH  39  40
ATOM     40  O   UNL     1      -2.847  -0.458  -8.286  1.00  0.00    -0.460 OA
BRANCH  40  41
ATOM     41  C   UNL     1      -3.199   0.834  -8.111  1.00  0.00     0.338 C 
ATOM     42  O   UNL     1      -2.458   1.778  -7.945  1.00  0.00    -0.246 OA
BRANCH  41  43
ATOM     43  C   UNL     1      -4.649   0.935  -8.407  1.00  0.00     0.060 A 
ATOM     44  C   UNL     1      -5.062   1.753  -9.468  1.00  0.00     0.016 A 
ATOM     45  C   UNL     1      -5.588   0.227  -7.654  1.00  0.00     0.016 A 
ATOM     46  C   UNL     1      -6.420   1.903  -9.748  1.00  0.00     0.010 A 
ATOM     47  C   UNL     1      -6.950   0.398  -7.921  1.00  0.00     0.010 A 
ATOM     48  C   UNL     1      -7.373   1.269  -8.942  1.00  0.00    -0.014 A 
BRANCH  48  49
ATOM     49  C   UNL     1      -8.796   1.681  -9.035  1.00  0.00     0.031 A 
ATOM     50  C   UNL     1      -9.319   2.671  -8.031  1.00  0.00     0.074 A 
ATOM     51  C   UNL     1      -9.611   1.199  -9.989  1.00  0.00     0.049 A 
ATOM     52  N   UNL     1     -10.524   3.155  -7.889  1.00  0.00    -0.248 NA
ATOM     53  C   UNL     1      -8.345   3.180  -7.050  1.00  0.00     0.031 C 
ATOM     54  C   UNL     1      -9.226   0.244 -11.024  1.00  0.00     0.029 A 
ATOM     55  N   UNL     1     -10.945   1.430 -10.217  1.00  0.00    -0.354 N 
ATOM     56  C   UNL     1     -10.465   3.999  -6.787  1.00  0.00     0.074 A 
ATOM     57  C   UNL     1      -9.107   3.948  -6.288  1.00  0.00     0.031 C 
ATOM     58  C   UNL     1     -10.313  -0.064 -11.754  1.00  0.00     0.029 A 
ATOM     59  C   UNL     1     -11.471   0.651 -11.219  1.00  0.00     0.049 A 
ATOM     60  H   UNL     1     -11.473   2.090  -9.711  1.00  0.00     0.167 HD
ATOM     61  C   UNL     1     -11.445   4.758  -6.241  1.00  0.00     0.034 A 
ATOM     62  C   UNL     1     -12.746   0.506 -11.634  1.00  0.00     0.034 A 
ATOM     63  C   UNL     1     -12.795   4.805  -6.735  1.00  0.00     0.049 A 
ATOM     64  C   UNL     1     -13.834   1.330 -10.995  1.00  0.00     0.074 A 
ATOM     65  C   UNL     1     -13.851   5.575  -6.282  1.00  0.00     0.029 A 
ATOM     66  N   UNL     1     -13.283   4.030  -7.777  1.00  0.00    -0.354 N 
ATOM     67  N   UNL     1     -13.743   2.210 -10.027  1.00  0.00    -0.248 NA
ATOM     68  C   UNL     1     -15.195   1.166 -11.528  1.00  0.00     0.031 C 
ATOM     69  C   UNL     1     -14.989   5.232  -7.021  1.00  0.00     0.029 A 
ATOM     70  C   UNL     1     -14.631   4.286  -7.968  1.00  0.00     0.049 A 
ATOM     71  H   UNL     1     -12.750   3.392  -8.303  1.00  0.00     0.167 HD
ATOM     72  C   UNL     1     -15.024   2.727  -9.856  1.00  0.00     0.074 A 
ATOM     73  C   UNL     1     -15.869   2.073 -10.833  1.00  0.00     0.031 C 
ATOM     74  C   UNL     1     -15.459   3.655  -8.966  1.00  0.00     0.034 A 
BRANCH  61  75
ATOM     75  C   UNL     1     -11.082   5.591  -5.039  1.00  0.00     0.023 A 
ATOM     76  C   UNL     1     -10.212   6.692  -5.181  1.00  0.00     0.012 A 
ATOM     77  C   UNL     1     -11.605   5.286  -3.767  1.00  0.00     0.148 A 
ATOM     78  C   UNL     1      -9.824   7.441  -4.069  1.00  0.00     0.002 A 
ATOM     79  C   UNL     1     -11.256   6.069  -2.673  1.00  0.00     0.091 A 
ATOM     80  F   UNL     1     -12.413   4.223  -3.644  1.00  0.00    -0.205 F 
ATOM     81  C   UNL     1     -10.353   7.134  -2.819  1.00  0.00     0.022 A 
BRANCH  79  82
ATOM     82  S   UNL     1     -11.948   5.804  -1.038  1.00  0.00     0.127 S 
ATOM     83  O   UNL     1     -10.809   5.229  -0.324  1.00  0.00    -0.237 OA
ATOM     84  O   UNL     1     -12.300   7.164  -0.628  1.00  0.00    -0.237 OA
ATOM     85  O   UNL     1     -13.086   4.915  -1.224  1.00  0.00    -0.744 OA
ENDBRANCH  79  82
ENDBRANCH  61  75
BRANCH  62  86
ATOM     86  C   UNL     1     -13.054  -0.463 -12.723  1.00  0.00     0.023 A 
ATOM     87  C   UNL     1     -13.433   0.005 -13.995  1.00  0.00     0.012 A 
ATOM     88  C   UNL     1     -12.920  -1.849 -12.511  1.00  0.00     0.148 A 
ATOM     89  C   UNL     1     -13.691  -0.892 -15.033  1.00  0.00     0.002 A 
ATOM     90  C   UNL     1     -13.121  -2.734 -13.563  1.00  0.00     0.091 A 
ATOM     91  F   UNL     1     -12.572  -2.272 -11.287  1.00  0.00    -0.205 F 
ATOM     92  C   UNL     1     -13.523  -2.259 -14.821  1.00  0.00     0.022 A 
BRANCH  90  93
ATOM     93  S   UNL     1     -12.800  -4.495 -13.420  1.00  0.00     0.127 S 
ATOM     94  O   UNL     1     -14.129  -5.061 -13.639  1.00  0.00    -0.237 OA
ATOM     95  O   UNL     1     -11.849  -4.711 -14.511  1.00  0.00    -0.237 OA
ATOM     96  O   UNL     1     -12.246  -4.693 -12.088  1.00  0.00    -0.744 OA
ENDBRANCH  90  93
ENDBRANCH  62  86
BRANCH  74  97
ATOM     97  C   UNL     1     -16.912   4.059  -9.023  1.00  0.00     0.023 A 
ATOM     98  C   UNL     1     -17.913   3.165  -8.595  1.00  0.00     0.012 A 
ATOM     99  C   UNL     1     -17.277   5.359  -9.428  1.00  0.00     0.148 A 
ATOM    100  C   UNL     1     -19.256   3.546  -8.603  1.00  0.00     0.002 A 
ATOM    101  C   UNL     1     -18.610   5.750  -9.383  1.00  0.00     0.091 A 
ATOM    102  F   UNL     1     -16.313   6.192  -9.847  1.00  0.00    -0.205 F 
ATOM    103  C   UNL     1     -19.602   4.840  -8.985  1.00  0.00     0.022 A 
BRANCH 101 104
ATOM    104  S   UNL     1     -19.139   7.424  -9.761  1.00  0.00     0.127 S 
ATOM    105  O   UNL     1     -19.851   7.234 -11.024  1.00  0.00    -0.237 OA
ATOM    106  O   UNL     1     -19.997   7.742  -8.619  1.00  0.00    -0.237 OA
ATOM    107  O   UNL     1     -17.924   8.223  -9.845  1.00  0.00    -0.744 OA
ENDBRANCH 101 104
ENDBRANCH  74  97
ENDBRANCH  48  49
ENDBRANCH  41  43
ENDBRANCH  40  41
ENDBRANCH  39  40
ENDBRANCH  38  39
ENDBRANCH  37  38
ENDBRANCH  36  37
ENDBRANCH  35  36
ENDBRANCH  34  35
ENDBRANCH  33  34
ENDBRANCH   1  33
TORSDOF 31
