REMARK SMILES O=C(CCNC(=O)/C(=C/c1ccccc1)NC(=O)c1ccccc1)OCCOCCOCCOCCOC(=O)c1ccc(-c2c3nc(c(-c4cccc(S(=O)(=O)[O-])c4F)c4ccc([nH]4)c(-c4cccc(S(=O)(=O)[O-])c4F)c4nc(c(-c5cccc(S(=O)(=O)[O-])c5F)c5ccc2[nH]5)C=C4)C=C3)cc1
REMARK SMILES IDX 30 1 29 2 28 3 27 4 26 5 25 6 2 7 1 8 3 9 4 10 5 11 6 12
REMARK SMILES IDX 7 14 8 15 9 16 16 17 17 18 18 20 19 21 20 22 24 23 21 24
REMARK SMILES IDX 23 25 22 26 10 27 11 28 15 29 12 30 14 31 13 32 31 33 32 34
REMARK SMILES IDX 33 35 34 36 35 37 36 38 37 39 38 40 39 41 40 42 41 43 102 44
REMARK SMILES IDX 42 45 101 46 43 47 44 48 45 49 95 50 46 51 100 52 94 53
REMARK SMILES IDX 96 54 47 55 99 56 93 57 92 58 48 60 80 61 60 62 79 63 61 64
REMARK SMILES IDX 64 65 78 66 97 67 62 68 63 69 77 71 98 72 65 73 49 74 50 75
REMARK SMILES IDX 58 76 51 77 53 78 59 79 52 80 54 81 55 82 56 83 57 84 81 85
REMARK SMILES IDX 82 86 90 87 83 88 85 89 91 90 84 91 86 92 87 93 88 94 89 95
REMARK SMILES IDX 66 96 67 97 75 98 68 99 70 100 76 101 69 102 71 103 72 104
REMARK SMILES IDX 73 105 74 106
REMARK H PARENT 5 13 16 19 96 59 64 70
REMARK Flexibility Score: inf
ROOT
ATOM      1  C   UNL     1       1.955  -2.430  -1.330  1.00  0.00     0.188 C 
ENDROOT
BRANCH   1   2
ATOM      2  C   UNL     1       2.436  -0.977  -1.192  1.00  0.00     0.188 C 
BRANCH   2   3
ATOM      3  O   UNL     1       3.813  -0.698  -1.258  1.00  0.00    -0.376 OA
BRANCH   3   4
ATOM      4  C   UNL     1       4.569  -0.330  -0.117  1.00  0.00     0.202 C 
BRANCH   4   5
ATOM      5  C   UNL     1       3.986  -0.410   1.290  1.00  0.00     0.261 C 
BRANCH   5   6
ATOM      6  O   UNL     1       2.784   0.331   1.630  1.00  0.00    -0.463 OA
BRANCH   6   7
ATOM      7  C   UNL     1       2.168   1.387   1.077  1.00  0.00     0.307 C 
ATOM      8  O   UNL     1       1.002   1.639   1.382  1.00  0.00    -0.252 OA
BRANCH   7   9
ATOM      9  C   UNL     1       2.889   2.280   0.114  1.00  0.00     0.144 C 
BRANCH   9  10
ATOM     10  C   UNL     1       3.794   3.251   0.847  1.00  0.00     0.128 C 
BRANCH  10  11
ATOM     11  N   UNL     1       4.963   2.629   1.444  1.00  0.00    -0.350 N 
ATOM     12  C   UNL     1       6.267   2.417   1.129  1.00  0.00     0.267 C 
ATOM     13  H   UNL     1       4.750   2.254   2.329  1.00  0.00     0.163 HD
ATOM     14  O   UNL     1       6.927   2.017   2.090  1.00  0.00    -0.268 OA
BRANCH  12  15
ATOM     15  C   UNL     1       6.940   2.714  -0.206  1.00  0.00     0.107 C 
ATOM     16  C   UNL     1       6.238   3.230  -1.235  1.00  0.00     0.040 C 
BRANCH  15  17
ATOM     17  N   UNL     1       8.319   2.596  -0.327  1.00  0.00    -0.317 N 
ATOM     18  C   UNL     1       9.288   1.852   0.315  1.00  0.00     0.255 C 
ATOM     19  H   UNL     1       8.690   3.175  -1.032  1.00  0.00     0.170 HD
ATOM     20  O   UNL     1      10.470   2.158   0.143  1.00  0.00    -0.269 OA
BRANCH  18  21
ATOM     21  C   UNL     1       8.996   0.628   1.093  1.00  0.00     0.040 A 
ATOM     22  C   UNL     1       9.574   0.495   2.362  1.00  0.00     0.014 A 
ATOM     23  C   UNL     1       8.217  -0.410   0.568  1.00  0.00     0.014 A 
ATOM     24  C   UNL     1       9.305  -0.633   3.138  1.00  0.00     0.001 A 
ATOM     25  C   UNL     1       7.961  -1.544   1.346  1.00  0.00     0.001 A 
ATOM     26  C   UNL     1       8.489  -1.646   2.635  1.00  0.00     0.000 A 
ENDBRANCH  18  21
ENDBRANCH  15  17
BRANCH  16  27
ATOM     27  C   UNL     1       6.753   3.935  -2.422  1.00  0.00    -0.023 A 
ATOM     28  C   UNL     1       6.288   5.247  -2.611  1.00  0.00     0.008 A 
ATOM     29  C   UNL     1       7.663   3.400  -3.337  1.00  0.00     0.008 A 
ATOM     30  C   UNL     1       6.755   6.028  -3.667  1.00  0.00     0.001 A 
ATOM     31  C   UNL     1       8.138   4.189  -4.391  1.00  0.00     0.001 A 
ATOM     32  C   UNL     1       7.690   5.501  -4.551  1.00  0.00     0.000 A 
ENDBRANCH  16  27
ENDBRANCH  12  15
ENDBRANCH  10  11
ENDBRANCH   9  10
ENDBRANCH   7   9
ENDBRANCH   6   7
ENDBRANCH   5   6
ENDBRANCH   4   5
ENDBRANCH   3   4
ENDBRANCH   2   3
ENDBRANCH   1   2
BRANCH   1  33
ATOM     33  O   UNL     1       2.754  -3.576  -1.112  1.00  0.00    -0.377 OA
BRANCH  33  34
ATOM     34  C   UNL     1       4.154  -3.466  -0.980  1.00  0.00     0.188 C 
BRANCH  34  35
ATOM     35  C   UNL     1       4.982  -3.117  -2.233  1.00  0.00     0.188 C 
BRANCH  35  36
ATOM     36  O   UNL     1       4.314  -2.407  -3.250  1.00  0.00    -0.376 OA
BRANCH  36  37
ATOM     37  C   UNL     1       3.515  -3.072  -4.211  1.00  0.00     0.202 C 
BRANCH  37  38
ATOM     38  C   UNL     1       3.016  -4.533  -4.147  1.00  0.00     0.261 C 
BRANCH  38  39
ATOM     39  O   UNL     1       3.495  -5.383  -3.106  1.00  0.00    -0.460 OA
BRANCH  39  40
ATOM     40  C   UNL     1       4.614  -6.091  -3.367  1.00  0.00     0.338 C 
ATOM     41  O   UNL     1       5.258  -6.083  -4.405  1.00  0.00    -0.246 OA
BRANCH  40  42
ATOM     42  C   UNL     1       5.085  -6.693  -2.101  1.00  0.00     0.060 A 
ATOM     43  C   UNL     1       6.377  -6.368  -1.666  1.00  0.00     0.016 A 
ATOM     44  C   UNL     1       4.274  -7.538  -1.338  1.00  0.00     0.016 A 
ATOM     45  C   UNL     1       6.880  -6.926  -0.496  1.00  0.00     0.010 A 
ATOM     46  C   UNL     1       4.793  -8.123  -0.176  1.00  0.00     0.010 A 
ATOM     47  C   UNL     1       6.114  -7.852   0.222  1.00  0.00    -0.014 A 
BRANCH  47  48
ATOM     48  C   UNL     1       6.800  -8.681   1.242  1.00  0.00     0.031 A 
ATOM     49  C   UNL     1       7.287 -10.048   0.839  1.00  0.00     0.074 A 
ATOM     50  C   UNL     1       7.070  -8.200   2.468  1.00  0.00     0.049 A 
ATOM     51  N   UNL     1       7.982 -10.917   1.525  1.00  0.00    -0.248 NA
ATOM     52  C   UNL     1       6.952 -10.490  -0.526  1.00  0.00     0.031 C 
ATOM     53  C   UNL     1       6.659  -6.891   2.974  1.00  0.00     0.029 A 
ATOM     54  N   UNL     1       7.751  -8.768   3.515  1.00  0.00    -0.354 N 
ATOM     55  C   UNL     1       8.159 -12.008   0.683  1.00  0.00     0.074 A 
ATOM     56  C   UNL     1       7.476 -11.706  -0.554  1.00  0.00     0.031 C 
ATOM     57  C   UNL     1       7.075  -6.767   4.246  1.00  0.00     0.029 A 
ATOM     58  C   UNL     1       7.768  -7.991   4.648  1.00  0.00     0.049 A 
ATOM     59  H   UNL     1       8.186  -9.650   3.460  1.00  0.00     0.167 HD
ATOM     60  C   UNL     1       8.848 -13.151   0.908  1.00  0.00     0.034 A 
ATOM     61  C   UNL     1       8.267  -8.249   5.873  1.00  0.00     0.034 A 
ATOM     62  C   UNL     1       9.528 -13.453   2.139  1.00  0.00     0.049 A 
ATOM     63  C   UNL     1       9.001  -9.545   6.110  1.00  0.00     0.074 A 
ATOM     64  C   UNL     1      10.267 -14.577   2.461  1.00  0.00     0.029 A 
ATOM     65  N   UNL     1       9.541 -12.633   3.257  1.00  0.00    -0.354 N 
ATOM     66  N   UNL     1       9.248 -10.523   5.272  1.00  0.00    -0.248 NA
ATOM     67  C   UNL     1       9.562  -9.753   7.453  1.00  0.00     0.031 C 
ATOM     68  C   UNL     1      10.700 -14.451   3.785  1.00  0.00     0.029 A 
ATOM     69  C   UNL     1      10.268 -13.229   4.274  1.00  0.00     0.049 A 
ATOM     70  H   UNL     1       9.098 -11.756   3.319  1.00  0.00     0.167 HD
ATOM     71  C   UNL     1      10.017 -11.445   5.975  1.00  0.00     0.074 A 
ATOM     72  C   UNL     1      10.225 -10.890   7.296  1.00  0.00     0.031 C 
ATOM     73  C   UNL     1      10.496 -12.649   5.572  1.00  0.00     0.034 A 
BRANCH  60  74
ATOM     74  C   UNL     1       8.919 -14.155  -0.214  1.00  0.00     0.023 A 
ATOM     75  C   UNL     1       9.700 -13.873  -1.354  1.00  0.00     0.012 A 
ATOM     76  C   UNL     1       8.258 -15.394  -0.118  1.00  0.00     0.148 A 
ATOM     77  C   UNL     1       9.797 -14.797  -2.394  1.00  0.00     0.002 A 
ATOM     78  C   UNL     1       8.398 -16.328  -1.137  1.00  0.00     0.091 A 
ATOM     79  F   UNL     1       7.502 -15.633   0.963  1.00  0.00    -0.205 F 
ATOM     80  C   UNL     1       9.156 -16.027  -2.281  1.00  0.00     0.022 A 
BRANCH  78  81
ATOM     81  S   UNL     1       7.677 -17.971  -1.054  1.00  0.00     0.127 S 
ATOM     82  O   UNL     1       6.687 -17.914  -2.129  1.00  0.00    -0.237 OA
ATOM     83  O   UNL     1       8.832 -18.825  -1.335  1.00  0.00    -0.237 OA
ATOM     84  O   UNL     1       7.129 -18.105   0.288  1.00  0.00    -0.744 OA
ENDBRANCH  78  81
ENDBRANCH  60  74
BRANCH  61  85
ATOM     85  C   UNL     1       8.096  -7.259   6.975  1.00  0.00     0.023 A 
ATOM     86  C   UNL     1       9.216  -6.598   7.516  1.00  0.00     0.012 A 
ATOM     87  C   UNL     1       6.818  -6.981   7.496  1.00  0.00     0.148 A 
ATOM     88  C   UNL     1       9.069  -5.709   8.582  1.00  0.00     0.002 A 
ATOM     89  C   UNL     1       6.671  -6.048   8.514  1.00  0.00     0.091 A 
ATOM     90  F   UNL     1       5.767  -7.635   6.981  1.00  0.00    -0.205 F 
ATOM     91  C   UNL     1       7.797  -5.426   9.074  1.00  0.00     0.022 A 
BRANCH  89  92
ATOM     92  S   UNL     1       5.061  -5.526   9.112  1.00  0.00     0.127 S 
ATOM     93  O   UNL     1       5.038  -6.103  10.454  1.00  0.00    -0.237 OA
ATOM     94  O   UNL     1       5.184  -4.068   9.068  1.00  0.00    -0.237 OA
ATOM     95  O   UNL     1       4.095  -6.074   8.170  1.00  0.00    -0.744 OA
ENDBRANCH  89  92
ENDBRANCH  61  85
BRANCH  73  96
ATOM     96  C   UNL     1      11.322 -13.434   6.562  1.00  0.00     0.023 A 
ATOM     97  C   UNL     1      10.713 -13.989   7.707  1.00  0.00     0.012 A 
ATOM     98  C   UNL     1      12.697 -13.648   6.342  1.00  0.00     0.148 A 
ATOM     99  C   UNL     1      11.470 -14.693   8.643  1.00  0.00     0.002 A 
ATOM    100  C   UNL     1      13.433 -14.399   7.250  1.00  0.00     0.091 A 
ATOM    101  F   UNL     1      13.265 -13.103   5.256  1.00  0.00    -0.205 F 
ATOM    102  C   UNL     1      12.826 -14.906   8.411  1.00  0.00     0.022 A 
BRANCH 100 103
ATOM    103  S   UNL     1      15.162 -14.807   6.984  1.00  0.00     0.127 S 
ATOM    104  O   UNL     1      15.826 -13.943   7.958  1.00  0.00    -0.237 OA
ATOM    105  O   UNL     1      15.198 -16.234   7.311  1.00  0.00    -0.237 OA
ATOM    106  O   UNL     1      15.436 -14.502   5.587  1.00  0.00    -0.744 OA
ENDBRANCH 100 103
ENDBRANCH  73  96
ENDBRANCH  47  48
ENDBRANCH  40  42
ENDBRANCH  39  40
ENDBRANCH  38  39
ENDBRANCH  37  38
ENDBRANCH  36  37
ENDBRANCH  35  36
ENDBRANCH  34  35
ENDBRANCH  33  34
ENDBRANCH   1  33
TORSDOF 29
