REMARK SMILES O=C(OCCOCCOCCOCCOC(=O)[C@]1(CCc2cccnc2)CCC[NH2+]C1)c1ccc(-c2c3nc(c(-c4cccc(S(=O)(=O)[O-])c4F)c4ccc([nH]4)c(-c4cccc(S(=O)(=O)[O-])c4F)c4nc(c(-c5cccc(S(=O)(=O)[O-])c5F)c5ccc2[nH]5)C=C4)C=C3)cc1
REMARK SMILES IDX 9 1 8 2 7 3 6 4 5 5 4 6 3 7 2 8 1 9 32 10 33 11 94 12 34 13
REMARK SMILES IDX 93 14 35 15 36 16 37 17 87 18 38 19 92 20 86 21 88 22 39 23
REMARK SMILES IDX 91 24 85 25 84 26 40 28 72 29 52 30 71 31 53 32 56 33 70 34
REMARK SMILES IDX 89 35 54 36 55 37 69 39 90 40 57 41 41 42 42 43 50 44 43 45
REMARK SMILES IDX 45 46 51 47 44 48 46 49 47 50 48 51 49 52 73 53 74 54 82 55
REMARK SMILES IDX 75 56 77 57 83 58 76 59 78 60 79 61 80 62 81 63 58 64 59 65
REMARK SMILES IDX 67 66 60 67 62 68 68 69 61 70 63 71 64 72 65 73 66 74 10 75
REMARK SMILES IDX 11 76 12 77 13 78 14 79 15 80 16 81 17 82 18 83 27 84 31 85
REMARK SMILES IDX 28 86 30 87 29 88 19 91 20 92 21 93 22 94 26 95 23 96 25 97
REMARK SMILES IDX 24 98
REMARK H PARENT 88 27 56 38 30 89 30 90
REMARK Flexibility Score: inf
ROOT
ATOM      1  O   UNL     1       2.619  -2.118   2.567  1.00  0.00    -0.377 OA
ENDROOT
BRANCH   1   2
ATOM      2  C   UNL     1       1.830  -1.521   1.547  1.00  0.00     0.188 C 
BRANCH   2   3
ATOM      3  C   UNL     1       2.261  -0.114   1.161  1.00  0.00     0.188 C 
BRANCH   3   4
ATOM      4  O   UNL     1       3.556  -0.213   0.578  1.00  0.00    -0.376 OA
BRANCH   4   5
ATOM      5  C   UNL     1       4.460   0.849   0.843  1.00  0.00     0.202 C 
BRANCH   5   6
ATOM      6  C   UNL     1       4.323   1.989  -0.150  1.00  0.00     0.261 C 
BRANCH   6   7
ATOM      7  O   UNL     1       3.030   2.059  -0.766  1.00  0.00    -0.460 OA
BRANCH   7   8
ATOM      8  C   UNL     1       2.495   1.300  -1.755  1.00  0.00     0.338 C 
ATOM      9  O   UNL     1       1.326   1.536  -2.067  1.00  0.00    -0.246 OA
BRANCH   8  10
ATOM     10  C   UNL     1       3.193   0.197  -2.499  1.00  0.00     0.060 A 
ATOM     11  C   UNL     1       4.299  -0.533  -2.058  1.00  0.00     0.016 A 
ATOM     12  C   UNL     1       2.611  -0.191  -3.720  1.00  0.00     0.016 A 
ATOM     13  C   UNL     1       4.785  -1.631  -2.750  1.00  0.00     0.010 A 
ATOM     14  C   UNL     1       3.127  -1.257  -4.461  1.00  0.00     0.010 A 
ATOM     15  C   UNL     1       4.223  -1.971  -3.969  1.00  0.00    -0.014 A 
BRANCH  15  16
ATOM     16  C   UNL     1       4.975  -2.916  -4.800  1.00  0.00     0.031 A 
ATOM     17  C   UNL     1       5.869  -2.329  -5.843  1.00  0.00     0.074 A 
ATOM     18  C   UNL     1       4.949  -4.229  -4.522  1.00  0.00     0.049 A 
ATOM     19  N   UNL     1       6.550  -2.925  -6.777  1.00  0.00    -0.248 NA
ATOM     20  C   UNL     1       6.037  -0.861  -5.817  1.00  0.00     0.031 C 
ATOM     21  C   UNL     1       4.233  -4.841  -3.399  1.00  0.00     0.029 A 
ATOM     22  N   UNL     1       5.534  -5.285  -5.164  1.00  0.00    -0.354 N 
ATOM     23  C   UNL     1       7.152  -1.905  -7.501  1.00  0.00     0.074 A 
ATOM     24  C   UNL     1       6.815  -0.655  -6.867  1.00  0.00     0.031 C 
ATOM     25  C   UNL     1       4.383  -6.174  -3.462  1.00  0.00     0.029 A 
ATOM     26  C   UNL     1       5.134  -6.503  -4.666  1.00  0.00     0.049 A 
ATOM     27  H   UNL     1       6.174  -5.184  -5.905  1.00  0.00     0.167 HD
ATOM     28  C   UNL     1       7.889  -2.022  -8.625  1.00  0.00     0.034 A 
ATOM     29  C   UNL     1       5.298  -7.731  -5.192  1.00  0.00     0.034 A 
ATOM     30  C   UNL     1       8.198  -3.292  -9.211  1.00  0.00     0.049 A 
ATOM     31  C   UNL     1       6.054  -7.825  -6.492  1.00  0.00     0.074 A 
ATOM     32  C   UNL     1       8.918  -3.562 -10.356  1.00  0.00     0.029 A 
ATOM     33  N   UNL     1       7.772  -4.509  -8.696  1.00  0.00    -0.354 N 
ATOM     34  N   UNL     1       6.646  -6.870  -7.173  1.00  0.00    -0.248 NA
ATOM     35  C   UNL     1       6.168  -9.155  -7.101  1.00  0.00     0.031 C 
ATOM     36  C   UNL     1       8.882  -4.944 -10.562  1.00  0.00     0.029 A 
ATOM     37  C   UNL     1       8.182  -5.537  -9.518  1.00  0.00     0.049 A 
ATOM     38  H   UNL     1       7.254  -4.622  -7.866  1.00  0.00     0.167 HD
ATOM     39  C   UNL     1       7.216  -7.482  -8.279  1.00  0.00     0.074 A 
ATOM     40  C   UNL     1       6.925  -8.899  -8.160  1.00  0.00     0.031 C 
ATOM     41  C   UNL     1       7.899  -6.936  -9.316  1.00  0.00     0.034 A 
BRANCH  28  42
ATOM     42  C   UNL     1       8.303  -0.759  -9.321  1.00  0.00     0.023 A 
ATOM     43  C   UNL     1       9.332   0.052  -8.803  1.00  0.00     0.012 A 
ATOM     44  C   UNL     1       7.652  -0.380 -10.511  1.00  0.00     0.148 A 
ATOM     45  C   UNL     1       9.690   1.235  -9.451  1.00  0.00     0.002 A 
ATOM     46  C   UNL     1       8.044   0.775 -11.174  1.00  0.00     0.091 A 
ATOM     47  F   UNL     1       6.650  -1.148 -10.961  1.00  0.00    -0.205 F 
ATOM     48  C   UNL     1       9.054   1.590 -10.639  1.00  0.00     0.022 A 
BRANCH  46  49
ATOM     49  S   UNL     1       7.327   1.280 -12.740  1.00  0.00     0.127 S 
ATOM     50  O   UNL     1       6.728   2.569 -12.389  1.00  0.00    -0.237 OA
ATOM     51  O   UNL     1       8.513   1.373 -13.595  1.00  0.00    -0.237 OA
ATOM     52  O   UNL     1       6.382   0.241 -13.111  1.00  0.00    -0.744 OA
ENDBRANCH  46  49
ENDBRANCH  28  42
BRANCH  29  53
ATOM     53  C   UNL     1       4.679  -8.928  -4.552  1.00  0.00     0.023 A 
ATOM     54  C   UNL     1       5.494  -9.971  -4.074  1.00  0.00     0.012 A 
ATOM     55  C   UNL     1       3.278  -9.047  -4.430  1.00  0.00     0.148 A 
ATOM     56  C   UNL     1       4.927 -11.125  -3.527  1.00  0.00     0.002 A 
ATOM     57  C   UNL     1       2.722 -10.172  -3.831  1.00  0.00     0.091 A 
ATOM     58  F   UNL     1       2.509  -8.060  -4.910  1.00  0.00    -0.205 F 
ATOM     59  C   UNL     1       3.544 -11.222  -3.398  1.00  0.00     0.022 A 
BRANCH  57  60
ATOM     60  S   UNL     1       0.960 -10.320  -3.515  1.00  0.00     0.127 S 
ATOM     61  O   UNL     1       0.560 -11.312  -4.514  1.00  0.00    -0.237 OA
ATOM     62  O   UNL     1       0.940 -10.801  -2.131  1.00  0.00    -0.237 OA
ATOM     63  O   UNL     1       0.414  -8.985  -3.692  1.00  0.00    -0.744 OA
ENDBRANCH  57  60
ENDBRANCH  29  53
BRANCH  41  64
ATOM     64  C   UNL     1       8.399  -7.872 -10.376  1.00  0.00     0.023 A 
ATOM     65  C   UNL     1       7.496  -8.418 -11.307  1.00  0.00     0.012 A 
ATOM     66  C   UNL     1       9.780  -8.100 -10.518  1.00  0.00     0.148 A 
ATOM     67  C   UNL     1       7.963  -9.199 -12.361  1.00  0.00     0.002 A 
ATOM     68  C   UNL     1      10.242  -8.828 -11.603  1.00  0.00     0.091 A 
ATOM     69  F   UNL     1      10.612  -7.575  -9.607  1.00  0.00    -0.205 F 
ATOM     70  C   UNL     1       9.335  -9.389 -12.518  1.00  0.00     0.022 A 
BRANCH  68  71
ATOM     71  S   UNL     1      11.991  -9.021 -11.953  1.00  0.00     0.127 S 
ATOM     72  O   UNL     1      12.181 -10.454 -11.733  1.00  0.00    -0.237 OA
ATOM     73  O   UNL     1      12.073  -8.601 -13.352  1.00  0.00    -0.237 OA
ATOM     74  O   UNL     1      12.691  -8.153 -11.016  1.00  0.00    -0.744 OA
ENDBRANCH  68  71
ENDBRANCH  41  64
ENDBRANCH  15  16
ENDBRANCH   8  10
ENDBRANCH   7   8
ENDBRANCH   6   7
ENDBRANCH   5   6
ENDBRANCH   4   5
ENDBRANCH   3   4
ENDBRANCH   2   3
ENDBRANCH   1   2
BRANCH   1  75
ATOM     75  C   UNL     1       4.023  -1.917   2.513  1.00  0.00     0.188 C 
BRANCH  75  76
ATOM     76  C   UNL     1       4.957  -2.706   1.589  1.00  0.00     0.188 C 
BRANCH  76  77
ATOM     77  O   UNL     1       4.443  -3.706   0.742  1.00  0.00    -0.376 OA
BRANCH  77  78
ATOM     78  C   UNL     1       3.470  -4.596   1.260  1.00  0.00     0.202 C 
BRANCH  78  79
ATOM     79  C   UNL     1       3.648  -5.221   2.652  1.00  0.00     0.261 C 
BRANCH  79  80
ATOM     80  O   UNL     1       3.755  -4.318   3.783  1.00  0.00    -0.463 OA
BRANCH  80  81
ATOM     81  C   UNL     1       4.944  -4.275   4.438  1.00  0.00     0.317 C 
ATOM     82  O   UNL     1       5.910  -4.971   4.128  1.00  0.00    -0.251 OA
BRANCH  81  83
ATOM     83  C   UNL     1       5.004  -3.307   5.665  1.00  0.00     0.117 C 
ATOM     84  C   UNL     1       3.817  -2.354   6.014  1.00  0.00     0.030 C 
ATOM     85  C   UNL     1       6.315  -2.470   5.510  1.00  0.00     0.279 C 
ATOM     86  C   UNL     1       3.874  -0.878   5.578  1.00  0.00     0.063 C 
ATOM     87  N   UNL     1       6.173  -1.234   4.726  1.00  0.00    -0.345 N 
ATOM     88  C   UNL     1       5.269  -0.298   5.377  1.00  0.00     0.260 C 
ATOM     89  H   UNL     1       7.089  -0.797   4.626  1.00  0.00     0.346 HD
ATOM     90  H   UNL     1       5.787  -1.474   3.813  1.00  0.00     0.346 HD
BRANCH  83  91
ATOM     91  C   UNL     1       5.186  -4.295   6.871  1.00  0.00     0.029 C 
BRANCH  91  92
ATOM     92  C   UNL     1       3.927  -5.072   7.323  1.00  0.00     0.038 C 
BRANCH  92  93
ATOM     93  C   UNL     1       3.316  -6.028   6.337  1.00  0.00    -0.030 A 
ATOM     94  C   UNL     1       4.019  -7.131   5.845  1.00  0.00     0.007 A 
ATOM     95  C   UNL     1       2.018  -5.843   5.862  1.00  0.00     0.114 A 
ATOM     96  C   UNL     1       3.425  -7.969   4.902  1.00  0.00     0.020 A 
ATOM     97  N   UNL     1       1.406  -6.658   4.972  1.00  0.00    -0.264 NA
ATOM     98  C   UNL     1       2.128  -7.697   4.502  1.00  0.00     0.111 A 
ENDBRANCH  92  93
ENDBRANCH  91  92
ENDBRANCH  83  91
ENDBRANCH  81  83
ENDBRANCH  80  81
ENDBRANCH  79  80
ENDBRANCH  78  79
ENDBRANCH  77  78
ENDBRANCH  76  77
ENDBRANCH  75  76
ENDBRANCH   1  75
TORSDOF 26
