REMARK SMILES C#CCNC(=O)C[N@@H+](CC(=O)OCCOCCOCCOCCOC(=O)c1ccc(-c2c3nc(c(-c4cccc(S(=O)(=O)[O-])c4F)c4ccc([nH]4)c(-c4cccc(S(=O)(=O)[O-])c4F)c4nc(c(-c5cccc(S(=O)(=O)[O-])c5F)c5ccc2[nH]5)C=C4)C=C3)cc1)C(C)(C)C
REMARK SMILES IDX 17 1 16 2 15 3 14 4 13 5 12 6 10 7 11 8 9 9 8 10 7 12 5 13
REMARK SMILES IDX 4 14 6 16 3 17 2 18 1 19 90 20 91 21 92 22 93 23 18 24 19 25
REMARK SMILES IDX 20 26 21 27 22 28 23 29 24 30 25 31 26 32 27 33 28 34 89 35
REMARK SMILES IDX 29 36 88 37 30 38 31 39 32 40 82 41 33 42 87 43 81 44 83 45
REMARK SMILES IDX 34 46 86 47 80 48 79 49 35 51 67 52 47 53 66 54 48 55 51 56
REMARK SMILES IDX 65 57 84 58 49 59 50 60 64 62 85 63 52 64 36 65 37 66 45 67
REMARK SMILES IDX 38 68 40 69 46 70 39 71 41 72 42 73 43 74 44 75 68 76 69 77
REMARK SMILES IDX 77 78 70 79 72 80 78 81 71 82 73 83 74 84 75 85 76 86 53 87
REMARK SMILES IDX 54 88 62 89 55 90 57 91 63 92 56 93 58 94 59 95 60 96 61 97
REMARK H PARENT 8 11 4 15 83 50 51 61
REMARK Flexibility Score: inf
ROOT
ATOM      1  C   UNL     1      -3.140   4.151  -6.555  1.00  0.00     0.188 C 
ENDROOT
BRANCH   1   2
ATOM      2  C   UNL     1      -3.241   2.743  -7.171  1.00  0.00     0.188 C 
BRANCH   2   3
ATOM      3  O   UNL     1      -4.542   2.367  -7.625  1.00  0.00    -0.376 OA
BRANCH   3   4
ATOM      4  C   UNL     1      -5.609   2.525  -6.691  1.00  0.00     0.202 C 
BRANCH   4   5
ATOM      5  C   UNL     1      -5.705   1.524  -5.523  1.00  0.00     0.261 C 
BRANCH   5   6
ATOM      6  O   UNL     1      -4.548   1.388  -4.664  1.00  0.00    -0.459 OA
BRANCH   6   7
ATOM      7  C   UNL     1      -3.893   0.202  -4.735  1.00  0.00     0.361 C 
ATOM      8  O   UNL     1      -4.127  -0.646  -5.598  1.00  0.00    -0.245 OA
BRANCH   7   9
ATOM      9  C   UNL     1      -2.849  -0.100  -3.649  1.00  0.00     0.387 C 
BRANCH   9  10
ATOM     10  N   UNL     1      -2.467   0.881  -2.590  1.00  0.00    -0.314 N 
ATOM     11  H   UNL     1      -1.927   0.361  -1.899  1.00  0.00     0.349 HD
BRANCH  10  12
ATOM     12  C   UNL     1      -3.656   1.351  -1.840  1.00  0.00     0.364 C 
BRANCH  12  13
ATOM     13  C   UNL     1      -3.351   1.858  -0.430  1.00  0.00     0.275 C 
ATOM     14  N   UNL     1      -2.457   1.184   0.349  1.00  0.00    -0.340 N 
ATOM     15  H   UNL     1      -2.197   1.608   1.198  1.00  0.00     0.164 HD
ATOM     16  O   UNL     1      -3.901   2.860   0.029  1.00  0.00    -0.268 OA
BRANCH  14  17
ATOM     17  C   UNL     1      -1.865  -0.079   0.046  1.00  0.00     0.206 C 
BRANCH  17  18
ATOM     18  C   UNL     1      -0.345  -0.079   0.046  1.00  0.00    -0.085 C 
ATOM     19  C   UNL     1       0.959  -0.079   0.046  1.00  0.00     0.006 C 
ENDBRANCH  17  18
ENDBRANCH  14  17
ENDBRANCH  12  13
ENDBRANCH  10  12
BRANCH  10  20
ATOM     20  C   UNL     1      -1.339   1.810  -2.852  1.00  0.00     0.090 C 
ATOM     21  C   UNL     1      -1.794   2.818  -3.862  1.00  0.00     0.078 C 
ATOM     22  C   UNL     1      -0.792   2.686  -1.688  1.00  0.00     0.078 C 
ATOM     23  C   UNL     1      -0.113   1.077  -3.449  1.00  0.00     0.078 C 
ENDBRANCH  10  20
ENDBRANCH   9  10
ENDBRANCH   7   9
ENDBRANCH   6   7
ENDBRANCH   5   6
ENDBRANCH   4   5
ENDBRANCH   3   4
ENDBRANCH   2   3
ENDBRANCH   1   2
BRANCH   1  24
ATOM     24  O   UNL     1      -3.784   4.163  -5.288  1.00  0.00    -0.377 OA
BRANCH  24  25
ATOM     25  C   UNL     1      -4.162   5.398  -4.695  1.00  0.00     0.188 C 
BRANCH  25  26
ATOM     26  C   UNL     1      -3.511   6.689  -5.210  1.00  0.00     0.188 C 
BRANCH  26  27
ATOM     27  O   UNL     1      -2.087   6.802  -5.210  1.00  0.00    -0.376 OA
BRANCH  27  28
ATOM     28  C   UNL     1      -1.361   6.189  -4.154  1.00  0.00     0.202 C 
BRANCH  28  29
ATOM     29  C   UNL     1      -1.219   6.939  -2.834  1.00  0.00     0.261 C 
BRANCH  29  30
ATOM     30  O   UNL     1      -2.438   6.883  -2.083  1.00  0.00    -0.460 OA
BRANCH  30  31
ATOM     31  C   UNL     1      -3.202   7.993  -2.176  1.00  0.00     0.338 C 
ATOM     32  O   UNL     1      -2.942   9.020  -2.775  1.00  0.00    -0.246 OA
BRANCH  31  33
ATOM     33  C   UNL     1      -4.520   7.723  -1.586  1.00  0.00     0.060 A 
ATOM     34  C   UNL     1      -5.642   7.946  -2.393  1.00  0.00     0.016 A 
ATOM     35  C   UNL     1      -4.655   7.369  -0.243  1.00  0.00     0.016 A 
ATOM     36  C   UNL     1      -6.912   7.880  -1.843  1.00  0.00     0.010 A 
ATOM     37  C   UNL     1      -5.932   7.328   0.316  1.00  0.00     0.010 A 
ATOM     38  C   UNL     1      -7.053   7.636  -0.474  1.00  0.00    -0.014 A 
BRANCH  38  39
ATOM     39  C   UNL     1      -8.356   7.927   0.151  1.00  0.00     0.031 A 
ATOM     40  C   UNL     1      -8.542   9.260   0.817  1.00  0.00     0.074 A 
ATOM     41  C   UNL     1      -9.358   7.037   0.077  1.00  0.00     0.049 A 
ATOM     42  N   UNL     1      -9.585   9.733   1.444  1.00  0.00    -0.248 NA
ATOM     43  C   UNL     1      -7.398  10.188   0.766  1.00  0.00     0.031 C 
ATOM     44  C   UNL     1      -9.279   5.733  -0.578  1.00  0.00     0.029 A 
ATOM     45  N   UNL     1     -10.630   7.091   0.581  1.00  0.00    -0.354 N 
ATOM     46  C   UNL     1      -9.211  10.991   1.899  1.00  0.00     0.074 A 
ATOM     47  C   UNL     1      -7.847  11.212   1.474  1.00  0.00     0.031 C 
ATOM     48  C   UNL     1     -10.444   5.088  -0.399  1.00  0.00     0.029 A 
ATOM     49  C   UNL     1     -11.329   5.923   0.410  1.00  0.00     0.049 A 
ATOM     50  H   UNL     1     -11.004   7.888   1.022  1.00  0.00     0.167 HD
ATOM     51  C   UNL     1      -9.944  11.881   2.607  1.00  0.00     0.034 A 
ATOM     52  C   UNL     1     -12.533   5.560   0.891  1.00  0.00     0.034 A 
ATOM     53  C   UNL     1     -11.302  11.645   3.013  1.00  0.00     0.049 A 
ATOM     54  C   UNL     1     -13.318   6.556   1.702  1.00  0.00     0.074 A 
ATOM     55  C   UNL     1     -12.156  12.492   3.694  1.00  0.00     0.029 A 
ATOM     56  N   UNL     1     -11.995  10.463   2.795  1.00  0.00    -0.354 N 
ATOM     57  N   UNL     1     -12.997   7.782   2.041  1.00  0.00    -0.248 NA
ATOM     58  C   UNL     1     -14.645   6.133   2.167  1.00  0.00     0.031 C 
ATOM     59  C   UNL     1     -13.352  11.804   3.928  1.00  0.00     0.029 A 
ATOM     60  C   UNL     1     -13.261  10.548   3.348  1.00  0.00     0.049 A 
ATOM     61  H   UNL     1     -11.639   9.679   2.318  1.00  0.00     0.167 HD
ATOM     62  C   UNL     1     -14.092   8.289   2.731  1.00  0.00     0.074 A 
ATOM     63  C   UNL     1     -15.094   7.241   2.741  1.00  0.00     0.031 C 
ATOM     64  C   UNL     1     -14.255   9.505   3.311  1.00  0.00     0.034 A 
BRANCH  51  65
ATOM     65  C   UNL     1      -9.284  13.176   2.999  1.00  0.00     0.023 A 
ATOM     66  C   UNL     1      -8.995  14.151   2.022  1.00  0.00     0.012 A 
ATOM     67  C   UNL     1      -8.978  13.440   4.349  1.00  0.00     0.148 A 
ATOM     68  C   UNL     1      -8.380  15.352   2.378  1.00  0.00     0.002 A 
ATOM     69  C   UNL     1      -8.411  14.658   4.702  1.00  0.00     0.091 A 
ATOM     70  F   UNL     1      -9.235  12.490   5.259  1.00  0.00    -0.205 F 
ATOM     71  C   UNL     1      -8.098  15.609   3.717  1.00  0.00     0.022 A 
BRANCH  69  72
ATOM     72  S   UNL     1      -8.085  15.115   6.408  1.00  0.00     0.127 S 
ATOM     73  O   UNL     1      -6.623  15.109   6.441  1.00  0.00    -0.237 OA
ATOM     74  O   UNL     1      -8.691  16.444   6.489  1.00  0.00    -0.237 OA
ATOM     75  O   UNL     1      -8.731  14.100   7.228  1.00  0.00    -0.744 OA
ENDBRANCH  69  72
ENDBRANCH  51  65
BRANCH  52  76
ATOM     76  C   UNL     1     -13.058   4.195   0.613  1.00  0.00     0.023 A 
ATOM     77  C   UNL     1     -14.169   4.029  -0.235  1.00  0.00     0.012 A 
ATOM     78  C   UNL     1     -12.434   3.057   1.162  1.00  0.00     0.148 A 
ATOM     79  C   UNL     1     -14.667   2.755  -0.509  1.00  0.00     0.002 A 
ATOM     80  C   UNL     1     -12.899   1.789   0.838  1.00  0.00     0.091 A 
ATOM     81  F   UNL     1     -11.385   3.239   1.976  1.00  0.00    -0.205 F 
ATOM     82  C   UNL     1     -14.027   1.636   0.018  1.00  0.00     0.022 A 
BRANCH  80  83
ATOM     83  S   UNL     1     -12.059   0.290   1.362  1.00  0.00     0.127 S 
ATOM     84  O   UNL     1     -13.036  -0.296   2.276  1.00  0.00    -0.237 OA
ATOM     85  O   UNL     1     -11.898  -0.421   0.093  1.00  0.00    -0.237 OA
ATOM     86  O   UNL     1     -10.809   0.726   1.969  1.00  0.00    -0.744 OA
ENDBRANCH  80  83
ENDBRANCH  52  76
BRANCH  64  87
ATOM     87  C   UNL     1     -15.579   9.788   3.970  1.00  0.00     0.023 A 
ATOM     88  C   UNL     1     -15.921   9.148   5.177  1.00  0.00     0.012 A 
ATOM     89  C   UNL     1     -16.455  10.747   3.423  1.00  0.00     0.148 A 
ATOM     90  C   UNL     1     -17.131   9.429   5.809  1.00  0.00     0.002 A 
ATOM     91  C   UNL     1     -17.633  11.063   4.088  1.00  0.00     0.091 A 
ATOM     92  F   UNL     1     -16.118  11.334   2.265  1.00  0.00    -0.205 F 
ATOM     93  C   UNL     1     -17.980  10.394   5.272  1.00  0.00     0.022 A 
BRANCH  91  94
ATOM     94  S   UNL     1     -18.735  12.365   3.526  1.00  0.00     0.127 S 
ATOM     95  O   UNL     1     -19.885  11.596   3.052  1.00  0.00    -0.237 OA
ATOM     96  O   UNL     1     -18.972  13.122   4.756  1.00  0.00    -0.237 OA
ATOM     97  O   UNL     1     -18.007  13.095   2.497  1.00  0.00    -0.744 OA
ENDBRANCH  91  94
ENDBRANCH  64  87
ENDBRANCH  38  39
ENDBRANCH  31  33
ENDBRANCH  30  31
ENDBRANCH  29  30
ENDBRANCH  28  29
ENDBRANCH  27  28
ENDBRANCH  26  27
ENDBRANCH  25  26
ENDBRANCH  24  25
ENDBRANCH   1  24
TORSDOF 29
