REMARK SMILES C[C@@H]1[C@@H](C(=O)OCCOCCOCCOCCOC(=O)c2ccc(-c3c4nc(c(-c5cccc(S(=O)(=O)[O-])c5F)c5ccc([nH]5)c(-c5cccc(S(=O)(=O)[O-])c5F)c5nc(c(-c6cccc(S(=O)(=O)[O-])c6F)c6ccc3[nH]6)C=C5)C=C4)cc2)CCN1C(=O)N(C)CCOCC1CC1
REMARK SMILES IDX 10 1 9 2 8 3 7 4 6 5 4 6 5 7 3 8 1 9 2 10 86 11 84 12 85 13
REMARK SMILES IDX 87 14 88 15 89 16 90 17 91 18 92 19 93 20 94 21 95 22 96 23
REMARK SMILES IDX 97 24 11 25 12 26 13 27 14 28 15 29 16 30 17 31 18 32 19 33
REMARK SMILES IDX 20 34 21 35 22 36 83 37 23 38 82 39 24 40 25 41 26 42 76 43
REMARK SMILES IDX 27 44 81 45 75 46 77 47 28 48 80 49 74 50 73 51 29 53 61 54
REMARK SMILES IDX 41 55 60 56 42 57 45 58 59 59 78 60 43 61 44 62 58 64 79 65
REMARK SMILES IDX 46 66 30 67 31 68 39 69 32 70 34 71 40 72 33 73 35 74 36 75
REMARK SMILES IDX 37 76 38 77 62 78 63 79 71 80 64 81 66 82 72 83 65 84 67 85
REMARK SMILES IDX 68 86 69 87 70 88 47 89 48 90 56 91 49 92 51 93 57 94 50 95
REMARK SMILES IDX 52 96 53 97 54 98 55 99
REMARK H PARENT 77 52 45 63
REMARK Flexibility Score: inf
ROOT
ATOM      1  C   UNL     1       0.549   2.234  -3.460  1.00  0.00     0.188 C 
ENDROOT
BRANCH   1   2
ATOM      2  O   UNL     1      -0.301   2.448  -4.569  1.00  0.00    -0.376 OA
BRANCH   2   3
ATOM      3  C   UNL     1      -1.523   1.744  -4.732  1.00  0.00     0.202 C 
BRANCH   3   4
ATOM      4  C   UNL     1      -2.610   1.638  -3.640  1.00  0.00     0.261 C 
BRANCH   4   5
ATOM      5  O   UNL     1      -2.170   1.640  -2.286  1.00  0.00    -0.463 OA
BRANCH   5   6
ATOM      6  C   UNL     1      -1.535   0.514  -1.901  1.00  0.00     0.311 C 
ATOM      7  O   UNL     1      -1.420  -0.476  -2.611  1.00  0.00    -0.252 OA
BRANCH   6   8
ATOM      8  C   UNL     1      -0.850   0.733  -0.561  1.00  0.00     0.123 C 
ATOM      9  C   UNL     1       1.445   0.449   0.478  1.00  0.00     0.032 C 
ATOM     10  C   UNL     1       0.435  -0.109  -0.535  1.00  0.00     0.098 C 
ATOM     11  N   UNL     1      -0.078  -1.431  -0.179  1.00  0.00    -0.321 N 
ATOM     12  C   UNL     1      -1.658   0.196   0.599  1.00  0.00     0.039 C 
ATOM     13  C   UNL     1      -1.372  -1.287   0.515  1.00  0.00     0.122 C 
BRANCH  11  14
ATOM     14  C   UNL     1       0.045  -2.574  -0.962  1.00  0.00     0.320 C 
ATOM     15  O   UNL     1      -0.954  -3.260  -1.209  1.00  0.00    -0.248 OA
BRANCH  14  16
ATOM     16  N   UNL     1       1.304  -3.100  -1.199  1.00  0.00    -0.325 N 
ATOM     17  C   UNL     1       2.557  -2.397  -1.404  1.00  0.00     0.148 C 
BRANCH  16  18
ATOM     18  C   UNL     1       1.350  -4.559  -1.391  1.00  0.00     0.149 C 
BRANCH  18  19
ATOM     19  C   UNL     1       1.690  -5.388  -0.127  1.00  0.00     0.181 C 
BRANCH  19  20
ATOM     20  O   UNL     1       0.709  -5.568   0.894  1.00  0.00    -0.379 OA
BRANCH  20  21
ATOM     21  C   UNL     1       0.315  -4.439   1.664  1.00  0.00     0.163 C 
BRANCH  21  22
ATOM     22  C   UNL     1       1.322  -3.996   2.682  1.00  0.00     0.015 C 
ATOM     23  C   UNL     1       2.693  -3.443   2.371  1.00  0.00     0.006 C 
ATOM     24  C   UNL     1       1.613  -2.514   2.820  1.00  0.00     0.006 C 
ENDBRANCH  21  22
ENDBRANCH  20  21
ENDBRANCH  19  20
ENDBRANCH  18  19
ENDBRANCH  16  18
ENDBRANCH  14  16
ENDBRANCH  11  14
ENDBRANCH   6   8
ENDBRANCH   5   6
ENDBRANCH   4   5
ENDBRANCH   3   4
ENDBRANCH   2   3
ENDBRANCH   1   2
BRANCH   1  25
ATOM     25  C   UNL     1       0.442   3.322  -2.377  1.00  0.00     0.188 C 
BRANCH  25  26
ATOM     26  O   UNL     1      -0.814   3.965  -2.311  1.00  0.00    -0.377 OA
BRANCH  26  27
ATOM     27  C   UNL     1      -1.152   4.906  -3.331  1.00  0.00     0.188 C 
BRANCH  27  28
ATOM     28  C   UNL     1      -0.245   5.160  -4.566  1.00  0.00     0.188 C 
BRANCH  28  29
ATOM     29  O   UNL     1       1.142   4.928  -4.368  1.00  0.00    -0.376 OA
BRANCH  29  30
ATOM     30  C   UNL     1       1.991   6.040  -4.149  1.00  0.00     0.202 C 
BRANCH  30  31
ATOM     31  C   UNL     1       1.732   6.901  -2.904  1.00  0.00     0.261 C 
BRANCH  31  32
ATOM     32  O   UNL     1       0.410   7.441  -2.771  1.00  0.00    -0.460 OA
BRANCH  32  33
ATOM     33  C   UNL     1      -0.026   8.268  -3.745  1.00  0.00     0.338 C 
ATOM     34  O   UNL     1       0.608   8.650  -4.718  1.00  0.00    -0.246 OA
BRANCH  33  35
ATOM     35  C   UNL     1      -1.478   8.462  -3.558  1.00  0.00     0.060 A 
ATOM     36  C   UNL     1      -2.354   8.082  -4.586  1.00  0.00     0.016 A 
ATOM     37  C   UNL     1      -1.974   8.995  -2.367  1.00  0.00     0.016 A 
ATOM     38  C   UNL     1      -3.726   8.276  -4.442  1.00  0.00     0.010 A 
ATOM     39  C   UNL     1      -3.347   9.214  -2.236  1.00  0.00     0.010 A 
ATOM     40  C   UNL     1      -4.223   8.894  -3.289  1.00  0.00    -0.014 A 
BRANCH  40  41
ATOM     41  C   UNL     1      -5.613   9.408  -3.278  1.00  0.00     0.031 A 
ATOM     42  C   UNL     1      -5.829  10.867  -3.578  1.00  0.00     0.074 A 
ATOM     43  C   UNL     1      -6.660   8.606  -3.017  1.00  0.00     0.049 A 
ATOM     44  N   UNL     1      -6.938  11.558  -3.583  1.00  0.00    -0.248 NA
ATOM     45  C   UNL     1      -4.628  11.653  -3.913  1.00  0.00     0.031 C 
ATOM     46  C   UNL     1      -6.580   7.175  -2.732  1.00  0.00     0.029 A 
ATOM     47  N   UNL     1      -7.998   8.897  -2.926  1.00  0.00    -0.354 N 
ATOM     48  C   UNL     1      -6.567  12.862  -3.888  1.00  0.00     0.074 A 
ATOM     49  C   UNL     1      -5.130  12.870  -4.050  1.00  0.00     0.031 C 
ATOM     50  C   UNL     1      -7.816   6.717  -2.465  1.00  0.00     0.029 A 
ATOM     51  C   UNL     1      -8.766   7.827  -2.530  1.00  0.00     0.049 A 
ATOM     52  H   UNL     1      -8.372   9.786  -3.124  1.00  0.00     0.167 HD
ATOM     53  C   UNL     1      -7.353  13.955  -4.031  1.00  0.00     0.034 A 
ATOM     54  C   UNL     1     -10.078   7.763  -2.227  1.00  0.00     0.034 A 
ATOM     55  C   UNL     1      -8.781  13.942  -3.878  1.00  0.00     0.049 A 
ATOM     56  C   UNL     1     -10.926   9.004  -2.353  1.00  0.00     0.074 A 
ATOM     57  C   UNL     1      -9.671  14.988  -4.043  1.00  0.00     0.029 A 
ATOM     58  N   UNL     1      -9.527  12.835  -3.507  1.00  0.00    -0.354 N 
ATOM     59  N   UNL     1     -10.580  10.207  -2.744  1.00  0.00    -0.248 NA
ATOM     60  C   UNL     1     -12.354   8.870  -2.027  1.00  0.00     0.031 C 
ATOM     61  C   UNL     1     -10.952  14.523  -3.730  1.00  0.00     0.029 A 
ATOM     62  C   UNL     1     -10.866  13.175  -3.419  1.00  0.00     0.049 A 
ATOM     63  H   UNL     1      -9.160  11.939  -3.331  1.00  0.00     0.167 HD
ATOM     64  C   UNL     1     -11.751  10.960  -2.751  1.00  0.00     0.074 A 
ATOM     65  C   UNL     1     -12.819  10.072  -2.342  1.00  0.00     0.031 C 
ATOM     66  C   UNL     1     -11.927  12.269  -3.060  1.00  0.00     0.034 A 
BRANCH  53  67
ATOM     67  C   UNL     1      -6.681  15.258  -4.372  1.00  0.00     0.023 A 
ATOM     68  C   UNL     1      -6.131  15.453  -5.655  1.00  0.00     0.012 A 
ATOM     69  C   UNL     1      -6.637  16.308  -3.434  1.00  0.00     0.148 A 
ATOM     70  C   UNL     1      -5.519  16.661  -5.989  1.00  0.00     0.002 A 
ATOM     71  C   UNL     1      -6.069  17.525  -3.790  1.00  0.00     0.091 A 
ATOM     72  F   UNL     1      -7.143  16.094  -2.211  1.00  0.00    -0.205 F 
ATOM     73  C   UNL     1      -5.498  17.699  -5.061  1.00  0.00     0.022 A 
BRANCH  71  74
ATOM     74  S   UNL     1      -6.066  18.949  -2.696  1.00  0.00     0.127 S 
ATOM     75  O   UNL     1      -4.642  19.081  -2.389  1.00  0.00    -0.237 OA
ATOM     76  O   UNL     1      -6.604  20.000  -3.561  1.00  0.00    -0.237 OA
ATOM     77  O   UNL     1      -6.915  18.594  -1.568  1.00  0.00    -0.744 OA
ENDBRANCH  71  74
ENDBRANCH  53  67
BRANCH  54  78
ATOM     78  C   UNL     1     -10.683   6.474  -1.785  1.00  0.00     0.023 A 
ATOM     79  C   UNL     1     -11.620   5.822  -2.610  1.00  0.00     0.012 A 
ATOM     80  C   UNL     1     -10.336   5.895  -0.549  1.00  0.00     0.148 A 
ATOM     81  C   UNL     1     -12.228   4.636  -2.195  1.00  0.00     0.002 A 
ATOM     82  C   UNL     1     -10.902   4.684  -0.168  1.00  0.00     0.091 A 
ATOM     83  F   UNL     1      -9.454   6.539   0.228  1.00  0.00    -0.205 F 
ATOM     84  C   UNL     1     -11.863   4.063  -0.980  1.00  0.00     0.022 A 
BRANCH  82  85
ATOM     85  S   UNL     1     -10.403   3.812   1.320  1.00  0.00     0.127 S 
ATOM     86  O   UNL     1     -11.611   3.896   2.136  1.00  0.00    -0.237 OA
ATOM     87  O   UNL     1     -10.102   2.479   0.797  1.00  0.00    -0.237 OA
ATOM     88  O   UNL     1      -9.245   4.533   1.832  1.00  0.00    -0.744 OA
ENDBRANCH  82  85
ENDBRANCH  54  78
BRANCH  66  89
ATOM     89  C   UNL     1     -13.330  12.820  -3.026  1.00  0.00     0.023 A 
ATOM     90  C   UNL     1     -13.989  13.009  -1.795  1.00  0.00     0.012 A 
ATOM     91  C   UNL     1     -13.966  13.221  -4.218  1.00  0.00     0.148 A 
ATOM     92  C   UNL     1     -15.273  13.553  -1.755  1.00  0.00     0.002 A 
ATOM     93  C   UNL     1     -15.222  13.813  -4.166  1.00  0.00     0.091 A 
ATOM     94  F   UNL     1     -13.329  13.021  -5.381  1.00  0.00    -0.205 F 
ATOM     95  C   UNL     1     -15.883  13.966  -2.937  1.00  0.00     0.022 A 
BRANCH  93  96
ATOM     96  S   UNL     1     -16.042  14.468  -5.624  1.00  0.00     0.127 S 
ATOM     97  O   UNL     1     -17.146  13.524  -5.793  1.00  0.00    -0.237 OA
ATOM     98  O   UNL     1     -16.442  15.803  -5.180  1.00  0.00    -0.237 OA
ATOM     99  O   UNL     1     -15.046  14.457  -6.687  1.00  0.00    -0.744 OA
ENDBRANCH  93  96
ENDBRANCH  66  89
ENDBRANCH  40  41
ENDBRANCH  33  35
ENDBRANCH  32  33
ENDBRANCH  31  32
ENDBRANCH  30  31
ENDBRANCH  29  30
ENDBRANCH  28  29
ENDBRANCH  27  28
ENDBRANCH  26  27
ENDBRANCH  25  26
ENDBRANCH   1  25
TORSDOF 30
