REMARK SMILES Cc1ncc(CO)c([C@H]2[NH2+][C@@H](C(=O)OCCOCCOCCOCCOC(=O)c3ccc(-c4c5nc(c(-c6cccc(S(=O)(=O)[O-])c6F)c6ccc([nH]6)c(-c6cccc(S(=O)(=O)[O-])c6F)c6nc(c(-c7cccc(S(=O)(=O)[O-])c7F)c7ccc4[nH]7)C=C6)C=C5)cc3)Cc3[nH]cnc32)c1O
REMARK SMILES IDX 20 1 19 2 18 3 17 4 16 5 15 6 14 7 12 8 13 9 11 10 9 11
REMARK SMILES IDX 10 12 97 13 93 16 96 17 92 18 94 19 95 20 8 22 1 23 2 24
REMARK SMILES IDX 3 25 98 26 4 27 5 28 99 29 6 31 7 32 21 34 22 35 23 36 24 37
REMARK SMILES IDX 25 38 26 39 27 40 28 41 29 42 30 43 91 44 31 45 90 46 32 47
REMARK SMILES IDX 33 48 34 49 84 50 35 51 89 52 83 53 85 54 36 55 88 56 82 57
REMARK SMILES IDX 81 58 37 60 69 61 49 62 68 63 50 64 53 65 67 66 86 67 51 68
REMARK SMILES IDX 52 69 66 71 87 72 54 73 38 74 39 75 47 76 40 77 42 78 48 79
REMARK SMILES IDX 41 80 43 81 44 82 45 83 46 84 70 85 71 86 79 87 72 88 74 89
REMARK SMILES IDX 80 90 73 91 75 92 76 93 77 94 78 95 55 96 56 97 64 98 57 99
REMARK SMILES IDX 59 100 65 101 58 102 60 103 61 104 62 105 63 106
REMARK H PARENT 10 14 10 15 94 21 99 30 7 33 85 59 53 70
REMARK Flexibility Score: inf
ROOT
ATOM      1  O   UNL     1      -4.655   1.372   2.524  1.00  0.00    -0.377 OA
ENDROOT
BRANCH   1   2
ATOM      2  C   UNL     1      -3.238   1.381   2.430  1.00  0.00     0.188 C 
BRANCH   2   3
ATOM      3  C   UNL     1      -2.490   1.932   3.680  1.00  0.00     0.188 C 
BRANCH   3   4
ATOM      4  O   UNL     1      -3.191   2.467   4.798  1.00  0.00    -0.376 OA
BRANCH   4   5
ATOM      5  C   UNL     1      -4.436   3.109   4.599  1.00  0.00     0.202 C 
BRANCH   5   6
ATOM      6  C   UNL     1      -4.527   4.285   3.614  1.00  0.00     0.261 C 
BRANCH   6   7
ATOM      7  O   UNL     1      -3.706   4.200   2.440  1.00  0.00    -0.459 OA
BRANCH   7   8
ATOM      8  C   UNL     1      -2.496   4.835   2.473  1.00  0.00     0.365 C 
ATOM      9  O   UNL     1      -2.080   5.493   3.418  1.00  0.00    -0.245 OA
BRANCH   8  10
ATOM     10  C   UNL     1      -1.748   4.600   1.149  1.00  0.00     0.300 C 
ATOM     11  C   UNL     1      -0.268   3.183  -0.158  1.00  0.00     0.270 C 
ATOM     12  N   UNL     1      -0.731   3.485   1.225  1.00  0.00    -0.323 N 
ATOM     13  C   UNL     1       0.441   4.400  -0.659  1.00  0.00     0.124 A 
ATOM     14  H   UNL     1       0.061   3.778   1.798  1.00  0.00     0.347 HD
ATOM     15  H   UNL     1      -1.148   2.655   1.647  1.00  0.00     0.347 HD
ATOM     16  C   UNL     1      -0.015   5.657  -0.288  1.00  0.00     0.051 A 
ATOM     17  N   UNL     1       1.413   4.519  -1.615  1.00  0.00    -0.235 NA
ATOM     18  C   UNL     1      -1.096   5.936   0.701  1.00  0.00     0.133 C 
ATOM     19  N   UNL     1       0.715   6.552  -1.001  1.00  0.00    -0.348 N 
ATOM     20  C   UNL     1       1.567   5.819  -1.784  1.00  0.00     0.197 A 
ATOM     21  H   UNL     1       0.645   7.534  -0.963  1.00  0.00     0.167 HD
BRANCH  11  22
ATOM     22  C   UNL     1       0.383   1.815  -0.270  1.00  0.00     0.066 A 
ATOM     23  C   UNL     1      -1.039  -1.730  -0.822  1.00  0.00     0.071 C 
ATOM     24  C   UNL     1      -0.099  -0.600  -0.517  1.00  0.00     0.079 A 
ATOM     25  N   UNL     1       1.190  -0.929  -0.321  1.00  0.00    -0.257 NA
ATOM     26  C   UNL     1      -0.518   0.733  -0.499  1.00  0.00     0.146 A 
ATOM     27  C   UNL     1       2.053   0.088  -0.107  1.00  0.00     0.118 A 
ATOM     28  C   UNL     1       1.724   1.456  -0.047  1.00  0.00     0.009 A 
BRANCH  26  29
ATOM     29  O   UNL     1      -1.860   0.990  -0.647  1.00  0.00    -0.505 OA
ATOM     30  H   UNL     1      -2.458   0.285  -0.797  1.00  0.00     0.293 HD
ENDBRANCH  26  29
BRANCH  28  31
ATOM     31  C   UNL     1       2.862   2.398   0.218  1.00  0.00     0.194 C 
BRANCH  31  32
ATOM     32  O   UNL     1       3.610   1.963   1.357  1.00  0.00    -0.392 OA
ATOM     33  H   UNL     1       3.032   1.945   2.136  1.00  0.00     0.211 HD
ENDBRANCH  31  32
ENDBRANCH  28  31
ENDBRANCH  11  22
ENDBRANCH   8  10
ENDBRANCH   7   8
ENDBRANCH   6   7
ENDBRANCH   5   6
ENDBRANCH   4   5
ENDBRANCH   3   4
ENDBRANCH   2   3
ENDBRANCH   1   2
BRANCH   1  34
ATOM     34  C   UNL     1      -5.217   0.105   2.848  1.00  0.00     0.188 C 
BRANCH  34  35
ATOM     35  C   UNL     1      -4.706  -0.541   4.155  1.00  0.00     0.188 C 
BRANCH  35  36
ATOM     36  O   UNL     1      -3.290  -0.526   4.295  1.00  0.00    -0.376 OA
BRANCH  36  37
ATOM     37  C   UNL     1      -2.511  -1.705   4.179  1.00  0.00     0.202 C 
BRANCH  37  38
ATOM     38  C   UNL     1      -2.291  -2.238   2.766  1.00  0.00     0.261 C 
BRANCH  38  39
ATOM     39  O   UNL     1      -3.467  -2.252   1.982  1.00  0.00    -0.460 OA
BRANCH  39  40
ATOM     40  C   UNL     1      -4.426  -3.076   2.425  1.00  0.00     0.338 C 
ATOM     41  O   UNL     1      -4.452  -3.688   3.492  1.00  0.00    -0.246 OA
BRANCH  40  42
ATOM     42  C   UNL     1      -5.428  -3.224   1.379  1.00  0.00     0.060 A 
ATOM     43  C   UNL     1      -6.556  -3.966   1.722  1.00  0.00     0.016 A 
ATOM     44  C   UNL     1      -5.038  -2.987   0.052  1.00  0.00     0.016 A 
ATOM     45  C   UNL     1      -7.110  -4.741   0.742  1.00  0.00     0.010 A 
ATOM     46  C   UNL     1      -5.577  -3.779  -0.921  1.00  0.00     0.010 A 
ATOM     47  C   UNL     1      -6.525  -4.716  -0.529  1.00  0.00    -0.014 A 
BRANCH  47  48
ATOM     48  C   UNL     1      -6.988  -5.687  -1.482  1.00  0.00     0.031 A 
ATOM     49  C   UNL     1      -8.303  -5.317  -2.029  1.00  0.00     0.074 A 
ATOM     50  C   UNL     1      -6.239  -6.749  -1.823  1.00  0.00     0.049 A 
ATOM     51  N   UNL     1      -9.439  -5.872  -1.771  1.00  0.00    -0.248 NA
ATOM     52  C   UNL     1      -8.400  -4.033  -2.740  1.00  0.00     0.031 C 
ATOM     53  C   UNL     1      -4.825  -6.991  -1.516  1.00  0.00     0.029 A 
ATOM     54  N   UNL     1      -6.554  -7.773  -2.655  1.00  0.00    -0.354 N 
ATOM     55  C   UNL     1     -10.356  -5.152  -2.525  1.00  0.00     0.074 A 
ATOM     56  C   UNL     1      -9.721  -3.908  -2.858  1.00  0.00     0.031 C 
ATOM     57  C   UNL     1      -4.349  -7.930  -2.365  1.00  0.00     0.029 A 
ATOM     58  C   UNL     1      -5.446  -8.428  -3.176  1.00  0.00     0.049 A 
ATOM     59  H   UNL     1      -7.481  -8.027  -2.870  1.00  0.00     0.167 HD
ATOM     60  C   UNL     1     -11.418  -5.778  -3.096  1.00  0.00     0.034 A 
ATOM     61  C   UNL     1      -5.438  -9.225  -4.273  1.00  0.00     0.034 A 
ATOM     62  C   UNL     1     -11.662  -7.056  -2.474  1.00  0.00     0.049 A 
ATOM     63  C   UNL     1      -6.839  -9.633  -4.537  1.00  0.00     0.074 A 
ATOM     64  C   UNL     1     -11.944  -7.479  -1.190  1.00  0.00     0.029 A 
ATOM     65  N   UNL     1     -11.229  -8.166  -3.160  1.00  0.00    -0.354 N 
ATOM     66  N   UNL     1      -7.523 -10.413  -3.746  1.00  0.00    -0.248 NA
ATOM     67  C   UNL     1      -7.631  -8.814  -5.442  1.00  0.00     0.031 C 
ATOM     68  C   UNL     1     -11.261  -8.721  -1.050  1.00  0.00     0.029 A 
ATOM     69  C   UNL     1     -10.649  -9.025  -2.268  1.00  0.00     0.049 A 
ATOM     70  H   UNL     1     -11.321  -8.316  -4.129  1.00  0.00     0.167 HD
ATOM     71  C   UNL     1      -8.795  -9.852  -3.724  1.00  0.00     0.074 A 
ATOM     72  C   UNL     1      -8.832  -8.951  -4.873  1.00  0.00     0.031 C 
ATOM     73  C   UNL     1      -9.579  -9.939  -2.609  1.00  0.00     0.034 A 
BRANCH  60  74
ATOM     74  C   UNL     1     -11.950  -5.451  -4.473  1.00  0.00     0.023 A 
ATOM     75  C   UNL     1     -13.111  -6.142  -4.882  1.00  0.00     0.012 A 
ATOM     76  C   UNL     1     -11.243  -4.744  -5.476  1.00  0.00     0.148 A 
ATOM     77  C   UNL     1     -13.502  -6.189  -6.223  1.00  0.00     0.002 A 
ATOM     78  C   UNL     1     -11.681  -4.725  -6.793  1.00  0.00     0.091 A 
ATOM     79  F   UNL     1     -10.060  -4.188  -5.213  1.00  0.00    -0.205 F 
ATOM     80  C   UNL     1     -12.790  -5.477  -7.180  1.00  0.00     0.022 A 
BRANCH  78  81
ATOM     81  S   UNL     1     -10.817  -3.780  -8.055  1.00  0.00     0.127 S 
ATOM     82  O   UNL     1     -10.171  -4.840  -8.823  1.00  0.00    -0.237 OA
ATOM     83  O   UNL     1     -11.925  -3.106  -8.732  1.00  0.00    -0.237 OA
ATOM     84  O   UNL     1      -9.925  -2.879  -7.334  1.00  0.00    -0.744 OA
ENDBRANCH  78  81
ENDBRANCH  60  74
BRANCH  61  85
ATOM     85  C   UNL     1      -4.365  -9.403  -5.278  1.00  0.00     0.023 A 
ATOM     86  C   UNL     1      -4.362 -10.544  -6.104  1.00  0.00     0.012 A 
ATOM     87  C   UNL     1      -3.496  -8.339  -5.610  1.00  0.00     0.148 A 
ATOM     88  C   UNL     1      -3.536 -10.615  -7.232  1.00  0.00     0.002 A 
ATOM     89  C   UNL     1      -2.666  -8.419  -6.723  1.00  0.00     0.091 A 
ATOM     90  F   UNL     1      -3.551  -7.211  -4.889  1.00  0.00    -0.205 F 
ATOM     91  C   UNL     1      -2.691  -9.553  -7.544  1.00  0.00     0.022 A 
BRANCH  89  92
ATOM     92  S   UNL     1      -1.565  -7.078  -7.195  1.00  0.00     0.127 S 
ATOM     93  O   UNL     1      -0.293  -7.781  -7.369  1.00  0.00    -0.237 OA
ATOM     94  O   UNL     1      -2.178  -6.605  -8.433  1.00  0.00    -0.237 OA
ATOM     95  O   UNL     1      -1.583  -6.136  -6.083  1.00  0.00    -0.744 OA
ENDBRANCH  89  92
ENDBRANCH  61  85
BRANCH  73  96
ATOM     96  C   UNL     1      -9.162 -10.899  -1.523  1.00  0.00     0.023 A 
ATOM     97  C   UNL     1      -7.973 -10.740  -0.782  1.00  0.00     0.012 A 
ATOM     98  C   UNL     1     -10.089 -11.875  -1.122  1.00  0.00     0.148 A 
ATOM     99  C   UNL     1      -7.709 -11.551   0.326  1.00  0.00     0.002 A 
ATOM    100  C   UNL     1      -9.847 -12.643   0.009  1.00  0.00     0.091 A 
ATOM    101  F   UNL     1     -11.215 -12.012  -1.839  1.00  0.00    -0.205 F 
ATOM    102  C   UNL     1      -8.653 -12.492   0.731  1.00  0.00     0.022 A 
BRANCH 100 103
ATOM    103  S   UNL     1     -11.088 -13.767   0.654  1.00  0.00     0.127 S 
ATOM    104  O   UNL     1     -10.560 -15.068   0.250  1.00  0.00    -0.237 OA
ATOM    105  O   UNL     1     -11.034 -13.504   2.093  1.00  0.00    -0.237 OA
ATOM    106  O   UNL     1     -12.345 -13.376   0.028  1.00  0.00    -0.744 OA
ENDBRANCH 100 103
ENDBRANCH  73  96
ENDBRANCH  47  48
ENDBRANCH  40  42
ENDBRANCH  39  40
ENDBRANCH  38  39
ENDBRANCH  37  38
ENDBRANCH  36  37
ENDBRANCH  35  36
ENDBRANCH  34  35
ENDBRANCH   1  34
TORSDOF 27
