REMARK SMILES O=C(OCCOCCOCCOCCOC(=O)c1ccc(-c2c3nc(c(-c4cccc(S(=O)(=O)[O-])c4F)c4ccc([nH]4)c(-c4cccc(S(=O)(=O)[O-])c4F)c4nc(c(-c5cccc(S(=O)(=O)[O-])c5F)c5ccc2[nH]5)C=C4)C=C3)cc1)C1=Cc2cc(S(F)(F)(F)(F)F)ccc2O[C@@H]1C(F)(F)F
REMARK SMILES IDX 10 1 9 2 8 3 7 4 6 5 5 6 4 7 3 8 2 9 1 10 81 11 82 12 96 13
REMARK SMILES IDX 83 14 95 15 84 16 94 17 85 18 93 19 92 20 97 21 98 22 99 23
REMARK SMILES IDX 100 24 86 25 87 26 88 27 89 28 90 29 91 30 11 31 12 32 13 33
REMARK SMILES IDX 14 34 15 35 16 36 17 37 18 38 19 39 80 40 20 41 79 42 21 43
REMARK SMILES IDX 22 44 23 45 73 46 24 47 78 48 72 49 74 50 25 51 77 52 71 53
REMARK SMILES IDX 70 54 26 56 58 57 38 58 57 59 39 60 42 61 56 62 75 63 40 64
REMARK SMILES IDX 41 65 55 67 76 68 43 69 27 70 28 71 36 72 29 73 31 74 37 75
REMARK SMILES IDX 30 76 32 77 33 78 34 79 35 80 59 81 60 82 68 83 61 84 63 85
REMARK SMILES IDX 69 86 62 87 64 88 65 89 66 90 67 91 44 92 45 93 53 94 46 95
REMARK SMILES IDX 48 96 54 97 47 98 49 99 50 100 51 101 52 102
REMARK H PARENT 74 55 42 66
REMARK Flexibility Score: inf
ROOT
ATOM      1  C   UNL     1       4.386   2.805  -0.216  1.00  0.00     0.188 C 
ENDROOT
BRANCH   1   2
ATOM      2  O   UNL     1       2.966   2.805  -0.216  1.00  0.00    -0.377 OA
BRANCH   2   3
ATOM      3  C   UNL     1       2.493   2.345   1.041  1.00  0.00     0.188 C 
BRANCH   3   4
ATOM      4  C   UNL     1       2.999   0.933   1.286  1.00  0.00     0.188 C 
BRANCH   4   5
ATOM      5  O   UNL     1       4.419   0.933   1.286  1.00  0.00    -0.376 OA
BRANCH   5   6
ATOM      6  C   UNL     1       4.893   1.394   0.029  1.00  0.00     0.202 C 
BRANCH   6   7
ATOM      7  C   UNL     1       4.386   0.475  -1.070  1.00  0.00     0.261 C 
BRANCH   7   8
ATOM      8  O   UNL     1       2.966   0.475  -1.070  1.00  0.00    -0.460 OA
BRANCH   8   9
ATOM      9  C   UNL     1       2.256   0.052   0.084  1.00  0.00     0.338 C 
ATOM     10  O   UNL     1       0.985   0.052   0.084  1.00  0.00    -0.246 OA
BRANCH   9  11
ATOM     11  C   UNL     1       3.016  -0.401   1.320  1.00  0.00     0.087 C 
ATOM     12  C   UNL     1       4.376  -0.401   1.320  1.00  0.00     0.027 C 
ATOM     13  C   UNL     1       2.256  -0.854   2.556  1.00  0.00     0.316 C 
ATOM     14  C   UNL     1       5.136   0.052   0.084  1.00  0.00     0.019 A 
ATOM     15  O   UNL     1       3.569   1.831  -0.078  1.00  0.00    -0.475 OA
ATOM     16  C   UNL     1       6.174  -0.715  -0.421  1.00  0.00     0.036 A 
ATOM     17  C   UNL     1       4.734   1.158  -0.531  1.00  0.00     0.128 A 
ATOM     18  C   UNL     1       6.922  -0.070  -1.434  1.00  0.00     0.107 A 
ATOM     19  C   UNL     1       5.436   1.658  -1.601  1.00  0.00     0.048 A 
ATOM     20  C   UNL     1       6.508   0.983  -2.115  1.00  0.00     0.028 A 
BRANCH  13  21
ATOM     21  C   UNL     1       2.623   0.037   3.732  1.00  0.00     0.430 C 
ATOM     22  F   UNL     1       2.302   1.296   3.450  1.00  0.00    -0.167 F 
ATOM     23  F   UNL     1       1.958  -0.360   4.813  1.00  0.00    -0.167 F 
ATOM     24  F   UNL     1       3.931  -0.047   3.960  1.00  0.00    -0.167 F 
ENDBRANCH  13  21
BRANCH  18  25
ATOM     25  S   UNL     1       8.560  -0.735  -1.823  1.00  0.00     0.310 S 
ATOM     26  F   UNL     1       8.989  -0.758  -0.297  1.00  0.00    -0.094 F 
ATOM     27  F   UNL     1       9.122   0.736  -1.888  1.00  0.00    -0.094 F 
ATOM     28  F   UNL     1       9.962  -1.315  -2.163  1.00  0.00    -0.094 F 
ATOM     29  F   UNL     1       8.012  -2.201  -1.616  1.00  0.00    -0.094 F 
ATOM     30  F   UNL     1       7.159  -0.162  -1.367  1.00  0.00    -0.094 F 
ENDBRANCH  18  25
ENDBRANCH   9  11
ENDBRANCH   8   9
ENDBRANCH   7   8
ENDBRANCH   6   7
ENDBRANCH   5   6
ENDBRANCH   4   5
ENDBRANCH   3   4
ENDBRANCH   2   3
ENDBRANCH   1   2
BRANCH   1  31
ATOM     31  C   UNL     1       4.893   3.724   0.884  1.00  0.00     0.188 C 
BRANCH  31  32
ATOM     32  O   UNL     1       4.419   3.263   2.141  1.00  0.00    -0.376 OA
BRANCH  32  33
ATOM     33  C   UNL     1       2.999   3.263   2.141  1.00  0.00     0.202 C 
BRANCH  33  34
ATOM     34  C   UNL     1       2.493   4.675   1.895  1.00  0.00     0.261 C 
BRANCH  34  35
ATOM     35  O   UNL     1       2.966   5.136   0.638  1.00  0.00    -0.460 OA
BRANCH  35  36
ATOM     36  C   UNL     1       4.362   5.225   0.394  1.00  0.00     0.338 C 
ATOM     37  O   UNL     1       5.188   4.893   1.301  1.00  0.00    -0.246 OA
BRANCH  36  38
ATOM     38  C   UNL     1       4.869   5.718  -0.951  1.00  0.00     0.060 A 
ATOM     39  C   UNL     1       5.825   5.005  -1.654  1.00  0.00     0.016 A 
ATOM     40  C   UNL     1       4.291   6.795  -1.472  1.00  0.00     0.016 A 
ATOM     41  C   UNL     1       6.319   5.679  -2.796  1.00  0.00     0.010 A 
ATOM     42  C   UNL     1       4.736   7.321  -2.661  1.00  0.00     0.010 A 
ATOM     43  C   UNL     1       5.719   6.701  -3.380  1.00  0.00    -0.014 A 
BRANCH  43  44
ATOM     44  C   UNL     1       6.101   7.162  -4.777  1.00  0.00     0.031 A 
ATOM     45  C   UNL     1       6.562   8.474  -4.902  1.00  0.00     0.074 A 
ATOM     46  C   UNL     1       5.879   6.315  -5.849  1.00  0.00     0.049 A 
ATOM     47  N   UNL     1       6.892   9.118  -6.022  1.00  0.00    -0.248 NA
ATOM     48  C   UNL     1       6.767   9.387  -3.767  1.00  0.00     0.031 C 
ATOM     49  C   UNL     1       5.422   4.988  -5.731  1.00  0.00     0.029 A 
ATOM     50  N   UNL     1       6.049   6.585  -7.189  1.00  0.00    -0.354 N 
ATOM     51  C   UNL     1       7.308  10.354  -5.739  1.00  0.00     0.074 A 
ATOM     52  C   UNL     1       7.227  10.547  -4.285  1.00  0.00     0.031 C 
ATOM     53  C   UNL     1       5.308   4.469  -6.982  1.00  0.00     0.029 A 
ATOM     54  C   UNL     1       5.691   5.462  -7.902  1.00  0.00     0.049 A 
ATOM     55  H   UNL     1       6.370   7.433  -7.571  1.00  0.00     0.167 HD
ATOM     56  C   UNL     1       7.752  11.327  -6.636  1.00  0.00     0.034 A 
ATOM     57  C   UNL     1       5.691   5.295  -9.278  1.00  0.00     0.034 A 
ATOM     58  C   UNL     1       7.793  11.145  -8.009  1.00  0.00     0.049 A 
ATOM     59  C   UNL     1       6.081   6.289 -10.180  1.00  0.00     0.074 A 
ATOM     60  C   UNL     1       8.246  12.112  -8.927  1.00  0.00     0.029 A 
ATOM     61  N   UNL     1       7.413  10.031  -8.724  1.00  0.00    -0.354 N 
ATOM     62  N   UNL     1       6.534   7.510  -9.893  1.00  0.00    -0.248 NA
ATOM     63  C   UNL     1       6.054   6.134 -11.640  1.00  0.00     0.031 C 
ATOM     64  C   UNL     1       8.132  11.593 -10.178  1.00  0.00     0.029 A 
ATOM     65  C   UNL     1       7.604  10.292 -10.063  1.00  0.00     0.049 A 
ATOM     66  H   UNL     1       7.064   9.192  -8.344  1.00  0.00     0.167 HD
ATOM     67  C   UNL     1       6.824   8.168 -11.018  1.00  0.00     0.074 A 
ATOM     68  C   UNL     1       6.513   7.295 -12.158  1.00  0.00     0.031 C 
ATOM     69  C   UNL     1       7.340   9.459 -11.139  1.00  0.00     0.034 A 
BRANCH  56  70
ATOM     70  C   UNL     1       8.218  12.660  -6.075  1.00  0.00     0.023 A 
ATOM     71  C   UNL     1       9.203  12.725  -5.103  1.00  0.00     0.012 A 
ATOM     72  C   UNL     1       7.570  13.749  -6.473  1.00  0.00     0.148 A 
ATOM     73  C   UNL     1       9.233  13.951  -4.398  1.00  0.00     0.002 A 
ATOM     74  C   UNL     1       7.750  14.946  -5.823  1.00  0.00     0.091 A 
ATOM     75  F   UNL     1       6.740  13.680  -7.509  1.00  0.00    -0.205 F 
ATOM     76  C   UNL     1       8.664  15.069  -4.814  1.00  0.00     0.022 A 
BRANCH  74  77
ATOM     77  S   UNL     1       6.762  16.383  -6.310  1.00  0.00     0.127 S 
ATOM     78  O   UNL     1       5.939  16.866  -5.113  1.00  0.00    -0.237 OA
ATOM     79  O   UNL     1       7.691  17.506  -6.777  1.00  0.00    -0.237 OA
ATOM     80  O   UNL     1       5.710  15.945  -7.585  1.00  0.00    -0.744 OA
ENDBRANCH  74  77
ENDBRANCH  56  70
BRANCH  57  81
ATOM     81  C   UNL     1       5.241   3.956  -9.838  1.00  0.00     0.023 A 
ATOM     82  C   UNL     1       6.071   3.112 -10.557  1.00  0.00     0.012 A 
ATOM     83  C   UNL     1       3.999   3.602  -9.530  1.00  0.00     0.148 A 
ATOM     84  C   UNL     1       5.398   2.024 -11.161  1.00  0.00     0.002 A 
ATOM     85  C   UNL     1       3.450   2.454 -10.048  1.00  0.00     0.091 A 
ATOM     86  F   UNL     1       3.280   4.367  -8.713  1.00  0.00    -0.205 F 
ATOM     87  C   UNL     1       4.194   1.603 -10.817  1.00  0.00     0.022 A 
BRANCH  85  88
ATOM     88  S   UNL     1       1.715   2.064  -9.709  1.00  0.00     0.127 S 
ATOM     89  O   UNL     1       0.944   1.976 -11.028  1.00  0.00    -0.237 OA
ATOM     90  O   UNL     1       1.628   0.723  -8.977  1.00  0.00    -0.237 OA
ATOM     91  O   UNL     1       1.035   3.291  -8.732  1.00  0.00    -0.744 OA
ENDBRANCH  85  88
ENDBRANCH  57  81
BRANCH  69  92
ATOM     92  C   UNL     1       7.630   9.985 -12.536  1.00  0.00     0.023 A 
ATOM     93  C   UNL     1       6.606  10.202 -13.443  1.00  0.00     0.012 A 
ATOM     94  C   UNL     1       8.881  10.332 -12.813  1.00  0.00     0.148 A 
ATOM     95  C   UNL     1       7.054  10.533 -14.744  1.00  0.00     0.002 A 
ATOM     96  C   UNL     1       9.222  10.776 -14.067  1.00  0.00     0.091 A 
ATOM     97  F   UNL     1       9.812  10.249 -11.867  1.00  0.00    -0.205 F 
ATOM     98  C   UNL     1       8.270  10.958 -15.032  1.00  0.00     0.022 A 
BRANCH  96  99
ATOM     99  S   UNL     1      10.957  11.125 -14.449  1.00  0.00     0.127 S 
ATOM    100  O   UNL     1      11.415  10.232 -15.603  1.00  0.00    -0.237 OA
ATOM    101  O   UNL     1      11.104  12.595 -14.851  1.00  0.00    -0.237 OA
ATOM    102  O   UNL     1      11.918  10.813 -13.069  1.00  0.00    -0.744 OA
ENDBRANCH  96  99
ENDBRANCH  69  92
ENDBRANCH  43  44
ENDBRANCH  36  38
ENDBRANCH  35  36
ENDBRANCH  34  35
ENDBRANCH  33  34
ENDBRANCH  32  33
ENDBRANCH  31  32
ENDBRANCH   1  31
TORSDOF 25
