REMARK SMILES CCC1(C(=O)OCCOCCOCCOCCOC(=O)c2ccc(-c3c4nc(c(-c5cccc(S(=O)(=O)[O-])c5F)c5ccc([nH]5)c(-c5cccc(S(=O)(=O)[O-])c5F)c5nc(c(-c6cccc(S(=O)(=O)[O-])c6F)c6ccc3[nH]6)C=C5)C=C4)cc2)CCN(C(=O)C[C@H]2CSCC[NH2+]2)CC1
REMARK SMILES IDX 13 1 12 2 11 3 10 4 9 5 8 6 7 7 6 8 4 9 5 10 3 11 84 12
REMARK SMILES IDX 97 13 85 14 96 15 86 16 87 17 88 18 2 19 1 20 89 21 90 22
REMARK SMILES IDX 91 23 95 24 92 25 94 26 93 29 14 30 15 31 16 32 17 33 18 34
REMARK SMILES IDX 19 35 20 36 21 37 22 38 83 39 23 40 82 41 24 42 25 43 26 44
REMARK SMILES IDX 76 45 27 46 81 47 75 48 77 49 28 50 80 51 74 52 73 53 29 55
REMARK SMILES IDX 61 56 41 57 60 58 42 59 45 60 59 61 78 62 43 63 44 64 58 66
REMARK SMILES IDX 79 67 46 68 30 69 31 70 39 71 32 72 34 73 40 74 33 75 35 76
REMARK SMILES IDX 36 77 37 78 38 79 62 80 63 81 71 82 64 83 66 84 72 85 65 86
REMARK SMILES IDX 67 87 68 88 69 89 70 90 47 91 48 92 56 93 49 94 51 95 57 96
REMARK SMILES IDX 50 97 52 98 53 99 54 100 55 101
REMARK H PARENT 95 27 95 28 77 54 45 65
REMARK Flexibility Score: inf
ROOT
ATOM      1  C   UNL     1      10.560  -3.128  -3.198  1.00  0.00     0.188 C 
ENDROOT
BRANCH   1   2
ATOM      2  O   UNL     1      10.160  -4.150  -2.290  1.00  0.00    -0.377 OA
BRANCH   2   3
ATOM      3  C   UNL     1      11.084  -5.146  -1.892  1.00  0.00     0.188 C 
BRANCH   3   4
ATOM      4  C   UNL     1      10.806  -6.542  -2.455  1.00  0.00     0.188 C 
BRANCH   4   5
ATOM      5  O   UNL     1      10.685  -6.654  -3.864  1.00  0.00    -0.376 OA
BRANCH   5   6
ATOM      6  C   UNL     1       9.507  -6.125  -4.477  1.00  0.00     0.202 C 
BRANCH   6   7
ATOM      7  C   UNL     1       8.132  -6.348  -3.816  1.00  0.00     0.261 C 
BRANCH   7   8
ATOM      8  O   UNL     1       7.989  -5.703  -2.530  1.00  0.00    -0.463 OA
BRANCH   8   9
ATOM      9  C   UNL     1       7.563  -6.468  -1.489  1.00  0.00     0.312 C 
ATOM     10  O   UNL     1       7.287  -7.661  -1.590  1.00  0.00    -0.252 OA
BRANCH   9  11
ATOM     11  C   UNL     1       7.551  -5.734  -0.126  1.00  0.00     0.071 C 
ATOM     12  C   UNL     1       7.597  -4.178  -0.284  1.00  0.00     0.040 C 
ATOM     13  C   UNL     1       6.202  -6.102   0.516  1.00  0.00     0.040 C 
ATOM     14  C   UNL     1       7.130  -3.392   0.955  1.00  0.00     0.120 C 
ATOM     15  C   UNL     1       5.939  -5.332   1.798  1.00  0.00     0.120 C 
ATOM     16  N   UNL     1       5.871  -3.928   1.460  1.00  0.00    -0.342 N 
ATOM     17  C   UNL     1       4.709  -3.177   1.395  1.00  0.00     0.228 C 
ATOM     18  O   UNL     1       4.740  -1.974   1.124  1.00  0.00    -0.275 OA
BRANCH  11  19
ATOM     19  C   UNL     1       8.757  -6.245   0.718  1.00  0.00     0.015 C 
ATOM     20  C   UNL     1       8.537  -7.501   1.559  1.00  0.00     0.005 C 
ENDBRANCH  11  19
BRANCH  17  21
ATOM     21  C   UNL     1       3.359  -3.841   1.684  1.00  0.00     0.166 C 
BRANCH  21  22
ATOM     22  C   UNL     1       2.752  -4.717   0.555  1.00  0.00     0.201 C 
ATOM     23  C   UNL     1       2.967  -4.060  -0.828  1.00  0.00     0.135 C 
ATOM     24  N   UNL     1       3.200  -6.121   0.715  1.00  0.00    -0.342 N 
ATOM     25  S   UNL     1       2.272  -5.061  -2.172  1.00  0.00    -0.150 SA
ATOM     26  C   UNL     1       2.850  -7.038  -0.379  1.00  0.00     0.271 C 
ATOM     27  H   UNL     1       2.785  -6.485   1.572  1.00  0.00     0.346 HD
ATOM     28  H   UNL     1       4.219  -6.085   0.727  1.00  0.00     0.346 HD
ATOM     29  C   UNL     1       3.165  -6.580  -1.804  1.00  0.00     0.131 C 
ENDBRANCH  21  22
ENDBRANCH  17  21
ENDBRANCH   9  11
ENDBRANCH   8   9
ENDBRANCH   7   8
ENDBRANCH   6   7
ENDBRANCH   5   6
ENDBRANCH   4   5
ENDBRANCH   3   4
ENDBRANCH   2   3
ENDBRANCH   1   2
BRANCH   1  30
ATOM     30  C   UNL     1      12.021  -3.112  -3.660  1.00  0.00     0.188 C 
BRANCH  30  31
ATOM     31  O   UNL     1      13.041  -2.821  -2.697  1.00  0.00    -0.376 OA
BRANCH  31  32
ATOM     32  C   UNL     1      12.676  -2.221  -1.459  1.00  0.00     0.202 C 
BRANCH  32  33
ATOM     33  C   UNL     1      12.556  -0.696  -1.460  1.00  0.00     0.261 C 
BRANCH  33  34
ATOM     34  O   UNL     1      11.597  -0.205  -2.403  1.00  0.00    -0.460 OA
BRANCH  34  35
ATOM     35  C   UNL     1      12.098   0.124  -3.615  1.00  0.00     0.338 C 
ATOM     36  O   UNL     1      13.264   0.064  -3.979  1.00  0.00    -0.246 OA
BRANCH  35  37
ATOM     37  C   UNL     1      10.981   0.448  -4.515  1.00  0.00     0.060 A 
ATOM     38  C   UNL     1      10.891  -0.214  -5.746  1.00  0.00     0.016 A 
ATOM     39  C   UNL     1      10.055   1.432  -4.163  1.00  0.00     0.016 A 
ATOM     40  C   UNL     1       9.875   0.115  -6.639  1.00  0.00     0.010 A 
ATOM     41  C   UNL     1       9.052   1.776  -5.067  1.00  0.00     0.010 A 
ATOM     42  C   UNL     1       8.974   1.135  -6.315  1.00  0.00    -0.014 A 
BRANCH  42  43
ATOM     43  C   UNL     1       8.015   1.623  -7.327  1.00  0.00     0.031 A 
ATOM     44  C   UNL     1       8.324   2.893  -8.065  1.00  0.00     0.074 A 
ATOM     45  C   UNL     1       6.869   0.957  -7.549  1.00  0.00     0.049 A 
ATOM     46  N   UNL     1       7.587   3.553  -8.918  1.00  0.00    -0.248 NA
ATOM     47  C   UNL     1       9.639   3.504  -7.803  1.00  0.00     0.031 C 
ATOM     48  C   UNL     1       6.476  -0.288  -6.892  1.00  0.00     0.029 A 
ATOM     49  N   UNL     1       5.809   1.262  -8.363  1.00  0.00    -0.354 N 
ATOM     50  C   UNL     1       8.328   4.675  -9.267  1.00  0.00     0.074 A 
ATOM     51  C   UNL     1       9.573   4.607  -8.534  1.00  0.00     0.031 C 
ATOM     52  C   UNL     1       5.239  -0.621  -7.298  1.00  0.00     0.029 A 
ATOM     53  C   UNL     1       4.745   0.405  -8.213  1.00  0.00     0.049 A 
ATOM     54  H   UNL     1       5.810   2.020  -8.992  1.00  0.00     0.167 HD
ATOM     55  C   UNL     1       7.998   5.668 -10.126  1.00  0.00     0.034 A 
ATOM     56  C   UNL     1       3.501   0.471  -8.725  1.00  0.00     0.034 A 
ATOM     57  C   UNL     1       6.758   5.721 -10.851  1.00  0.00     0.049 A 
ATOM     58  C   UNL     1       3.146   1.611  -9.640  1.00  0.00     0.074 A 
ATOM     59  C   UNL     1       6.348   6.655 -11.785  1.00  0.00     0.029 A 
ATOM     60  N   UNL     1       5.716   4.818 -10.704  1.00  0.00    -0.354 N 
ATOM     61  N   UNL     1       3.897   2.602 -10.059  1.00  0.00    -0.248 NA
ATOM     62  C   UNL     1       1.776   1.629 -10.175  1.00  0.00     0.031 C 
ATOM     63  C   UNL     1       5.040   6.342 -12.169  1.00  0.00     0.029 A 
ATOM     64  C   UNL     1       4.653   5.187 -11.511  1.00  0.00     0.049 A 
ATOM     65  H   UNL     1       5.730   4.030 -10.114  1.00  0.00     0.167 HD
ATOM     66  C   UNL     1       3.102   3.342 -10.927  1.00  0.00     0.074 A 
ATOM     67  C   UNL     1       1.821   2.669 -10.996  1.00  0.00     0.031 C 
ATOM     68  C   UNL     1       3.398   4.484 -11.597  1.00  0.00     0.034 A 
BRANCH  55  69
ATOM     69  C   UNL     1       8.994   6.778 -10.331  1.00  0.00     0.023 A 
ATOM     70  C   UNL     1      10.184   6.533 -11.046  1.00  0.00     0.012 A 
ATOM     71  C   UNL     1       8.722   8.080  -9.867  1.00  0.00     0.148 A 
ATOM     72  C   UNL     1      11.101   7.560 -11.271  1.00  0.00     0.002 A 
ATOM     73  C   UNL     1       9.617   9.108 -10.136  1.00  0.00     0.091 A 
ATOM     74  F   UNL     1       7.596   8.287  -9.169  1.00  0.00    -0.205 F 
ATOM     75  C   UNL     1      10.812   8.847 -10.826  1.00  0.00     0.022 A 
BRANCH  73  76
ATOM     76  S   UNL     1       9.300  10.815  -9.676  1.00  0.00     0.127 S 
ATOM     77  O   UNL     1      10.327  11.041  -8.659  1.00  0.00    -0.237 OA
ATOM     78  O   UNL     1       9.528  11.518 -10.939  1.00  0.00    -0.237 OA
ATOM     79  O   UNL     1       7.928  10.856  -9.194  1.00  0.00    -0.744 OA
ENDBRANCH  73  76
ENDBRANCH  55  69
BRANCH  56  80
ATOM     80  C   UNL     1       2.498  -0.576  -8.388  1.00  0.00     0.023 A 
ATOM     81  C   UNL     1       2.058  -1.463  -9.389  1.00  0.00     0.012 A 
ATOM     82  C   UNL     1       1.977  -0.694  -7.085  1.00  0.00     0.148 A 
ATOM     83  C   UNL     1       1.091  -2.428  -9.107  1.00  0.00     0.002 A 
ATOM     84  C   UNL     1       1.053  -1.690  -6.799  1.00  0.00     0.091 A 
ATOM     85  F   UNL     1       2.397   0.172  -6.151  1.00  0.00    -0.205 F 
ATOM     86  C   UNL     1       0.597  -2.548  -7.812  1.00  0.00     0.022 A 
BRANCH  84  87
ATOM     87  S   UNL     1       0.459  -2.000  -5.134  1.00  0.00     0.127 S 
ATOM     88  O   UNL     1      -0.902  -1.472  -5.201  1.00  0.00    -0.237 OA
ATOM     89  O   UNL     1       0.549  -3.457  -5.058  1.00  0.00    -0.237 OA
ATOM     90  O   UNL     1       1.376  -1.285  -4.256  1.00  0.00    -0.744 OA
ENDBRANCH  84  87
ENDBRANCH  56  80
BRANCH  68  91
ATOM     91  C   UNL     1       2.332   5.064 -12.491  1.00  0.00     0.023 A 
ATOM     92  C   UNL     1       1.190   5.665 -11.925  1.00  0.00     0.012 A 
ATOM     93  C   UNL     1       2.496   5.072 -13.890  1.00  0.00     0.148 A 
ATOM     94  C   UNL     1       0.210   6.231 -12.740  1.00  0.00     0.002 A 
ATOM     95  C   UNL     1       1.542   5.686 -14.693  1.00  0.00     0.091 A 
ATOM     96  F   UNL     1       3.583   4.484 -14.410  1.00  0.00    -0.205 F 
ATOM     97  C   UNL     1       0.392   6.252 -14.121  1.00  0.00     0.022 A 
BRANCH  95  98
ATOM     98  S   UNL     1       1.735   5.850 -16.471  1.00  0.00     0.127 S 
ATOM     99  O   UNL     1       0.684   4.963 -16.967  1.00  0.00    -0.237 OA
ATOM    100  O   UNL     1       1.480   7.275 -16.679  1.00  0.00    -0.237 OA
ATOM    101  O   UNL     1       3.097   5.427 -16.771  1.00  0.00    -0.744 OA
ENDBRANCH  95  98
ENDBRANCH  68  91
ENDBRANCH  42  43
ENDBRANCH  35  37
ENDBRANCH  34  35
ENDBRANCH  33  34
ENDBRANCH  32  33
ENDBRANCH  31  32
ENDBRANCH  30  31
ENDBRANCH   1  30
TORSDOF 26
