REMARK SMILES CCOc1ccccc1-c1cc(C(=O)OCCOCCOCCOCCOC(=O)c2ccc(-c3c4nc(c(-c5cccc(S(=O)(=O)[O-])c5F)c5ccc([nH]5)c(-c5cccc(S(=O)(=O)[O-])c5F)c5nc(c(-c6cccc(S(=O)(=O)[O-])c6F)c6ccc3[nH]6)C=C5)C=C4)cc2)c2cc(C)cc(C)c2n1
REMARK SMILES IDX 21 1 20 2 19 3 18 4 17 5 16 6 15 7 13 8 14 9 12 10 10 11
REMARK SMILES IDX 11 12 101 13 100 14 93 15 98 16 94 17 97 18 99 19 95 20
REMARK SMILES IDX 96 21 9 22 4 23 5 24 6 25 8 26 7 27 3 28 2 29 1 30 22 31
REMARK SMILES IDX 23 32 24 33 25 34 26 35 27 36 28 37 29 38 30 39 31 40 92 41
REMARK SMILES IDX 32 42 91 43 33 44 34 45 35 46 85 47 36 48 90 49 84 50 86 51
REMARK SMILES IDX 37 52 89 53 83 54 82 55 38 57 70 58 50 59 69 60 51 61 54 62
REMARK SMILES IDX 68 63 87 64 52 65 53 66 67 68 88 69 55 70 39 71 40 72 48 73
REMARK SMILES IDX 41 74 43 75 49 76 42 77 44 78 45 79 46 80 47 81 71 82 72 83
REMARK SMILES IDX 80 84 73 85 75 86 81 87 74 88 76 89 77 90 78 91 79 92 56 93
REMARK SMILES IDX 57 94 65 95 58 96 60 97 66 98 59 99 61 100 62 101 63 102
REMARK SMILES IDX 64 103
REMARK H PARENT 86 56 54 67
REMARK Flexibility Score: inf
ROOT
ATOM      1  O   UNL     1      -2.394  -2.564  -0.964  1.00  0.00    -0.377 OA
ENDROOT
BRANCH   1   2
ATOM      2  C   UNL     1      -1.268  -2.493  -0.107  1.00  0.00     0.188 C 
BRANCH   2   3
ATOM      3  C   UNL     1      -1.593  -1.991   1.305  1.00  0.00     0.188 C 
BRANCH   3   4
ATOM      4  O   UNL     1      -2.873  -1.446   1.591  1.00  0.00    -0.376 OA
BRANCH   4   5
ATOM      5  C   UNL     1      -3.582  -0.715   0.596  1.00  0.00     0.202 C 
BRANCH   5   6
ATOM      6  C   UNL     1      -2.828   0.268  -0.324  1.00  0.00     0.261 C 
BRANCH   6   7
ATOM      7  O   UNL     1      -1.494   0.606   0.084  1.00  0.00    -0.460 OA
BRANCH   7   8
ATOM      8  C   UNL     1      -1.430   1.342   1.212  1.00  0.00     0.338 C 
ATOM      9  O   UNL     1      -2.381   1.767   1.850  1.00  0.00    -0.246 OA
BRANCH   8  10
ATOM     10  C   UNL     1      -0.031   1.553   1.635  1.00  0.00     0.071 A 
ATOM     11  C   UNL     1       2.246   2.045   1.306  1.00  0.00     0.076 A 
ATOM     12  C   UNL     1       1.029   1.724   0.738  1.00  0.00     0.045 A 
ATOM     13  N   UNL     1       2.210   2.718   2.474  1.00  0.00    -0.247 NA
ATOM     14  C   UNL     1       1.431   2.162   3.400  1.00  0.00     0.075 A 
ATOM     15  C   UNL     1       0.281   1.475   3.006  1.00  0.00     0.015 A 
ATOM     16  C   UNL     1       1.889   2.071   4.710  1.00  0.00    -0.024 A 
ATOM     17  C   UNL     1      -0.329   0.576   3.909  1.00  0.00     0.014 A 
ATOM     18  C   UNL     1       1.344   1.099   5.560  1.00  0.00     0.009 A 
ATOM     19  C   UNL     1       3.085   2.860   5.164  1.00  0.00     0.047 C 
ATOM     20  C   UNL     1       0.280   0.299   5.137  1.00  0.00    -0.050 A 
ATOM     21  C   UNL     1      -0.063  -0.963   5.873  1.00  0.00     0.044 C 
BRANCH  11  22
ATOM     22  C   UNL     1       3.422   1.104   1.389  1.00  0.00     0.042 A 
ATOM     23  C   UNL     1       3.252  -0.195   1.930  1.00  0.00     0.128 A 
ATOM     24  C   UNL     1       4.207  -0.757   2.786  1.00  0.00     0.047 A 
ATOM     25  C   UNL     1       5.415  -0.105   2.999  1.00  0.00     0.004 A 
ATOM     26  C   UNL     1       4.707   1.668   1.503  1.00  0.00     0.014 A 
ATOM     27  C   UNL     1       5.690   1.071   2.306  1.00  0.00     0.001 A 
BRANCH  23  28
ATOM     28  O   UNL     1       2.054  -0.856   1.808  1.00  0.00    -0.493 OA
BRANCH  28  29
ATOM     29  C   UNL     1       2.164  -1.937   0.875  1.00  0.00     0.226 C 
ATOM     30  C   UNL     1       2.114  -1.437  -0.560  1.00  0.00     0.049 C 
ENDBRANCH  28  29
ENDBRANCH  23  28
ENDBRANCH  11  22
ENDBRANCH   8  10
ENDBRANCH   7   8
ENDBRANCH   6   7
ENDBRANCH   5   6
ENDBRANCH   4   5
ENDBRANCH   3   4
ENDBRANCH   2   3
ENDBRANCH   1   2
BRANCH   1  31
ATOM     31  C   UNL     1      -2.825  -3.879  -1.258  1.00  0.00     0.188 C 
BRANCH  31  32
ATOM     32  C   UNL     1      -3.340  -4.669  -0.046  1.00  0.00     0.188 C 
BRANCH  32  33
ATOM     33  O   UNL     1      -2.389  -4.722   1.015  1.00  0.00    -0.376 OA
BRANCH  33  34
ATOM     34  C   UNL     1      -1.787  -5.975   1.297  1.00  0.00     0.202 C 
BRANCH  34  35
ATOM     35  C   UNL     1      -0.593  -6.348   0.405  1.00  0.00     0.261 C 
BRANCH  35  36
ATOM     36  O   UNL     1      -0.817  -6.254  -1.009  1.00  0.00    -0.460 OA
BRANCH  36  37
ATOM     37  C   UNL     1      -1.675  -7.143  -1.554  1.00  0.00     0.338 C 
ATOM     38  O   UNL     1      -2.270  -8.034  -0.969  1.00  0.00    -0.246 OA
BRANCH  37  39
ATOM     39  C   UNL     1      -1.944  -6.718  -2.945  1.00  0.00     0.060 A 
ATOM     40  C   UNL     1      -3.264  -6.409  -3.301  1.00  0.00     0.016 A 
ATOM     41  C   UNL     1      -0.907  -6.556  -3.869  1.00  0.00     0.016 A 
ATOM     42  C   UNL     1      -3.552  -5.948  -4.585  1.00  0.00     0.010 A 
ATOM     43  C   UNL     1      -1.203  -6.132  -5.168  1.00  0.00     0.010 A 
ATOM     44  C   UNL     1      -2.531  -5.853  -5.538  1.00  0.00    -0.014 A 
BRANCH  44  45
ATOM     45  C   UNL     1      -2.892  -5.694  -6.966  1.00  0.00     0.031 A 
ATOM     46  C   UNL     1      -3.036  -6.943  -7.793  1.00  0.00     0.074 A 
ATOM     47  C   UNL     1      -3.108  -4.486  -7.515  1.00  0.00     0.049 A 
ATOM     48  N   UNL     1      -3.336  -7.071  -9.058  1.00  0.00    -0.248 NA
ATOM     49  C   UNL     1      -2.811  -8.220  -7.094  1.00  0.00     0.031 C 
ATOM     50  C   UNL     1      -3.024  -3.208  -6.813  1.00  0.00     0.029 A 
ATOM     51  N   UNL     1      -3.427  -4.143  -8.806  1.00  0.00    -0.354 N 
ATOM     52  C   UNL     1      -3.308  -8.437  -9.313  1.00  0.00     0.074 A 
ATOM     53  C   UNL     1      -2.956  -9.096  -8.076  1.00  0.00     0.031 C 
ATOM     54  C   UNL     1      -3.258  -2.214  -7.690  1.00  0.00     0.029 A 
ATOM     55  C   UNL     1      -3.483  -2.786  -9.017  1.00  0.00     0.049 A 
ATOM     56  H   UNL     1      -3.599  -4.806  -9.513  1.00  0.00     0.167 HD
ATOM     57  C   UNL     1      -3.563  -9.086 -10.472  1.00  0.00     0.034 A 
ATOM     58  C   UNL     1      -3.672  -2.090 -10.157  1.00  0.00     0.034 A 
ATOM     59  C   UNL     1      -3.917  -8.430 -11.699  1.00  0.00     0.049 A 
ATOM     60  C   UNL     1      -3.906  -2.837 -11.447  1.00  0.00     0.074 A 
ATOM     61  C   UNL     1      -4.232  -9.002 -12.918  1.00  0.00     0.029 A 
ATOM     62  N   UNL     1      -3.979  -7.056 -11.871  1.00  0.00    -0.354 N 
ATOM     63  N   UNL     1      -3.986  -4.130 -11.651  1.00  0.00    -0.248 NA
ATOM     64  C   UNL     1      -4.107  -2.028 -12.659  1.00  0.00     0.031 C 
ATOM     65  C   UNL     1      -4.444  -7.971 -13.840  1.00  0.00     0.029 A 
ATOM     66  C   UNL     1      -4.309  -6.759 -13.182  1.00  0.00     0.049 A 
ATOM     67  H   UNL     1      -3.814  -6.390 -11.165  1.00  0.00     0.167 HD
ATOM     68  C   UNL     1      -4.289  -4.287 -13.001  1.00  0.00     0.074 A 
ATOM     69  C   UNL     1      -4.392  -2.956 -13.562  1.00  0.00     0.031 C 
ATOM     70  C   UNL     1      -4.458  -5.429 -13.714  1.00  0.00     0.034 A 
BRANCH  57  71
ATOM     71  C   UNL     1      -3.462 -10.588 -10.465  1.00  0.00     0.023 A 
ATOM     72  C   UNL     1      -4.438 -11.357  -9.799  1.00  0.00     0.012 A 
ATOM     73  C   UNL     1      -2.421 -11.237 -11.155  1.00  0.00     0.148 A 
ATOM     74  C   UNL     1      -4.361 -12.749  -9.794  1.00  0.00     0.002 A 
ATOM     75  C   UNL     1      -2.378 -12.625 -11.187  1.00  0.00     0.091 A 
ATOM     76  F   UNL     1      -1.488 -10.486 -11.758  1.00  0.00    -0.205 F 
ATOM     77  C   UNL     1      -3.339 -13.382 -10.497  1.00  0.00     0.022 A 
BRANCH  75  78
ATOM     78  S   UNL     1      -1.149 -13.534 -12.129  1.00  0.00     0.127 S 
ATOM     79  O   UNL     1      -0.356 -14.146 -11.064  1.00  0.00    -0.237 OA
ATOM     80  O   UNL     1      -1.978 -14.471 -12.888  1.00  0.00    -0.237 OA
ATOM     81  O   UNL     1      -0.450 -12.546 -12.938  1.00  0.00    -0.744 OA
ENDBRANCH  75  78
ENDBRANCH  57  71
BRANCH  58  82
ATOM     82  C   UNL     1      -3.668  -0.598 -10.136  1.00  0.00     0.023 A 
ATOM     83  C   UNL     1      -4.858   0.106 -10.406  1.00  0.00     0.012 A 
ATOM     84  C   UNL     1      -2.492   0.124  -9.858  1.00  0.00     0.148 A 
ATOM     85  C   UNL     1      -4.868   1.502 -10.431  1.00  0.00     0.002 A 
ATOM     86  C   UNL     1      -2.521   1.513  -9.829  1.00  0.00     0.091 A 
ATOM     87  F   UNL     1      -1.366  -0.565  -9.621  1.00  0.00    -0.205 F 
ATOM     88  C   UNL     1      -3.704   2.205 -10.134  1.00  0.00     0.022 A 
BRANCH  86  89
ATOM     89  S   UNL     1      -1.101   2.499  -9.342  1.00  0.00     0.127 S 
ATOM     90  O   UNL     1      -0.770   3.183 -10.590  1.00  0.00    -0.237 OA
ATOM     91  O   UNL     1      -1.675   3.355  -8.303  1.00  0.00    -0.237 OA
ATOM     92  O   UNL     1      -0.107   1.551  -8.861  1.00  0.00    -0.744 OA
ENDBRANCH  86  89
ENDBRANCH  58  82
BRANCH  70  93
ATOM     93  C   UNL     1      -4.826  -5.303 -15.171  1.00  0.00     0.023 A 
ATOM     94  C   UNL     1      -3.874  -4.852 -16.107  1.00  0.00     0.012 A 
ATOM     95  C   UNL     1      -6.097  -5.714 -15.622  1.00  0.00     0.148 A 
ATOM     96  C   UNL     1      -4.193  -4.778 -17.462  1.00  0.00     0.002 A 
ATOM     97  C   UNL     1      -6.389  -5.690 -16.980  1.00  0.00     0.091 A 
ATOM     98  F   UNL     1      -6.994  -6.128 -14.715  1.00  0.00    -0.205 F 
ATOM     99  C   UNL     1      -5.444  -5.208 -17.900  1.00  0.00     0.022 A 
BRANCH  97 100
ATOM    100  S   UNL     1      -7.934  -6.319 -17.646  1.00  0.00     0.127 S 
ATOM    101  O   UNL     1      -8.595  -5.089 -18.079  1.00  0.00    -0.237 OA
ATOM    102  O   UNL     1      -7.473  -7.181 -18.735  1.00  0.00    -0.237 OA
ATOM    103  O   UNL     1      -8.587  -7.025 -16.552  1.00  0.00    -0.744 OA
ENDBRANCH  97 100
ENDBRANCH  70  93
ENDBRANCH  44  45
ENDBRANCH  37  39
ENDBRANCH  36  37
ENDBRANCH  35  36
ENDBRANCH  34  35
ENDBRANCH  33  34
ENDBRANCH  32  33
ENDBRANCH  31  32
ENDBRANCH   1  31
TORSDOF 26
