REMARK SMILES C[C@](NC(=O)CSCc1cccs1)(C(=O)OCCOCCOCCOCCOC(=O)c1ccc(-c2c3nc(c(-c4cccc(S(=O)(=O)[O-])c4F)c4ccc([nH]4)c(-c4cccc(S(=O)(=O)[O-])c4F)c4nc(c(-c5cccc(S(=O)(=O)[O-])c5F)c5ccc2[nH]5)C=C4)C=C3)cc1)C(F)(F)F
REMARK SMILES IDX 21 1 20 2 19 3 18 4 17 5 16 6 14 7 15 8 2 9 1 10 94 11 95 12
REMARK SMILES IDX 96 13 97 14 3 15 4 16 5 18 6 19 7 20 8 21 9 22 10 23 13 24
REMARK SMILES IDX 11 25 12 26 22 27 23 28 24 29 25 30 26 31 27 32 28 33 29 34
REMARK SMILES IDX 30 35 31 36 32 37 93 38 33 39 92 40 34 41 35 42 36 43 86 44
REMARK SMILES IDX 37 45 91 46 85 47 87 48 38 49 90 50 84 51 83 52 39 54 71 55
REMARK SMILES IDX 51 56 70 57 52 58 55 59 69 60 88 61 53 62 54 63 68 65 89 66
REMARK SMILES IDX 56 67 40 68 41 69 49 70 42 71 44 72 50 73 43 74 45 75 46 76
REMARK SMILES IDX 47 77 48 78 72 79 73 80 81 81 74 82 76 83 82 84 75 85 77 86
REMARK SMILES IDX 78 87 79 88 80 89 57 90 58 91 66 92 59 93 61 94 67 95 60 96
REMARK SMILES IDX 62 97 63 98 64 99 65 100
REMARK H PARENT 3 17 87 53 55 64
REMARK Flexibility Score: inf
ROOT
ATOM      1  C   UNL     1      -1.605   0.314  -0.921  1.00  0.00     0.188 C 
ENDROOT
BRANCH   1   2
ATOM      2  C   UNL     1      -2.120  -1.087  -1.305  1.00  0.00     0.188 C 
BRANCH   2   3
ATOM      3  O   UNL     1      -3.437  -1.474  -0.950  1.00  0.00    -0.376 OA
BRANCH   3   4
ATOM      4  C   UNL     1      -3.935  -1.286   0.368  1.00  0.00     0.202 C 
BRANCH   4   5
ATOM      5  C   UNL     1      -3.036  -1.224   1.622  1.00  0.00     0.261 C 
BRANCH   5   6
ATOM      6  O   UNL     1      -1.620  -1.233   1.381  1.00  0.00    -0.461 OA
BRANCH   6   7
ATOM      7  C   UNL     1      -0.958  -2.376   1.664  1.00  0.00     0.341 C 
ATOM      8  O   UNL     1      -1.479  -3.332   2.224  1.00  0.00    -0.249 OA
BRANCH   7   9
ATOM      9  C   UNL     1       0.527  -2.321   1.255  1.00  0.00     0.231 C 
ATOM     10  C   UNL     1       1.319  -2.293   2.574  1.00  0.00     0.058 C 
BRANCH   9  11
ATOM     11  C   UNL     1       0.734  -3.662   0.558  1.00  0.00     0.422 C 
ATOM     12  F   UNL     1       0.029  -3.733  -0.591  1.00  0.00    -0.168 F 
ATOM     13  F   UNL     1       2.047  -3.825   0.267  1.00  0.00    -0.168 F 
ATOM     14  F   UNL     1       0.400  -4.734   1.305  1.00  0.00    -0.168 F 
ENDBRANCH   9  11
BRANCH   9  15
ATOM     15  N   UNL     1       0.981  -1.077   0.497  1.00  0.00    -0.332 N 
ATOM     16  C   UNL     1       1.856  -0.906  -0.544  1.00  0.00     0.231 C 
ATOM     17  H   UNL     1       0.569  -0.241   0.815  1.00  0.00     0.164 HD
ATOM     18  O   UNL     1       2.819  -0.155  -0.357  1.00  0.00    -0.274 OA
BRANCH  16  19
ATOM     19  C   UNL     1       1.524  -1.357  -1.961  1.00  0.00     0.169 C 
BRANCH  19  20
ATOM     20  S   UNL     1       2.085  -2.981  -2.505  1.00  0.00    -0.146 SA
BRANCH  20  21
ATOM     21  C   UNL     1       3.735  -3.093  -1.741  1.00  0.00     0.116 C 
BRANCH  21  22
ATOM     22  C   UNL     1       4.792  -2.861  -2.764  1.00  0.00     0.014 A 
ATOM     23  C   UNL     1       5.154  -1.674  -3.370  1.00  0.00     0.016 A 
ATOM     24  S   UNL     1       5.737  -4.174  -3.329  1.00  0.00    -0.148 S 
ATOM     25  C   UNL     1       6.172  -1.860  -4.346  1.00  0.00     0.012 A 
ATOM     26  C   UNL     1       6.579  -3.173  -4.424  1.00  0.00     0.065 A 
ENDBRANCH  21  22
ENDBRANCH  20  21
ENDBRANCH  19  20
ENDBRANCH  16  19
ENDBRANCH   9  15
ENDBRANCH   7   9
ENDBRANCH   6   7
ENDBRANCH   5   6
ENDBRANCH   4   5
ENDBRANCH   3   4
ENDBRANCH   2   3
ENDBRANCH   1   2
BRANCH   1  27
ATOM     27  O   UNL     1      -2.451   1.000  -0.025  1.00  0.00    -0.377 OA
BRANCH  27  28
ATOM     28  C   UNL     1      -3.329   1.947  -0.608  1.00  0.00     0.188 C 
BRANCH  28  29
ATOM     29  C   UNL     1      -4.005   1.568  -1.942  1.00  0.00     0.188 C 
BRANCH  29  30
ATOM     30  O   UNL     1      -3.109   1.094  -2.945  1.00  0.00    -0.376 OA
BRANCH  30  31
ATOM     31  C   UNL     1      -2.674   1.991  -3.956  1.00  0.00     0.202 C 
BRANCH  31  32
ATOM     32  C   UNL     1      -1.712   3.120  -3.543  1.00  0.00     0.261 C 
BRANCH  32  33
ATOM     33  O   UNL     1      -2.171   3.995  -2.503  1.00  0.00    -0.460 OA
BRANCH  33  34
ATOM     34  C   UNL     1      -3.304   4.689  -2.737  1.00  0.00     0.338 C 
ATOM     35  O   UNL     1      -3.944   4.704  -3.778  1.00  0.00    -0.246 OA
BRANCH  34  36
ATOM     36  C   UNL     1      -3.783   5.249  -1.455  1.00  0.00     0.060 A 
ATOM     37  C   UNL     1      -5.071   4.905  -1.026  1.00  0.00     0.016 A 
ATOM     38  C   UNL     1      -2.979   6.084  -0.673  1.00  0.00     0.016 A 
ATOM     39  C   UNL     1      -5.578   5.434   0.157  1.00  0.00     0.010 A 
ATOM     40  C   UNL     1      -3.500   6.637   0.503  1.00  0.00     0.010 A 
ATOM     41  C   UNL     1      -4.818   6.348   0.898  1.00  0.00    -0.014 A 
BRANCH  41  42
ATOM     42  C   UNL     1      -5.503   7.135   1.952  1.00  0.00     0.031 A 
ATOM     43  C   UNL     1      -5.986   8.520   1.613  1.00  0.00     0.074 A 
ATOM     44  C   UNL     1      -5.773   6.600   3.156  1.00  0.00     0.049 A 
ATOM     45  N   UNL     1      -6.681   9.356   2.339  1.00  0.00    -0.248 NA
ATOM     46  C   UNL     1      -5.646   9.028   0.273  1.00  0.00     0.031 C 
ATOM     47  C   UNL     1      -5.364   5.269   3.600  1.00  0.00     0.029 A 
ATOM     48  N   UNL     1      -6.453   7.121   4.228  1.00  0.00    -0.354 N 
ATOM     49  C   UNL     1      -6.854  10.488   1.552  1.00  0.00     0.074 A 
ATOM     50  C   UNL     1      -6.167  10.245   0.302  1.00  0.00     0.031 C 
ATOM     51  C   UNL     1      -5.782   5.086   4.865  1.00  0.00     0.029 A 
ATOM     52  C   UNL     1      -6.473   6.291   5.323  1.00  0.00     0.049 A 
ATOM     53  H   UNL     1      -6.885   8.005   4.214  1.00  0.00     0.167 HD
ATOM     54  C   UNL     1      -7.543  11.620   1.830  1.00  0.00     0.034 A 
ATOM     55  C   UNL     1      -6.976   6.490   6.558  1.00  0.00     0.034 A 
ATOM     56  C   UNL     1      -8.226  11.862   3.072  1.00  0.00     0.049 A 
ATOM     57  C   UNL     1      -7.710   7.772   6.855  1.00  0.00     0.074 A 
ATOM     58  C   UNL     1      -8.967  12.970   3.445  1.00  0.00     0.029 A 
ATOM     59  N   UNL     1      -8.243  10.991   4.150  1.00  0.00    -0.354 N 
ATOM     60  N   UNL     1      -7.955   8.789   6.063  1.00  0.00    -0.248 NA
ATOM     61  C   UNL     1      -8.276   7.915   8.204  1.00  0.00     0.031 C 
ATOM     62  C   UNL     1      -9.403  12.782   4.761  1.00  0.00     0.029 A 
ATOM     63  C   UNL     1      -8.972  11.538   5.192  1.00  0.00     0.049 A 
ATOM     64  H   UNL     1      -7.800  10.112   4.171  1.00  0.00     0.167 HD
ATOM     65  C   UNL     1      -8.726   9.676   6.807  1.00  0.00     0.074 A 
ATOM     66  C   UNL     1      -8.938   9.059   8.100  1.00  0.00     0.031 C 
ATOM     67  C   UNL     1      -9.205  10.898   6.461  1.00  0.00     0.034 A 
BRANCH  54  68
ATOM     68  C   UNL     1      -7.609  12.677   0.758  1.00  0.00     0.023 A 
ATOM     69  C   UNL     1      -8.387  12.452  -0.397  1.00  0.00     0.012 A 
ATOM     70  C   UNL     1      -6.948  13.910   0.916  1.00  0.00     0.148 A 
ATOM     71  C   UNL     1      -8.480  13.426  -1.391  1.00  0.00     0.002 A 
ATOM     72  C   UNL     1      -7.085  14.893  -0.056  1.00  0.00     0.091 A 
ATOM     73  F   UNL     1      -6.196  14.095   2.010  1.00  0.00    -0.205 F 
ATOM     74  C   UNL     1      -7.840  14.649  -1.215  1.00  0.00     0.022 A 
BRANCH  72  75
ATOM     75  S   UNL     1      -6.365  16.530   0.111  1.00  0.00     0.127 S 
ATOM     76  O   UNL     1      -5.368  16.523  -0.959  1.00  0.00    -0.237 OA
ATOM     77  O   UNL     1      -7.518  17.397  -0.136  1.00  0.00    -0.237 OA
ATOM     78  O   UNL     1      -5.827  16.599   1.461  1.00  0.00    -0.744 OA
ENDBRANCH  72  75
ENDBRANCH  54  68
BRANCH  55  79
ATOM     79  C   UNL     1      -6.808   5.447   7.610  1.00  0.00     0.023 A 
ATOM     80  C   UNL     1      -7.929   4.761   8.115  1.00  0.00     0.012 A 
ATOM     81  C   UNL     1      -5.530   5.141   8.117  1.00  0.00     0.148 A 
ATOM     82  C   UNL     1      -7.784   3.818   9.135  1.00  0.00     0.002 A 
ATOM     83  C   UNL     1      -5.386   4.157   9.087  1.00  0.00     0.091 A 
ATOM     84  F   UNL     1      -4.478   5.819   7.638  1.00  0.00    -0.205 F 
ATOM     85  C   UNL     1      -6.513   3.509   9.613  1.00  0.00     0.022 A 
BRANCH  83  86
ATOM     86  S   UNL     1      -3.776   3.601   9.657  1.00  0.00     0.127 S 
ATOM     87  O   UNL     1      -3.753   4.105  11.027  1.00  0.00    -0.237 OA
ATOM     88  O   UNL     1      -3.901   2.148   9.535  1.00  0.00    -0.237 OA
ATOM     89  O   UNL     1      -2.808   4.197   8.746  1.00  0.00    -0.744 OA
ENDBRANCH  83  86
ENDBRANCH  55  79
BRANCH  67  90
ATOM     90  C   UNL     1     -10.035  11.634   7.484  1.00  0.00     0.023 A 
ATOM     91  C   UNL     1      -9.431  12.133   8.656  1.00  0.00     0.012 A 
ATOM     92  C   UNL     1     -11.409  11.857   7.269  1.00  0.00     0.148 A 
ATOM     93  C   UNL     1     -10.193  12.791   9.622  1.00  0.00     0.002 A 
ATOM     94  C   UNL     1     -12.150  12.563   8.209  1.00  0.00     0.091 A 
ATOM     95  F   UNL     1     -11.972  11.365   6.155  1.00  0.00    -0.205 F 
ATOM     96  C   UNL     1     -11.548  13.014   9.395  1.00  0.00     0.022 A 
BRANCH  94  97
ATOM     97  S   UNL     1     -13.878  12.981   7.956  1.00  0.00     0.127 S 
ATOM     98  O   UNL     1     -14.544  12.071   8.886  1.00  0.00    -0.237 OA
ATOM     99  O   UNL     1     -13.917  14.390   8.349  1.00  0.00    -0.237 OA
ATOM    100  O   UNL     1     -14.146  12.741   6.545  1.00  0.00    -0.744 OA
ENDBRANCH  94  97
ENDBRANCH  67  90
ENDBRANCH  41  42
ENDBRANCH  34  36
ENDBRANCH  33  34
ENDBRANCH  32  33
ENDBRANCH  31  32
ENDBRANCH  30  31
ENDBRANCH  29  30
ENDBRANCH  28  29
ENDBRANCH  27  28
ENDBRANCH   1  27
TORSDOF 29
