REMARK SMILES CCCc1cc2c(cc1Cl)C=C(C(=O)OCCOCCOCCOCCOC(=O)c1ccc(-c3c4nc(c(-c5cccc(S(=O)(=O)[O-])c5F)c5ccc([nH]5)c(-c5cccc(S(=O)(=O)[O-])c5F)c5nc(c(-c6cccc(S(=O)(=O)[O-])c6F)c6ccc3[nH]6)C=C5)C=C4)cc1)[C@@H](C(F)(F)F)O2
REMARK SMILES IDX 22 1 21 2 20 3 19 4 18 5 17 6 16 7 15 8 13 9 14 10 12 11
REMARK SMILES IDX 4 12 5 13 9 14 6 15 8 16 10 17 7 18 98 19 11 20 93 21 3 22
REMARK SMILES IDX 2 23 1 24 94 25 95 26 96 27 97 28 23 29 24 30 25 31 26 32
REMARK SMILES IDX 27 33 28 34 29 35 30 36 31 37 92 38 32 39 91 40 33 41 34 42
REMARK SMILES IDX 35 43 85 44 36 45 90 46 84 47 86 48 37 49 89 50 83 51 82 52
REMARK SMILES IDX 38 54 70 55 50 56 69 57 51 58 54 59 68 60 87 61 52 62 53 63
REMARK SMILES IDX 67 65 88 66 55 67 39 68 40 69 48 70 41 71 43 72 49 73 42 74
REMARK SMILES IDX 44 75 45 76 46 77 47 78 71 79 72 80 80 81 73 82 75 83 81 84
REMARK SMILES IDX 74 85 76 86 77 87 78 88 79 89 56 90 57 91 65 92 58 93 60 94
REMARK SMILES IDX 66 95 59 96 61 97 62 98 63 99 64 100
REMARK H PARENT 86 53 54 64
REMARK Flexibility Score: inf
ROOT
ATOM      1  C   UNL     1       0.537   0.100  11.584  1.00  0.00     0.188 C 
ENDROOT
BRANCH   1   2
ATOM      2  O   UNL     1      -0.229   0.053  10.383  1.00  0.00    -0.377 OA
BRANCH   2   3
ATOM      3  C   UNL     1       0.400   0.583   9.226  1.00  0.00     0.188 C 
BRANCH   3   4
ATOM      4  C   UNL     1      -0.003   2.043   8.955  1.00  0.00     0.188 C 
BRANCH   4   5
ATOM      5  O   UNL     1      -0.653   2.732  10.003  1.00  0.00    -0.376 OA
BRANCH   5   6
ATOM      6  C   UNL     1      -1.970   2.413  10.432  1.00  0.00     0.202 C 
BRANCH   6   7
ATOM      7  C   UNL     1      -2.862   1.259   9.923  1.00  0.00     0.261 C 
BRANCH   7   8
ATOM      8  O   UNL     1      -2.428   0.529   8.777  1.00  0.00    -0.460 OA
BRANCH   8   9
ATOM      9  C   UNL     1      -2.790   0.997   7.569  1.00  0.00     0.338 C 
ATOM     10  O   UNL     1      -3.454   1.988   7.326  1.00  0.00    -0.246 OA
BRANCH   9  11
ATOM     11  C   UNL     1      -2.062   0.199   6.562  1.00  0.00     0.087 C 
ATOM     12  C   UNL     1       0.752  -1.234   2.656  1.00  0.00    -0.026 A 
ATOM     13  C   UNL     1      -0.148  -1.889   3.519  1.00  0.00     0.052 A 
ATOM     14  C   UNL     1       1.116   0.088   2.957  1.00  0.00     0.045 A 
ATOM     15  C   UNL     1      -0.737  -1.215   4.590  1.00  0.00     0.128 A 
ATOM     16  C   UNL     1       0.478   0.780   3.990  1.00  0.00     0.032 A 
ATOM     17  Cl  UNL     1       2.352   0.931   2.094  1.00  0.00    -0.084 Cl
ATOM     18  C   UNL     1      -0.486   0.142   4.772  1.00  0.00     0.019 A 
ATOM     19  O   UNL     1      -1.598  -1.931   5.373  1.00  0.00    -0.475 OA
ATOM     20  C   UNL     1      -1.283   0.892   5.722  1.00  0.00     0.027 C 
ATOM     21  C   UNL     1      -2.104  -1.308   6.595  1.00  0.00     0.316 C 
BRANCH  12  22
ATOM     22  C   UNL     1       1.227  -1.962   1.418  1.00  0.00     0.037 C 
BRANCH  22  23
ATOM     23  C   UNL     1       0.355  -1.698   0.178  1.00  0.00     0.001 C 
ATOM     24  C   UNL     1       0.567  -0.336  -0.469  1.00  0.00     0.004 C 
ENDBRANCH  22  23
ENDBRANCH  12  22
BRANCH  21  25
ATOM     25  C   UNL     1      -3.512  -1.873   6.838  1.00  0.00     0.430 C 
ATOM     26  F   UNL     1      -3.497  -3.229   6.841  1.00  0.00    -0.167 F 
ATOM     27  F   UNL     1      -4.028  -1.487   8.025  1.00  0.00    -0.167 F 
ATOM     28  F   UNL     1      -4.376  -1.481   5.872  1.00  0.00    -0.167 F 
ENDBRANCH  21  25
ENDBRANCH   9  11
ENDBRANCH   8   9
ENDBRANCH   7   8
ENDBRANCH   6   7
ENDBRANCH   5   6
ENDBRANCH   4   5
ENDBRANCH   3   4
ENDBRANCH   2   3
ENDBRANCH   1   2
BRANCH   1  29
ATOM     29  C   UNL     1       1.297   1.401  11.914  1.00  0.00     0.188 C 
BRANCH  29  30
ATOM     30  O   UNL     1       2.202   1.801  10.882  1.00  0.00    -0.376 OA
BRANCH  30  31
ATOM     31  C   UNL     1       3.590   1.634  11.134  1.00  0.00     0.202 C 
BRANCH  31  32
ATOM     32  C   UNL     1       4.095   0.195  10.973  1.00  0.00     0.261 C 
BRANCH  32  33
ATOM     33  O   UNL     1       3.517  -0.762  11.872  1.00  0.00    -0.460 OA
BRANCH  33  34
ATOM     34  C   UNL     1       3.657  -0.546  13.200  1.00  0.00     0.338 C 
ATOM     35  O   UNL     1       4.274   0.359  13.732  1.00  0.00    -0.246 OA
BRANCH  34  36
ATOM     36  C   UNL     1       2.763  -1.495  13.896  1.00  0.00     0.060 A 
ATOM     37  C   UNL     1       2.759  -2.846  13.539  1.00  0.00     0.016 A 
ATOM     38  C   UNL     1       1.901  -1.022  14.893  1.00  0.00     0.016 A 
ATOM     39  C   UNL     1       1.909  -3.729  14.202  1.00  0.00     0.010 A 
ATOM     40  C   UNL     1       1.052  -1.911  15.560  1.00  0.00     0.010 A 
ATOM     41  C   UNL     1       1.067  -3.275  15.233  1.00  0.00    -0.014 A 
BRANCH  41  42
ATOM     42  C   UNL     1       0.360  -4.274  16.068  1.00  0.00     0.031 A 
ATOM     43  C   UNL     1      -1.108  -4.538  15.934  1.00  0.00     0.074 A 
ATOM     44  C   UNL     1       1.093  -4.973  16.958  1.00  0.00     0.049 A 
ATOM     45  N   UNL     1      -1.811  -5.502  16.472  1.00  0.00    -0.248 NA
ATOM     46  C   UNL     1      -1.891  -3.611  15.105  1.00  0.00     0.031 C 
ATOM     47  C   UNL     1       2.516  -4.750  17.227  1.00  0.00     0.029 A 
ATOM     48  N   UNL     1       0.755  -6.012  17.786  1.00  0.00    -0.354 N 
ATOM     49  C   UNL     1      -3.118  -5.303  16.050  1.00  0.00     0.074 A 
ATOM     50  C   UNL     1      -3.116  -4.110  15.229  1.00  0.00     0.031 C 
ATOM     51  C   UNL     1       2.936  -5.646  18.132  1.00  0.00     0.029 A 
ATOM     52  C   UNL     1       1.815  -6.500  18.512  1.00  0.00     0.049 A 
ATOM     53  H   UNL     1      -0.159  -6.373  17.853  1.00  0.00     0.167 HD
ATOM     54  C   UNL     1      -4.208  -6.064  16.306  1.00  0.00     0.034 A 
ATOM     55  C   UNL     1       1.887  -7.533  19.372  1.00  0.00     0.034 A 
ATOM     56  C   UNL     1      -4.195  -7.259  17.108  1.00  0.00     0.049 A 
ATOM     57  C   UNL     1       0.670  -8.374  19.619  1.00  0.00     0.074 A 
ATOM     58  C   UNL     1      -5.235  -8.142  17.344  1.00  0.00     0.029 A 
ATOM     59  N   UNL     1      -3.102  -7.730  17.816  1.00  0.00    -0.354 N 
ATOM     60  N   UNL     1      -0.516  -8.277  19.069  1.00  0.00    -0.248 NA
ATOM     61  C   UNL     1       0.800  -9.479  20.579  1.00  0.00     0.031 C 
ATOM     62  C   UNL     1      -4.776  -9.136  18.212  1.00  0.00     0.029 A 
ATOM     63  C   UNL     1      -3.447  -8.878  18.507  1.00  0.00     0.049 A 
ATOM     64  H   UNL     1      -2.212  -7.310  17.827  1.00  0.00     0.167 HD
ATOM     65  C   UNL     1      -1.270  -9.312  19.607  1.00  0.00     0.074 A 
ATOM     66  C   UNL     1      -0.403 -10.037  20.512  1.00  0.00     0.031 C 
ATOM     67  C   UNL     1      -2.570  -9.616  19.379  1.00  0.00     0.034 A 
BRANCH  54  68
ATOM     68  C   UNL     1      -5.511  -5.684  15.657  1.00  0.00     0.023 A 
ATOM     69  C   UNL     1      -5.719  -6.021  14.305  1.00  0.00     0.012 A 
ATOM     70  C   UNL     1      -6.566  -5.128  16.406  1.00  0.00     0.148 A 
ATOM     71  C   UNL     1      -6.957  -5.803  13.703  1.00  0.00     0.002 A 
ATOM     72  C   UNL     1      -7.805  -4.936  15.806  1.00  0.00     0.091 A 
ATOM     73  F   UNL     1      -6.340  -4.814  17.689  1.00  0.00    -0.205 F 
ATOM     74  C   UNL     1      -8.001  -5.271  14.455  1.00  0.00     0.022 A 
BRANCH  72  75
ATOM     75  S   UNL     1      -9.233  -4.305  16.695  1.00  0.00     0.127 S 
ATOM     76  O   UNL     1      -9.463  -3.031  16.013  1.00  0.00    -0.237 OA
ATOM     77  O   UNL     1     -10.240  -5.331  16.426  1.00  0.00    -0.237 OA
ATOM     78  O   UNL     1      -8.826  -4.194  18.088  1.00  0.00    -0.744 OA
ENDBRANCH  72  75
ENDBRANCH  54  68
BRANCH  55  79
ATOM     79  C   UNL     1       3.198  -7.864  19.990  1.00  0.00     0.023 A 
ATOM     80  C   UNL     1       3.930  -8.963  19.503  1.00  0.00     0.012 A 
ATOM     81  C   UNL     1       3.758  -7.044  20.988  1.00  0.00     0.148 A 
ATOM     82  C   UNL     1       5.201  -9.243  20.005  1.00  0.00     0.002 A 
ATOM     83  C   UNL     1       5.038  -7.307  21.457  1.00  0.00     0.091 A 
ATOM     84  F   UNL     1       3.038  -6.003  21.428  1.00  0.00    -0.205 F 
ATOM     85  C   UNL     1       5.758  -8.411  20.973  1.00  0.00     0.022 A 
BRANCH  83  86
ATOM     86  S   UNL     1       5.882  -6.237  22.627  1.00  0.00     0.127 S 
ATOM     87  O   UNL     1       6.066  -7.131  23.768  1.00  0.00    -0.237 OA
ATOM     88  O   UNL     1       7.106  -5.907  21.898  1.00  0.00    -0.237 OA
ATOM     89  O   UNL     1       4.987  -5.111  22.854  1.00  0.00    -0.744 OA
ENDBRANCH  83  86
ENDBRANCH  55  79
BRANCH  67  90
ATOM     90  C   UNL     1      -3.171 -10.775  20.125  1.00  0.00     0.023 A 
ATOM     91  C   UNL     1      -3.591 -10.586  21.455  1.00  0.00     0.012 A 
ATOM     92  C   UNL     1      -3.465 -11.985  19.466  1.00  0.00     0.148 A 
ATOM     93  C   UNL     1      -4.300 -11.585  22.120  1.00  0.00     0.002 A 
ATOM     94  C   UNL     1      -4.200 -12.963  20.124  1.00  0.00     0.091 A 
ATOM     95  F   UNL     1      -3.050 -12.137  18.200  1.00  0.00    -0.205 F 
ATOM     96  C   UNL     1      -4.616 -12.765  21.452  1.00  0.00     0.022 A 
BRANCH  94  97
ATOM     97  S   UNL     1      -4.723 -14.488  19.330  1.00  0.00     0.127 S 
ATOM     98  O   UNL     1      -4.054 -15.496  20.151  1.00  0.00    -0.237 OA
ATOM     99  O   UNL     1      -6.175 -14.434  19.490  1.00  0.00    -0.237 OA
ATOM    100  O   UNL     1      -4.254 -14.409  17.953  1.00  0.00    -0.744 OA
ENDBRANCH  94  97
ENDBRANCH  67  90
ENDBRANCH  41  42
ENDBRANCH  34  36
ENDBRANCH  33  34
ENDBRANCH  32  33
ENDBRANCH  31  32
ENDBRANCH  30  31
ENDBRANCH  29  30
ENDBRANCH   1  29
TORSDOF 26
