REMARK SMILES Cc1ccccc1OCC(=O)N[C@@H](Cc1c[nH]c2ccccc12)C(=O)OCCOCCOCCOCCOC(=O)c1ccc(-c2c3nc(c(-c4cccc(S(=O)(=O)[O-])c4F)c4ccc([nH]4)c(-c4cccc(S(=O)(=O)[O-])c4F)c4nc(c(-c5cccc(S(=O)(=O)[O-])c5F)c5ccc2[nH]5)C=C4)C=C3)cc1
REMARK SMILES IDX 31 1 30 2 29 3 28 4 27 5 26 6 24 7 25 8 13 9 12 10 10 11
REMARK SMILES IDX 11 12 9 14 8 15 7 16 1 17 2 18 3 19 4 20 6 21 5 22 14 23
REMARK SMILES IDX 15 24 16 25 23 26 17 27 18 28 22 29 19 31 21 32 20 33 32 34
REMARK SMILES IDX 33 35 34 36 35 37 36 38 37 39 38 40 39 41 40 42 41 43 42 44
REMARK SMILES IDX 103 45 43 46 102 47 44 48 45 49 46 50 96 51 47 52 101 53
REMARK SMILES IDX 95 54 97 55 48 56 100 57 94 58 93 59 49 61 81 62 61 63 80 64
REMARK SMILES IDX 62 65 65 66 79 67 98 68 63 69 64 70 78 72 99 73 66 74 50 75
REMARK SMILES IDX 51 76 59 77 52 78 54 79 60 80 53 81 55 82 56 83 57 84 58 85
REMARK SMILES IDX 82 86 83 87 91 88 84 89 86 90 92 91 85 92 87 93 88 94 89 95
REMARK SMILES IDX 90 96 67 97 68 98 76 99 69 100 71 101 77 102 70 103 72 104
REMARK SMILES IDX 73 105 74 106 75 107
REMARK H PARENT 12 13 17 30 97 60 65 71
REMARK Flexibility Score: inf
ROOT
ATOM      1  C   UNL     1       4.534   3.428   0.879  1.00  0.00     0.188 C 
ENDROOT
BRANCH   1   2
ATOM      2  C   UNL     1       3.437   4.399   1.261  1.00  0.00     0.188 C 
BRANCH   2   3
ATOM      3  O   UNL     1       3.757   5.772   1.106  1.00  0.00    -0.376 OA
BRANCH   3   4
ATOM      4  C   UNL     1       3.140   6.581   2.112  1.00  0.00     0.202 C 
BRANCH   4   5
ATOM      5  C   UNL     1       1.637   6.386   2.421  1.00  0.00     0.261 C 
BRANCH   5   6
ATOM      6  O   UNL     1       1.248   5.020   2.703  1.00  0.00    -0.462 OA
BRANCH   6   7
ATOM      7  C   UNL     1       0.142   4.555   2.068  1.00  0.00     0.329 C 
ATOM      8  O   UNL     1      -0.634   5.232   1.430  1.00  0.00    -0.250 OA
BRANCH   7   9
ATOM      9  C   UNL     1      -0.050   3.027   2.212  1.00  0.00     0.196 C 
BRANCH   9  10
ATOM     10  N   UNL     1       1.131   2.174   2.324  1.00  0.00    -0.339 N 
ATOM     11  C   UNL     1       1.774   1.529   1.304  1.00  0.00     0.258 C 
ATOM     12  O   UNL     1       2.543   0.605   1.569  1.00  0.00    -0.271 OA
ATOM     13  H   UNL     1       1.503   2.051   3.227  1.00  0.00     0.164 HD
BRANCH  11  14
ATOM     14  C   UNL     1       1.550   2.021  -0.163  1.00  0.00     0.329 C 
BRANCH  14  15
ATOM     15  O   UNL     1       0.663   1.507  -1.129  1.00  0.00    -0.484 OA
BRANCH  15  16
ATOM     16  C   UNL     1      -0.014   0.421  -0.685  1.00  0.00     0.122 A 
ATOM     17  C   UNL     1       2.032  -1.096  -0.891  1.00  0.00     0.048 C 
ATOM     18  C   UNL     1       0.585  -0.836  -0.571  1.00  0.00    -0.009 A 
ATOM     19  C   UNL     1      -0.212  -1.894  -0.124  1.00  0.00     0.007 A 
ATOM     20  C   UNL     1      -1.565  -1.697   0.171  1.00  0.00     0.001 A 
ATOM     21  C   UNL     1      -1.369   0.622  -0.416  1.00  0.00     0.047 A 
ATOM     22  C   UNL     1      -2.145  -0.439   0.024  1.00  0.00     0.004 A 
ENDBRANCH  15  16
ENDBRANCH  14  15
ENDBRANCH  11  14
ENDBRANCH   9  10
BRANCH   9  23
ATOM     23  C   UNL     1      -1.147   2.672   3.228  1.00  0.00     0.074 C 
BRANCH  23  24
ATOM     24  C   UNL     1      -0.719   2.205   4.591  1.00  0.00    -0.020 A 
ATOM     25  C   UNL     1      -0.639   2.991   5.717  1.00  0.00     0.087 A 
ATOM     26  C   UNL     1      -0.382   0.873   5.016  1.00  0.00     0.003 A 
ATOM     27  N   UNL     1      -0.330   2.211   6.793  1.00  0.00    -0.361 N 
ATOM     28  C   UNL     1      -0.186   0.905   6.400  1.00  0.00     0.046 A 
ATOM     29  C   UNL     1      -0.233  -0.364   4.356  1.00  0.00     0.010 A 
ATOM     30  H   UNL     1      -0.226   2.537   7.716  1.00  0.00     0.166 HD
ATOM     31  C   UNL     1       0.106  -0.234   7.160  1.00  0.00     0.026 A 
ATOM     32  C   UNL     1       0.084  -1.510   5.097  1.00  0.00     0.001 A 
ATOM     33  C   UNL     1       0.236  -1.447   6.481  1.00  0.00     0.002 A 
ENDBRANCH  23  24
ENDBRANCH   9  23
ENDBRANCH   7   9
ENDBRANCH   6   7
ENDBRANCH   5   6
ENDBRANCH   4   5
ENDBRANCH   3   4
ENDBRANCH   2   3
ENDBRANCH   1   2
BRANCH   1  34
ATOM     34  O   UNL     1       4.862   2.557   1.969  1.00  0.00    -0.377 OA
BRANCH  34  35
ATOM     35  C   UNL     1       5.685   3.162   2.972  1.00  0.00     0.188 C 
BRANCH  35  36
ATOM     36  C   UNL     1       7.120   3.181   2.483  1.00  0.00     0.188 C 
BRANCH  36  37
ATOM     37  O   UNL     1       7.215   4.225   1.518  1.00  0.00    -0.376 OA
BRANCH  37  38
ATOM     38  C   UNL     1       8.009   3.959   0.376  1.00  0.00     0.202 C 
BRANCH  38  39
ATOM     39  C   UNL     1       9.482   3.868   0.747  1.00  0.00     0.261 C 
BRANCH  39  40
ATOM     40  O   UNL     1       9.919   5.181   1.159  1.00  0.00    -0.460 OA
BRANCH  40  41
ATOM     41  C   UNL     1      10.220   5.282   2.484  1.00  0.00     0.338 C 
ATOM     42  O   UNL     1      11.181   4.726   2.991  1.00  0.00    -0.246 OA
BRANCH  41  43
ATOM     43  C   UNL     1       9.168   6.045   3.228  1.00  0.00     0.060 A 
ATOM     44  C   UNL     1       9.142   6.003   4.628  1.00  0.00     0.016 A 
ATOM     45  C   UNL     1       8.081   6.598   2.555  1.00  0.00     0.016 A 
ATOM     46  C   UNL     1       7.971   6.338   5.331  1.00  0.00     0.010 A 
ATOM     47  C   UNL     1       6.895   6.827   3.247  1.00  0.00     0.010 A 
ATOM     48  C   UNL     1       6.807   6.649   4.639  1.00  0.00    -0.014 A 
BRANCH  48  49
ATOM     49  C   UNL     1       5.447   6.705   5.226  1.00  0.00     0.031 A 
ATOM     50  C   UNL     1       4.617   7.939   5.037  1.00  0.00     0.074 A 
ATOM     51  C   UNL     1       4.816   5.527   5.469  1.00  0.00     0.049 A 
ATOM     52  N   UNL     1       3.357   8.049   5.318  1.00  0.00    -0.248 NA
ATOM     53  C   UNL     1       5.179   9.181   4.516  1.00  0.00     0.031 C 
ATOM     54  C   UNL     1       3.416   5.250   5.159  1.00  0.00     0.029 A 
ATOM     55  N   UNL     1       5.276   4.304   5.971  1.00  0.00    -0.354 N 
ATOM     56  C   UNL     1       2.892   9.231   4.772  1.00  0.00     0.074 A 
ATOM     57  C   UNL     1       4.086   9.943   4.395  1.00  0.00     0.031 C 
ATOM     58  C   UNL     1       3.116   3.978   5.425  1.00  0.00     0.029 A 
ATOM     59  C   UNL     1       4.160   3.502   6.287  1.00  0.00     0.049 A 
ATOM     60  H   UNL     1       6.219   4.048   6.085  1.00  0.00     0.167 HD
ATOM     61  C   UNL     1       1.550   9.421   4.589  1.00  0.00     0.034 A 
ATOM     62  C   UNL     1       3.862   2.967   7.504  1.00  0.00     0.034 A 
ATOM     63  C   UNL     1       0.725   8.379   5.269  1.00  0.00     0.049 A 
ATOM     64  C   UNL     1       2.657   3.648   8.157  1.00  0.00     0.074 A 
ATOM     65  C   UNL     1      -0.377   7.622   4.899  1.00  0.00     0.029 A 
ATOM     66  N   UNL     1       1.073   7.913   6.547  1.00  0.00    -0.354 N 
ATOM     67  N   UNL     1       1.954   4.615   7.610  1.00  0.00    -0.248 NA
ATOM     68  C   UNL     1       2.127   3.291   9.470  1.00  0.00     0.031 C 
ATOM     69  C   UNL     1      -0.642   6.678   5.924  1.00  0.00     0.029 A 
ATOM     70  C   UNL     1       0.290   6.837   6.937  1.00  0.00     0.049 A 
ATOM     71  H   UNL     1       1.787   8.304   7.100  1.00  0.00     0.167 HD
ATOM     72  C   UNL     1       1.053   5.128   8.502  1.00  0.00     0.074 A 
ATOM     73  C   UNL     1       1.137   4.192   9.615  1.00  0.00     0.031 C 
ATOM     74  C   UNL     1       0.362   6.299   8.298  1.00  0.00     0.034 A 
BRANCH  61  75
ATOM     75  C   UNL     1       0.917  10.466   3.628  1.00  0.00     0.023 A 
ATOM     76  C   UNL     1      -0.498  10.558   3.602  1.00  0.00     0.012 A 
ATOM     77  C   UNL     1       1.577  11.287   2.671  1.00  0.00     0.148 A 
ATOM     78  C   UNL     1      -1.208  11.325   2.664  1.00  0.00     0.002 A 
ATOM     79  C   UNL     1       0.869  12.134   1.797  1.00  0.00     0.091 A 
ATOM     80  F   UNL     1       2.900  11.217   2.522  1.00  0.00    -0.205 F 
ATOM     81  C   UNL     1      -0.524  12.124   1.765  1.00  0.00     0.022 A 
BRANCH  79  82
ATOM     82  S   UNL     1       1.677  13.301   0.676  1.00  0.00     0.127 S 
ATOM     83  O   UNL     1       1.246  12.821  -0.636  1.00  0.00    -0.237 OA
ATOM     84  O   UNL     1       1.085  14.577   1.080  1.00  0.00    -0.237 OA
ATOM     85  O   UNL     1       3.107  13.191   0.933  1.00  0.00    -0.744 OA
ENDBRANCH  79  82
ENDBRANCH  61  75
BRANCH  62  86
ATOM     86  C   UNL     1       5.008   2.211   8.088  1.00  0.00     0.023 A 
ATOM     87  C   UNL     1       5.328   1.038   7.356  1.00  0.00     0.012 A 
ATOM     88  C   UNL     1       6.048   2.941   8.672  1.00  0.00     0.148 A 
ATOM     89  C   UNL     1       6.643   0.793   6.952  1.00  0.00     0.002 A 
ATOM     90  C   UNL     1       7.351   2.727   8.219  1.00  0.00     0.091 A 
ATOM     91  F   UNL     1       5.733   3.960   9.483  1.00  0.00    -0.205 F 
ATOM     92  C   UNL     1       7.644   1.683   7.325  1.00  0.00     0.022 A 
BRANCH  90  93
ATOM     93  S   UNL     1       8.580   4.026   8.433  1.00  0.00     0.127 S 
ATOM     94  O   UNL     1       9.269   3.609   9.647  1.00  0.00    -0.237 OA
ATOM     95  O   UNL     1       9.365   3.929   7.204  1.00  0.00    -0.237 OA
ATOM     96  O   UNL     1       7.778   5.240   8.522  1.00  0.00    -0.744 OA
ENDBRANCH  90  93
ENDBRANCH  62  86
BRANCH  74  97
ATOM     97  C   UNL     1      -0.344   7.086   9.400  1.00  0.00     0.023 A 
ATOM     98  C   UNL     1      -0.068   6.870  10.763  1.00  0.00     0.012 A 
ATOM     99  C   UNL     1      -1.180   8.199   9.099  1.00  0.00     0.148 A 
ATOM    100  C   UNL     1      -0.643   7.645  11.775  1.00  0.00     0.002 A 
ATOM    101  C   UNL     1      -1.655   9.039  10.102  1.00  0.00     0.091 A 
ATOM    102  F   UNL     1      -1.541   8.452   7.835  1.00  0.00    -0.205 F 
ATOM    103  C   UNL     1      -1.420   8.743  11.445  1.00  0.00     0.022 A 
BRANCH 101 104
ATOM    104  S   UNL     1      -2.450  10.610   9.726  1.00  0.00     0.127 S 
ATOM    105  O   UNL     1      -3.857  10.295   9.963  1.00  0.00    -0.237 OA
ATOM    106  O   UNL     1      -1.847  11.501  10.720  1.00  0.00    -0.237 OA
ATOM    107  O   UNL     1      -2.088  10.917   8.350  1.00  0.00    -0.744 OA
ENDBRANCH 101 104
ENDBRANCH  74  97
ENDBRANCH  48  49
ENDBRANCH  41  43
ENDBRANCH  40  41
ENDBRANCH  39  40
ENDBRANCH  38  39
ENDBRANCH  37  38
ENDBRANCH  36  37
ENDBRANCH  35  36
ENDBRANCH  34  35
ENDBRANCH   1  34
TORSDOF 29
