REMARK SMILES CC(=O)c1ccccc1S(=O)(=O)N1CCC(C(=O)OCCOCCOCCOCCOC(=O)c2ccc(-c3c4nc(c(-c5cccc(S(=O)(=O)[O-])c5F)c5ccc([nH]5)c(-c5cccc(S(=O)(=O)[O-])c5F)c5nc(c(-c6cccc(S(=O)(=O)[O-])c6F)c6ccc3[nH]6)C=C5)C=C4)cc2)CC1
REMARK SMILES IDX 25 1 24 2 23 3 22 4 21 5 20 6 19 7 17 8 18 9 16 10 13 11
REMARK SMILES IDX 14 12 98 13 15 14 97 15 10 16 11 17 12 18 9 19 4 20 5 21
REMARK SMILES IDX 6 22 8 23 7 24 2 25 1 26 3 27 26 28 27 29 28 30 29 31 30 32
REMARK SMILES IDX 31 33 32 34 33 35 34 36 35 37 96 38 36 39 95 40 37 41 38 42
REMARK SMILES IDX 39 43 89 44 40 45 94 46 88 47 90 48 41 49 93 50 87 51 86 52
REMARK SMILES IDX 42 54 74 55 54 56 73 57 55 58 58 59 72 60 91 61 56 62 57 63
REMARK SMILES IDX 71 65 92 66 59 67 43 68 44 69 52 70 45 71 47 72 53 73 46 74
REMARK SMILES IDX 48 75 49 76 50 77 51 78 75 79 76 80 84 81 77 82 79 83 85 84
REMARK SMILES IDX 78 85 80 86 81 87 82 88 83 89 60 90 61 91 69 92 62 93 64 94
REMARK SMILES IDX 70 95 63 96 65 97 66 98 67 99 68 100
REMARK H PARENT 90 53 58 64
REMARK Flexibility Score: inf
ROOT
ATOM      1  O   UNL     1      -0.322  -2.291   4.103  1.00  0.00    -0.377 OA
ENDROOT
BRANCH   1   2
ATOM      2  C   UNL     1      -1.319  -1.883   3.184  1.00  0.00     0.188 C 
BRANCH   2   3
ATOM      3  C   UNL     1      -1.984  -2.935   2.286  1.00  0.00     0.188 C 
BRANCH   3   4
ATOM      4  O   UNL     1      -2.314  -4.131   2.956  1.00  0.00    -0.376 OA
BRANCH   4   5
ATOM      5  C   UNL     1      -1.657  -5.362   2.701  1.00  0.00     0.202 C 
BRANCH   5   6
ATOM      6  C   UNL     1      -0.225  -5.527   2.155  1.00  0.00     0.261 C 
BRANCH   6   7
ATOM      7  O   UNL     1       0.397  -4.363   1.621  1.00  0.00    -0.463 OA
BRANCH   7   8
ATOM      8  C   UNL     1       0.370  -4.220   0.273  1.00  0.00     0.309 C 
ATOM      9  O   UNL     1      -0.130  -5.026  -0.504  1.00  0.00    -0.252 OA
BRANCH   8  10
ATOM     10  C   UNL     1       0.943  -2.887  -0.176  1.00  0.00     0.102 C 
ATOM     11  N   UNL     1       2.361  -0.611  -0.852  1.00  0.00    -0.198 NA
ATOM     12  C   UNL     1       2.509  -0.997   0.570  1.00  0.00     0.103 C 
ATOM     13  C   UNL     1       2.515  -1.770  -1.786  1.00  0.00     0.103 C 
ATOM     14  C   UNL     1       1.346  -1.910   0.939  1.00  0.00     0.032 C 
ATOM     15  C   UNL     1       2.108  -3.095  -1.130  1.00  0.00     0.032 C 
BRANCH  11  16
ATOM     16  S   UNL     1       3.133   0.834  -1.292  1.00  0.00     0.243 S 
ATOM     17  O   UNL     1       4.371   0.487  -1.960  1.00  0.00    -0.207 OA
ATOM     18  O   UNL     1       3.116   1.739  -0.164  1.00  0.00    -0.207 OA
BRANCH  16  19
ATOM     19  C   UNL     1       2.107   1.626  -2.500  1.00  0.00     0.093 A 
ATOM     20  C   UNL     1       0.733   1.430  -2.623  1.00  0.00     0.037 A 
ATOM     21  C   UNL     1       0.012   2.134  -3.603  1.00  0.00     0.013 A 
ATOM     22  C   UNL     1       0.650   3.073  -4.413  1.00  0.00     0.001 A 
ATOM     23  C   UNL     1       2.743   2.572  -3.323  1.00  0.00     0.022 A 
ATOM     24  C   UNL     1       2.014   3.302  -4.262  1.00  0.00     0.001 A 
BRANCH  20  25
ATOM     25  C   UNL     1      -0.090   0.586  -1.743  1.00  0.00     0.161 C 
ATOM     26  C   UNL     1      -0.437   1.143  -0.390  1.00  0.00     0.093 C 
ATOM     27  O   UNL     1      -0.602  -0.429  -2.206  1.00  0.00    -0.294 OA
ENDBRANCH  20  25
ENDBRANCH  16  19
ENDBRANCH  11  16
ENDBRANCH   8  10
ENDBRANCH   7   8
ENDBRANCH   6   7
ENDBRANCH   5   6
ENDBRANCH   4   5
ENDBRANCH   3   4
ENDBRANCH   2   3
ENDBRANCH   1   2
BRANCH   1  28
ATOM     28  C   UNL     1      -0.648  -3.248   5.105  1.00  0.00     0.188 C 
BRANCH  28  29
ATOM     29  C   UNL     1      -2.069  -3.343   5.716  1.00  0.00     0.188 C 
BRANCH  29  30
ATOM     30  O   UNL     1      -3.031  -2.416   5.237  1.00  0.00    -0.376 OA
BRANCH  30  31
ATOM     31  C   UNL     1      -3.355  -1.327   6.093  1.00  0.00     0.202 C 
BRANCH  31  32
ATOM     32  C   UNL     1      -2.241  -0.292   6.328  1.00  0.00     0.261 C 
BRANCH  32  33
ATOM     33  O   UNL     1      -1.057  -0.813   6.947  1.00  0.00    -0.460 OA
BRANCH  33  34
ATOM     34  C   UNL     1      -1.206  -1.302   8.197  1.00  0.00     0.338 C 
ATOM     35  O   UNL     1      -2.222  -1.305   8.870  1.00  0.00    -0.246 OA
BRANCH  34  36
ATOM     36  C   UNL     1       0.024  -2.032   8.547  1.00  0.00     0.060 A 
ATOM     37  C   UNL     1      -0.078  -3.392   8.862  1.00  0.00     0.016 A 
ATOM     38  C   UNL     1       1.261  -1.383   8.565  1.00  0.00     0.016 A 
ATOM     39  C   UNL     1       1.058  -4.102   9.239  1.00  0.00     0.010 A 
ATOM     40  C   UNL     1       2.395  -2.091   8.967  1.00  0.00     0.010 A 
ATOM     41  C   UNL     1       2.288  -3.441   9.343  1.00  0.00    -0.014 A 
BRANCH  41  42
ATOM     42  C   UNL     1       3.401  -4.112  10.052  1.00  0.00     0.031 A 
ATOM     43  C   UNL     1       3.591  -3.817  11.514  1.00  0.00     0.074 A 
ATOM     44  C   UNL     1       4.201  -4.989   9.425  1.00  0.00     0.049 A 
ATOM     45  N   UNL     1       4.457  -4.317  12.355  1.00  0.00    -0.248 NA
ATOM     46  C   UNL     1       2.679  -2.824  12.105  1.00  0.00     0.031 C 
ATOM     47  C   UNL     1       4.105  -5.366   8.017  1.00  0.00     0.029 A 
ATOM     48  N   UNL     1       5.263  -5.715   9.900  1.00  0.00    -0.354 N 
ATOM     49  C   UNL     1       4.210  -3.686  13.568  1.00  0.00     0.074 A 
ATOM     50  C   UNL     1       3.128  -2.752  13.348  1.00  0.00     0.031 C 
ATOM     51  C   UNL     1       5.079  -6.249   7.738  1.00  0.00     0.029 A 
ATOM     52  C   UNL     1       5.878  -6.482   8.941  1.00  0.00     0.049 A 
ATOM     53  H   UNL     1       5.557  -5.689  10.840  1.00  0.00     0.167 HD
ATOM     54  C   UNL     1       4.818  -3.876  14.763  1.00  0.00     0.034 A 
ATOM     55  C   UNL     1       6.965  -7.272   9.026  1.00  0.00     0.034 A 
ATOM     56  C   UNL     1       5.896  -4.801  14.977  1.00  0.00     0.049 A 
ATOM     57  C   UNL     1       7.658  -7.432  10.355  1.00  0.00     0.074 A 
ATOM     58  C   UNL     1       6.554  -5.100  16.156  1.00  0.00     0.029 A 
ATOM     59  N   UNL     1       6.495  -5.560  13.982  1.00  0.00    -0.354 N 
ATOM     60  N   UNL     1       7.340  -6.923  11.522  1.00  0.00    -0.248 NA
ATOM     61  C   UNL     1       8.843  -8.302  10.384  1.00  0.00     0.031 C 
ATOM     62  C   UNL     1       7.579  -6.008  15.866  1.00  0.00     0.029 A 
ATOM     63  C   UNL     1       7.531  -6.309  14.514  1.00  0.00     0.049 A 
ATOM     64  H   UNL     1       6.224  -5.565  13.036  1.00  0.00     0.167 HD
ATOM     65  C   UNL     1       8.261  -7.439  12.429  1.00  0.00     0.074 A 
ATOM     66  C   UNL     1       9.137  -8.315  11.678  1.00  0.00     0.031 C 
ATOM     67  C   UNL     1       8.376  -7.204  13.761  1.00  0.00     0.034 A 
BRANCH  54  68
ATOM     68  C   UNL     1       4.319  -3.055  15.924  1.00  0.00     0.023 A 
ATOM     69  C   UNL     1       3.039  -3.304  16.464  1.00  0.00     0.012 A 
ATOM     70  C   UNL     1       5.115  -2.036  16.481  1.00  0.00     0.148 A 
ATOM     71  C   UNL     1       2.540  -2.519  17.503  1.00  0.00     0.002 A 
ATOM     72  C   UNL     1       4.631  -1.291  17.549  1.00  0.00     0.091 A 
ATOM     73  F   UNL     1       6.317  -1.794  15.939  1.00  0.00    -0.205 F 
ATOM     74  C   UNL     1       3.339  -1.519  18.050  1.00  0.00     0.022 A 
BRANCH  72  75
ATOM     75  S   UNL     1       5.617  -0.036  18.372  1.00  0.00     0.127 S 
ATOM     76  O   UNL     1       4.992   1.194  17.889  1.00  0.00    -0.237 OA
ATOM     77  O   UNL     1       5.372  -0.329  19.785  1.00  0.00    -0.237 OA
ATOM     78  O   UNL     1       6.989  -0.258  17.938  1.00  0.00    -0.744 OA
ENDBRANCH  72  75
ENDBRANCH  54  68
BRANCH  55  79
ATOM     79  C   UNL     1       7.435  -8.018   7.825  1.00  0.00     0.023 A 
ATOM     80  C   UNL     1       7.296  -9.418   7.780  1.00  0.00     0.012 A 
ATOM     81  C   UNL     1       7.987  -7.345   6.717  1.00  0.00     0.148 A 
ATOM     82  C   UNL     1       7.718 -10.139   6.662  1.00  0.00     0.002 A 
ATOM     83  C   UNL     1       8.356  -8.063   5.586  1.00  0.00     0.091 A 
ATOM     84  F   UNL     1       8.120  -6.013   6.787  1.00  0.00    -0.205 F 
ATOM     85  C   UNL     1       8.238  -9.461   5.563  1.00  0.00     0.022 A 
BRANCH  83  86
ATOM     86  S   UNL     1       8.919  -7.270   4.076  1.00  0.00     0.127 S 
ATOM     87  O   UNL     1      10.281  -7.785   3.958  1.00  0.00    -0.237 OA
ATOM     88  O   UNL     1       7.972  -7.799   3.094  1.00  0.00    -0.237 OA
ATOM     89  O   UNL     1       8.809  -5.838   4.314  1.00  0.00    -0.744 OA
ENDBRANCH  83  86
ENDBRANCH  55  79
BRANCH  67  90
ATOM     90  C   UNL     1       9.470  -7.928  14.507  1.00  0.00     0.023 A 
ATOM     91  C   UNL     1      10.819  -7.576  14.298  1.00  0.00     0.012 A 
ATOM     92  C   UNL     1       9.156  -8.917  15.461  1.00  0.00     0.148 A 
ATOM     93  C   UNL     1      11.838  -8.225  14.994  1.00  0.00     0.002 A 
ATOM     94  C   UNL     1      10.174  -9.521  16.190  1.00  0.00     0.091 A 
ATOM     95  F   UNL     1       7.870  -9.252  15.637  1.00  0.00    -0.205 F 
ATOM     96  C   UNL     1      11.516  -9.189  15.947  1.00  0.00     0.022 A 
BRANCH  94  97
ATOM     97  S   UNL     1       9.847 -10.700  17.507  1.00  0.00     0.127 S 
ATOM     98  O   UNL     1      10.277 -11.956  16.896  1.00  0.00    -0.237 OA
ATOM     99  O   UNL     1      10.717 -10.215  18.580  1.00  0.00    -0.237 OA
ATOM    100  O   UNL     1       8.422 -10.598  17.793  1.00  0.00    -0.744 OA
ENDBRANCH  94  97
ENDBRANCH  67  90
ENDBRANCH  41  42
ENDBRANCH  34  36
ENDBRANCH  33  34
ENDBRANCH  32  33
ENDBRANCH  31  32
ENDBRANCH  30  31
ENDBRANCH  29  30
ENDBRANCH  28  29
ENDBRANCH   1  28
TORSDOF 26
