REMARK SMILES Cc1cccc(-c2cccc(O)c2)c1C(=O)OCCOCCOCCOCCOC(=O)c1ccc(-c2c3nc(c(-c4cccc(S(=O)(=O)[O-])c4F)c4ccc([nH]4)c(-c4cccc(S(=O)(=O)[O-])c4F)c4nc(c(-c5cccc(S(=O)(=O)[O-])c5F)c5ccc2[nH]5)C=C4)C=C3)cc1
REMARK SMILES IDX 24 1 23 2 22 3 21 4 20 5 19 6 18 7 17 8 15 9 16 10 14 11
REMARK SMILES IDX 1 12 2 13 3 14 4 15 6 16 5 17 7 18 8 19 13 20 9 21 11 22
REMARK SMILES IDX 10 23 12 24 25 26 26 27 27 28 28 29 29 30 30 31 31 32 32 33
REMARK SMILES IDX 33 34 94 35 34 36 93 37 35 38 36 39 37 40 87 41 38 42 92 43
REMARK SMILES IDX 86 44 88 45 39 46 91 47 85 48 84 49 40 51 72 52 52 53 71 54
REMARK SMILES IDX 53 55 56 56 70 57 89 58 54 59 55 60 69 62 90 63 57 64 41 65
REMARK SMILES IDX 42 66 50 67 43 68 45 69 51 70 44 71 46 72 47 73 48 74 49 75
REMARK SMILES IDX 73 76 74 77 82 78 75 79 77 80 83 81 76 82 78 83 79 84 80 85
REMARK SMILES IDX 81 86 58 87 59 88 67 89 60 90 62 91 68 92 61 93 63 94 64 95
REMARK SMILES IDX 65 96 66 97
REMARK H PARENT 12 25 88 50 56 61
REMARK Flexibility Score: inf
ROOT
ATOM      1  C   UNL     1       1.293   3.564  -3.835  1.00  0.00     0.188 C 
ENDROOT
BRANCH   1   2
ATOM      2  O   UNL     1       1.016   2.176  -3.753  1.00  0.00    -0.377 OA
BRANCH   2   3
ATOM      3  C   UNL     1       0.416   1.801  -2.532  1.00  0.00     0.188 C 
BRANCH   3   4
ATOM      4  C   UNL     1      -0.844   2.598  -2.211  1.00  0.00     0.188 C 
BRANCH   4   5
ATOM      5  O   UNL     1      -0.719   3.956  -1.786  1.00  0.00    -0.376 OA
BRANCH   5   6
ATOM      6  C   UNL     1       0.149   4.193  -0.679  1.00  0.00     0.202 C 
BRANCH   6   7
ATOM      7  C   UNL     1      -0.302   3.611   0.644  1.00  0.00     0.261 C 
BRANCH   7   8
ATOM      8  O   UNL     1      -0.220   2.196   0.526  1.00  0.00    -0.460 OA
BRANCH   8   9
ATOM      9  C   UNL     1      -0.940   1.512   1.423  1.00  0.00     0.339 C 
ATOM     10  O   UNL     1      -1.269   1.803   2.552  1.00  0.00    -0.246 OA
BRANCH   9  11
ATOM     11  C   UNL     1      -1.495   0.379   0.679  1.00  0.00     0.070 A 
ATOM     12  C   UNL     1       0.845  -0.645   0.414  1.00  0.00     0.045 C 
ATOM     13  C   UNL     1      -0.658  -0.697   0.311  1.00  0.00    -0.036 A 
ATOM     14  C   UNL     1      -1.268  -1.836  -0.209  1.00  0.00     0.004 A 
ATOM     15  C   UNL     1      -2.645  -1.851  -0.443  1.00  0.00     0.001 A 
ATOM     16  C   UNL     1      -2.869   0.453   0.309  1.00  0.00    -0.003 A 
ATOM     17  C   UNL     1      -3.428  -0.704  -0.238  1.00  0.00     0.009 A 
BRANCH  16  18
ATOM     18  C   UNL     1      -3.598   1.760   0.283  1.00  0.00    -0.014 A 
ATOM     19  C   UNL     1      -3.712   2.466  -0.934  1.00  0.00     0.009 A 
ATOM     20  C   UNL     1      -3.974   2.445   1.445  1.00  0.00     0.055 A 
ATOM     21  C   UNL     1      -3.946   3.848  -0.965  1.00  0.00     0.004 A 
ATOM     22  C   UNL     1      -4.270   3.814   1.401  1.00  0.00     0.116 A 
ATOM     23  C   UNL     1      -4.205   4.533   0.214  1.00  0.00     0.046 A 
BRANCH  22  24
ATOM     24  O   UNL     1      -4.565   4.444   2.576  1.00  0.00    -0.508 OA
ATOM     25  H   UNL     1      -4.767   5.359   2.579  1.00  0.00     0.293 HD
ENDBRANCH  22  24
ENDBRANCH  16  18
ENDBRANCH   9  11
ENDBRANCH   8   9
ENDBRANCH   7   8
ENDBRANCH   6   7
ENDBRANCH   5   6
ENDBRANCH   4   5
ENDBRANCH   3   4
ENDBRANCH   2   3
ENDBRANCH   1   2
BRANCH   1  26
ATOM     26  C   UNL     1       0.295   4.324  -4.731  1.00  0.00     0.188 C 
BRANCH  26  27
ATOM     27  O   UNL     1      -0.434   3.547  -5.654  1.00  0.00    -0.376 OA
BRANCH  27  28
ATOM     28  C   UNL     1       0.365   2.631  -6.391  1.00  0.00     0.202 C 
BRANCH  28  29
ATOM     29  C   UNL     1       1.927   2.855  -6.590  1.00  0.00     0.261 C 
BRANCH  29  30
ATOM     30  O   UNL     1       2.373   4.303  -6.694  1.00  0.00    -0.460 OA
BRANCH  30  31
ATOM     31  C   UNL     1       3.497   5.027  -6.291  1.00  0.00     0.338 C 
ATOM     32  O   UNL     1       4.322   5.415  -7.125  1.00  0.00    -0.246 OA
BRANCH  31  33
ATOM     33  C   UNL     1       3.568   5.711  -4.926  1.00  0.00     0.060 A 
ATOM     34  C   UNL     1       4.781   5.856  -4.249  1.00  0.00     0.016 A 
ATOM     35  C   UNL     1       2.500   6.314  -4.282  1.00  0.00     0.016 A 
ATOM     36  C   UNL     1       4.827   6.075  -2.850  1.00  0.00     0.010 A 
ATOM     37  C   UNL     1       2.497   6.408  -2.882  1.00  0.00     0.010 A 
ATOM     38  C   UNL     1       3.646   6.121  -2.136  1.00  0.00    -0.014 A 
BRANCH  38  39
ATOM     39  C   UNL     1       3.485   5.671  -0.725  1.00  0.00     0.031 A 
ATOM     40  C   UNL     1       2.605   6.473   0.222  1.00  0.00     0.074 A 
ATOM     41  C   UNL     1       3.725   4.349  -0.462  1.00  0.00     0.049 A 
ATOM     42  N   UNL     1       2.164   6.071   1.371  1.00  0.00    -0.248 NA
ATOM     43  C   UNL     1       2.109   7.815  -0.087  1.00  0.00     0.031 C 
ATOM     44  C   UNL     1       2.981   3.576   0.527  1.00  0.00     0.029 A 
ATOM     45  N   UNL     1       4.558   3.360  -1.019  1.00  0.00    -0.354 N 
ATOM     46  C   UNL     1       1.141   6.903   1.791  1.00  0.00     0.074 A 
ATOM     47  C   UNL     1       1.196   8.014   0.875  1.00  0.00     0.031 C 
ATOM     48  C   UNL     1       3.292   2.280   0.474  1.00  0.00     0.029 A 
ATOM     49  C   UNL     1       4.576   2.234  -0.164  1.00  0.00     0.049 A 
ATOM     50  H   UNL     1       5.050   3.440  -1.868  1.00  0.00     0.167 HD
ATOM     51  C   UNL     1       0.304   6.513   2.803  1.00  0.00     0.034 A 
ATOM     52  C   UNL     1       5.635   1.760   0.567  1.00  0.00     0.034 A 
ATOM     53  C   UNL     1       0.797   5.298   3.502  1.00  0.00     0.049 A 
ATOM     54  C   UNL     1       5.495   1.989   2.085  1.00  0.00     0.074 A 
ATOM     55  C   UNL     1       0.223   4.104   3.907  1.00  0.00     0.029 A 
ATOM     56  N   UNL     1       2.154   5.171   3.818  1.00  0.00    -0.354 N 
ATOM     57  N   UNL     1       4.516   2.685   2.616  1.00  0.00    -0.248 NA
ATOM     58  C   UNL     1       6.373   1.466   3.129  1.00  0.00     0.031 C 
ATOM     59  C   UNL     1       1.270   3.196   4.249  1.00  0.00     0.029 A 
ATOM     60  C   UNL     1       2.474   3.881   4.210  1.00  0.00     0.049 A 
ATOM     61  H   UNL     1       2.804   5.909   3.768  1.00  0.00     0.167 HD
ATOM     62  C   UNL     1       4.636   2.784   3.967  1.00  0.00     0.074 A 
ATOM     63  C   UNL     1       5.814   1.979   4.246  1.00  0.00     0.031 C 
ATOM     64  C   UNL     1       3.801   3.560   4.730  1.00  0.00     0.034 A 
BRANCH  51  65
ATOM     65  C   UNL     1      -1.072   7.133   3.144  1.00  0.00     0.023 A 
ATOM     66  C   UNL     1      -1.698   6.708   4.344  1.00  0.00     0.012 A 
ATOM     67  C   UNL     1      -1.849   8.016   2.345  1.00  0.00     0.148 A 
ATOM     68  C   UNL     1      -2.995   7.094   4.720  1.00  0.00     0.002 A 
ATOM     69  C   UNL     1      -3.118   8.467   2.762  1.00  0.00     0.091 A 
ATOM     70  F   UNL     1      -1.414   8.373   1.133  1.00  0.00    -0.205 F 
ATOM     71  C   UNL     1      -3.701   7.989   3.938  1.00  0.00     0.022 A 
BRANCH  69  72
ATOM     72  S   UNL     1      -4.102   9.673   1.846  1.00  0.00     0.127 S 
ATOM     73  O   UNL     1      -5.273   8.878   1.474  1.00  0.00    -0.237 OA
ATOM     74  O   UNL     1      -4.358  10.702   2.853  1.00  0.00    -0.237 OA
ATOM     75  O   UNL     1      -3.273  10.109   0.729  1.00  0.00    -0.744 OA
ENDBRANCH  69  72
ENDBRANCH  51  65
BRANCH  52  76
ATOM     76  C   UNL     1       6.808   1.366  -0.259  1.00  0.00     0.023 A 
ATOM     77  C   UNL     1       6.589   0.221  -1.071  1.00  0.00     0.012 A 
ATOM     78  C   UNL     1       7.621   2.393  -0.743  1.00  0.00     0.148 A 
ATOM     79  C   UNL     1       6.939   0.226  -2.423  1.00  0.00     0.002 A 
ATOM     80  C   UNL     1       7.865   2.440  -2.110  1.00  0.00     0.091 A 
ATOM     81  F   UNL     1       7.924   3.407   0.079  1.00  0.00    -0.205 F 
ATOM     82  C   UNL     1       7.517   1.367  -2.955  1.00  0.00     0.022 A 
BRANCH  80  83
ATOM     83  S   UNL     1       7.968   4.032  -2.934  1.00  0.00     0.127 S 
ATOM     84  O   UNL     1       9.207   3.943  -3.694  1.00  0.00    -0.237 OA
ATOM     85  O   UNL     1       6.746   3.945  -3.727  1.00  0.00    -0.237 OA
ATOM     86  O   UNL     1       7.935   5.029  -1.874  1.00  0.00    -0.744 OA
ENDBRANCH  80  83
ENDBRANCH  52  76
BRANCH  64  87
ATOM     87  C   UNL     1       4.173   4.143   6.082  1.00  0.00     0.023 A 
ATOM     88  C   UNL     1       5.521   4.296   6.453  1.00  0.00     0.012 A 
ATOM     89  C   UNL     1       3.204   4.788   6.901  1.00  0.00     0.148 A 
ATOM     90  C   UNL     1       5.893   5.018   7.590  1.00  0.00     0.002 A 
ATOM     91  C   UNL     1       3.587   5.597   7.964  1.00  0.00     0.091 A 
ATOM     92  F   UNL     1       1.896   4.621   6.660  1.00  0.00    -0.205 F 
ATOM     93  C   UNL     1       4.931   5.692   8.328  1.00  0.00     0.022 A 
BRANCH  91  94
ATOM     94  S   UNL     1       2.411   6.684   8.788  1.00  0.00     0.127 S 
ATOM     95  O   UNL     1       2.067   5.908   9.977  1.00  0.00    -0.237 OA
ATOM     96  O   UNL     1       3.222   7.875   9.052  1.00  0.00    -0.237 OA
ATOM     97  O   UNL     1       1.338   6.898   7.827  1.00  0.00    -0.744 OA
ENDBRANCH  91  94
ENDBRANCH  64  87
ENDBRANCH  38  39
ENDBRANCH  31  33
ENDBRANCH  30  31
ENDBRANCH  29  30
ENDBRANCH  28  29
ENDBRANCH  27  28
ENDBRANCH  26  27
ENDBRANCH   1  26
TORSDOF 25
