REMARK SMILES C[C@@H](CCCO)Nc1ccc(C(=O)OCCOCCOCCOCCOC(=O)c2ccc(-c3c4nc(c(-c5cccc(S(=O)(=O)[O-])c5F)c5ccc([nH]5)c(-c5cccc(S(=O)(=O)[O-])c5F)c5nc(c(-c6cccc(S(=O)(=O)[O-])c6F)c6ccc3[nH]6)C=C5)C=C4)cc2)o1
REMARK SMILES IDX 18 1 17 2 16 3 15 4 14 5 12 6 13 7 11 8 8 9 9 10 92 11 10 12
REMARK SMILES IDX 7 13 2 15 1 16 3 17 4 18 5 19 6 20 19 22 20 23 21 24 22 25
REMARK SMILES IDX 23 26 24 27 25 28 26 29 27 30 28 31 29 32 30 33 91 34 31 35
REMARK SMILES IDX 90 36 32 37 33 38 34 39 84 40 35 41 89 42 83 43 85 44 36 45
REMARK SMILES IDX 88 46 82 47 81 48 37 50 69 51 49 52 68 53 50 54 53 55 67 56
REMARK SMILES IDX 86 57 51 58 52 59 66 61 87 62 54 63 38 64 39 65 47 66 40 67
REMARK SMILES IDX 42 68 48 69 41 70 43 71 44 72 45 73 46 74 70 75 71 76 79 77
REMARK SMILES IDX 72 78 74 79 80 80 73 81 75 82 76 83 77 84 78 85 55 86 56 87
REMARK SMILES IDX 64 88 57 89 59 90 65 91 58 92 60 93 61 94 62 95 63 96
REMARK H PARENT 7 14 6 21 85 49 53 60
REMARK Flexibility Score: inf
ROOT
ATOM      1  C   UNL     1      -5.752  -0.551   3.179  1.00  0.00     0.188 C 
ENDROOT
BRANCH   1   2
ATOM      2  O   UNL     1      -6.169  -1.773   3.785  1.00  0.00    -0.376 OA
BRANCH   2   3
ATOM      3  C   UNL     1      -6.172  -1.953   5.191  1.00  0.00     0.202 C 
BRANCH   3   4
ATOM      4  C   UNL     1      -4.831  -2.001   5.939  1.00  0.00     0.261 C 
BRANCH   4   5
ATOM      5  O   UNL     1      -3.856  -1.050   5.505  1.00  0.00    -0.457 OA
BRANCH   5   6
ATOM      6  C   UNL     1      -2.995  -1.491   4.548  1.00  0.00     0.374 C 
ATOM      7  O   UNL     1      -2.944  -2.640   4.121  1.00  0.00    -0.242 OA
BRANCH   6   8
ATOM      8  C   UNL     1      -2.239  -0.375   4.037  1.00  0.00     0.214 A 
ATOM      9  C   UNL     1      -1.261   0.755   2.428  1.00  0.00     0.194 A 
ATOM     10  C   UNL     1      -1.143   1.530   3.556  1.00  0.00     0.070 A 
ATOM     11  O   UNL     1      -1.923  -0.390   2.705  1.00  0.00    -0.434 OA
ATOM     12  C   UNL     1      -1.802   0.817   4.591  1.00  0.00     0.060 A 
BRANCH   9  13
ATOM     13  N   UNL     1      -0.854   0.873   1.152  1.00  0.00    -0.354 N 
ATOM     14  H   UNL     1      -1.505   0.830   0.414  1.00  0.00     0.163 HD
BRANCH  13  15
ATOM     15  C   UNL     1       0.566   1.066   0.875  1.00  0.00     0.079 C 
ATOM     16  C   UNL     1       1.040  -0.047  -0.062  1.00  0.00     0.031 C 
BRANCH  15  17
ATOM     17  C   UNL     1       0.848   2.474   0.335  1.00  0.00     0.027 C 
BRANCH  17  18
ATOM     18  C   UNL     1       0.357   2.800  -1.081  1.00  0.00     0.030 C 
BRANCH  18  19
ATOM     19  C   UNL     1      -1.153   2.790  -1.283  1.00  0.00     0.156 C 
BRANCH  19  20
ATOM     20  O   UNL     1      -1.809   3.556  -0.286  1.00  0.00    -0.396 OA
ATOM     21  H   UNL     1      -1.621   3.177   0.588  1.00  0.00     0.210 HD
ENDBRANCH  19  20
ENDBRANCH  18  19
ENDBRANCH  17  18
ENDBRANCH  15  17
ENDBRANCH  13  15
ENDBRANCH   9  13
ENDBRANCH   6   8
ENDBRANCH   5   6
ENDBRANCH   4   5
ENDBRANCH   3   4
ENDBRANCH   2   3
ENDBRANCH   1   2
BRANCH   1  22
ATOM     22  C   UNL     1      -5.639   0.788   3.938  1.00  0.00     0.188 C 
BRANCH  22  23
ATOM     23  O   UNL     1      -6.167   0.775   5.251  1.00  0.00    -0.377 OA
BRANCH  23  24
ATOM     24  C   UNL     1      -7.408   1.451   5.414  1.00  0.00     0.188 C 
BRANCH  24  25
ATOM     25  C   UNL     1      -8.544   0.938   4.517  1.00  0.00     0.188 C 
BRANCH  25  26
ATOM     26  O   UNL     1      -8.346   1.276   3.141  1.00  0.00    -0.376 OA
BRANCH  26  27
ATOM     27  C   UNL     1      -9.154   2.345   2.649  1.00  0.00     0.202 C 
BRANCH  27  28
ATOM     28  C   UNL     1      -8.607   3.740   2.985  1.00  0.00     0.261 C 
BRANCH  28  29
ATOM     29  O   UNL     1      -8.626   4.073   4.383  1.00  0.00    -0.460 OA
BRANCH  29  30
ATOM     30  C   UNL     1      -9.830   4.079   4.995  1.00  0.00     0.338 C 
ATOM     31  O   UNL     1     -10.917   3.906   4.473  1.00  0.00    -0.246 OA
BRANCH  30  32
ATOM     32  C   UNL     1      -9.610   4.145   6.454  1.00  0.00     0.060 A 
ATOM     33  C   UNL     1     -10.263   3.211   7.266  1.00  0.00     0.016 A 
ATOM     34  C   UNL     1      -8.793   5.130   7.017  1.00  0.00     0.016 A 
ATOM     35  C   UNL     1     -10.148   3.297   8.653  1.00  0.00     0.010 A 
ATOM     36  C   UNL     1      -8.687   5.221   8.407  1.00  0.00     0.010 A 
ATOM     37  C   UNL     1      -9.398   4.331   9.230  1.00  0.00    -0.014 A 
BRANCH  37  38
ATOM     38  C   UNL     1      -9.514   4.597  10.683  1.00  0.00     0.031 A 
ATOM     39  C   UNL     1     -10.520   5.616  11.146  1.00  0.00     0.074 A 
ATOM     40  C   UNL     1      -8.743   3.951  11.574  1.00  0.00     0.049 A 
ATOM     41  N   UNL     1     -10.824   5.986  12.362  1.00  0.00    -0.248 NA
ATOM     42  C   UNL     1     -11.285   6.311  10.096  1.00  0.00     0.031 C 
ATOM     43  C   UNL     1      -7.719   2.960  11.248  1.00  0.00     0.029 A 
ATOM     44  N   UNL     1      -8.692   4.053  12.942  1.00  0.00    -0.354 N 
ATOM     45  C   UNL     1     -11.805   6.961  12.226  1.00  0.00     0.074 A 
ATOM     46  C   UNL     1     -12.030   7.143  10.809  1.00  0.00     0.031 C 
ATOM     47  C   UNL     1      -7.124   2.560  12.386  1.00  0.00     0.029 A 
ATOM     48  C   UNL     1      -7.721   3.269  13.517  1.00  0.00     0.049 A 
ATOM     49  H   UNL     1      -9.294   4.633  13.462  1.00  0.00     0.167 HD
ATOM     50  C   UNL     1     -12.479   7.627  13.191  1.00  0.00     0.034 A 
ATOM     51  C   UNL     1      -7.359   3.142  14.810  1.00  0.00     0.034 A 
ATOM     52  C   UNL     1     -12.264   7.442  14.600  1.00  0.00     0.049 A 
ATOM     53  C   UNL     1      -8.118   3.904  15.867  1.00  0.00     0.074 A 
ATOM     54  C   UNL     1     -12.921   8.043  15.658  1.00  0.00     0.029 A 
ATOM     55  N   UNL     1     -11.311   6.597  15.147  1.00  0.00    -0.354 N 
ATOM     56  N   UNL     1      -9.144   4.709  15.729  1.00  0.00    -0.248 NA
ATOM     57  C   UNL     1      -7.694   3.708  17.262  1.00  0.00     0.031 C 
ATOM     58  C   UNL     1     -12.357   7.568  16.847  1.00  0.00     0.029 A 
ATOM     59  C   UNL     1     -11.358   6.663  16.528  1.00  0.00     0.049 A 
ATOM     60  H   UNL     1     -10.692   6.033  14.629  1.00  0.00     0.167 HD
ATOM     61  C   UNL     1      -9.512   5.083  17.018  1.00  0.00     0.074 A 
ATOM     62  C   UNL     1      -8.611   4.402  17.924  1.00  0.00     0.031 C 
ATOM     63  C   UNL     1     -10.496   5.928  17.417  1.00  0.00     0.034 A 
BRANCH  50  64
ATOM     64  C   UNL     1     -13.551   8.585  12.750  1.00  0.00     0.023 A 
ATOM     65  C   UNL     1     -14.778   8.073  12.281  1.00  0.00     0.012 A 
ATOM     66  C   UNL     1     -13.366   9.978  12.831  1.00  0.00     0.148 A 
ATOM     67  C   UNL     1     -15.797   8.933  11.875  1.00  0.00     0.002 A 
ATOM     68  C   UNL     1     -14.400  10.829  12.458  1.00  0.00     0.091 A 
ATOM     69  F   UNL     1     -12.181  10.443  13.250  1.00  0.00    -0.205 F 
ATOM     70  C   UNL     1     -15.611  10.310  11.973  1.00  0.00     0.022 A 
BRANCH  68  71
ATOM     71  S   UNL     1     -14.277  12.615  12.607  1.00  0.00     0.127 S 
ATOM     72  O   UNL     1     -14.093  13.015  11.213  1.00  0.00    -0.237 OA
ATOM     73  O   UNL     1     -15.578  12.970  13.176  1.00  0.00    -0.237 OA
ATOM     74  O   UNL     1     -13.145  12.864  13.488  1.00  0.00    -0.744 OA
ENDBRANCH  68  71
ENDBRANCH  50  64
BRANCH  51  75
ATOM     75  C   UNL     1      -6.265   2.204  15.189  1.00  0.00     0.023 A 
ATOM     76  C   UNL     1      -6.579   1.023  15.890  1.00  0.00     0.012 A 
ATOM     77  C   UNL     1      -4.923   2.466  14.854  1.00  0.00     0.148 A 
ATOM     78  C   UNL     1      -5.574   0.136  16.276  1.00  0.00     0.002 A 
ATOM     79  C   UNL     1      -3.932   1.553  15.198  1.00  0.00     0.091 A 
ATOM     80  F   UNL     1      -4.639   3.605  14.207  1.00  0.00    -0.205 F 
ATOM     81  C   UNL     1      -4.253   0.395  15.922  1.00  0.00     0.022 A 
BRANCH  79  82
ATOM     82  S   UNL     1      -2.225   1.750  14.674  1.00  0.00     0.127 S 
ATOM     83  O   UNL     1      -1.580   2.185  15.910  1.00  0.00    -0.237 OA
ATOM     84  O   UNL     1      -1.878   0.396  14.241  1.00  0.00    -0.237 OA
ATOM     85  O   UNL     1      -2.261   2.729  13.595  1.00  0.00    -0.744 OA
ENDBRANCH  79  82
ENDBRANCH  51  75
BRANCH  63  86
ATOM     86  C   UNL     1     -10.677   6.144  18.896  1.00  0.00     0.023 A 
ATOM     87  C   UNL     1      -9.752   6.938  19.602  1.00  0.00     0.012 A 
ATOM     88  C   UNL     1     -11.803   5.630  19.570  1.00  0.00     0.148 A 
ATOM     89  C   UNL     1      -9.928   7.192  20.962  1.00  0.00     0.002 A 
ATOM     90  C   UNL     1     -11.995   5.924  20.915  1.00  0.00     0.091 A 
ATOM     91  F   UNL     1     -12.662   4.859  18.888  1.00  0.00    -0.205 F 
ATOM     92  C   UNL     1     -11.054   6.697  21.615  1.00  0.00     0.022 A 
BRANCH  90  93
ATOM     93  S   UNL     1     -13.468   5.400  21.800  1.00  0.00     0.127 S 
ATOM     94  O   UNL     1     -12.988   4.213  22.505  1.00  0.00    -0.237 OA
ATOM     95  O   UNL     1     -13.747   6.550  22.663  1.00  0.00    -0.237 OA
ATOM     96  O   UNL     1     -14.477   5.163  20.776  1.00  0.00    -0.744 OA
ENDBRANCH  90  93
ENDBRANCH  63  86
ENDBRANCH  37  38
ENDBRANCH  30  32
ENDBRANCH  29  30
ENDBRANCH  28  29
ENDBRANCH  27  28
ENDBRANCH  26  27
ENDBRANCH  25  26
ENDBRANCH  24  25
ENDBRANCH  23  24
ENDBRANCH  22  23
ENDBRANCH   1  22
TORSDOF 29
