REMARK SMILES C=CC[N@H+](CC(=O)OCCOCCOCCOCCOC(=O)c1ccc(-c2c3nc(c(-c4cccc(S(=O)(=O)[O-])c4F)c4ccc([nH]4)c(-c4cccc(S(=O)(=O)[O-])c4F)c4nc(c(-c5cccc(S(=O)(=O)[O-])c5F)c5ccc2[nH]5)C=C4)C=C3)cc1)[C@@H]1CCC[C@H](C(C)(C)C)CC1
REMARK SMILES IDX 12 1 11 2 10 3 9 4 8 5 6 6 7 7 5 8 4 9 3 11 2 12 1 13 86 14
REMARK SMILES IDX 87 15 88 16 89 17 90 18 91 20 92 21 93 22 94 23 96 24 95 25
REMARK SMILES IDX 13 27 14 28 15 29 16 30 17 31 18 32 19 33 20 34 21 35 22 36
REMARK SMILES IDX 23 37 24 38 85 39 25 40 84 41 26 42 27 43 28 44 78 45 29 46
REMARK SMILES IDX 83 47 77 48 79 49 30 50 82 51 76 52 75 53 31 55 63 56 43 57
REMARK SMILES IDX 62 58 44 59 47 60 61 61 80 62 45 63 46 64 60 66 81 67 48 68
REMARK SMILES IDX 32 69 33 70 41 71 34 72 36 73 42 74 35 75 37 76 38 77 39 78
REMARK SMILES IDX 40 79 64 80 65 81 73 82 66 83 68 84 74 85 67 86 69 87 70 88
REMARK SMILES IDX 71 89 72 90 49 91 50 92 58 93 51 94 53 95 59 96 52 97 54 98
REMARK SMILES IDX 55 99 56 100 57 101
REMARK H PARENT 4 10 79 54 47 65
REMARK Flexibility Score: 80.00
ROOT
ATOM      1  C   UNL     1      -3.855   1.825  -0.385  1.00  0.00     0.188 C 
ENDROOT
BRANCH   1   2
ATOM      2  O   UNL     1      -4.775   2.122   0.649  1.00  0.00    -0.376 OA
BRANCH   2   3
ATOM      3  C   UNL     1      -4.646   1.298   1.801  1.00  0.00     0.202 C 
BRANCH   3   4
ATOM      4  C   UNL     1      -4.945  -0.201   1.575  1.00  0.00     0.261 C 
BRANCH   4   5
ATOM      5  O   UNL     1      -4.018  -0.806   0.639  1.00  0.00    -0.459 OA
BRANCH   5   6
ATOM      6  C   UNL     1      -4.498  -1.510  -0.414  1.00  0.00     0.361 C 
ATOM      7  O   UNL     1      -5.651  -1.928  -0.482  1.00  0.00    -0.245 OA
BRANCH   6   8
ATOM      8  C   UNL     1      -3.499  -1.714  -1.582  1.00  0.00     0.387 C 
BRANCH   8   9
ATOM      9  N   UNL     1      -2.215  -0.932  -1.536  1.00  0.00    -0.320 N 
ATOM     10  H   UNL     1      -2.295  -0.004  -1.121  1.00  0.00     0.349 HD
BRANCH   9  11
ATOM     11  C   UNL     1      -1.300  -1.642  -0.590  1.00  0.00     0.291 C 
BRANCH  11  12
ATOM     12  C   UNL     1       0.200  -1.562  -0.630  1.00  0.00     0.025 C 
ATOM     13  C   UNL     1       0.950  -0.851   0.229  1.00  0.00     0.010 C 
ENDBRANCH  11  12
ENDBRANCH   9  11
BRANCH   9  14
ATOM     14  C   UNL     1      -1.771  -0.370  -2.862  1.00  0.00     0.184 C 
BRANCH  14  15
ATOM     15  C   UNL     1      -0.353   0.245  -2.934  1.00  0.00     0.065 C 
BRANCH  15  16
ATOM     16  C   UNL     1      -0.215   1.595  -3.643  1.00  0.00     0.006 C 
BRANCH  16  17
ATOM     17  C   UNL     1      -0.825   2.751  -2.823  1.00  0.00     0.004 C 
BRANCH  17  18
ATOM     18  C   UNL     1      -2.229   3.306  -3.161  1.00  0.00    -0.005 CG0
ATOM     19  G   UNL     1      -3.132   2.102  -3.613  1.00  0.00     0.000 G0
BRANCH  18  20
ATOM     20  C   UNL     1      -3.056   4.744  -2.487  1.00  0.00    -0.035 C 
ATOM     21  C   UNL     1      -2.385   6.068  -2.968  1.00  0.00     0.011 C 
ATOM     22  C   UNL     1      -4.484   4.755  -3.086  1.00  0.00     0.011 C 
ATOM     23  C   UNL     1      -3.353   5.138  -0.974  1.00  0.00     0.011 C 
ENDBRANCH  18  20
ENDBRANCH  17  18
ENDBRANCH  16  17
ENDBRANCH  15  16
ENDBRANCH  14  15
BRANCH  14  24
ATOM     24  C   UNL     1      -2.783   0.552  -3.692  1.00  0.00     0.065 C 
BRANCH  24  25
ATOM     25  C   UNL     1      -3.132   2.102  -3.613  1.00  0.00     0.010 CG0
ATOM     26  G   UNL     1      -2.229   3.306  -3.161  1.00  0.00     0.000 G0
ENDBRANCH  24  25
ENDBRANCH  14  24
ENDBRANCH   9  14
ENDBRANCH   8   9
ENDBRANCH   6   8
ENDBRANCH   5   6
ENDBRANCH   4   5
ENDBRANCH   3   4
ENDBRANCH   2   3
ENDBRANCH   1   2
BRANCH   1  27
ATOM     27  C   UNL     1      -2.389   1.464  -0.018  1.00  0.00     0.188 C 
BRANCH  27  28
ATOM     28  O   UNL     1      -1.489   2.234   0.784  1.00  0.00    -0.377 OA
BRANCH  28  29
ATOM     29  C   UNL     1      -1.272   3.537   0.306  1.00  0.00     0.188 C 
BRANCH  29  30
ATOM     30  C   UNL     1       0.116   3.979  -0.214  1.00  0.00     0.188 C 
BRANCH  30  31
ATOM     31  O   UNL     1      -0.078   5.032  -1.173  1.00  0.00    -0.376 OA
BRANCH  31  32
ATOM     32  C   UNL     1       0.814   5.440  -2.223  1.00  0.00     0.202 C 
BRANCH  32  33
ATOM     33  C   UNL     1       2.172   4.773  -2.479  1.00  0.00     0.261 C 
BRANCH  33  34
ATOM     34  O   UNL     1       2.916   4.589  -1.288  1.00  0.00    -0.460 OA
BRANCH  34  35
ATOM     35  C   UNL     1       3.014   5.707  -0.538  1.00  0.00     0.338 C 
ATOM     36  O   UNL     1       2.941   6.868  -0.921  1.00  0.00    -0.246 OA
BRANCH  35  37
ATOM     37  C   UNL     1       2.855   5.262   0.846  1.00  0.00     0.060 A 
ATOM     38  C   UNL     1       1.941   5.967   1.647  1.00  0.00     0.016 A 
ATOM     39  C   UNL     1       3.451   4.070   1.285  1.00  0.00     0.016 A 
ATOM     40  C   UNL     1       1.662   5.504   2.922  1.00  0.00     0.010 A 
ATOM     41  C   UNL     1       3.228   3.647   2.586  1.00  0.00     0.010 A 
ATOM     42  C   UNL     1       2.395   4.416   3.416  1.00  0.00    -0.014 A 
BRANCH  42  43
ATOM     43  C   UNL     1       2.689   4.446   4.855  1.00  0.00     0.031 A 
ATOM     44  C   UNL     1       3.827   5.345   5.261  1.00  0.00     0.074 A 
ATOM     45  C   UNL     1       1.962   3.759   5.745  1.00  0.00     0.049 A 
ATOM     46  N   UNL     1       4.316   5.582   6.444  1.00  0.00    -0.248 NA
ATOM     47  C   UNL     1       4.502   6.091   4.178  1.00  0.00     0.031 C 
ATOM     48  C   UNL     1       0.820   2.901   5.439  1.00  0.00     0.029 A 
ATOM     49  N   UNL     1       2.106   3.673   7.102  1.00  0.00    -0.354 N 
ATOM     50  C   UNL     1       5.358   6.479   6.238  1.00  0.00     0.074 A 
ATOM     51  C   UNL     1       5.439   6.752   4.828  1.00  0.00     0.031 C 
ATOM     52  C   UNL     1       0.387   2.340   6.582  1.00  0.00     0.029 A 
ATOM     53  C   UNL     1       1.243   2.780   7.683  1.00  0.00     0.049 A 
ATOM     54  H   UNL     1       2.764   4.200   7.611  1.00  0.00     0.167 HD
ATOM     55  C   UNL     1       6.183   7.030   7.149  1.00  0.00     0.034 A 
ATOM     56  C   UNL     1       1.193   2.353   8.959  1.00  0.00     0.034 A 
ATOM     57  C   UNL     1       6.105   6.735   8.546  1.00  0.00     0.049 A 
ATOM     58  C   UNL     1       2.166   2.939   9.952  1.00  0.00     0.074 A 
ATOM     59  C   UNL     1       6.880   7.233   9.572  1.00  0.00     0.029 A 
ATOM     60  N   UNL     1       5.210   5.835   9.103  1.00  0.00    -0.354 N 
ATOM     61  N   UNL     1       3.091   3.852   9.768  1.00  0.00    -0.248 NA
ATOM     62  C   UNL     1       2.068   2.458  11.337  1.00  0.00     0.031 C 
ATOM     63  C   UNL     1       6.480   6.600  10.751  1.00  0.00     0.029 A 
ATOM     64  C   UNL     1       5.422   5.748  10.463  1.00  0.00     0.049 A 
ATOM     65  H   UNL     1       4.526   5.333   8.603  1.00  0.00     0.167 HD
ATOM     66  C   UNL     1       3.659   4.082  11.016  1.00  0.00     0.074 A 
ATOM     67  C   UNL     1       2.960   3.223  11.951  1.00  0.00     0.031 C 
ATOM     68  C   UNL     1       4.671   4.916  11.366  1.00  0.00     0.034 A 
BRANCH  55  69
ATOM     69  C   UNL     1       7.243   7.966   6.646  1.00  0.00     0.023 A 
ATOM     70  C   UNL     1       6.894   9.246   6.169  1.00  0.00     0.012 A 
ATOM     71  C   UNL     1       8.593   7.571   6.652  1.00  0.00     0.148 A 
ATOM     72  C   UNL     1       7.873  10.111   5.683  1.00  0.00     0.002 A 
ATOM     73  C   UNL     1       9.568   8.457   6.215  1.00  0.00     0.091 A 
ATOM     74  F   UNL     1       8.894   6.331   7.064  1.00  0.00    -0.205 F 
ATOM     75  C   UNL     1       9.210   9.722   5.720  1.00  0.00     0.022 A 
BRANCH  73  76
ATOM     76  S   UNL     1      11.320   8.077   6.295  1.00  0.00     0.127 S 
ATOM     77  O   UNL     1      11.673   8.010   4.878  1.00  0.00    -0.237 OA
ATOM     78  O   UNL     1      11.850   9.243   7.002  1.00  0.00    -0.237 OA
ATOM     79  O   UNL     1      11.429   6.820   7.022  1.00  0.00    -0.744 OA
ENDBRANCH  73  76
ENDBRANCH  55  69
BRANCH  56  80
ATOM     80  C   UNL     1       0.201   1.320   9.364  1.00  0.00     0.023 A 
ATOM     81  C   UNL     1      -0.839   1.654  10.253  1.00  0.00     0.012 A 
ATOM     82  C   UNL     1       0.284   0.005   8.866  1.00  0.00     0.148 A 
ATOM     83  C   UNL     1      -1.755   0.686  10.669  1.00  0.00     0.002 A 
ATOM     84  C   UNL     1      -0.665  -0.939   9.239  1.00  0.00     0.091 A 
ATOM     85  F   UNL     1       1.290  -0.297   8.033  1.00  0.00    -0.205 F 
ATOM     86  C   UNL     1      -1.674  -0.606  10.156  1.00  0.00     0.022 A 
BRANCH  84  87
ATOM     87  S   UNL     1      -0.712  -2.589   8.533  1.00  0.00     0.127 S 
ATOM     88  O   UNL     1      -0.354  -3.416   9.683  1.00  0.00    -0.237 OA
ATOM     89  O   UNL     1      -2.108  -2.694   8.107  1.00  0.00    -0.237 OA
ATOM     90  O   UNL     1       0.251  -2.580   7.440  1.00  0.00    -0.744 OA
ENDBRANCH  84  87
ENDBRANCH  56  80
BRANCH  68  91
ATOM     91  C   UNL     1       5.050   4.984  12.820  1.00  0.00     0.023 A 
ATOM     92  C   UNL     1       5.731   3.910  13.424  1.00  0.00     0.012 A 
ATOM     93  C   UNL     1       4.811   6.161  13.557  1.00  0.00     0.148 A 
ATOM     94  C   UNL     1       6.135   3.993  14.755  1.00  0.00     0.002 A 
ATOM     95  C   UNL     1       5.268   6.258  14.864  1.00  0.00     0.091 A 
ATOM     96  F   UNL     1       4.153   7.167  12.962  1.00  0.00    -0.205 F 
ATOM     97  C   UNL     1       5.916   5.169  15.470  1.00  0.00     0.022 A 
BRANCH  95  98
ATOM     98  S   UNL     1       5.128   7.770  15.821  1.00  0.00     0.127 S 
ATOM     99  O   UNL     1       4.116   7.402  16.810  1.00  0.00    -0.237 OA
ATOM    100  O   UNL     1       6.480   7.922  16.358  1.00  0.00    -0.237 OA
ATOM    101  O   UNL     1       4.731   8.809  14.880  1.00  0.00    -0.744 OA
ENDBRANCH  95  98
ENDBRANCH  68  91
ENDBRANCH  42  43
ENDBRANCH  35  37
ENDBRANCH  34  35
ENDBRANCH  33  34
ENDBRANCH  32  33
ENDBRANCH  31  32
ENDBRANCH  30  31
ENDBRANCH  29  30
ENDBRANCH  28  29
ENDBRANCH  27  28
ENDBRANCH   1  27
TORSDOF 28
