REMARK SMILES CC(C)(C(=O)OCCOCCOCCOCCOC(=O)c1ccc(-c2c3nc(c(-c4cccc(S(=O)(=O)[O-])c4F)c4ccc([nH]4)c(-c4cccc(S(=O)(=O)[O-])c4F)c4nc(c(-c5cccc(S(=O)(=O)[O-])c5F)c5ccc2[nH]5)C=C4)C=C3)cc1)n1cccc1
REMARK SMILES IDX 13 1 12 2 11 3 10 4 9 5 8 6 7 7 6 8 4 9 5 10 2 11 1 12 3 13
REMARK SMILES IDX 84 14 85 15 88 16 86 17 87 18 14 19 15 20 16 21 17 22 18 23
REMARK SMILES IDX 19 24 20 25 21 26 22 27 83 28 23 29 82 30 24 31 25 32 26 33
REMARK SMILES IDX 76 34 27 35 81 36 75 37 77 38 28 39 80 40 74 41 73 42 29 44
REMARK SMILES IDX 61 45 41 46 60 47 42 48 45 49 59 50 78 51 43 52 44 53 58 55
REMARK SMILES IDX 79 56 46 57 30 58 31 59 39 60 32 61 34 62 40 63 33 64 35 65
REMARK SMILES IDX 36 66 37 67 38 68 62 69 63 70 71 71 64 72 66 73 72 74 65 75
REMARK SMILES IDX 67 76 68 77 69 78 70 79 47 80 48 81 56 82 49 83 51 84 57 85
REMARK SMILES IDX 50 86 52 87 53 88 54 89 55 90
REMARK H PARENT 77 43 45 54
REMARK Flexibility Score: inf
ROOT
ATOM      1  C   UNL     1      -3.128  -0.236  -1.942  1.00  0.00     0.188 C 
ENDROOT
BRANCH   1   2
ATOM      2  O   UNL     1      -2.128  -0.032  -0.958  1.00  0.00    -0.377 OA
BRANCH   2   3
ATOM      3  C   UNL     1      -1.461  -1.174  -0.464  1.00  0.00     0.188 C 
BRANCH   3   4
ATOM      4  C   UNL     1      -2.108  -1.775   0.790  1.00  0.00     0.188 C 
BRANCH   4   5
ATOM      5  O   UNL     1      -3.410  -1.327   1.101  1.00  0.00    -0.376 OA
BRANCH   5   6
ATOM      6  C   UNL     1      -3.658   0.016   1.489  1.00  0.00     0.202 C 
BRANCH   6   7
ATOM      7  C   UNL     1      -2.619   1.149   1.676  1.00  0.00     0.261 C 
BRANCH   7   8
ATOM      8  O   UNL     1      -1.235   0.905   1.403  1.00  0.00    -0.461 OA
BRANCH   8   9
ATOM      9  C   UNL     1      -0.459   0.497   2.432  1.00  0.00     0.331 C 
ATOM     10  O   UNL     1      -0.902   0.264   3.554  1.00  0.00    -0.249 OA
BRANCH   9  11
ATOM     11  C   UNL     1       1.042   0.391   2.055  1.00  0.00     0.136 C 
ATOM     12  C   UNL     1       1.419   0.643   0.570  1.00  0.00     0.047 C 
ATOM     13  C   UNL     1       1.694   1.561   2.829  1.00  0.00     0.047 C 
BRANCH  11  14
ATOM     14  N   UNL     1       1.521  -0.941   2.499  1.00  0.00    -0.338 N 
ATOM     15  C   UNL     1       2.119  -1.230   3.704  1.00  0.00     0.087 A 
ATOM     16  C   UNL     1       1.307  -2.137   1.843  1.00  0.00     0.087 A 
ATOM     17  C   UNL     1       2.210  -2.598   3.839  1.00  0.00     0.019 A 
ATOM     18  C   UNL     1       1.686  -3.174   2.665  1.00  0.00     0.019 A 
ENDBRANCH  11  14
ENDBRANCH   9  11
ENDBRANCH   8   9
ENDBRANCH   7   8
ENDBRANCH   6   7
ENDBRANCH   5   6
ENDBRANCH   4   5
ENDBRANCH   3   4
ENDBRANCH   2   3
ENDBRANCH   1   2
BRANCH   1  19
ATOM     19  C   UNL     1      -3.933  -1.551  -1.940  1.00  0.00     0.188 C 
BRANCH  19  20
ATOM     20  O   UNL     1      -3.148  -2.737  -1.842  1.00  0.00    -0.376 OA
BRANCH  20  21
ATOM     21  C   UNL     1      -2.835  -3.435  -3.040  1.00  0.00     0.202 C 
BRANCH  21  22
ATOM     22  C   UNL     1      -1.821  -2.761  -3.978  1.00  0.00     0.261 C 
BRANCH  22  23
ATOM     23  O   UNL     1      -2.242  -1.519  -4.561  1.00  0.00    -0.460 OA
BRANCH  23  24
ATOM     24  C   UNL     1      -3.394  -1.507  -5.265  1.00  0.00     0.338 C 
ATOM     25  O   UNL     1      -4.094  -2.463  -5.549  1.00  0.00    -0.246 OA
BRANCH  24  26
ATOM     26  C   UNL     1      -3.783  -0.094  -5.447  1.00  0.00     0.060 A 
ATOM     27  C   UNL     1      -4.989   0.351  -4.888  1.00  0.00     0.016 A 
ATOM     28  C   UNL     1      -2.941   0.795  -6.117  1.00  0.00     0.016 A 
ATOM     29  C   UNL     1      -5.358   1.690  -5.003  1.00  0.00     0.010 A 
ATOM     30  C   UNL     1      -3.328   2.130  -6.257  1.00  0.00     0.010 A 
ATOM     31  C   UNL     1      -4.545   2.579  -5.716  1.00  0.00    -0.014 A 
BRANCH  31  32
ATOM     32  C   UNL     1      -5.036   3.941  -6.029  1.00  0.00     0.031 A 
ATOM     33  C   UNL     1      -5.676   4.181  -7.367  1.00  0.00     0.074 A 
ATOM     34  C   UNL     1      -4.896   4.950  -5.151  1.00  0.00     0.049 A 
ATOM     35  N   UNL     1      -6.117   5.297  -7.884  1.00  0.00    -0.248 NA
ATOM     36  C   UNL     1      -5.840   3.006  -8.240  1.00  0.00     0.031 C 
ATOM     37  C   UNL     1      -4.302   4.838  -3.819  1.00  0.00     0.029 A 
ATOM     38  N   UNL     1      -5.215   6.281  -5.266  1.00  0.00    -0.354 N 
ATOM     39  C   UNL     1      -6.580   4.967  -9.152  1.00  0.00     0.074 A 
ATOM     40  C   UNL     1      -6.372   3.547  -9.326  1.00  0.00     0.031 C 
ATOM     41  C   UNL     1      -4.260   6.059  -3.257  1.00  0.00     0.029 A 
ATOM     42  C   UNL     1      -4.794   7.041  -4.200  1.00  0.00     0.049 A 
ATOM     43  H   UNL     1      -5.698   6.655  -6.038  1.00  0.00     0.167 HD
ATOM     44  C   UNL     1      -7.133   5.776 -10.085  1.00  0.00     0.034 A 
ATOM     45  C   UNL     1      -4.802   8.378  -4.025  1.00  0.00     0.034 A 
ATOM     46  C   UNL     1      -7.351   7.185  -9.905  1.00  0.00     0.049 A 
ATOM     47  C   UNL     1      -5.387   9.259  -5.103  1.00  0.00     0.074 A 
ATOM     48  C   UNL     1      -7.960   8.075 -10.772  1.00  0.00     0.029 A 
ATOM     49  N   UNL     1      -6.945   7.915  -8.800  1.00  0.00    -0.354 N 
ATOM     50  N   UNL     1      -5.947   8.917  -6.239  1.00  0.00    -0.248 NA
ATOM     51  C   UNL     1      -5.364  10.710  -4.863  1.00  0.00     0.031 C 
ATOM     52  C   UNL     1      -7.883   9.352 -10.209  1.00  0.00     0.029 A 
ATOM     53  C   UNL     1      -7.264   9.250  -8.974  1.00  0.00     0.049 A 
ATOM     54  H   UNL     1      -6.497   7.539  -8.008  1.00  0.00     0.167 HD
ATOM     55  C   UNL     1      -6.367  10.104  -6.831  1.00  0.00     0.074 A 
ATOM     56  C   UNL     1      -6.026  11.171  -5.915  1.00  0.00     0.031 C 
ATOM     57  C   UNL     1      -6.964  10.297  -8.033  1.00  0.00     0.034 A 
BRANCH  44  58
ATOM     58  C   UNL     1      -7.553   5.162 -11.392  1.00  0.00     0.023 A 
ATOM     59  C   UNL     1      -8.712   4.363 -11.452  1.00  0.00     0.012 A 
ATOM     60  C   UNL     1      -6.848   5.455 -12.575  1.00  0.00     0.148 A 
ATOM     61  C   UNL     1      -9.155   3.852 -12.671  1.00  0.00     0.002 A 
ATOM     62  C   UNL     1      -7.320   4.979 -13.791  1.00  0.00     0.091 A 
ATOM     63  F   UNL     1      -5.735   6.197 -12.488  1.00  0.00    -0.205 F 
ATOM     64  C   UNL     1      -8.468   4.170 -13.840  1.00  0.00     0.022 A 
BRANCH  62  65
ATOM     65  S   UNL     1      -6.554   5.398 -15.360  1.00  0.00     0.127 S 
ATOM     66  O   UNL     1      -6.064   4.094 -15.806  1.00  0.00    -0.237 OA
ATOM     67  O   UNL     1      -7.689   5.916 -16.124  1.00  0.00    -0.237 OA
ATOM     68  O   UNL     1      -5.521   6.378 -15.058  1.00  0.00    -0.744 OA
ENDBRANCH  62  65
ENDBRANCH  44  58
BRANCH  45  69
ATOM     69  C   UNL     1      -4.229   8.984  -2.788  1.00  0.00     0.023 A 
ATOM     70  C   UNL     1      -5.070   9.666  -1.887  1.00  0.00     0.012 A 
ATOM     71  C   UNL     1      -2.849   8.912  -2.515  1.00  0.00     0.148 A 
ATOM     72  C   UNL     1      -4.541  10.304  -0.763  1.00  0.00     0.002 A 
ATOM     73  C   UNL     1      -2.338   9.496  -1.363  1.00  0.00     0.091 A 
ATOM     74  F   UNL     1      -2.059   8.280  -3.395  1.00  0.00    -0.205 F 
ATOM     75  C   UNL     1      -3.178  10.212  -0.496  1.00  0.00     0.022 A 
BRANCH  73  76
ATOM     76  S   UNL     1      -0.619   9.315  -0.876  1.00  0.00     0.127 S 
ATOM     77  O   UNL     1      -0.096  10.657  -1.115  1.00  0.00    -0.237 OA
ATOM     78  O   UNL     1      -0.742   8.942   0.534  1.00  0.00    -0.237 OA
ATOM     79  O   UNL     1      -0.079   8.262  -1.727  1.00  0.00    -0.744 OA
ENDBRANCH  73  76
ENDBRANCH  45  69
BRANCH  57  80
ATOM     80  C   UNL     1      -7.320  11.709  -8.424  1.00  0.00     0.023 A 
ATOM     81  C   UNL     1      -6.301  12.620  -8.769  1.00  0.00     0.012 A 
ATOM     82  C   UNL     1      -8.667  12.111  -8.524  1.00  0.00     0.148 A 
ATOM     83  C   UNL     1      -6.615  13.917  -9.172  1.00  0.00     0.002 A 
ATOM     84  C   UNL     1      -8.975  13.388  -8.977  1.00  0.00     0.091 A 
ATOM     85  F   UNL     1      -9.622  11.234  -8.181  1.00  0.00    -0.205 F 
ATOM     86  C   UNL     1      -7.950  14.297  -9.287  1.00  0.00     0.022 A 
BRANCH  84  87
ATOM     87  S   UNL     1     -10.664  13.936  -9.251  1.00  0.00     0.127 S 
ATOM     88  O   UNL     1     -10.831  14.927  -8.189  1.00  0.00    -0.237 OA
ATOM     89  O   UNL     1     -10.592  14.495 -10.601  1.00  0.00    -0.237 OA
ATOM     90  O   UNL     1     -11.498  12.748  -9.130  1.00  0.00    -0.744 OA
ENDBRANCH  84  87
ENDBRANCH  57  80
ENDBRANCH  31  32
ENDBRANCH  24  26
ENDBRANCH  23  24
ENDBRANCH  22  23
ENDBRANCH  21  22
ENDBRANCH  20  21
ENDBRANCH  19  20
ENDBRANCH   1  19
TORSDOF 24
