REMARK SMILES CC[C@@H](C(=O)OCCOCCOCCOCCOC(=O)c1ccc(-c2c3nc(c(-c4cccc(S(=O)(=O)[O-])c4F)c4ccc([nH]4)c(-c4cccc(S(=O)(=O)[O-])c4F)c4nc(c(-c5cccc(S(=O)(=O)[O-])c5F)c5ccc2[nH]5)C=C4)C=C3)cc1)N1C(=O)/C(=C/C(C)=C/c2ccccc2)SC1=S
REMARK SMILES IDX 12 1 11 2 10 3 9 4 8 5 7 6 6 7 4 8 5 9 3 10 2 11 1 12 84 13
REMARK SMILES IDX 85 14 99 15 86 16 87 17 98 18 100 19 88 20 89 21 90 22 91 23
REMARK SMILES IDX 92 24 93 25 97 26 94 27 96 28 95 29 13 30 14 31 15 32 16 33
REMARK SMILES IDX 17 34 18 35 19 36 20 37 21 38 22 39 83 40 23 41 82 42 24 43
REMARK SMILES IDX 25 44 26 45 76 46 27 47 81 48 75 49 77 50 28 51 80 52 74 53
REMARK SMILES IDX 73 54 29 56 61 57 41 58 60 59 42 60 45 61 59 62 78 63 43 64
REMARK SMILES IDX 44 65 58 67 79 68 46 69 30 70 31 71 39 72 32 73 34 74 40 75
REMARK SMILES IDX 33 76 35 77 36 78 37 79 38 80 62 81 63 82 71 83 64 84 66 85
REMARK SMILES IDX 72 86 65 87 67 88 68 89 69 90 70 91 47 92 48 93 56 94 49 95
REMARK SMILES IDX 51 96 57 97 50 98 52 99 53 100 54 101 55 102
REMARK H PARENT 77 55 45 66
REMARK Flexibility Score: inf
ROOT
ATOM      1  O   UNL     1      -1.070  -0.191   2.119  1.00  0.00    -0.377 OA
ENDROOT
BRANCH   1   2
ATOM      2  C   UNL     1      -1.493  -1.429   1.599  1.00  0.00     0.188 C 
BRANCH   2   3
ATOM      3  C   UNL     1      -1.500  -2.608   2.576  1.00  0.00     0.188 C 
BRANCH   3   4
ATOM      4  O   UNL     1      -1.426  -2.350   3.960  1.00  0.00    -0.376 OA
BRANCH   4   5
ATOM      5  C   UNL     1      -0.341  -1.651   4.545  1.00  0.00     0.202 C 
BRANCH   5   6
ATOM      6  C   UNL     1       1.047  -1.390   3.917  1.00  0.00     0.261 C 
BRANCH   6   7
ATOM      7  O   UNL     1       1.197  -1.413   2.492  1.00  0.00    -0.462 OA
BRANCH   7   8
ATOM      8  C   UNL     1       1.639  -2.568   1.956  1.00  0.00     0.329 C 
ATOM      9  O   UNL     1       1.819  -3.575   2.636  1.00  0.00    -0.250 OA
BRANCH   8  10
ATOM     10  C   UNL     1       1.833  -2.542   0.407  1.00  0.00     0.201 C 
BRANCH  10  11
ATOM     11  C   UNL     1       1.577  -1.236  -0.377  1.00  0.00     0.034 C 
ATOM     12  C   UNL     1       2.187   0.057   0.147  1.00  0.00     0.007 C 
ENDBRANCH  10  11
BRANCH  10  13
ATOM     13  N   UNL     1       1.107  -3.771  -0.096  1.00  0.00    -0.278 N 
ATOM     14  C   UNL     1       1.696  -4.999   0.209  1.00  0.00     0.266 C 
ATOM     15  C   UNL     1      -0.089  -3.889  -0.777  1.00  0.00     0.149 C 
ATOM     16  O   UNL     1       2.857  -5.169   0.559  1.00  0.00    -0.268 OA
ATOM     17  C   UNL     1       0.754  -6.129  -0.053  1.00  0.00     0.080 C 
ATOM     18  S   UNL     1      -0.758  -5.499  -0.528  1.00  0.00    -0.054 SA
ATOM     19  S   UNL     1      -0.886  -2.859  -1.820  1.00  0.00    -0.052 S 
ATOM     20  C   UNL     1       1.163  -7.404   0.018  1.00  0.00     0.024 C 
BRANCH  20  21
ATOM     21  C   UNL     1       0.494  -8.658  -0.353  1.00  0.00    -0.049 C 
ATOM     22  C   UNL     1       1.071  -9.888   0.309  1.00  0.00     0.044 C 
ATOM     23  C   UNL     1      -0.409  -8.728  -1.354  1.00  0.00     0.011 C 
BRANCH  23  24
ATOM     24  C   UNL     1      -1.060  -9.902  -1.960  1.00  0.00    -0.025 A 
ATOM     25  C   UNL     1      -1.237  -9.890  -3.352  1.00  0.00     0.008 A 
ATOM     26  C   UNL     1      -1.585 -10.971  -1.228  1.00  0.00     0.008 A 
ATOM     27  C   UNL     1      -1.891 -10.937  -4.003  1.00  0.00     0.001 A 
ATOM     28  C   UNL     1      -2.231 -12.027  -1.881  1.00  0.00     0.001 A 
ATOM     29  C   UNL     1      -2.382 -12.011  -3.267  1.00  0.00     0.000 A 
ENDBRANCH  23  24
ENDBRANCH  20  21
ENDBRANCH  10  13
ENDBRANCH   8  10
ENDBRANCH   7   8
ENDBRANCH   6   7
ENDBRANCH   5   6
ENDBRANCH   4   5
ENDBRANCH   3   4
ENDBRANCH   2   3
ENDBRANCH   1   2
BRANCH   1  30
ATOM     30  C   UNL     1      -2.012   0.624   2.795  1.00  0.00     0.188 C 
BRANCH  30  31
ATOM     31  C   UNL     1      -3.348   0.033   3.286  1.00  0.00     0.188 C 
BRANCH  31  32
ATOM     32  O   UNL     1      -3.937  -0.933   2.426  1.00  0.00    -0.376 OA
BRANCH  32  33
ATOM     33  C   UNL     1      -4.954  -0.517   1.526  1.00  0.00     0.202 C 
BRANCH  33  34
ATOM     34  C   UNL     1      -4.557   0.446   0.394  1.00  0.00     0.261 C 
BRANCH  34  35
ATOM     35  O   UNL     1      -3.993   1.700   0.799  1.00  0.00    -0.460 OA
BRANCH  35  36
ATOM     36  C   UNL     1      -4.747   2.493   1.587  1.00  0.00     0.338 C 
ATOM     37  O   UNL     1      -5.890   2.279   1.965  1.00  0.00    -0.246 OA
BRANCH  36  38
ATOM     38  C   UNL     1      -3.892   3.584   2.091  1.00  0.00     0.060 A 
ATOM     39  C   UNL     1      -3.724   3.721   3.475  1.00  0.00     0.016 A 
ATOM     40  C   UNL     1      -3.271   4.469   1.208  1.00  0.00     0.016 A 
ATOM     41  C   UNL     1      -2.986   4.787   3.984  1.00  0.00     0.010 A 
ATOM     42  C   UNL     1      -2.549   5.550   1.719  1.00  0.00     0.010 A 
ATOM     43  C   UNL     1      -2.452   5.741   3.110  1.00  0.00    -0.014 A 
BRANCH  43  44
ATOM     44  C   UNL     1      -2.033   7.055   3.653  1.00  0.00     0.031 A 
ATOM     45  C   UNL     1      -3.018   8.193   3.578  1.00  0.00     0.074 A 
ATOM     46  C   UNL     1      -0.832   7.233   4.229  1.00  0.00     0.049 A 
ATOM     47  N   UNL     1      -2.888   9.432   3.971  1.00  0.00    -0.248 NA
ATOM     48  C   UNL     1      -4.327   7.888   2.973  1.00  0.00     0.031 C 
ATOM     49  C   UNL     1       0.197   6.207   4.381  1.00  0.00     0.029 A 
ATOM     50  N   UNL     1      -0.271   8.359   4.778  1.00  0.00    -0.354 N 
ATOM     51  C   UNL     1      -4.082  10.060   3.635  1.00  0.00     0.074 A 
ATOM     52  C   UNL     1      -4.917   9.073   2.991  1.00  0.00     0.031 C 
ATOM     53  C   UNL     1       1.277   6.757   4.963  1.00  0.00     0.029 A 
ATOM     54  C   UNL     1       1.025   8.178   5.199  1.00  0.00     0.049 A 
ATOM     55  H   UNL     1      -0.751   9.214   4.863  1.00  0.00     0.167 HD
ATOM     56  C   UNL     1      -4.457  11.342   3.854  1.00  0.00     0.034 A 
ATOM     57  C   UNL     1       1.909   9.066   5.695  1.00  0.00     0.034 A 
ATOM     58  C   UNL     1      -3.629  12.320   4.503  1.00  0.00     0.049 A 
ATOM     59  C   UNL     1       1.479  10.498   5.899  1.00  0.00     0.074 A 
ATOM     60  C   UNL     1      -3.927  13.637   4.803  1.00  0.00     0.029 A 
ATOM     61  N   UNL     1      -2.334  12.093   4.940  1.00  0.00    -0.354 N 
ATOM     62  N   UNL     1       0.315  11.055   5.665  1.00  0.00    -0.248 NA
ATOM     63  C   UNL     1       2.475  11.415   6.471  1.00  0.00     0.031 C 
ATOM     64  C   UNL     1      -2.797  14.218   5.386  1.00  0.00     0.029 A 
ATOM     65  C   UNL     1      -1.813  13.248   5.497  1.00  0.00     0.049 A 
ATOM     66  H   UNL     1      -1.854  11.236   4.866  1.00  0.00     0.167 HD
ATOM     67  C   UNL     1       0.424  12.371   6.104  1.00  0.00     0.074 A 
ATOM     68  C   UNL     1       1.764  12.522   6.633  1.00  0.00     0.031 C 
ATOM     69  C   UNL     1      -0.495  13.368   6.066  1.00  0.00     0.034 A 
BRANCH  56  70
ATOM     70  C   UNL     1      -5.828  11.756   3.386  1.00  0.00     0.023 A 
ATOM     71  C   UNL     1      -6.975  11.270   4.045  1.00  0.00     0.012 A 
ATOM     72  C   UNL     1      -5.977  12.658   2.314  1.00  0.00     0.148 A 
ATOM     73  C   UNL     1      -8.250  11.645   3.622  1.00  0.00     0.002 A 
ATOM     74  C   UNL     1      -7.248  13.067   1.931  1.00  0.00     0.091 A 
ATOM     75  F   UNL     1      -4.875  13.089   1.684  1.00  0.00    -0.205 F 
ATOM     76  C   UNL     1      -8.386  12.551   2.574  1.00  0.00     0.022 A 
BRANCH  74  77
ATOM     77  S   UNL     1      -7.525  14.292   0.648  1.00  0.00     0.127 S 
ATOM     78  O   UNL     1      -8.149  13.486  -0.400  1.00  0.00    -0.237 OA
ATOM     79  O   UNL     1      -8.428  15.232   1.314  1.00  0.00    -0.237 OA
ATOM     80  O   UNL     1      -6.215  14.835   0.319  1.00  0.00    -0.744 OA
ENDBRANCH  74  77
ENDBRANCH  56  70
BRANCH  57  81
ATOM     81  C   UNL     1       3.288   8.631   6.059  1.00  0.00     0.023 A 
ATOM     82  C   UNL     1       3.689   8.633   7.410  1.00  0.00     0.012 A 
ATOM     83  C   UNL     1       4.206   8.225   5.072  1.00  0.00     0.148 A 
ATOM     84  C   UNL     1       4.991   8.277   7.766  1.00  0.00     0.002 A 
ATOM     85  C   UNL     1       5.483   7.816   5.439  1.00  0.00     0.091 A 
ATOM     86  F   UNL     1       3.811   8.244   3.791  1.00  0.00    -0.205 F 
ATOM     87  C   UNL     1       5.884   7.861   6.782  1.00  0.00     0.022 A 
BRANCH  85  88
ATOM     88  S   UNL     1       6.659   7.148   4.257  1.00  0.00     0.127 S 
ATOM     89  O   UNL     1       7.693   8.179   4.249  1.00  0.00    -0.237 OA
ATOM     90  O   UNL     1       7.045   5.891   4.900  1.00  0.00    -0.237 OA
ATOM     91  O   UNL     1       5.920   6.986   3.013  1.00  0.00    -0.744 OA
ENDBRANCH  85  88
ENDBRANCH  57  81
BRANCH  69  92
ATOM     92  C   UNL     1      -0.114  14.696   6.671  1.00  0.00     0.023 A 
ATOM     93  C   UNL     1       0.846  15.515   6.045  1.00  0.00     0.012 A 
ATOM     94  C   UNL     1      -0.757  15.156   7.838  1.00  0.00     0.148 A 
ATOM     95  C   UNL     1       1.196  16.747   6.598  1.00  0.00     0.002 A 
ATOM     96  C   UNL     1      -0.446  16.409   8.351  1.00  0.00     0.091 A 
ATOM     97  F   UNL     1      -1.659  14.358   8.430  1.00  0.00    -0.205 F 
ATOM     98  C   UNL     1       0.543  17.199   7.743  1.00  0.00     0.022 A 
BRANCH  96  99
ATOM     99  S   UNL     1      -1.309  17.114   9.760  1.00  0.00     0.127 S 
ATOM    100  O   UNL     1      -0.293  17.024  10.807  1.00  0.00    -0.237 OA
ATOM    101  O   UNL     1      -1.594  18.474   9.301  1.00  0.00    -0.237 OA
ATOM    102  O   UNL     1      -2.490  16.285   9.962  1.00  0.00    -0.744 OA
ENDBRANCH  96  99
ENDBRANCH  69  92
ENDBRANCH  43  44
ENDBRANCH  36  38
ENDBRANCH  35  36
ENDBRANCH  34  35
ENDBRANCH  33  34
ENDBRANCH  32  33
ENDBRANCH  31  32
ENDBRANCH  30  31
ENDBRANCH   1  30
TORSDOF 27
