REMARK SMILES O=C(CNc1nc(-c2ccccc2)c(-c2ccccc2)s1)OCCOCCOCCOCCOC(=O)c1ccc(-c2c3nc(c(-c4cccc(S(=O)(=O)[O-])c4F)c4ccc([nH]4)c(-c4cccc(S(=O)(=O)[O-])c4F)c4nc(c(-c5cccc(S(=O)(=O)[O-])c5F)c5ccc2[nH]5)C=C4)C=C3)cc1
REMARK SMILES IDX 28 1 27 2 26 3 25 4 24 5 23 6 22 7 2 8 1 9 3 10 4 11 5 13
REMARK SMILES IDX 6 14 21 15 7 16 14 17 8 18 9 19 13 20 10 21 12 22 11 23
REMARK SMILES IDX 15 24 16 25 20 26 17 27 19 28 18 29 29 30 30 31 31 32 32 33
REMARK SMILES IDX 33 34 34 35 35 36 36 37 37 38 38 39 99 40 39 41 98 42 40 43
REMARK SMILES IDX 41 44 42 45 92 46 43 47 97 48 91 49 93 50 44 51 96 52 90 53
REMARK SMILES IDX 89 54 45 56 77 57 57 58 76 59 58 60 61 61 75 62 94 63 59 64
REMARK SMILES IDX 60 65 74 67 95 68 62 69 46 70 47 71 55 72 48 73 50 74 56 75
REMARK SMILES IDX 49 76 51 77 52 78 53 79 54 80 78 81 79 82 87 83 80 84 82 85
REMARK SMILES IDX 88 86 81 87 83 88 84 89 85 90 86 91 63 92 64 93 72 94 65 95
REMARK SMILES IDX 67 96 73 97 66 98 68 99 69 100 70 101 71 102
REMARK H PARENT 4 12 93 55 61 66
REMARK Flexibility Score: inf
ROOT
ATOM      1  O   UNL     1       2.553  -1.945   3.018  1.00  0.00    -0.377 OA
ENDROOT
BRANCH   1   2
ATOM      2  C   UNL     1       1.887  -1.279   1.960  1.00  0.00     0.188 C 
BRANCH   2   3
ATOM      3  C   UNL     1       2.458  -1.460   0.553  1.00  0.00     0.188 C 
BRANCH   3   4
ATOM      4  O   UNL     1       3.837  -1.287   0.297  1.00  0.00    -0.376 OA
BRANCH   4   5
ATOM      5  C   UNL     1       4.577  -0.088   0.368  1.00  0.00     0.202 C 
BRANCH   5   6
ATOM      6  C   UNL     1       3.954   1.290   0.210  1.00  0.00     0.261 C 
BRANCH   6   7
ATOM      7  O   UNL     1       2.638   1.391  -0.347  1.00  0.00    -0.462 OA
BRANCH   7   8
ATOM      8  C   UNL     1       2.224   1.019  -1.577  1.00  0.00     0.325 C 
ATOM      9  O   UNL     1       1.072   1.286  -1.921  1.00  0.00    -0.250 OA
BRANCH   8  10
ATOM     10  C   UNL     1       3.147   0.222  -2.493  1.00  0.00     0.238 C 
BRANCH  10  11
ATOM     11  N   UNL     1       4.293   0.997  -2.918  1.00  0.00    -0.351 N 
ATOM     12  H   UNL     1       4.156   1.905  -3.272  1.00  0.00     0.163 HD
BRANCH  11  13
ATOM     13  C   UNL     1       5.542   0.502  -2.840  1.00  0.00     0.184 A 
ATOM     14  N   UNL     1       5.889  -0.765  -2.780  1.00  0.00    -0.220 NA
ATOM     15  S   UNL     1       6.830   1.623  -2.691  1.00  0.00    -0.096 S 
ATOM     16  C   UNL     1       7.249  -0.876  -2.495  1.00  0.00     0.091 A 
ATOM     17  C   UNL     1       7.910   0.337  -2.365  1.00  0.00     0.064 A 
BRANCH  16  18
ATOM     18  C   UNL     1       7.945  -2.161  -2.449  1.00  0.00     0.002 A 
ATOM     19  C   UNL     1       8.835  -2.480  -1.411  1.00  0.00     0.010 A 
ATOM     20  C   UNL     1       7.838  -3.035  -3.538  1.00  0.00     0.010 A 
ATOM     21  C   UNL     1       9.666  -3.601  -1.505  1.00  0.00     0.001 A 
ATOM     22  C   UNL     1       8.669  -4.156  -3.631  1.00  0.00     0.001 A 
ATOM     23  C   UNL     1       9.597  -4.426  -2.626  1.00  0.00     0.000 A 
ENDBRANCH  16  18
BRANCH  17  24
ATOM     24  C   UNL     1       9.309   0.663  -2.136  1.00  0.00    -0.006 A 
ATOM     25  C   UNL     1       9.716   1.287  -0.950  1.00  0.00     0.009 A 
ATOM     26  C   UNL     1      10.251   0.382  -3.131  1.00  0.00     0.009 A 
ATOM     27  C   UNL     1      11.051   1.653  -0.778  1.00  0.00     0.001 A 
ATOM     28  C   UNL     1      11.582   0.751  -2.958  1.00  0.00     0.001 A 
ATOM     29  C   UNL     1      11.979   1.394  -1.786  1.00  0.00     0.000 A 
ENDBRANCH  17  24
ENDBRANCH  11  13
ENDBRANCH  10  11
ENDBRANCH   8  10
ENDBRANCH   7   8
ENDBRANCH   6   7
ENDBRANCH   5   6
ENDBRANCH   4   5
ENDBRANCH   3   4
ENDBRANCH   2   3
ENDBRANCH   1   2
BRANCH   1  30
ATOM     30  C   UNL     1       3.902  -1.561   3.194  1.00  0.00     0.188 C 
BRANCH  30  31
ATOM     31  C   UNL     1       4.918  -2.604   2.683  1.00  0.00     0.188 C 
BRANCH  31  32
ATOM     32  O   UNL     1       4.502  -3.703   1.893  1.00  0.00    -0.376 OA
BRANCH  32  33
ATOM     33  C   UNL     1       3.384  -4.498   2.246  1.00  0.00     0.202 C 
BRANCH  33  34
ATOM     34  C   UNL     1       2.962  -4.843   3.690  1.00  0.00     0.261 C 
BRANCH  34  35
ATOM     35  O   UNL     1       3.353  -3.950   4.734  1.00  0.00    -0.460 OA
BRANCH  35  36
ATOM     36  C   UNL     1       4.504  -4.257   5.366  1.00  0.00     0.338 C 
ATOM     37  O   UNL     1       5.213  -5.234   5.171  1.00  0.00    -0.246 OA
BRANCH  36  38
ATOM     38  C   UNL     1       4.912  -3.096   6.183  1.00  0.00     0.060 A 
ATOM     39  C   UNL     1       6.198  -2.576   5.977  1.00  0.00     0.016 A 
ATOM     40  C   UNL     1       4.051  -2.513   7.118  1.00  0.00     0.016 A 
ATOM     41  C   UNL     1       6.655  -1.517   6.749  1.00  0.00     0.010 A 
ATOM     42  C   UNL     1       4.525  -1.472   7.922  1.00  0.00     0.010 A 
ATOM     43  C   UNL     1       5.849  -1.018   7.778  1.00  0.00    -0.014 A 
BRANCH  43  44
ATOM     44  C   UNL     1       6.517  -0.275   8.870  1.00  0.00     0.031 A 
ATOM     45  C   UNL     1       6.952  -1.063  10.078  1.00  0.00     0.074 A 
ATOM     46  C   UNL     1       6.808   1.032   8.762  1.00  0.00     0.049 A 
ATOM     47  N   UNL     1       7.608  -0.667  11.134  1.00  0.00    -0.248 NA
ATOM     48  C   UNL     1       6.601  -2.495  10.091  1.00  0.00     0.031 C 
ATOM     49  C   UNL     1       6.469   1.887   7.627  1.00  0.00     0.029 A 
ATOM     50  N   UNL     1       7.458   1.867   9.634  1.00  0.00    -0.354 N 
ATOM     51  C   UNL     1       7.717  -1.787  11.951  1.00  0.00     0.074 A 
ATOM     52  C   UNL     1       7.050  -2.876  11.276  1.00  0.00     0.031 C 
ATOM     53  C   UNL     1       6.900   3.135   7.880  1.00  0.00     0.029 A 
ATOM     54  C   UNL     1       7.525   3.169   9.202  1.00  0.00     0.049 A 
ATOM     55  H   UNL     1       7.839   1.562  10.489  1.00  0.00     0.167 HD
ATOM     56  C   UNL     1       8.327  -1.904  13.152  1.00  0.00     0.034 A 
ATOM     57  C   UNL     1       8.024   4.261   9.815  1.00  0.00     0.034 A 
ATOM     58  C   UNL     1       9.002  -0.823  13.813  1.00  0.00     0.049 A 
ATOM     59  C   UNL     1       8.672   4.109  11.169  1.00  0.00     0.074 A 
ATOM     60  C   UNL     1       9.689  -0.844  15.013  1.00  0.00     0.029 A 
ATOM     61  N   UNL     1       9.057   0.479  13.340  1.00  0.00    -0.354 N 
ATOM     62  N   UNL     1       8.858   3.024  11.882  1.00  0.00    -0.248 NA
ATOM     63  C   UNL     1       9.213   5.330  11.784  1.00  0.00     0.031 C 
ATOM     64  C   UNL     1      10.120   0.457  15.288  1.00  0.00     0.029 A 
ATOM     65  C   UNL     1       9.752   1.276  14.232  1.00  0.00     0.049 A 
ATOM     66  H   UNL     1       8.661   0.790  12.495  1.00  0.00     0.167 HD
ATOM     67  C   UNL     1       9.581   3.422  13.003  1.00  0.00     0.074 A 
ATOM     68  C   UNL     1       9.809   4.846  12.865  1.00  0.00     0.031 C 
ATOM     69  C   UNL     1      10.014   2.681  14.053  1.00  0.00     0.034 A 
BRANCH  56  70
ATOM     70  C   UNL     1       8.277  -3.247  13.832  1.00  0.00     0.023 A 
ATOM     71  C   UNL     1       9.016  -4.332  13.318  1.00  0.00     0.012 A 
ATOM     72  C   UNL     1       7.519  -3.421  15.005  1.00  0.00     0.148 A 
ATOM     73  C   UNL     1       8.970  -5.579  13.941  1.00  0.00     0.002 A 
ATOM     74  C   UNL     1       7.520  -4.651  15.650  1.00  0.00     0.091 A 
ATOM     75  F   UNL     1       6.800  -2.385  15.461  1.00  0.00    -0.205 F 
ATOM     76  C   UNL     1       8.233  -5.734  15.112  1.00  0.00     0.022 A 
BRANCH  74  77
ATOM     77  S   UNL     1       6.672  -4.925  17.208  1.00  0.00     0.127 S 
ATOM     78  O   UNL     1       5.595  -5.828  16.803  1.00  0.00    -0.237 OA
ATOM     79  O   UNL     1       7.718  -5.549  18.019  1.00  0.00    -0.237 OA
ATOM     80  O   UNL     1       6.244  -3.613  17.672  1.00  0.00    -0.744 OA
ENDBRANCH  74  77
ENDBRANCH  56  70
BRANCH  57  81
ATOM     81  C   UNL     1       7.967   5.590   9.145  1.00  0.00     0.023 A 
ATOM     82  C   UNL     1       9.159   6.216   8.730  1.00  0.00     0.012 A 
ATOM     83  C   UNL     1       6.738   6.240   8.924  1.00  0.00     0.148 A 
ATOM     84  C   UNL     1       9.131   7.482   8.143  1.00  0.00     0.002 A 
ATOM     85  C   UNL     1       6.712   7.475   8.287  1.00  0.00     0.091 A 
ATOM     86  F   UNL     1       5.616   5.634   9.338  1.00  0.00    -0.205 F 
ATOM     87  C   UNL     1       7.908   8.107   7.914  1.00  0.00     0.022 A 
BRANCH  85  88
ATOM     88  S   UNL     1       5.180   8.298   7.839  1.00  0.00     0.127 S 
ATOM     89  O   UNL     1       5.213   9.479   8.697  1.00  0.00    -0.237 OA
ATOM     90  O   UNL     1       5.391   8.563   6.415  1.00  0.00    -0.237 OA
ATOM     91  O   UNL     1       4.120   7.342   8.123  1.00  0.00    -0.744 OA
ENDBRANCH  85  88
ENDBRANCH  57  81
BRANCH  69  92
ATOM     92  C   UNL     1      10.840   3.373  15.107  1.00  0.00     0.023 A 
ATOM     93  C   UNL     1      10.250   4.313  15.975  1.00  0.00     0.012 A 
ATOM     94  C   UNL     1      12.200   3.041  15.272  1.00  0.00     0.148 A 
ATOM     95  C   UNL     1      11.012   4.947  16.957  1.00  0.00     0.002 A 
ATOM     96  C   UNL     1      12.938   3.632  16.290  1.00  0.00     0.091 A 
ATOM     97  F   UNL     1      12.750   2.155  14.428  1.00  0.00    -0.205 F 
ATOM     98  C   UNL     1      12.351   4.598  17.122  1.00  0.00     0.022 A 
BRANCH  96  99
ATOM     99  S   UNL     1      14.636   3.165  16.640  1.00  0.00     0.127 S 
ATOM    100  O   UNL     1      15.372   4.330  16.152  1.00  0.00    -0.237 OA
ATOM    101  O   UNL     1      14.623   3.018  18.096  1.00  0.00    -0.237 OA
ATOM    102  O   UNL     1      14.871   1.926  15.911  1.00  0.00    -0.744 OA
ENDBRANCH  96  99
ENDBRANCH  69  92
ENDBRANCH  43  44
ENDBRANCH  36  38
ENDBRANCH  35  36
ENDBRANCH  34  35
ENDBRANCH  33  34
ENDBRANCH  32  33
ENDBRANCH  31  32
ENDBRANCH  30  31
ENDBRANCH   1  30
TORSDOF 27
