REMARK SMILES Cc1ccccc1CCNC(=O)N[C@H](C)C(=O)OCCOCCOCCOCCOC(=O)c1ccc(-c2c3nc(c(-c4cccc(S(=O)(=O)[O-])c4F)c4ccc([nH]4)c(-c4cccc(S(=O)(=O)[O-])c4F)c4nc(c(-c5cccc(S(=O)(=O)[O-])c5F)c5ccc2[nH]5)C=C4)C=C3)cc1
REMARK SMILES IDX 23 1 22 2 21 3 20 4 19 5 18 6 16 7 17 8 14 9 15 10 13 11
REMARK SMILES IDX 10 12 11 13 12 15 9 17 8 18 7 19 1 20 2 21 3 22 4 23 6 24
REMARK SMILES IDX 5 25 24 26 25 27 26 28 27 29 28 30 29 31 30 32 31 33 32 34
REMARK SMILES IDX 33 35 34 36 95 37 35 38 94 39 36 40 37 41 38 42 88 43 39 44
REMARK SMILES IDX 93 45 87 46 89 47 40 48 92 49 86 50 85 51 41 53 73 54 53 55
REMARK SMILES IDX 72 56 54 57 57 58 71 59 90 60 55 61 56 62 70 64 91 65 58 66
REMARK SMILES IDX 42 67 43 68 51 69 44 70 46 71 52 72 45 73 47 74 48 75 49 76
REMARK SMILES IDX 50 77 74 78 75 79 83 80 76 81 78 82 84 83 77 84 79 85 80 86
REMARK SMILES IDX 81 87 82 88 59 89 60 90 68 91 61 92 63 93 69 94 62 95 64 96
REMARK SMILES IDX 65 97 66 98 67 99
REMARK H PARENT 10 14 13 16 89 52 57 63
REMARK Flexibility Score: inf
ROOT
ATOM      1  C   UNL     1      -0.998   4.100   0.948  1.00  0.00     0.188 C 
ENDROOT
BRANCH   1   2
ATOM      2  C   UNL     1       0.431   4.294   0.464  1.00  0.00     0.188 C 
BRANCH   2   3
ATOM      3  O   UNL     1       1.478   4.094   1.407  1.00  0.00    -0.376 OA
BRANCH   3   4
ATOM      4  C   UNL     1       2.476   5.130   1.343  1.00  0.00     0.202 C 
BRANCH   4   5
ATOM      5  C   UNL     1       3.369   5.140   0.108  1.00  0.00     0.261 C 
BRANCH   5   6
ATOM      6  O   UNL     1       2.641   5.663  -1.016  1.00  0.00    -0.462 OA
BRANCH   6   7
ATOM      7  C   UNL     1       2.107   4.758  -1.856  1.00  0.00     0.328 C 
ATOM      8  O   UNL     1       2.349   3.555  -1.842  1.00  0.00    -0.250 OA
BRANCH   7   9
ATOM      9  C   UNL     1       1.010   5.373  -2.741  1.00  0.00     0.190 C 
ATOM     10  C   UNL     1      -0.387   4.817  -2.523  1.00  0.00     0.043 C 
BRANCH   9  11
ATOM     11  N   UNL     1       0.971   6.819  -2.979  1.00  0.00    -0.325 N 
ATOM     12  N   UNL     1      -0.188   8.434  -1.546  1.00  0.00    -0.338 N 
ATOM     13  C   UNL     1       0.455   7.977  -2.618  1.00  0.00     0.315 C 
ATOM     14  H   UNL     1      -0.442   9.357  -1.776  1.00  0.00     0.165 HD
ATOM     15  O   UNL     1       0.598   8.829  -3.520  1.00  0.00    -0.249 OA
ATOM     16  H   UNL     1       1.589   7.003  -3.723  1.00  0.00     0.166 HD
BRANCH  12  17
ATOM     17  C   UNL     1      -0.721   8.218  -0.136  1.00  0.00     0.122 C 
BRANCH  17  18
ATOM     18  C   UNL     1      -0.385   9.175   1.362  1.00  0.00     0.057 C 
BRANCH  18  19
ATOM     19  C   UNL     1       0.100  10.976   1.696  1.00  0.00    -0.043 A 
ATOM     20  C   UNL     1      -2.503  13.153   2.044  1.00  0.00     0.044 C 
ATOM     21  C   UNL     1      -1.047  12.630   1.403  1.00  0.00    -0.048 A 
ATOM     22  C   UNL     1      -0.294  14.168   0.928  1.00  0.00     0.004 A 
ATOM     23  C   UNL     1       1.415  14.296   0.818  1.00  0.00     0.000 A 
ATOM     24  C   UNL     1       1.935  11.340   1.712  1.00  0.00     0.004 A 
ATOM     25  C   UNL     1       2.510  12.977   1.238  1.00  0.00     0.000 A 
ENDBRANCH  18  19
ENDBRANCH  17  18
ENDBRANCH  12  17
ENDBRANCH   9  11
ENDBRANCH   7   9
ENDBRANCH   6   7
ENDBRANCH   5   6
ENDBRANCH   4   5
ENDBRANCH   3   4
ENDBRANCH   2   3
ENDBRANCH   1   2
BRANCH   1  26
ATOM     26  O   UNL     1      -1.465   5.141   1.773  1.00  0.00    -0.377 OA
BRANCH  26  27
ATOM     27  C   UNL     1      -0.731   5.302   2.963  1.00  0.00     0.188 C 
BRANCH  27  28
ATOM     28  C   UNL     1      -1.054   4.464   4.221  1.00  0.00     0.188 C 
BRANCH  28  29
ATOM     29  O   UNL     1      -2.199   3.658   4.202  1.00  0.00    -0.376 OA
BRANCH  29  30
ATOM     30  C   UNL     1      -3.306   4.311   3.634  1.00  0.00     0.202 C 
BRANCH  30  31
ATOM     31  C   UNL     1      -3.536   5.845   3.813  1.00  0.00     0.261 C 
BRANCH  31  32
ATOM     32  O   UNL     1      -2.726   6.846   4.640  1.00  0.00    -0.460 OA
BRANCH  32  33
ATOM     33  C   UNL     1      -1.881   7.689   5.279  1.00  0.00     0.338 C 
ATOM     34  O   UNL     1      -2.404   8.489   6.053  1.00  0.00    -0.246 OA
BRANCH  33  35
ATOM     35  C   UNL     1      -0.400   7.893   4.959  1.00  0.00     0.060 A 
ATOM     36  C   UNL     1       0.163   9.150   4.837  1.00  0.00     0.016 A 
ATOM     37  C   UNL     1       0.575   6.935   4.863  1.00  0.00     0.016 A 
ATOM     38  C   UNL     1       1.341   9.379   4.059  1.00  0.00     0.010 A 
ATOM     39  C   UNL     1       1.634   7.123   3.951  1.00  0.00     0.010 A 
ATOM     40  C   UNL     1       1.905   8.346   3.330  1.00  0.00    -0.014 A 
BRANCH  40  41
ATOM     41  C   UNL     1       2.874   8.369   2.122  1.00  0.00     0.031 A 
ATOM     42  C   UNL     1       4.201   7.894   2.538  1.00  0.00     0.074 A 
ATOM     43  C   UNL     1       2.699   8.634   0.741  1.00  0.00     0.049 A 
ATOM     44  N   UNL     1       5.095   7.655   1.672  1.00  0.00    -0.248 NA
ATOM     45  C   UNL     1       4.606   7.513   3.888  1.00  0.00     0.031 C 
ATOM     46  C   UNL     1       3.477   8.447  -0.494  1.00  0.00     0.029 A 
ATOM     47  N   UNL     1       1.700   9.342   0.105  1.00  0.00    -0.354 N 
ATOM     48  C   UNL     1       6.042   6.851   2.230  1.00  0.00     0.074 A 
ATOM     49  C   UNL     1       5.693   6.775   3.624  1.00  0.00     0.031 C 
ATOM     50  C   UNL     1       3.041   9.250  -1.511  1.00  0.00     0.029 A 
ATOM     51  C   UNL     1       2.042  10.156  -0.950  1.00  0.00     0.049 A 
ATOM     52  H   UNL     1       0.764   9.267   0.399  1.00  0.00     0.167 HD
ATOM     53  C   UNL     1       6.897   6.309   1.328  1.00  0.00     0.034 A 
ATOM     54  C   UNL     1       1.897  11.550  -0.842  1.00  0.00     0.034 A 
ATOM     55  C   UNL     1       6.852   7.101   0.052  1.00  0.00     0.049 A 
ATOM     56  C   UNL     1       3.482  11.933  -0.983  1.00  0.00     0.074 A 
ATOM     57  C   UNL     1       6.553   6.903  -1.286  1.00  0.00     0.029 A 
ATOM     58  N   UNL     1       6.907   8.491   0.188  1.00  0.00    -0.354 N 
ATOM     59  N   UNL     1       4.432  11.042  -0.762  1.00  0.00    -0.248 NA
ATOM     60  C   UNL     1       4.119  13.221  -1.283  1.00  0.00     0.031 C 
ATOM     61  C   UNL     1       6.436   8.204  -1.919  1.00  0.00     0.029 A 
ATOM     62  C   UNL     1       6.647   9.197  -0.967  1.00  0.00     0.049 A 
ATOM     63  H   UNL     1       7.115   8.932   1.043  1.00  0.00     0.167 HD
ATOM     64  C   UNL     1       5.692  11.501  -0.959  1.00  0.00     0.074 A 
ATOM     65  C   UNL     1       5.438  12.929  -1.137  1.00  0.00     0.031 C 
ATOM     66  C   UNL     1       6.799  10.672  -0.928  1.00  0.00     0.034 A 
BRANCH  53  67
ATOM     67  C   UNL     1       7.712   5.055   1.541  1.00  0.00     0.023 A 
ATOM     68  C   UNL     1       8.488   4.645   0.440  1.00  0.00     0.012 A 
ATOM     69  C   UNL     1       7.733   4.197   2.677  1.00  0.00     0.148 A 
ATOM     70  C   UNL     1       9.244   3.473   0.442  1.00  0.00     0.002 A 
ATOM     71  C   UNL     1       8.528   3.043   2.696  1.00  0.00     0.091 A 
ATOM     72  F   UNL     1       6.953   4.455   3.730  1.00  0.00    -0.205 F 
ATOM     73  C   UNL     1       9.276   2.677   1.574  1.00  0.00     0.022 A 
BRANCH  71  74
ATOM     74  S   UNL     1       8.669   1.938   4.118  1.00  0.00     0.127 S 
ATOM     75  O   UNL     1       8.253   0.653   3.551  1.00  0.00    -0.237 OA
ATOM     76  O   UNL     1      10.093   2.022   4.438  1.00  0.00    -0.237 OA
ATOM     77  O   UNL     1       7.776   2.466   5.141  1.00  0.00    -0.744 OA
ENDBRANCH  71  74
ENDBRANCH  53  67
BRANCH  54  78
ATOM     78  C   UNL     1       0.591  12.223   0.303  1.00  0.00     0.023 A 
ATOM     79  C   UNL     1      -0.899  11.298  -0.188  1.00  0.00     0.012 A 
ATOM     80  C   UNL     1       0.638  12.743   2.281  1.00  0.00     0.148 A 
ATOM     81  C   UNL     1      -2.050  10.746   1.086  1.00  0.00     0.002 A 
ATOM     82  C   UNL     1      -0.487  12.055   3.443  1.00  0.00     0.091 A 
ATOM     83  F   UNL     1       1.500  13.563   2.962  1.00  0.00    -0.205 F 
ATOM     84  C   UNL     1      -1.764  11.001   2.853  1.00  0.00     0.022 A 
BRANCH  82  85
ATOM     85  S   UNL     1      -0.228  12.663   5.107  1.00  0.00     0.127 S 
ATOM     86  O   UNL     1      -0.467  14.095   4.960  1.00  0.00    -0.237 OA
ATOM     87  O   UNL     1      -1.245  11.959   5.879  1.00  0.00    -0.237 OA
ATOM     88  O   UNL     1       1.148  12.274   5.408  1.00  0.00    -0.744 OA
ENDBRANCH  82  85
ENDBRANCH  54  78
BRANCH  66  89
ATOM     89  C   UNL     1       8.227  11.185  -0.828  1.00  0.00     0.023 A 
ATOM     90  C   UNL     1       8.624  12.375  -1.446  1.00  0.00     0.012 A 
ATOM     91  C   UNL     1       9.244  10.454  -0.143  1.00  0.00     0.148 A 
ATOM     92  C   UNL     1       9.921  12.874  -1.292  1.00  0.00     0.002 A 
ATOM     93  C   UNL     1      10.558  10.886  -0.105  1.00  0.00     0.091 A 
ATOM     94  F   UNL     1       8.953   9.358   0.556  1.00  0.00    -0.205 F 
ATOM     95  C   UNL     1      10.891  12.127  -0.632  1.00  0.00     0.022 A 
BRANCH  93  96
ATOM     96  S   UNL     1      11.883   9.849   0.534  1.00  0.00     0.127 S 
ATOM     97  O   UNL     1      12.787   9.799  -0.616  1.00  0.00    -0.237 OA
ATOM     98  O   UNL     1      12.364  10.645   1.661  1.00  0.00    -0.237 OA
ATOM     99  O   UNL     1      11.279   8.570   0.882  1.00  0.00    -0.744 OA
ENDBRANCH  93  96
ENDBRANCH  66  89
ENDBRANCH  40  41
ENDBRANCH  33  35
ENDBRANCH  32  33
ENDBRANCH  31  32
ENDBRANCH  30  31
ENDBRANCH  29  30
ENDBRANCH  28  29
ENDBRANCH  27  28
ENDBRANCH  26  27
ENDBRANCH   1  26
TORSDOF 27
