REMARK SMILES CC(C)C(=O)Nc1ccc(NC(=O)[C@@H]2[C@@H](C(=O)OCCOCCOCCOCCOC(=O)c3ccc(-c4c5nc(c(-c6cccc(S(=O)(=O)[O-])c6F)c6ccc([nH]6)c(-c6cccc(S(=O)(=O)[O-])c6F)c6nc(c(-c7cccc(S(=O)(=O)[O-])c7F)c7ccc4[nH]7)C=C6)C=C5)cc3)C2(C)C)cc1Cl
REMARK SMILES IDX 23 1 22 2 21 3 20 4 19 5 18 6 16 7 17 8 15 9 14 10 96 11
REMARK SMILES IDX 97 12 98 13 12 14 11 15 13 17 10 18 7 19 8 20 100 21 9 22
REMARK SMILES IDX 99 23 101 24 6 25 4 26 5 27 2 29 1 30 3 31 24 32 25 33 26 34
REMARK SMILES IDX 27 35 28 36 29 37 30 38 31 39 32 40 33 41 34 42 95 43 35 44
REMARK SMILES IDX 94 45 36 46 37 47 38 48 88 49 39 50 93 51 87 52 89 53 40 54
REMARK SMILES IDX 92 55 86 56 85 57 41 59 73 60 53 61 72 62 54 63 57 64 71 65
REMARK SMILES IDX 90 66 55 67 56 68 70 70 91 71 58 72 42 73 43 74 51 75 44 76
REMARK SMILES IDX 46 77 52 78 45 79 47 80 48 81 49 82 50 83 74 84 75 85 83 86
REMARK SMILES IDX 76 87 78 88 84 89 77 90 79 91 80 92 81 93 82 94 59 95 60 96
REMARK SMILES IDX 68 97 61 98 63 99 69 100 62 101 64 102 65 103 66 104 67 105
REMARK H PARENT 11 16 6 28 89 58 57 69
REMARK Flexibility Score: inf
ROOT
ATOM      1  C   UNL     1      -2.884  -0.496  -3.713  1.00  0.00     0.188 C 
ENDROOT
BRANCH   1   2
ATOM      2  C   UNL     1      -3.762  -1.733  -3.928  1.00  0.00     0.188 C 
BRANCH   2   3
ATOM      3  O   UNL     1      -3.641  -2.717  -2.923  1.00  0.00    -0.376 OA
BRANCH   3   4
ATOM      4  C   UNL     1      -2.628  -3.709  -2.969  1.00  0.00     0.202 C 
BRANCH   4   5
ATOM      5  C   UNL     1      -1.269  -3.594  -3.692  1.00  0.00     0.261 C 
BRANCH   5   6
ATOM      6  O   UNL     1      -1.095  -2.522  -4.612  1.00  0.00    -0.463 OA
BRANCH   6   7
ATOM      7  C   UNL     1      -1.453  -2.733  -5.890  1.00  0.00     0.310 C 
ATOM      8  O   UNL     1      -1.901  -3.777  -6.345  1.00  0.00    -0.252 OA
BRANCH   7   9
ATOM      9  C   UNL     1      -1.291  -1.529  -6.746  1.00  0.00     0.118 C 
ATOM     10  C   UNL     1       0.122  -1.302  -7.206  1.00  0.00     0.100 C 
ATOM     11  C   UNL     1      -0.595  -0.179  -6.469  1.00  0.00    -0.009 C 
ATOM     12  C   UNL     1       0.038   0.262  -5.163  1.00  0.00     0.013 C 
ATOM     13  C   UNL     1      -1.134   1.008  -7.247  1.00  0.00     0.013 C 
BRANCH  10  14
ATOM     14  C   UNL     1       0.491  -1.200  -8.629  1.00  0.00     0.228 C 
ATOM     15  N   UNL     1       1.825  -1.217  -8.965  1.00  0.00    -0.326 N 
ATOM     16  H   UNL     1       1.997  -1.349  -9.926  1.00  0.00     0.169 HD
ATOM     17  O   UNL     1      -0.373  -1.161  -9.499  1.00  0.00    -0.274 OA
BRANCH  15  18
ATOM     18  C   UNL     1       2.990  -1.080  -8.181  1.00  0.00     0.042 A 
ATOM     19  C   UNL     1       5.400  -0.567  -6.821  1.00  0.00     0.060 A 
ATOM     20  C   UNL     1       4.190  -0.390  -6.170  1.00  0.00     0.030 A 
ATOM     21  C   UNL     1       5.414  -1.162  -8.087  1.00  0.00     0.066 A 
ATOM     22  C   UNL     1       3.007  -0.620  -6.866  1.00  0.00     0.028 A 
ATOM     23  C   UNL     1       4.213  -1.382  -8.778  1.00  0.00     0.048 A 
ATOM     24  Cl  UNL     1       6.879  -1.699  -8.828  1.00  0.00    -0.082 Cl
BRANCH  19  25
ATOM     25  N   UNL     1       6.536  -0.068  -6.174  1.00  0.00    -0.325 N 
ATOM     26  C   UNL     1       7.030   1.205  -6.296  1.00  0.00     0.226 C 
ATOM     27  O   UNL     1       7.793   1.618  -5.416  1.00  0.00    -0.274 OA
ATOM     28  H   UNL     1       7.022  -0.684  -5.580  1.00  0.00     0.169 HD
BRANCH  26  29
ATOM     29  C   UNL     1       6.660   2.155  -7.447  1.00  0.00     0.072 C 
ATOM     30  C   UNL     1       7.032   1.647  -8.831  1.00  0.00     0.018 C 
ATOM     31  C   UNL     1       5.234   2.695  -7.400  1.00  0.00     0.018 C 
ENDBRANCH  26  29
ENDBRANCH  19  25
ENDBRANCH  15  18
ENDBRANCH  10  14
ENDBRANCH   7   9
ENDBRANCH   6   7
ENDBRANCH   5   6
ENDBRANCH   4   5
ENDBRANCH   3   4
ENDBRANCH   2   3
ENDBRANCH   1   2
BRANCH   1  32
ATOM     32  O   UNL     1      -1.774  -0.683  -2.853  1.00  0.00    -0.377 OA
BRANCH  32  33
ATOM     33  C   UNL     1      -1.968  -0.705  -1.444  1.00  0.00     0.188 C 
BRANCH  33  34
ATOM     34  C   UNL     1      -3.382  -0.725  -0.830  1.00  0.00     0.188 C 
BRANCH  34  35
ATOM     35  O   UNL     1      -4.365   0.000  -1.554  1.00  0.00    -0.376 OA
BRANCH  35  36
ATOM     36  C   UNL     1      -4.670   1.324  -1.143  1.00  0.00     0.202 C 
BRANCH  36  37
ATOM     37  C   UNL     1      -3.551   2.373  -1.240  1.00  0.00     0.261 C 
BRANCH  37  38
ATOM     38  O   UNL     1      -2.382   2.126  -0.446  1.00  0.00    -0.460 OA
BRANCH  38  39
ATOM     39  C   UNL     1      -2.547   1.974   0.885  1.00  0.00     0.338 C 
ATOM     40  O   UNL     1      -3.584   2.071   1.515  1.00  0.00    -0.246 OA
BRANCH  39  41
ATOM     41  C   UNL     1      -1.273   1.473   1.436  1.00  0.00     0.060 A 
ATOM     42  C   UNL     1      -1.256   0.232   2.086  1.00  0.00     0.016 A 
ATOM     43  C   UNL     1      -0.105   2.228   1.312  1.00  0.00     0.016 A 
ATOM     44  C   UNL     1      -0.073  -0.237   2.655  1.00  0.00     0.010 A 
ATOM     45  C   UNL     1       1.073   1.765   1.897  1.00  0.00     0.010 A 
ATOM     46  C   UNL     1       1.084   0.550   2.606  1.00  0.00    -0.014 A 
BRANCH  46  47
ATOM     47  C   UNL     1       2.243   0.209   3.463  1.00  0.00     0.031 A 
ATOM     48  C   UNL     1       2.396   0.931   4.774  1.00  0.00     0.074 A 
ATOM     49  C   UNL     1       3.141  -0.718   3.091  1.00  0.00     0.049 A 
ATOM     50  N   UNL     1       3.332   0.822   5.678  1.00  0.00    -0.248 NA
ATOM     51  C   UNL     1       1.350   1.914   5.103  1.00  0.00     0.031 C 
ATOM     52  C   UNL     1       3.090  -1.499   1.858  1.00  0.00     0.029 A 
ATOM     53  N   UNL     1       4.286  -1.143   3.716  1.00  0.00    -0.354 N 
ATOM     54  C   UNL     1       3.007   1.740   6.669  1.00  0.00     0.074 A 
ATOM     55  C   UNL     1       1.799   2.412   6.244  1.00  0.00     0.031 C 
ATOM     56  C   UNL     1       4.167  -2.302   1.808  1.00  0.00     0.029 A 
ATOM     57  C   UNL     1       4.997  -2.069   2.989  1.00  0.00     0.049 A 
ATOM     58  H   UNL     1       4.572  -0.817   4.599  1.00  0.00     0.167 HD
ATOM     59  C   UNL     1       3.646   1.994   7.836  1.00  0.00     0.034 A 
ATOM     60  C   UNL     1       6.187  -2.647   3.245  1.00  0.00     0.034 A 
ATOM     61  C   UNL     1       4.848   1.325   8.255  1.00  0.00     0.049 A 
ATOM     62  C   UNL     1       6.912  -2.308   4.523  1.00  0.00     0.074 A 
ATOM     63  C   UNL     1       5.553   1.479   9.434  1.00  0.00     0.029 A 
ATOM     64  N   UNL     1       5.537   0.391   7.495  1.00  0.00    -0.354 N 
ATOM     65  N   UNL     1       6.540  -1.520   5.502  1.00  0.00    -0.248 NA
ATOM     66  C   UNL     1       8.210  -2.963   4.742  1.00  0.00     0.031 C 
ATOM     67  C   UNL     1       6.693   0.669   9.369  1.00  0.00     0.029 A 
ATOM     68  C   UNL     1       6.673  -0.025   8.169  1.00  0.00     0.049 A 
ATOM     69  H   UNL     1       5.259   0.070   6.607  1.00  0.00     0.167 HD
ATOM     70  C   UNL     1       7.534  -1.616   6.472  1.00  0.00     0.074 A 
ATOM     71  C   UNL     1       8.518  -2.550   5.965  1.00  0.00     0.031 C 
ATOM     72  C   UNL     1       7.625  -0.987   7.671  1.00  0.00     0.034 A 
BRANCH  59  73
ATOM     73  C   UNL     1       3.045   3.046   8.733  1.00  0.00     0.023 A 
ATOM     74  C   UNL     1       1.811   2.805   9.374  1.00  0.00     0.012 A 
ATOM     75  C   UNL     1       3.698   4.277   8.938  1.00  0.00     0.148 A 
ATOM     76  C   UNL     1       1.211   3.791  10.156  1.00  0.00     0.002 A 
ATOM     77  C   UNL     1       3.119   5.235   9.762  1.00  0.00     0.091 A 
ATOM     78  F   UNL     1       4.857   4.501   8.303  1.00  0.00    -0.205 F 
ATOM     79  C   UNL     1       1.868   5.002  10.356  1.00  0.00     0.022 A 
BRANCH  77  80
ATOM     80  S   UNL     1       3.927   6.792  10.144  1.00  0.00     0.127 S 
ATOM     81  O   UNL     1       3.146   7.734   9.345  1.00  0.00    -0.237 OA
ATOM     82  O   UNL     1       3.720   6.900  11.589  1.00  0.00    -0.237 OA
ATOM     83  O   UNL     1       5.317   6.628   9.744  1.00  0.00    -0.744 OA
ENDBRANCH  77  80
ENDBRANCH  59  73
BRANCH  60  84
ATOM     84  C   UNL     1       6.740  -3.655   2.296  1.00  0.00     0.023 A 
ATOM     85  C   UNL     1       6.801  -5.006   2.686  1.00  0.00     0.012 A 
ATOM     86  C   UNL     1       7.170  -3.291   1.004  1.00  0.00     0.148 A 
ATOM     87  C   UNL     1       7.302  -5.976   1.816  1.00  0.00     0.002 A 
ATOM     88  C   UNL     1       7.613  -4.269   0.122  1.00  0.00     0.091 A 
ATOM     89  F   UNL     1       7.115  -1.997   0.658  1.00  0.00    -0.205 F 
ATOM     90  C   UNL     1       7.698  -5.609   0.532  1.00  0.00     0.022 A 
BRANCH  88  91
ATOM     91  S   UNL     1       8.012  -3.917  -1.594  1.00  0.00     0.127 S 
ATOM     92  O   UNL     1       9.445  -4.198  -1.631  1.00  0.00    -0.237 OA
ATOM     93  O   UNL     1       7.174  -4.887  -2.300  1.00  0.00    -0.237 OA
ATOM     94  O   UNL     1       7.634  -2.528  -1.815  1.00  0.00    -0.744 OA
ENDBRANCH  88  91
ENDBRANCH  60  84
BRANCH  72  95
ATOM     95  C   UNL     1       8.808  -1.314   8.549  1.00  0.00     0.023 A 
ATOM     96  C   UNL     1      10.097  -0.864   8.199  1.00  0.00     0.012 A 
ATOM     97  C   UNL     1       8.627  -2.009   9.762  1.00  0.00     0.148 A 
ATOM     98  C   UNL     1      11.190  -1.132   9.023  1.00  0.00     0.002 A 
ATOM     99  C   UNL     1       9.711  -2.225  10.604  1.00  0.00     0.091 A 
ATOM    100  F   UNL     1       7.397  -2.444  10.072  1.00  0.00    -0.205 F 
ATOM    101  C   UNL     1      10.996  -1.800  10.229  1.00  0.00     0.022 A 
BRANCH  99 102
ATOM    102  S   UNL     1       9.541  -2.986  12.223  1.00  0.00     0.127 S 
ATOM    103  O   UNL     1      10.186  -4.281  12.012  1.00  0.00    -0.237 OA
ATOM    104  O   UNL     1      10.287  -2.064  13.079  1.00  0.00    -0.237 OA
ATOM    105  O   UNL     1       8.111  -3.040  12.494  1.00  0.00    -0.744 OA
ENDBRANCH  99 102
ENDBRANCH  72  95
ENDBRANCH  46  47
ENDBRANCH  39  41
ENDBRANCH  38  39
ENDBRANCH  37  38
ENDBRANCH  36  37
ENDBRANCH  35  36
ENDBRANCH  34  35
ENDBRANCH  33  34
ENDBRANCH  32  33
ENDBRANCH   1  32
TORSDOF 27
