REMARK SMILES Cc1ccc2c(c1)C=C(C(=O)OCCOCCOCCOCCOC(=O)c1ccc(-c3c4nc(c(-c5cccc(S(=O)(=O)[O-])c5F)c5ccc([nH]5)c(-c5cccc(S(=O)(=O)[O-])c5F)c5nc(c(-c6cccc(S(=O)(=O)[O-])c6F)c6ccc3[nH]6)C=C5)C=C4)cc1)[C@@H](C(F)(F)F)O2
REMARK SMILES IDX 19 1 18 2 17 3 16 4 15 5 14 6 13 7 12 8 10 9 11 10 9 11 1 12
REMARK SMILES IDX 2 13 3 14 7 15 4 16 6 17 5 18 8 19 95 20 90 21 91 22 92 23
REMARK SMILES IDX 93 24 94 25 20 26 21 27 22 28 23 29 24 30 25 31 26 32 27 33
REMARK SMILES IDX 28 34 89 35 29 36 88 37 30 38 31 39 32 40 82 41 33 42 87 43
REMARK SMILES IDX 81 44 83 45 34 46 86 47 80 48 79 49 35 51 67 52 47 53 66 54
REMARK SMILES IDX 48 55 51 56 65 57 84 58 49 59 50 60 64 62 85 63 52 64 36 65
REMARK SMILES IDX 37 66 45 67 38 68 40 69 46 70 39 71 41 72 42 73 43 74 44 75
REMARK SMILES IDX 68 76 69 77 77 78 70 79 72 80 78 81 71 82 73 83 74 84 75 85
REMARK SMILES IDX 76 86 53 87 54 88 62 89 55 90 57 91 63 92 56 93 58 94 59 95
REMARK SMILES IDX 60 96 61 97
REMARK H PARENT 83 50 51 61
REMARK Flexibility Score: inf
ROOT
ATOM      1  C   UNL     1      -3.269   6.998  -5.872  1.00  0.00     0.188 C 
ENDROOT
BRANCH   1   2
ATOM      2  O   UNL     1      -2.296   5.969  -5.691  1.00  0.00    -0.377 OA
BRANCH   2   3
ATOM      3  C   UNL     1      -1.925   5.649  -4.361  1.00  0.00     0.188 C 
BRANCH   3   4
ATOM      4  C   UNL     1      -0.810   6.565  -3.824  1.00  0.00     0.188 C 
BRANCH   4   5
ATOM      5  O   UNL     1      -0.595   7.716  -4.635  1.00  0.00    -0.376 OA
BRANCH   5   6
ATOM      6  C   UNL     1       0.496   7.692  -5.549  1.00  0.00     0.202 C 
BRANCH   6   7
ATOM      7  C   UNL     1       0.500   6.639  -6.671  1.00  0.00     0.261 C 
BRANCH   7   8
ATOM      8  O   UNL     1       0.360   5.275  -6.245  1.00  0.00    -0.460 OA
BRANCH   8   9
ATOM      9  C   UNL     1       1.347   4.735  -5.507  1.00  0.00     0.338 C 
ATOM     10  O   UNL     1       2.396   5.263  -5.186  1.00  0.00    -0.246 OA
BRANCH   9  11
ATOM     11  C   UNL     1       0.861   3.434  -4.989  1.00  0.00     0.087 C 
ATOM     12  C   UNL     1       0.841  -0.091   0.063  1.00  0.00     0.044 C 
ATOM     13  C   UNL     1       0.492   0.297  -1.343  1.00  0.00    -0.050 A 
ATOM     14  C   UNL     1      -0.185  -0.587  -2.189  1.00  0.00     0.007 A 
ATOM     15  C   UNL     1       0.885   1.548  -1.838  1.00  0.00     0.015 A 
ATOM     16  C   UNL     1      -0.482  -0.216  -3.502  1.00  0.00     0.047 A 
ATOM     17  C   UNL     1       0.623   1.906  -3.167  1.00  0.00     0.017 A 
ATOM     18  C   UNL     1      -0.080   1.027  -3.990  1.00  0.00     0.128 A 
ATOM     19  C   UNL     1       1.112   3.164  -3.702  1.00  0.00     0.027 C 
ATOM     20  O   UNL     1      -0.410   1.298  -5.286  1.00  0.00    -0.475 OA
ATOM     21  C   UNL     1       0.057   2.534  -5.896  1.00  0.00     0.316 C 
BRANCH  21  22
ATOM     22  C   UNL     1       0.823   2.175  -7.177  1.00  0.00     0.430 C 
ATOM     23  F   UNL     1       0.114   1.319  -7.951  1.00  0.00    -0.167 F 
ATOM     24  F   UNL     1       1.088   3.263  -7.934  1.00  0.00    -0.167 F 
ATOM     25  F   UNL     1       2.007   1.581  -6.898  1.00  0.00    -0.167 F 
ENDBRANCH  21  22
ENDBRANCH   9  11
ENDBRANCH   8   9
ENDBRANCH   7   8
ENDBRANCH   6   7
ENDBRANCH   5   6
ENDBRANCH   4   5
ENDBRANCH   3   4
ENDBRANCH   2   3
ENDBRANCH   1   2
BRANCH   1  26
ATOM     26  C   UNL     1      -3.439   8.135  -4.838  1.00  0.00     0.188 C 
BRANCH  26  27
ATOM     27  O   UNL     1      -3.561   7.677  -3.491  1.00  0.00    -0.376 OA
BRANCH  27  28
ATOM     28  C   UNL     1      -4.849   7.786  -2.897  1.00  0.00     0.202 C 
BRANCH  28  29
ATOM     29  C   UNL     1      -5.824   6.684  -3.326  1.00  0.00     0.261 C 
BRANCH  29  30
ATOM     30  O   UNL     1      -6.162   6.678  -4.721  1.00  0.00    -0.460 OA
BRANCH  30  31
ATOM     31  C   UNL     1      -6.728   7.793  -5.238  1.00  0.00     0.338 C 
ATOM     32  O   UNL     1      -7.051   8.798  -4.632  1.00  0.00    -0.246 OA
BRANCH  31  33
ATOM     33  C   UNL     1      -6.699   7.654  -6.709  1.00  0.00     0.060 A 
ATOM     34  C   UNL     1      -7.183   6.491  -7.315  1.00  0.00     0.016 A 
ATOM     35  C   UNL     1      -6.139   8.678  -7.483  1.00  0.00     0.016 A 
ATOM     36  C   UNL     1      -7.133   6.366  -8.703  1.00  0.00     0.010 A 
ATOM     37  C   UNL     1      -6.082   8.546  -8.873  1.00  0.00     0.010 A 
ATOM     38  C   UNL     1      -6.601   7.399  -9.492  1.00  0.00    -0.014 A 
BRANCH  38  39
ATOM     39  C   UNL     1      -6.784   7.358 -10.962  1.00  0.00     0.031 A 
ATOM     40  C   UNL     1      -5.686   6.957 -11.899  1.00  0.00     0.074 A 
ATOM     41  C   UNL     1      -7.991   7.710 -11.444  1.00  0.00     0.049 A 
ATOM     42  N   UNL     1      -5.746   6.790 -13.195  1.00  0.00    -0.248 NA
ATOM     43  C   UNL     1      -4.357   6.715 -11.320  1.00  0.00     0.031 C 
ATOM     44  C   UNL     1      -9.116   8.170 -10.626  1.00  0.00     0.029 A 
ATOM     45  N   UNL     1      -8.474   7.741 -12.726  1.00  0.00    -0.354 N 
ATOM     46  C   UNL     1      -4.468   6.428 -13.595  1.00  0.00     0.074 A 
ATOM     47  C   UNL     1      -3.645   6.413 -12.402  1.00  0.00     0.031 C 
ATOM     48  C   UNL     1     -10.161   8.429 -11.426  1.00  0.00     0.029 A 
ATOM     49  C   UNL     1      -9.778   8.163 -12.809  1.00  0.00     0.049 A 
ATOM     50  H   UNL     1      -7.938   7.486 -13.512  1.00  0.00     0.167 HD
ATOM     51  C   UNL     1      -4.033   6.116 -14.839  1.00  0.00     0.034 A 
ATOM     52  C   UNL     1     -10.586   8.311 -13.876  1.00  0.00     0.034 A 
ATOM     53  C   UNL     1      -4.861   6.119 -16.018  1.00  0.00     0.049 A 
ATOM     54  C   UNL     1     -10.081   7.944 -15.238  1.00  0.00     0.074 A 
ATOM     55  C   UNL     1      -4.517   5.747 -17.307  1.00  0.00     0.029 A 
ATOM     56  N   UNL     1      -6.185   6.524 -16.061  1.00  0.00    -0.354 N 
ATOM     57  N   UNL     1      -8.911   7.459 -15.575  1.00  0.00    -0.248 NA
ATOM     58  C   UNL     1     -11.012   8.110 -16.363  1.00  0.00     0.031 C 
ATOM     59  C   UNL     1      -5.629   5.941 -18.132  1.00  0.00     0.029 A 
ATOM     60  C   UNL     1      -6.670   6.421 -17.354  1.00  0.00     0.049 A 
ATOM     61  H   UNL     1      -6.705   6.838 -15.286  1.00  0.00     0.167 HD
ATOM     62  C   UNL     1      -8.969   7.245 -16.945  1.00  0.00     0.074 A 
ATOM     63  C   UNL     1     -10.296   7.638 -17.376  1.00  0.00     0.031 C 
ATOM     64  C   UNL     1      -8.002   6.778 -17.770  1.00  0.00     0.034 A 
BRANCH  51  65
ATOM     65  C   UNL     1      -2.605   5.670 -15.005  1.00  0.00     0.023 A 
ATOM     66  C   UNL     1      -2.267   4.342 -14.680  1.00  0.00     0.012 A 
ATOM     67  C   UNL     1      -1.644   6.506 -15.606  1.00  0.00     0.148 A 
ATOM     68  C   UNL     1      -0.989   3.851 -14.947  1.00  0.00     0.002 A 
ATOM     69  C   UNL     1      -0.380   6.001 -15.893  1.00  0.00     0.091 A 
ATOM     70  F   UNL     1      -1.990   7.767 -15.900  1.00  0.00    -0.205 F 
ATOM     71  C   UNL     1      -0.051   4.676 -15.562  1.00  0.00     0.022 A 
BRANCH  69  72
ATOM     72  S   UNL     1       0.885   6.960 -16.734  1.00  0.00     0.127 S 
ATOM     73  O   UNL     1       1.904   7.081 -15.692  1.00  0.00    -0.237 OA
ATOM     74  O   UNL     1       1.250   6.080 -17.844  1.00  0.00    -0.237 OA
ATOM     75  O   UNL     1       0.251   8.210 -17.127  1.00  0.00    -0.744 OA
ENDBRANCH  69  72
ENDBRANCH  51  65
BRANCH  52  76
ATOM     76  C   UNL     1     -11.987   8.755 -13.659  1.00  0.00     0.023 A 
ATOM     77  C   UNL     1     -13.023   7.804 -13.711  1.00  0.00     0.012 A 
ATOM     78  C   UNL     1     -12.282  10.086 -13.309  1.00  0.00     0.148 A 
ATOM     79  C   UNL     1     -14.336   8.175 -13.423  1.00  0.00     0.002 A 
ATOM     80  C   UNL     1     -13.585  10.440 -12.986  1.00  0.00     0.091 A 
ATOM     81  F   UNL     1     -11.272  10.967 -13.265  1.00  0.00    -0.205 F 
ATOM     82  C   UNL     1     -14.616   9.488 -13.051  1.00  0.00     0.022 A 
BRANCH  80  83
ATOM     83  S   UNL     1     -14.028  12.076 -12.392  1.00  0.00     0.127 S 
ATOM     84  O   UNL     1     -14.916  12.547 -13.452  1.00  0.00    -0.237 OA
ATOM     85  O   UNL     1     -14.690  11.764 -11.125  1.00  0.00    -0.237 OA
ATOM     86  O   UNL     1     -12.773  12.803 -12.259  1.00  0.00    -0.744 OA
ENDBRANCH  80  83
ENDBRANCH  52  76
BRANCH  64  87
ATOM     87  C   UNL     1      -8.323   6.657 -19.234  1.00  0.00     0.023 A 
ATOM     88  C   UNL     1      -8.309   7.811 -20.040  1.00  0.00     0.012 A 
ATOM     89  C   UNL     1      -8.525   5.395 -19.828  1.00  0.00     0.148 A 
ATOM     90  C   UNL     1      -8.500   7.714 -21.417  1.00  0.00     0.002 A 
ATOM     91  C   UNL     1      -8.681   5.303 -21.206  1.00  0.00     0.091 A 
ATOM     92  F   UNL     1      -8.544   4.313 -19.036  1.00  0.00    -0.205 F 
ATOM     93  C   UNL     1      -8.674   6.461 -22.001  1.00  0.00     0.022 A 
BRANCH  91  94
ATOM     94  S   UNL     1      -8.841   3.731 -22.061  1.00  0.00     0.127 S 
ATOM     95  O   UNL     1     -10.212   3.804 -22.566  1.00  0.00    -0.237 OA
ATOM     96  O   UNL     1      -7.806   3.832 -23.089  1.00  0.00    -0.237 OA
ATOM     97  O   UNL     1      -8.605   2.699 -21.060  1.00  0.00    -0.744 OA
ENDBRANCH  91  94
ENDBRANCH  64  87
ENDBRANCH  38  39
ENDBRANCH  31  33
ENDBRANCH  30  31
ENDBRANCH  29  30
ENDBRANCH  28  29
ENDBRANCH  27  28
ENDBRANCH  26  27
ENDBRANCH   1  26
TORSDOF 24
