REMARK SMILES O=C(OCCOCCOCCOCCOC(=O)[C@@H]1C=C[C@H](NC(=O)C2CCOCC2)C1)c1ccc(-c2c3nc(c(-c4cccc(S(=O)(=O)[O-])c4F)c4ccc([nH]4)c(-c4cccc(S(=O)(=O)[O-])c4F)c4nc(c(-c5cccc(S(=O)(=O)[O-])c5F)c5ccc2[nH]5)C=C4)C=C3)cc1
REMARK SMILES IDX 8 1 7 2 6 3 5 4 4 5 3 6 2 7 1 8 32 9 33 10 94 11 34 12 93 13
REMARK SMILES IDX 35 14 36 15 37 16 87 17 38 18 92 19 86 20 88 21 39 22 91 23
REMARK SMILES IDX 85 24 84 25 40 27 72 28 52 29 71 30 53 31 56 32 70 33 89 34
REMARK SMILES IDX 54 35 55 36 69 38 90 39 57 40 41 41 42 42 50 43 43 44 45 45
REMARK SMILES IDX 51 46 44 47 46 48 47 49 48 50 49 51 73 52 74 53 82 54 75 55
REMARK SMILES IDX 77 56 83 57 76 58 78 59 79 60 80 61 81 62 58 63 59 64 67 65
REMARK SMILES IDX 60 66 62 67 68 68 61 69 63 70 64 71 65 72 66 73 9 74 10 75
REMARK SMILES IDX 11 76 12 77 13 78 14 79 15 80 16 81 17 82 18 83 19 84 31 85
REMARK SMILES IDX 20 86 21 87 22 88 23 89 24 91 25 92 26 93 30 94 27 95 29 96
REMARK SMILES IDX 28 97
REMARK H PARENT 88 26 56 37 22 90
REMARK Flexibility Score: inf
ROOT
ATOM      1  C   UNL     1       4.686   0.242  -9.615  1.00  0.00     0.188 C 
ENDROOT
BRANCH   1   2
ATOM      2  C   UNL     1       3.294  -0.325  -9.806  1.00  0.00     0.188 C 
BRANCH   2   3
ATOM      3  O   UNL     1       3.091  -1.370  -8.849  1.00  0.00    -0.376 OA
BRANCH   3   4
ATOM      4  C   UNL     1       1.810  -1.448  -8.239  1.00  0.00     0.202 C 
BRANCH   4   5
ATOM      5  C   UNL     1       0.869  -2.446  -8.918  1.00  0.00     0.261 C 
BRANCH   5   6
ATOM      6  O   UNL     1       1.357  -2.922 -10.188  1.00  0.00    -0.460 OA
BRANCH   6   7
ATOM      7  C   UNL     1       1.372  -2.320 -11.398  1.00  0.00     0.338 C 
ATOM      8  O   UNL     1       2.053  -2.795 -12.305  1.00  0.00    -0.246 OA
BRANCH   7   9
ATOM      9  C   UNL     1       0.524  -1.136 -11.705  1.00  0.00     0.060 A 
ATOM     10  C   UNL     1       0.181  -0.157 -10.778  1.00  0.00     0.016 A 
ATOM     11  C   UNL     1       0.065  -0.986 -13.021  1.00  0.00     0.016 A 
ATOM     12  C   UNL     1      -0.708   0.853 -11.074  1.00  0.00     0.010 A 
ATOM     13  C   UNL     1      -0.820   0.046 -13.346  1.00  0.00     0.010 A 
ATOM     14  C   UNL     1      -1.266   0.914 -12.341  1.00  0.00    -0.014 A 
BRANCH  14  15
ATOM     15  C   UNL     1      -2.520   1.675 -12.451  1.00  0.00     0.031 A 
ATOM     16  C   UNL     1      -3.793   0.881 -12.510  1.00  0.00     0.074 A 
ATOM     17  C   UNL     1      -2.520   3.008 -12.276  1.00  0.00     0.049 A 
ATOM     18  N   UNL     1      -5.021   1.295 -12.641  1.00  0.00    -0.248 NA
ATOM     19  C   UNL     1      -3.667  -0.585 -12.392  1.00  0.00     0.031 C 
ATOM     20  C   UNL     1      -1.331   3.829 -12.029  1.00  0.00     0.029 A 
ATOM     21  N   UNL     1      -3.555   3.899 -12.238  1.00  0.00    -0.354 N 
ATOM     22  C   UNL     1      -5.795   0.143 -12.720  1.00  0.00     0.074 A 
ATOM     23  C   UNL     1      -4.910  -0.988 -12.588  1.00  0.00     0.031 C 
ATOM     24  C   UNL     1      -1.709   5.104 -11.852  1.00  0.00     0.029 A 
ATOM     25  C   UNL     1      -3.148   5.199 -12.059  1.00  0.00     0.049 A 
ATOM     26  H   UNL     1      -4.499   3.635 -12.329  1.00  0.00     0.167 HD
ATOM     27  C   UNL     1      -7.129   0.049 -12.905  1.00  0.00     0.034 A 
ATOM     28  C   UNL     1      -3.867   6.335 -12.110  1.00  0.00     0.034 A 
ATOM     29  C   UNL     1      -7.979   1.201 -12.987  1.00  0.00     0.049 A 
ATOM     30  C   UNL     1      -5.343   6.207 -12.374  1.00  0.00     0.074 A 
ATOM     31  C   UNL     1      -9.340   1.259 -13.208  1.00  0.00     0.029 A 
ATOM     32  N   UNL     1      -7.532   2.509 -12.848  1.00  0.00    -0.354 N 
ATOM     33  N   UNL     1      -6.067   5.118 -12.496  1.00  0.00    -0.248 NA
ATOM     34  C   UNL     1      -6.103   7.455 -12.498  1.00  0.00     0.031 C 
ATOM     35  C   UNL     1      -9.709   2.608 -13.242  1.00  0.00     0.029 A 
ATOM     36  C   UNL     1      -8.587   3.386 -12.988  1.00  0.00     0.049 A 
ATOM     37  H   UNL     1      -6.599   2.771 -12.675  1.00  0.00     0.167 HD
ATOM     38  C   UNL     1      -7.374   5.547 -12.678  1.00  0.00     0.074 A 
ATOM     39  C   UNL     1      -7.340   6.997 -12.629  1.00  0.00     0.031 C 
ATOM     40  C   UNL     1      -8.502   4.821 -12.880  1.00  0.00     0.034 A 
BRANCH  27  41
ATOM     41  C   UNL     1      -7.704  -1.326 -13.108  1.00  0.00     0.023 A 
ATOM     42  C   UNL     1      -7.785  -2.246 -12.043  1.00  0.00     0.012 A 
ATOM     43  C   UNL     1      -8.135  -1.716 -14.392  1.00  0.00     0.148 A 
ATOM     44  C   UNL     1      -8.245  -3.546 -12.263  1.00  0.00     0.002 A 
ATOM     45  C   UNL     1      -8.640  -2.994 -14.592  1.00  0.00     0.091 A 
ATOM     46  F   UNL     1      -8.015  -0.840 -15.398  1.00  0.00    -0.205 F 
ATOM     47  C   UNL     1      -8.680  -3.916 -13.534  1.00  0.00     0.022 A 
BRANCH  45  48
ATOM     48  S   UNL     1      -9.288  -3.537 -16.176  1.00  0.00     0.127 S 
ATOM     49  O   UNL     1      -8.314  -4.562 -16.557  1.00  0.00    -0.237 OA
ATOM     50  O   UNL     1     -10.604  -4.059 -15.800  1.00  0.00    -0.237 OA
ATOM     51  O   UNL     1      -9.318  -2.361 -17.027  1.00  0.00    -0.744 OA
ENDBRANCH  45  48
ENDBRANCH  27  41
BRANCH  28  52
ATOM     52  C   UNL     1      -3.207   7.662 -11.942  1.00  0.00     0.023 A 
ATOM     53  C   UNL     1      -3.543   8.480 -10.847  1.00  0.00     0.012 A 
ATOM     54  C   UNL     1      -2.236   8.114 -12.860  1.00  0.00     0.148 A 
ATOM     55  C   UNL     1      -2.949   9.734 -10.687  1.00  0.00     0.002 A 
ATOM     56  C   UNL     1      -1.605   9.336 -12.662  1.00  0.00     0.091 A 
ATOM     57  F   UNL     1      -1.941   7.333 -13.909  1.00  0.00    -0.205 F 
ATOM     58  C   UNL     1      -1.973  10.157 -11.587  1.00  0.00     0.022 A 
BRANCH  56  59
ATOM     59  S   UNL     1      -0.251   9.898 -13.700  1.00  0.00     0.127 S 
ATOM     60  O   UNL     1      -0.869  11.012 -14.418  1.00  0.00    -0.237 OA
ATOM     61  O   UNL     1       0.750  10.289 -12.704  1.00  0.00    -0.237 OA
ATOM     62  O   UNL     1       0.127   8.753 -14.512  1.00  0.00    -0.744 OA
ENDBRANCH  56  59
ENDBRANCH  28  52
BRANCH  40  63
ATOM     63  C   UNL     1      -9.792   5.582 -12.993  1.00  0.00     0.023 A 
ATOM     64  C   UNL     1     -10.074   6.334 -14.149  1.00  0.00     0.012 A 
ATOM     65  C   UNL     1     -10.755   5.480 -11.972  1.00  0.00     0.148 A 
ATOM     66  C   UNL     1     -11.287   7.009 -14.268  1.00  0.00     0.002 A 
ATOM     67  C   UNL     1     -11.984   6.103 -12.126  1.00  0.00     0.091 A 
ATOM     68  F   UNL     1     -10.452   4.773 -10.873  1.00  0.00    -0.205 F 
ATOM     69  C   UNL     1     -12.246   6.881 -13.265  1.00  0.00     0.022 A 
BRANCH  67  70
ATOM     70  S   UNL     1     -13.313   5.892 -10.939  1.00  0.00     0.127 S 
ATOM     71  O   UNL     1     -13.323   7.191 -10.270  1.00  0.00    -0.237 OA
ATOM     72  O   UNL     1     -14.465   5.642 -11.806  1.00  0.00    -0.237 OA
ATOM     73  O   UNL     1     -12.930   4.761 -10.105  1.00  0.00    -0.744 OA
ENDBRANCH  67  70
ENDBRANCH  40  63
ENDBRANCH  14  15
ENDBRANCH   7   9
ENDBRANCH   6   7
ENDBRANCH   5   6
ENDBRANCH   4   5
ENDBRANCH   3   4
ENDBRANCH   2   3
ENDBRANCH   1   2
BRANCH   1  74
ATOM     74  O   UNL     1       4.868   1.053  -8.460  1.00  0.00    -0.377 OA
BRANCH  74  75
ATOM     75  C   UNL     1       3.817   1.137  -7.518  1.00  0.00     0.188 C 
BRANCH  75  76
ATOM     76  C   UNL     1       2.786   2.263  -7.598  1.00  0.00     0.188 C 
BRANCH  76  77
ATOM     77  O   UNL     1       2.860   3.188  -8.655  1.00  0.00    -0.376 OA
BRANCH  77  78
ATOM     78  C   UNL     1       4.127   3.708  -9.031  1.00  0.00     0.202 C 
BRANCH  78  79
ATOM     79  C   UNL     1       5.136   4.206  -7.968  1.00  0.00     0.261 C 
BRANCH  79  80
ATOM     80  O   UNL     1       5.657   3.245  -7.010  1.00  0.00    -0.463 OA
BRANCH  80  81
ATOM     81  C   UNL     1       5.274   3.359  -5.706  1.00  0.00     0.312 C 
ATOM     82  O   UNL     1       4.460   4.185  -5.303  1.00  0.00    -0.252 OA
BRANCH  81  83
ATOM     83  C   UNL     1       5.924   2.333  -4.741  1.00  0.00     0.124 C 
ATOM     84  C   UNL     1       7.274   1.808  -5.115  1.00  0.00    -0.014 C 
ATOM     85  C   UNL     1       5.141   1.035  -4.394  1.00  0.00     0.048 C 
ATOM     86  C   UNL     1       7.336   0.471  -5.096  1.00  0.00    -0.006 C 
ATOM     87  C   UNL     1       6.025  -0.179  -4.793  1.00  0.00     0.106 C 
BRANCH  87  88
ATOM     88  N   UNL     1       5.658  -0.892  -6.006  1.00  0.00    -0.350 N 
ATOM     89  C   UNL     1       5.707  -2.222  -6.316  1.00  0.00     0.223 C 
ATOM     90  H   UNL     1       5.315  -0.317  -6.728  1.00  0.00     0.164 HD
ATOM     91  O   UNL     1       5.697  -2.544  -7.505  1.00  0.00    -0.275 OA
BRANCH  89  92
ATOM     92  C   UNL     1       5.747  -3.284  -5.230  1.00  0.00     0.083 C 
ATOM     93  C   UNL     1       6.861  -4.300  -5.515  1.00  0.00     0.042 C 
ATOM     94  C   UNL     1       4.412  -4.037  -5.169  1.00  0.00     0.042 C 
ATOM     95  C   UNL     1       6.841  -5.397  -4.461  1.00  0.00     0.161 C 
ATOM     96  C   UNL     1       4.496  -5.156  -4.136  1.00  0.00     0.161 C 
ATOM     97  O   UNL     1       5.572  -6.049  -4.424  1.00  0.00    -0.381 OA
ENDBRANCH  89  92
ENDBRANCH  87  88
ENDBRANCH  81  83
ENDBRANCH  80  81
ENDBRANCH  79  80
ENDBRANCH  78  79
ENDBRANCH  77  78
ENDBRANCH  76  77
ENDBRANCH  75  76
ENDBRANCH  74  75
ENDBRANCH   1  74
TORSDOF 25
