REMARK SMILES Cc1ccccc1OCc1nc2cc(C(=O)OCCOCCOCCOCCOC(=O)c3ccc(-c4c5nc(c(-c6cccc(S(=O)(=O)[O-])c6F)c6ccc([nH]6)c(-c6cccc(S(=O)(=O)[O-])c6F)c6nc(c(-c7cccc(S(=O)(=O)[O-])c7F)c7ccc4[nH]7)C=C6)C=C5)cc3)ccc2n1C[C@H](C)O
REMARK SMILES IDX 23 1 22 2 21 3 20 4 19 5 18 6 17 7 15 8 16 9 14 10 10 11
REMARK SMILES IDX 11 12 98 13 12 14 97 15 13 16 96 17 95 18 9 19 8 20 7 21
REMARK SMILES IDX 1 22 2 23 3 24 4 25 6 26 5 27 99 28 100 29 101 30 102 31
REMARK SMILES IDX 24 33 25 34 26 35 27 36 28 37 29 38 30 39 31 40 32 41 33 42
REMARK SMILES IDX 94 43 34 44 93 45 35 46 36 47 37 48 87 49 38 50 92 51 86 52
REMARK SMILES IDX 88 53 39 54 91 55 85 56 84 57 40 59 72 60 52 61 71 62 53 63
REMARK SMILES IDX 56 64 70 65 89 66 54 67 55 68 69 70 90 71 57 72 41 73 42 74
REMARK SMILES IDX 50 75 43 76 45 77 51 78 44 79 46 80 47 81 48 82 49 83 73 84
REMARK SMILES IDX 74 85 82 86 75 87 77 88 83 89 76 90 78 91 79 92 80 93 81 94
REMARK SMILES IDX 58 95 59 96 67 97 60 98 62 99 68 100 61 101 63 102 64 103
REMARK SMILES IDX 65 104 66 105
REMARK H PARENT 102 32 88 58 56 69
REMARK Flexibility Score: inf
ROOT
ATOM      1  O   UNL     1      -5.988   2.470  -0.541  1.00  0.00    -0.377 OA
ENDROOT
BRANCH   1   2
ATOM      2  C   UNL     1      -5.984   1.480   0.461  1.00  0.00     0.188 C 
BRANCH   2   3
ATOM      3  C   UNL     1      -6.442   1.719   1.901  1.00  0.00     0.188 C 
BRANCH   3   4
ATOM      4  O   UNL     1      -6.252   2.991   2.495  1.00  0.00    -0.376 OA
BRANCH   4   5
ATOM      5  C   UNL     1      -4.927   3.502   2.575  1.00  0.00     0.202 C 
BRANCH   5   6
ATOM      6  C   UNL     1      -4.016   2.784   3.539  1.00  0.00     0.261 C 
BRANCH   6   7
ATOM      7  O   UNL     1      -3.149   1.994   2.720  1.00  0.00    -0.460 OA
BRANCH   7   8
ATOM      8  C   UNL     1      -3.344   0.680   2.719  1.00  0.00     0.338 C 
ATOM      9  O   UNL     1      -3.998   0.007   3.505  1.00  0.00    -0.246 OA
BRANCH   8  10
ATOM     10  C   UNL     1      -2.494   0.135   1.664  1.00  0.00     0.062 A 
ATOM     11  C   UNL     1      -0.145  -1.091  -1.797  1.00  0.00     0.148 A 
ATOM     12  N   UNL     1      -1.341  -0.474  -1.818  1.00  0.00    -0.229 NA
ATOM     13  N   UNL     1       0.538  -0.447  -0.805  1.00  0.00    -0.322 N 
ATOM     14  C   UNL     1      -1.497  -0.037  -0.489  1.00  0.00     0.090 A 
ATOM     15  C   UNL     1      -0.386  -0.482   0.209  1.00  0.00     0.068 A 
ATOM     16  C   UNL     1      -2.471   0.565   0.305  1.00  0.00     0.046 A 
ATOM     17  C   UNL     1      -0.616  -1.258   1.346  1.00  0.00     0.029 A 
ATOM     18  C   UNL     1      -1.688  -0.897   2.116  1.00  0.00     0.018 A 
BRANCH  11  19
ATOM     19  C   UNL     1       0.327  -2.518  -2.001  1.00  0.00     0.304 C 
BRANCH  19  20
ATOM     20  O   UNL     1       0.577  -3.032  -0.649  1.00  0.00    -0.485 OA
BRANCH  20  21
ATOM     21  C   UNL     1       1.819  -3.480  -0.269  1.00  0.00     0.122 A 
ATOM     22  C   UNL     1       2.376  -1.640   1.573  1.00  0.00     0.048 C 
ATOM     23  C   UNL     1       2.583  -2.918   0.798  1.00  0.00    -0.009 A 
ATOM     24  C   UNL     1       3.654  -3.659   1.331  1.00  0.00     0.007 A 
ATOM     25  C   UNL     1       3.976  -4.913   0.847  1.00  0.00     0.001 A 
ATOM     26  C   UNL     1       2.174  -4.740  -0.760  1.00  0.00     0.047 A 
ATOM     27  C   UNL     1       3.242  -5.450  -0.202  1.00  0.00     0.004 A 
ENDBRANCH  20  21
ENDBRANCH  19  20
ENDBRANCH  11  19
BRANCH  13  28
ATOM     28  C   UNL     1       1.496   0.617  -1.098  1.00  0.00     0.155 C 
BRANCH  28  29
ATOM     29  C   UNL     1       2.829   0.012  -1.570  1.00  0.00     0.131 C 
ATOM     30  C   UNL     1       4.025   0.619  -0.854  1.00  0.00     0.040 C 
BRANCH  29  31
ATOM     31  O   UNL     1       2.957   0.171  -2.987  1.00  0.00    -0.392 OA
ATOM     32  H   UNL     1       2.967   1.115  -3.207  1.00  0.00     0.211 HD
ENDBRANCH  29  31
ENDBRANCH  28  29
ENDBRANCH  13  28
ENDBRANCH   8  10
ENDBRANCH   7   8
ENDBRANCH   6   7
ENDBRANCH   5   6
ENDBRANCH   4   5
ENDBRANCH   3   4
ENDBRANCH   2   3
ENDBRANCH   1   2
BRANCH   1  33
ATOM     33  C   UNL     1      -6.442   3.768  -0.245  1.00  0.00     0.188 C 
BRANCH  33  34
ATOM     34  C   UNL     1      -7.954   3.927  -0.093  1.00  0.00     0.188 C 
BRANCH  34  35
ATOM     35  O   UNL     1      -8.744   2.963  -0.757  1.00  0.00    -0.376 OA
BRANCH  35  36
ATOM     36  C   UNL     1      -8.390   2.688  -2.112  1.00  0.00     0.202 C 
BRANCH  36  37
ATOM     37  C   UNL     1      -7.626   3.746  -2.994  1.00  0.00     0.261 C 
BRANCH  37  38
ATOM     38  O   UNL     1      -7.920   5.140  -2.616  1.00  0.00    -0.460 OA
BRANCH  38  39
ATOM     39  C   UNL     1      -7.150   6.213  -3.007  1.00  0.00     0.338 C 
ATOM     40  O   UNL     1      -7.231   6.718  -4.116  1.00  0.00    -0.246 OA
BRANCH  39  41
ATOM     41  C   UNL     1      -6.294   6.822  -1.909  1.00  0.00     0.060 A 
ATOM     42  C   UNL     1      -5.026   7.345  -2.182  1.00  0.00     0.016 A 
ATOM     43  C   UNL     1      -6.688   6.839  -0.575  1.00  0.00     0.016 A 
ATOM     44  C   UNL     1      -4.087   7.541  -1.143  1.00  0.00     0.010 A 
ATOM     45  C   UNL     1      -5.726   6.900   0.446  1.00  0.00     0.010 A 
ATOM     46  C   UNL     1      -4.376   7.125   0.155  1.00  0.00    -0.014 A 
BRANCH  46  47
ATOM     47  C   UNL     1      -3.349   6.624   1.116  1.00  0.00     0.031 A 
ATOM     48  C   UNL     1      -3.420   6.879   2.610  1.00  0.00     0.074 A 
ATOM     49  C   UNL     1      -2.574   5.578   0.700  1.00  0.00     0.049 A 
ATOM     50  N   UNL     1      -2.607   6.367   3.483  1.00  0.00    -0.248 NA
ATOM     51  C   UNL     1      -4.418   7.724   3.262  1.00  0.00     0.031 C 
ATOM     52  C   UNL     1      -2.017   4.549   1.571  1.00  0.00     0.029 A 
ATOM     53  N   UNL     1      -2.114   5.167  -0.563  1.00  0.00    -0.354 N 
ATOM     54  C   UNL     1      -3.162   6.479   4.743  1.00  0.00     0.074 A 
ATOM     55  C   UNL     1      -4.221   7.440   4.560  1.00  0.00     0.031 C 
ATOM     56  C   UNL     1      -1.275   3.683   0.881  1.00  0.00     0.029 A 
ATOM     57  C   UNL     1      -1.006   4.321  -0.371  1.00  0.00     0.049 A 
ATOM     58  H   UNL     1      -2.500   5.426  -1.431  1.00  0.00     0.167 HD
ATOM     59  C   UNL     1      -2.739   5.649   5.751  1.00  0.00     0.034 A 
ATOM     60  C   UNL     1       0.272   4.530  -0.807  1.00  0.00     0.034 A 
ATOM     61  C   UNL     1      -1.532   4.860   5.367  1.00  0.00     0.049 A 
ATOM     62  C   UNL     1       1.272   4.660   0.345  1.00  0.00     0.074 A 
ATOM     63  C   UNL     1      -1.195   3.513   5.392  1.00  0.00     0.029 A 
ATOM     64  N   UNL     1      -0.449   5.498   4.755  1.00  0.00    -0.354 N 
ATOM     65  N   UNL     1       0.920   4.624   1.606  1.00  0.00    -0.248 NA
ATOM     66  C   UNL     1       2.719   4.811   0.222  1.00  0.00     0.031 C 
ATOM     67  C   UNL     1       0.041   3.341   4.704  1.00  0.00     0.029 A 
ATOM     68  C   UNL     1       0.507   4.590   4.331  1.00  0.00     0.049 A 
ATOM     69  H   UNL     1      -0.375   6.473   4.640  1.00  0.00     0.167 HD
ATOM     70  C   UNL     1       1.973   4.862   2.438  1.00  0.00     0.074 A 
ATOM     71  C   UNL     1       3.097   4.913   1.515  1.00  0.00     0.031 C 
ATOM     72  C   UNL     1       1.789   5.046   3.787  1.00  0.00     0.034 A 
BRANCH  59  73
ATOM     73  C   UNL     1      -3.472   5.379   7.089  1.00  0.00     0.023 A 
ATOM     74  C   UNL     1      -2.826   4.534   8.029  1.00  0.00     0.012 A 
ATOM     75  C   UNL     1      -4.771   5.809   7.473  1.00  0.00     0.148 A 
ATOM     76  C   UNL     1      -3.424   4.107   9.226  1.00  0.00     0.002 A 
ATOM     77  C   UNL     1      -5.338   5.449   8.710  1.00  0.00     0.091 A 
ATOM     78  F   UNL     1      -5.516   6.520   6.625  1.00  0.00    -0.205 F 
ATOM     79  C   UNL     1      -4.678   4.574   9.575  1.00  0.00     0.022 A 
BRANCH  77  80
ATOM     80  S   UNL     1      -6.928   6.082   9.295  1.00  0.00     0.127 S 
ATOM     81  O   UNL     1      -7.710   4.857   9.462  1.00  0.00    -0.237 OA
ATOM     82  O   UNL     1      -6.558   6.739  10.550  1.00  0.00    -0.237 OA
ATOM     83  O   UNL     1      -7.414   6.984   8.259  1.00  0.00    -0.744 OA
ENDBRANCH  77  80
ENDBRANCH  59  73
BRANCH  60  84
ATOM     84  C   UNL     1       0.318   5.045  -2.201  1.00  0.00     0.023 A 
ATOM     85  C   UNL     1      -0.171   4.121  -3.159  1.00  0.00     0.012 A 
ATOM     86  C   UNL     1       0.167   6.417  -2.447  1.00  0.00     0.148 A 
ATOM     87  C   UNL     1      -1.041   4.540  -4.165  1.00  0.00     0.002 A 
ATOM     88  C   UNL     1      -0.696   6.830  -3.463  1.00  0.00     0.091 A 
ATOM     89  F   UNL     1       0.748   7.284  -1.608  1.00  0.00    -0.205 F 
ATOM     90  C   UNL     1      -1.354   5.889  -4.275  1.00  0.00     0.022 A 
BRANCH  88  91
ATOM     91  S   UNL     1      -1.173   8.557  -3.614  1.00  0.00     0.127 S 
ATOM     92  O   UNL     1      -0.180   9.062  -4.555  1.00  0.00    -0.237 OA
ATOM     93  O   UNL     1      -2.535   8.467  -4.139  1.00  0.00    -0.237 OA
ATOM     94  O   UNL     1      -1.099   9.067  -2.252  1.00  0.00    -0.744 OA
ENDBRANCH  88  91
ENDBRANCH  60  84
BRANCH  72  95
ATOM     95  C   UNL     1       2.781   5.681   4.759  1.00  0.00     0.023 A 
ATOM     96  C   UNL     1       3.953   6.324   4.325  1.00  0.00     0.012 A 
ATOM     97  C   UNL     1       2.478   5.801   6.148  1.00  0.00     0.148 A 
ATOM     98  C   UNL     1       4.788   7.026   5.204  1.00  0.00     0.002 A 
ATOM     99  C   UNL     1       3.252   6.589   6.996  1.00  0.00     0.091 A 
ATOM    100  F   UNL     1       1.445   5.132   6.676  1.00  0.00    -0.205 F 
ATOM    101  C   UNL     1       4.423   7.185   6.532  1.00  0.00     0.022 A 
BRANCH  99 102
ATOM    102  S   UNL     1       2.716   6.999   8.666  1.00  0.00     0.127 S 
ATOM    103  O   UNL     1       3.564   6.125   9.473  1.00  0.00    -0.237 OA
ATOM    104  O   UNL     1       3.050   8.422   8.752  1.00  0.00    -0.237 OA
ATOM    105  O   UNL     1       1.289   6.716   8.703  1.00  0.00    -0.744 OA
ENDBRANCH  99 102
ENDBRANCH  72  95
ENDBRANCH  46  47
ENDBRANCH  39  41
ENDBRANCH  38  39
ENDBRANCH  37  38
ENDBRANCH  36  37
ENDBRANCH  35  36
ENDBRANCH  34  35
ENDBRANCH  33  34
ENDBRANCH   1  33
TORSDOF 29
