REMARK SMILES Cc1cc(F)ccc1S(=O)(=O)N[C@@H](Cc1c[nH]c2ccccc12)C(=O)OCCOCCOCCOCCOC(=O)c1ccc(-c2c3nc(c(-c4cccc(S(=O)(=O)[O-])c4F)c4ccc([nH]4)c(-c4cccc(S(=O)(=O)[O-])c4F)c4nc(c(-c5cccc(S(=O)(=O)[O-])c5F)c5ccc2[nH]5)C=C4)C=C3)cc1
REMARK SMILES IDX 32 1 31 2 30 3 29 4 28 5 27 6 26 7 24 8 25 9 13 10 12 11
REMARK SMILES IDX 9 13 10 14 11 15 8 16 1 17 2 18 3 19 4 20 7 21 5 22 6 23
REMARK SMILES IDX 14 24 15 25 16 26 23 27 17 28 18 29 22 30 19 32 21 33 20 34
REMARK SMILES IDX 33 35 34 36 35 37 36 38 37 39 38 40 39 41 40 42 41 43 42 44
REMARK SMILES IDX 103 45 43 46 102 47 44 48 45 49 46 50 96 51 47 52 101 53
REMARK SMILES IDX 95 54 97 55 48 56 100 57 94 58 93 59 49 61 81 62 61 63 80 64
REMARK SMILES IDX 62 65 65 66 79 67 98 68 63 69 64 70 78 72 99 73 66 74 50 75
REMARK SMILES IDX 51 76 59 77 52 78 54 79 60 80 53 81 55 82 56 83 57 84 58 85
REMARK SMILES IDX 82 86 83 87 91 88 84 89 86 90 92 91 85 92 87 93 88 94 89 95
REMARK SMILES IDX 90 96 67 97 68 98 76 99 69 100 71 101 77 102 70 103 72 104
REMARK SMILES IDX 73 105 74 106 75 107
REMARK H PARENT 12 12 17 31 97 60 65 71
REMARK Flexibility Score: inf
ROOT
ATOM      1  O   UNL     1       7.051   1.336  -1.190  1.00  0.00    -0.377 OA
ENDROOT
BRANCH   1   2
ATOM      2  C   UNL     1       5.652   1.522  -1.241  1.00  0.00     0.188 C 
BRANCH   2   3
ATOM      3  C   UNL     1       5.147   2.760  -0.468  1.00  0.00     0.188 C 
BRANCH   3   4
ATOM      4  O   UNL     1       6.052   3.695   0.102  1.00  0.00    -0.376 OA
BRANCH   4   5
ATOM      5  C   UNL     1       7.216   3.215   0.756  1.00  0.00     0.202 C 
BRANCH   5   6
ATOM      6  C   UNL     1       7.133   2.054   1.761  1.00  0.00     0.261 C 
BRANCH   6   7
ATOM      7  O   UNL     1       6.126   1.053   1.530  1.00  0.00    -0.462 OA
BRANCH   7   8
ATOM      8  C   UNL     1       5.066   1.024   2.385  1.00  0.00     0.324 C 
ATOM      9  O   UNL     1       4.846   1.874   3.242  1.00  0.00    -0.250 OA
BRANCH   8  10
ATOM     10  C   UNL     1       4.191  -0.224   2.208  1.00  0.00     0.184 C 
BRANCH  10  11
ATOM     11  N   UNL     1       4.070  -0.655   0.795  1.00  0.00    -0.196 NA
ATOM     12  H   UNL     1       3.952   0.201   0.252  1.00  0.00     0.142 HD
BRANCH  11  13
ATOM     13  S   UNL     1       2.894  -1.708   0.248  1.00  0.00     0.241 S 
ATOM     14  O   UNL     1       2.734  -2.736   1.252  1.00  0.00    -0.207 OA
ATOM     15  O   UNL     1       3.253  -2.028  -1.115  1.00  0.00    -0.207 OA
BRANCH  13  16
ATOM     16  C   UNL     1       1.298  -0.899   0.129  1.00  0.00     0.085 A 
ATOM     17  C   UNL     1       2.128   1.500  -0.216  1.00  0.00     0.046 C 
ATOM     18  C   UNL     1       1.064   0.475  -0.036  1.00  0.00    -0.028 A 
ATOM     19  C   UNL     1      -0.267   0.940  -0.039  1.00  0.00     0.044 A 
ATOM     20  C   UNL     1      -1.334   0.053   0.043  1.00  0.00     0.123 A 
ATOM     21  C   UNL     1       0.198  -1.782   0.185  1.00  0.00     0.025 A 
ATOM     22  F   UNL     1      -2.587   0.524   0.019  1.00  0.00    -0.207 F 
ATOM     23  C   UNL     1      -1.113  -1.309   0.134  1.00  0.00     0.040 A 
ENDBRANCH  13  16
ENDBRANCH  11  13
ENDBRANCH  10  11
BRANCH  10  24
ATOM     24  C   UNL     1       4.724  -1.298   3.167  1.00  0.00     0.069 C 
BRANCH  24  25
ATOM     25  C   UNL     1       6.016  -1.969   2.784  1.00  0.00    -0.020 A 
ATOM     26  C   UNL     1       7.288  -1.425   2.813  1.00  0.00     0.087 A 
ATOM     27  C   UNL     1       6.183  -3.350   2.428  1.00  0.00     0.003 A 
ATOM     28  N   UNL     1       8.187  -2.376   2.404  1.00  0.00    -0.361 N 
ATOM     29  C   UNL     1       7.541  -3.568   2.199  1.00  0.00     0.046 A 
ATOM     30  C   UNL     1       5.307  -4.448   2.313  1.00  0.00     0.010 A 
ATOM     31  H   UNL     1       9.152  -2.225   2.277  1.00  0.00     0.166 HD
ATOM     32  C   UNL     1       8.068  -4.817   1.853  1.00  0.00     0.026 A 
ATOM     33  C   UNL     1       5.815  -5.708   1.979  1.00  0.00     0.001 A 
ATOM     34  C   UNL     1       7.176  -5.887   1.753  1.00  0.00     0.002 A 
ENDBRANCH  24  25
ENDBRANCH  10  24
ENDBRANCH   8  10
ENDBRANCH   7   8
ENDBRANCH   6   7
ENDBRANCH   5   6
ENDBRANCH   4   5
ENDBRANCH   3   4
ENDBRANCH   2   3
ENDBRANCH   1   2
BRANCH   1  35
ATOM     35  C   UNL     1       7.733   1.723  -2.376  1.00  0.00     0.188 C 
BRANCH  35  36
ATOM     36  C   UNL     1       7.391   3.126  -2.920  1.00  0.00     0.188 C 
BRANCH  36  37
ATOM     37  O   UNL     1       5.999   3.325  -3.163  1.00  0.00    -0.376 OA
BRANCH  37  38
ATOM     38  C   UNL     1       5.517   3.220  -4.494  1.00  0.00     0.202 C 
BRANCH  38  39
ATOM     39  C   UNL     1       5.487   1.820  -5.130  1.00  0.00     0.261 C 
BRANCH  39  40
ATOM     40  O   UNL     1       6.735   1.116  -5.182  1.00  0.00    -0.460 OA
BRANCH  40  41
ATOM     41  C   UNL     1       7.761   1.698  -5.837  1.00  0.00     0.338 C 
ATOM     42  O   UNL     1       7.733   2.750  -6.453  1.00  0.00    -0.246 OA
BRANCH  41  43
ATOM     43  C   UNL     1       8.992   0.955  -5.492  1.00  0.00     0.060 A 
ATOM     44  C   UNL     1      10.056   1.651  -4.901  1.00  0.00     0.016 A 
ATOM     45  C   UNL     1       9.088  -0.420  -5.722  1.00  0.00     0.016 A 
ATOM     46  C   UNL     1      11.233   0.981  -4.573  1.00  0.00     0.010 A 
ATOM     47  C   UNL     1      10.279  -1.084  -5.419  1.00  0.00     0.010 A 
ATOM     48  C   UNL     1      11.369  -0.378  -4.879  1.00  0.00    -0.014 A 
BRANCH  48  49
ATOM     49  C   UNL     1      12.712  -1.004  -4.846  1.00  0.00     0.031 A 
ATOM     50  C   UNL     1      13.477  -1.099  -6.138  1.00  0.00     0.074 A 
ATOM     51  C   UNL     1      13.245  -1.472  -3.703  1.00  0.00     0.049 A 
ATOM     52  N   UNL     1      14.644  -1.636  -6.373  1.00  0.00    -0.248 NA
ATOM     53  C   UNL     1      12.837  -0.507  -7.326  1.00  0.00     0.031 C 
ATOM     54  C   UNL     1      12.611  -1.419  -2.388  1.00  0.00     0.029 A 
ATOM     55  N   UNL     1      14.440  -2.110  -3.478  1.00  0.00    -0.354 N 
ATOM     56  C   UNL     1      14.862  -1.481  -7.737  1.00  0.00     0.074 A 
ATOM     57  C   UNL     1      13.706  -0.803  -8.279  1.00  0.00     0.031 C 
ATOM     58  C   UNL     1      13.411  -2.031  -1.496  1.00  0.00     0.029 A 
ATOM     59  C   UNL     1      14.596  -2.544  -2.183  1.00  0.00     0.049 A 
ATOM     60  H   UNL     1      15.120  -2.244  -4.178  1.00  0.00     0.167 HD
ATOM     61  C   UNL     1      15.932  -1.862  -8.472  1.00  0.00     0.034 A 
ATOM     62  C   UNL     1      15.569  -3.294  -1.627  1.00  0.00     0.034 A 
ATOM     63  C   UNL     1      17.085  -2.524  -7.929  1.00  0.00     0.049 A 
ATOM     64  C   UNL     1      16.733  -3.739  -2.479  1.00  0.00     0.074 A 
ATOM     65  C   UNL     1      18.242  -2.908  -8.583  1.00  0.00     0.029 A 
ATOM     66  N   UNL     1      17.221  -2.919  -6.608  1.00  0.00    -0.354 N 
ATOM     67  N   UNL     1      16.979  -3.486  -3.742  1.00  0.00    -0.248 NA
ATOM     68  C   UNL     1      17.770  -4.549  -1.820  1.00  0.00     0.031 C 
ATOM     69  C   UNL     1      19.060  -3.573  -7.666  1.00  0.00     0.029 A 
ATOM     70  C   UNL     1      18.434  -3.559  -6.430  1.00  0.00     0.049 A 
ATOM     71  H   UNL     1      16.553  -2.767  -5.901  1.00  0.00     0.167 HD
ATOM     72  C   UNL     1      18.216  -4.064  -4.015  1.00  0.00     0.074 A 
ATOM     73  C   UNL     1      18.675  -4.666  -2.781  1.00  0.00     0.031 C 
ATOM     74  C   UNL     1      18.905  -4.103  -5.182  1.00  0.00     0.034 A 
BRANCH  61  75
ATOM     75  C   UNL     1      15.909  -1.569  -9.948  1.00  0.00     0.023 A 
ATOM     76  C   UNL     1      16.062  -0.244 -10.405  1.00  0.00     0.012 A 
ATOM     77  C   UNL     1      15.800  -2.616 -10.882  1.00  0.00     0.148 A 
ATOM     78  C   UNL     1      16.080   0.035 -11.771  1.00  0.00     0.002 A 
ATOM     79  C   UNL     1      15.868  -2.336 -12.241  1.00  0.00     0.091 A 
ATOM     80  F   UNL     1      15.631  -3.865 -10.424  1.00  0.00    -0.205 F 
ATOM     81  C   UNL     1      15.996  -1.010 -12.687  1.00  0.00     0.022 A 
BRANCH  79  82
ATOM     82  S   UNL     1      15.851  -3.619 -13.497  1.00  0.00     0.127 S 
ATOM     83  O   UNL     1      14.572  -3.366 -14.159  1.00  0.00    -0.237 OA
ATOM     84  O   UNL     1      17.029  -3.279 -14.295  1.00  0.00    -0.237 OA
ATOM     85  O   UNL     1      15.942  -4.885 -12.783  1.00  0.00    -0.744 OA
ENDBRANCH  79  82
ENDBRANCH  61  75
BRANCH  62  86
ATOM     86  C   UNL     1      15.503  -3.666  -0.185  1.00  0.00     0.023 A 
ATOM     87  C   UNL     1      16.462  -3.157   0.713  1.00  0.00     0.012 A 
ATOM     88  C   UNL     1      14.502  -4.529   0.300  1.00  0.00     0.148 A 
ATOM     89  C   UNL     1      16.450  -3.535   2.057  1.00  0.00     0.002 A 
ATOM     90  C   UNL     1      14.456  -4.849   1.652  1.00  0.00     0.091 A 
ATOM     91  F   UNL     1      13.608  -5.020  -0.571  1.00  0.00    -0.205 F 
ATOM     92  C   UNL     1      15.443  -4.372   2.528  1.00  0.00     0.022 A 
BRANCH  90  93
ATOM     93  S   UNL     1      13.108  -5.792   2.371  1.00  0.00     0.127 S 
ATOM     94  O   UNL     1      13.771  -7.046   2.717  1.00  0.00    -0.237 OA
ATOM     95  O   UNL     1      12.733  -4.953   3.510  1.00  0.00    -0.237 OA
ATOM     96  O   UNL     1      12.087  -5.876   1.335  1.00  0.00    -0.744 OA
ENDBRANCH  90  93
ENDBRANCH  62  86
BRANCH  74  97
ATOM     97  C   UNL     1      20.260  -4.764  -5.181  1.00  0.00     0.023 A 
ATOM     98  C   UNL     1      20.366  -6.164  -5.065  1.00  0.00     0.012 A 
ATOM     99  C   UNL     1      21.426  -3.996  -5.375  1.00  0.00     0.148 A 
ATOM    100  C   UNL     1      21.615  -6.785  -5.107  1.00  0.00     0.002 A 
ATOM    101  C   UNL     1      22.660  -4.626  -5.470  1.00  0.00     0.091 A 
ATOM    102  F   UNL     1      21.305  -2.664  -5.469  1.00  0.00    -0.205 F 
ATOM    103  C   UNL     1      22.758  -6.019  -5.321  1.00  0.00     0.022 A 
BRANCH 101 104
ATOM    104  S   UNL     1      24.173  -3.733  -5.847  1.00  0.00     0.127 S 
ATOM    105  O   UNL     1      24.887  -3.808  -4.573  1.00  0.00    -0.237 OA
ATOM    106  O   UNL     1      24.751  -4.543  -6.920  1.00  0.00    -0.237 OA
ATOM    107  O   UNL     1      23.761  -2.396  -6.252  1.00  0.00    -0.744 OA
ENDBRANCH 101 104
ENDBRANCH  74  97
ENDBRANCH  48  49
ENDBRANCH  41  43
ENDBRANCH  40  41
ENDBRANCH  39  40
ENDBRANCH  38  39
ENDBRANCH  37  38
ENDBRANCH  36  37
ENDBRANCH  35  36
ENDBRANCH   1  35
TORSDOF 28
