REMARK SMILES COc1ccccc1-c1nnc(S[C@@H](C)C(=O)OCCOCCOCCOCCOC(=O)c2ccc(-c3c4nc(c(-c5cccc(S(=O)(=O)[O-])c5F)c5ccc([nH]5)c(-c5cccc(S(=O)(=O)[O-])c5F)c5nc(c(-c6cccc(S(=O)(=O)[O-])c6F)c6ccc3[nH]6)C=C5)C=C4)cc2)n1-c1ccccc1
REMARK SMILES IDX 23 1 22 2 21 3 20 4 19 5 18 6 16 7 17 8 14 9 15 10 13 11
REMARK SMILES IDX 12 12 9 13 10 14 96 15 11 16 8 17 3 18 4 19 5 20 7 21 6 22
REMARK SMILES IDX 2 23 1 24 97 25 98 26 102 27 99 28 101 29 100 30 24 31 25 32
REMARK SMILES IDX 26 33 27 34 28 35 29 36 30 37 31 38 32 39 33 40 34 41 95 42
REMARK SMILES IDX 35 43 94 44 36 45 37 46 38 47 88 48 39 49 93 50 87 51 89 52
REMARK SMILES IDX 40 53 92 54 86 55 85 56 41 58 73 59 53 60 72 61 54 62 57 63
REMARK SMILES IDX 71 64 90 65 55 66 56 67 70 69 91 70 58 71 42 72 43 73 51 74
REMARK SMILES IDX 44 75 46 76 52 77 45 78 47 79 48 80 49 81 50 82 74 83 75 84
REMARK SMILES IDX 83 85 76 86 78 87 84 88 77 89 79 90 80 91 81 92 82 93 59 94
REMARK SMILES IDX 60 95 68 96 61 97 63 98 69 99 62 100 64 101 65 102 66 103
REMARK SMILES IDX 67 104
REMARK H PARENT 89 57 57 68
REMARK Flexibility Score: inf
ROOT
ATOM      1  C   UNL     1       6.758   3.303  -0.938  1.00  0.00     0.188 C 
ENDROOT
BRANCH   1   2
ATOM      2  C   UNL     1       6.671   4.648  -1.696  1.00  0.00     0.188 C 
BRANCH   2   3
ATOM      3  O   UNL     1       6.363   5.856  -1.000  1.00  0.00    -0.376 OA
BRANCH   3   4
ATOM      4  C   UNL     1       5.307   5.848  -0.048  1.00  0.00     0.202 C 
BRANCH   4   5
ATOM      5  C   UNL     1       3.949   5.325  -0.518  1.00  0.00     0.261 C 
BRANCH   5   6
ATOM      6  O   UNL     1       4.001   3.988  -1.061  1.00  0.00    -0.462 OA
BRANCH   6   7
ATOM      7  C   UNL     1       3.397   3.801  -2.263  1.00  0.00     0.319 C 
ATOM      8  O   UNL     1       2.734   4.674  -2.820  1.00  0.00    -0.251 OA
BRANCH   7   9
ATOM      9  C   UNL     1       3.798   2.507  -2.961  1.00  0.00     0.161 C 
ATOM     10  C   UNL     1       2.982   2.345  -4.255  1.00  0.00     0.032 C 
BRANCH   9  11
ATOM     11  S   UNL     1       3.699   0.889  -2.173  1.00  0.00    -0.071 SA
BRANCH  11  12
ATOM     12  C   UNL     1       3.567   0.950  -0.458  1.00  0.00     0.196 A 
ATOM     13  C   UNL     1       2.713   0.927   1.566  1.00  0.00     0.173 A 
ATOM     14  N   UNL     1       3.858   0.273   1.593  1.00  0.00    -0.129 NA
ATOM     15  N   UNL     1       2.530   1.469   0.294  1.00  0.00    -0.270 N 
ATOM     16  N   UNL     1       4.374   0.263   0.322  1.00  0.00    -0.122 NA
BRANCH  13  17
ATOM     17  C   UNL     1       1.766   1.034   2.679  1.00  0.00     0.062 A 
ATOM     18  C   UNL     1       0.373   0.895   2.521  1.00  0.00     0.129 A 
ATOM     19  C   UNL     1      -0.493   1.285   3.545  1.00  0.00     0.047 A 
ATOM     20  C   UNL     1       0.017   1.722   4.766  1.00  0.00     0.004 A 
ATOM     21  C   UNL     1       2.264   1.403   3.938  1.00  0.00     0.016 A 
ATOM     22  C   UNL     1       1.394   1.749   4.974  1.00  0.00     0.001 A 
BRANCH  18  23
ATOM     23  O   UNL     1      -0.233   0.517   1.348  1.00  0.00    -0.496 OA
ATOM     24  C   UNL     1       0.023  -0.846   1.009  1.00  0.00     0.278 C 
ENDBRANCH  18  23
ENDBRANCH  13  17
BRANCH  15  25
ATOM     25  C   UNL     1       1.541   2.410  -0.083  1.00  0.00     0.050 A 
ATOM     26  C   UNL     1       0.843   2.281  -1.285  1.00  0.00     0.027 A 
ATOM     27  C   UNL     1       1.325   3.523   0.742  1.00  0.00     0.027 A 
ATOM     28  C   UNL     1       0.010   3.315  -1.708  1.00  0.00     0.002 A 
ATOM     29  C   UNL     1       0.488   4.550   0.314  1.00  0.00     0.002 A 
ATOM     30  C   UNL     1      -0.147   4.457  -0.922  1.00  0.00     0.000 A 
ENDBRANCH  15  25
ENDBRANCH  11  12
ENDBRANCH   9  11
ENDBRANCH   7   9
ENDBRANCH   6   7
ENDBRANCH   5   6
ENDBRANCH   4   5
ENDBRANCH   3   4
ENDBRANCH   2   3
ENDBRANCH   1   2
BRANCH   1  31
ATOM     31  O   UNL     1       6.328   3.361   0.413  1.00  0.00    -0.377 OA
BRANCH  31  32
ATOM     32  C   UNL     1       7.398   3.302   1.350  1.00  0.00     0.188 C 
BRANCH  32  33
ATOM     33  C   UNL     1       8.424   4.453   1.249  1.00  0.00     0.188 C 
BRANCH  33  34
ATOM     34  O   UNL     1       8.975   4.638  -0.060  1.00  0.00    -0.376 OA
BRANCH  34  35
ATOM     35  C   UNL     1      10.325   4.251  -0.287  1.00  0.00     0.202 C 
BRANCH  35  36
ATOM     36  C   UNL     1      10.502   2.757  -0.574  1.00  0.00     0.261 C 
BRANCH  36  37
ATOM     37  O   UNL     1       9.984   1.932   0.459  1.00  0.00    -0.460 OA
BRANCH  37  38
ATOM     38  C   UNL     1      10.508   2.152   1.681  1.00  0.00     0.338 C 
ATOM     39  O   UNL     1      11.383   2.946   1.974  1.00  0.00    -0.246 OA
BRANCH  38  40
ATOM     40  C   UNL     1       9.884   1.243   2.649  1.00  0.00     0.060 A 
ATOM     41  C   UNL     1      10.347   1.389   3.956  1.00  0.00     0.016 A 
ATOM     42  C   UNL     1       9.266   0.074   2.184  1.00  0.00     0.016 A 
ATOM     43  C   UNL     1      10.568   0.239   4.664  1.00  0.00     0.010 A 
ATOM     44  C   UNL     1       9.486  -1.076   2.893  1.00  0.00     0.010 A 
ATOM     45  C   UNL     1      10.269  -0.974   4.040  1.00  0.00    -0.014 A 
BRANCH  45  46
ATOM     46  C   UNL     1      10.971  -2.132   4.531  1.00  0.00     0.031 A 
ATOM     47  C   UNL     1      10.370  -2.756   5.712  1.00  0.00     0.074 A 
ATOM     48  C   UNL     1      12.057  -2.607   3.893  1.00  0.00     0.049 A 
ATOM     49  N   UNL     1      10.891  -2.882   6.886  1.00  0.00    -0.248 NA
ATOM     50  C   UNL     1       8.970  -3.182   5.601  1.00  0.00     0.031 C 
ATOM     51  C   UNL     1      12.535  -2.243   2.554  1.00  0.00     0.029 A 
ATOM     52  N   UNL     1      12.861  -3.648   4.244  1.00  0.00    -0.354 N 
ATOM     53  C   UNL     1       9.960  -3.618   7.603  1.00  0.00     0.074 A 
ATOM     54  C   UNL     1       8.739  -3.615   6.838  1.00  0.00     0.031 C 
ATOM     55  C   UNL     1      13.342  -3.227   2.102  1.00  0.00     0.029 A 
ATOM     56  C   UNL     1      13.518  -4.209   3.159  1.00  0.00     0.049 A 
ATOM     57  H   UNL     1      12.964  -3.969   5.169  1.00  0.00     0.167 HD
ATOM     58  C   UNL     1      10.329  -4.401   8.646  1.00  0.00     0.034 A 
ATOM     59  C   UNL     1      14.045  -5.454   3.107  1.00  0.00     0.034 A 
ATOM     60  C   UNL     1      11.630  -4.069   9.160  1.00  0.00     0.049 A 
ATOM     61  C   UNL     1      14.235  -5.923   4.502  1.00  0.00     0.074 A 
ATOM     62  C   UNL     1      12.218  -2.926   9.663  1.00  0.00     0.029 A 
ATOM     63  N   UNL     1      12.657  -4.939   8.892  1.00  0.00    -0.354 N 
ATOM     64  N   UNL     1      15.104  -5.422   5.337  1.00  0.00    -0.248 NA
ATOM     65  C   UNL     1      13.192  -6.737   5.106  1.00  0.00     0.031 C 
ATOM     66  C   UNL     1      13.588  -3.006   9.281  1.00  0.00     0.029 A 
ATOM     67  C   UNL     1      13.758  -4.192   8.562  1.00  0.00     0.049 A 
ATOM     68  H   UNL     1      12.612  -5.922   8.930  1.00  0.00     0.167 HD
ATOM     69  C   UNL     1      14.486  -5.499   6.579  1.00  0.00     0.074 A 
ATOM     70  C   UNL     1      13.388  -6.441   6.393  1.00  0.00     0.031 C 
ATOM     71  C   UNL     1      14.731  -4.574   7.557  1.00  0.00     0.034 A 
BRANCH  58  72
ATOM     72  C   UNL     1       9.633  -5.687   8.982  1.00  0.00     0.023 A 
ATOM     73  C   UNL     1       9.869  -6.250  10.250  1.00  0.00     0.012 A 
ATOM     74  C   UNL     1       8.947  -6.483   8.035  1.00  0.00     0.148 A 
ATOM     75  C   UNL     1       9.449  -7.547  10.557  1.00  0.00     0.002 A 
ATOM     76  C   UNL     1       8.444  -7.729   8.380  1.00  0.00     0.091 A 
ATOM     77  F   UNL     1       8.885  -6.106   6.752  1.00  0.00    -0.205 F 
ATOM     78  C   UNL     1       8.716  -8.280   9.630  1.00  0.00     0.022 A 
BRANCH  76  79
ATOM     79  S   UNL     1       7.407  -8.626   7.221  1.00  0.00     0.127 S 
ATOM     80  O   UNL     1       8.394  -9.373   6.450  1.00  0.00    -0.237 OA
ATOM     81  O   UNL     1       6.571  -9.436   8.109  1.00  0.00    -0.237 OA
ATOM     82  O   UNL     1       6.675  -7.580   6.515  1.00  0.00    -0.744 OA
ENDBRANCH  76  79
ENDBRANCH  58  72
BRANCH  59  83
ATOM     83  C   UNL     1      14.152  -6.355   1.936  1.00  0.00     0.023 A 
ATOM     84  C   UNL     1      15.053  -7.435   1.975  1.00  0.00     0.012 A 
ATOM     85  C   UNL     1      13.232  -6.301   0.862  1.00  0.00     0.148 A 
ATOM     86  C   UNL     1      15.032  -8.430   0.989  1.00  0.00     0.002 A 
ATOM     87  C   UNL     1      13.241  -7.271  -0.136  1.00  0.00     0.091 A 
ATOM     88  F   UNL     1      12.280  -5.359   0.858  1.00  0.00    -0.205 F 
ATOM     89  C   UNL     1      14.131  -8.346  -0.069  1.00  0.00     0.022 A 
BRANCH  87  90
ATOM     90  S   UNL     1      12.122  -7.161  -1.540  1.00  0.00     0.127 S 
ATOM     91  O   UNL     1      12.900  -7.780  -2.615  1.00  0.00    -0.237 OA
ATOM     92  O   UNL     1      10.977  -7.944  -1.087  1.00  0.00    -0.237 OA
ATOM     93  O   UNL     1      11.896  -5.732  -1.726  1.00  0.00    -0.744 OA
ENDBRANCH  87  90
ENDBRANCH  59  83
BRANCH  71  94
ATOM     94  C   UNL     1      15.910  -3.642   7.392  1.00  0.00     0.023 A 
ATOM     95  C   UNL     1      16.001  -2.760   6.295  1.00  0.00     0.012 A 
ATOM     96  C   UNL     1      16.836  -3.505   8.444  1.00  0.00     0.148 A 
ATOM     97  C   UNL     1      17.004  -1.790   6.231  1.00  0.00     0.002 A 
ATOM     98  C   UNL     1      17.804  -2.505   8.399  1.00  0.00     0.091 A 
ATOM     99  F   UNL     1      16.740  -4.338   9.493  1.00  0.00    -0.205 F 
ATOM    100  C   UNL     1      17.898  -1.653   7.288  1.00  0.00     0.022 A 
BRANCH  98 101
ATOM    101  S   UNL     1      18.887  -2.188   9.798  1.00  0.00     0.127 S 
ATOM    102  O   UNL     1      20.092  -2.927   9.431  1.00  0.00    -0.237 OA
ATOM    103  O   UNL     1      19.033  -0.731   9.771  1.00  0.00    -0.237 OA
ATOM    104  O   UNL     1      18.168  -2.684  10.966  1.00  0.00    -0.744 OA
ENDBRANCH  98 101
ENDBRANCH  71  94
ENDBRANCH  45  46
ENDBRANCH  38  40
ENDBRANCH  37  38
ENDBRANCH  36  37
ENDBRANCH  35  36
ENDBRANCH  34  35
ENDBRANCH  33  34
ENDBRANCH  32  33
ENDBRANCH  31  32
ENDBRANCH   1  31
TORSDOF 28
