REMARK SMILES O=C(CCc1nc(-c2ccccc2)c(-c2ccccc2)o1)OCCOCCOCCOCCOC(=O)c1ccc(-c2c3nc(c(-c4cccc(S(=O)(=O)[O-])c4F)c4ccc([nH]4)c(-c4cccc(S(=O)(=O)[O-])c4F)c4nc(c(-c5cccc(S(=O)(=O)[O-])c5F)c5ccc2[nH]5)C=C4)C=C3)cc1
REMARK SMILES IDX 28 1 27 2 26 3 25 4 24 5 23 6 22 7 2 8 1 9 3 10 4 11 5 12
REMARK SMILES IDX 6 13 21 14 7 15 14 16 8 17 9 18 13 19 10 20 12 21 11 22
REMARK SMILES IDX 15 23 16 24 20 25 17 26 19 27 18 28 29 29 30 30 31 31 32 32
REMARK SMILES IDX 33 33 34 34 35 35 36 36 37 37 38 38 99 39 39 40 98 41 40 42
REMARK SMILES IDX 41 43 42 44 92 45 43 46 97 47 91 48 93 49 44 50 96 51 90 52
REMARK SMILES IDX 89 53 45 55 77 56 57 57 76 58 58 59 61 60 75 61 94 62 59 63
REMARK SMILES IDX 60 64 74 66 95 67 62 68 46 69 47 70 55 71 48 72 50 73 56 74
REMARK SMILES IDX 49 75 51 76 52 77 53 78 54 79 78 80 79 81 87 82 80 83 82 84
REMARK SMILES IDX 88 85 81 86 83 87 84 88 85 89 86 90 63 91 64 92 72 93 65 94
REMARK SMILES IDX 67 95 73 96 66 97 68 98 69 99 70 100 71 101
REMARK H PARENT 93 54 61 65
REMARK Flexibility Score: inf
ROOT
ATOM      1  O   UNL     1       2.896   3.011   0.300  1.00  0.00    -0.377 OA
ENDROOT
BRANCH   1   2
ATOM      2  C   UNL     1       1.800   2.670   1.127  1.00  0.00     0.188 C 
BRANCH   2   3
ATOM      3  C   UNL     1       1.903   1.252   1.694  1.00  0.00     0.188 C 
BRANCH   3   4
ATOM      4  O   UNL     1       3.200   0.674   1.754  1.00  0.00    -0.376 OA
BRANCH   4   5
ATOM      5  C   UNL     1       3.922   0.555   0.526  1.00  0.00     0.202 C 
BRANCH   5   6
ATOM      6  C   UNL     1       3.126   0.204  -0.738  1.00  0.00     0.261 C 
BRANCH   6   7
ATOM      7  O   UNL     1       2.146  -0.832  -0.564  1.00  0.00    -0.463 OA
BRANCH   7   8
ATOM      8  C   UNL     1       2.488  -2.133  -0.626  1.00  0.00     0.306 C 
ATOM      9  O   UNL     1       1.803  -2.938  -1.253  1.00  0.00    -0.252 OA
BRANCH   8  10
ATOM     10  C   UNL     1       3.586  -2.599   0.288  1.00  0.00     0.132 C 
BRANCH  10  11
ATOM     11  C   UNL     1       4.757  -3.251  -0.423  1.00  0.00     0.109 C 
BRANCH  11  12
ATOM     12  C   UNL     1       5.721  -2.407  -1.194  1.00  0.00     0.196 A 
ATOM     13  N   UNL     1       6.607  -2.840  -2.071  1.00  0.00    -0.213 NA
ATOM     14  O   UNL     1       5.745  -1.050  -1.009  1.00  0.00    -0.440 OA
ATOM     15  C   UNL     1       7.215  -1.692  -2.524  1.00  0.00     0.117 A 
ATOM     16  C   UNL     1       6.654  -0.586  -1.922  1.00  0.00     0.162 A 
BRANCH  15  17
ATOM     17  C   UNL     1       8.195  -1.638  -3.582  1.00  0.00     0.004 A 
ATOM     18  C   UNL     1       9.362  -0.874  -3.435  1.00  0.00     0.010 A 
ATOM     19  C   UNL     1       7.933  -2.278  -4.796  1.00  0.00     0.010 A 
ATOM     20  C   UNL     1      10.242  -0.726  -4.506  1.00  0.00     0.001 A 
ATOM     21  C   UNL     1       8.813  -2.123  -5.867  1.00  0.00     0.001 A 
ATOM     22  C   UNL     1       9.962  -1.344  -5.723  1.00  0.00     0.000 A 
ENDBRANCH  15  17
BRANCH  16  23
ATOM     23  C   UNL     1       6.718   0.845  -2.188  1.00  0.00     0.020 A 
ATOM     24  C   UNL     1       7.298   1.752  -1.294  1.00  0.00     0.012 A 
ATOM     25  C   UNL     1       6.291   1.314  -3.442  1.00  0.00     0.012 A 
ATOM     26  C   UNL     1       7.477   3.092  -1.666  1.00  0.00     0.001 A 
ATOM     27  C   UNL     1       6.463   2.650  -3.809  1.00  0.00     0.001 A 
ATOM     28  C   UNL     1       7.069   3.536  -2.925  1.00  0.00     0.000 A 
ENDBRANCH  16  23
ENDBRANCH  11  12
ENDBRANCH  10  11
ENDBRANCH   8  10
ENDBRANCH   7   8
ENDBRANCH   6   7
ENDBRANCH   5   6
ENDBRANCH   4   5
ENDBRANCH   3   4
ENDBRANCH   2   3
ENDBRANCH   1   2
BRANCH   1  29
ATOM     29  C   UNL     1       3.761   4.006   0.828  1.00  0.00     0.188 C 
BRANCH  29  30
ATOM     30  C   UNL     1       4.771   3.599   1.929  1.00  0.00     0.188 C 
BRANCH  30  31
ATOM     31  O   UNL     1       4.371   3.201   3.230  1.00  0.00    -0.376 OA
BRANCH  31  32
ATOM     32  C   UNL     1       3.362   3.854   3.971  1.00  0.00     0.202 C 
BRANCH  32  33
ATOM     33  C   UNL     1       3.277   5.382   4.102  1.00  0.00     0.261 C 
BRANCH  33  34
ATOM     34  O   UNL     1       3.488   6.114   2.893  1.00  0.00    -0.460 OA
BRANCH  34  35
ATOM     35  C   UNL     1       4.711   6.684   2.757  1.00  0.00     0.338 C 
ATOM     36  O   UNL     1       5.602   6.707   3.591  1.00  0.00    -0.246 OA
BRANCH  35  37
ATOM     37  C   UNL     1       4.908   7.065   1.339  1.00  0.00     0.060 A 
ATOM     38  C   UNL     1       6.115   6.698   0.723  1.00  0.00     0.016 A 
ATOM     39  C   UNL     1       3.913   7.720   0.608  1.00  0.00     0.016 A 
ATOM     40  C   UNL     1       6.347   7.015  -0.614  1.00  0.00     0.010 A 
ATOM     41  C   UNL     1       4.159   8.067  -0.722  1.00  0.00     0.010 A 
ATOM     42  C   UNL     1       5.390   7.750  -1.322  1.00  0.00    -0.014 A 
BRANCH  42  43
ATOM     43  C   UNL     1       5.775   8.441  -2.573  1.00  0.00     0.031 A 
ATOM     44  C   UNL     1       6.344   9.825  -2.444  1.00  0.00     0.074 A 
ATOM     45  C   UNL     1       5.571   7.894  -3.783  1.00  0.00     0.049 A 
ATOM     46  N   UNL     1       6.636  10.694  -3.373  1.00  0.00    -0.248 NA
ATOM     47  C   UNL     1       6.604  10.297  -1.072  1.00  0.00     0.031 C 
ATOM     48  C   UNL     1       5.030   6.561  -4.028  1.00  0.00     0.029 A 
ATOM     49  N   UNL     1       5.760   8.423  -5.036  1.00  0.00    -0.354 N 
ATOM     50  C   UNL     1       7.063  11.831  -2.699  1.00  0.00     0.074 A 
ATOM     51  C   UNL     1       7.012  11.537  -1.285  1.00  0.00     0.031 C 
ATOM     52  C   UNL     1       4.892   6.388  -5.355  1.00  0.00     0.029 A 
ATOM     53  C   UNL     1       5.294   7.615  -6.045  1.00  0.00     0.049 A 
ATOM     54  H   UNL     1       6.187   9.296  -5.196  1.00  0.00     0.167 HD
ATOM     55  C   UNL     1       7.453  13.021  -3.208  1.00  0.00     0.034 A 
ATOM     56  C   UNL     1       5.163   7.859  -7.365  1.00  0.00     0.034 A 
ATOM     57  C   UNL     1       7.494  13.315  -4.611  1.00  0.00     0.049 A 
ATOM     58  C   UNL     1       5.594   9.197  -7.915  1.00  0.00     0.074 A 
ATOM     59  C   UNL     1       7.906  14.477  -5.235  1.00  0.00     0.029 A 
ATOM     60  N   UNL     1       7.082  12.444  -5.609  1.00  0.00    -0.354 N 
ATOM     61  N   UNL     1       6.104  10.225  -7.280  1.00  0.00    -0.248 NA
ATOM     62  C   UNL     1       5.447   9.403  -9.364  1.00  0.00     0.031 C 
ATOM     63  C   UNL     1       7.715  14.320  -6.611  1.00  0.00     0.029 A 
ATOM     64  C   UNL     1       7.215  13.047  -6.845  1.00  0.00     0.049 A 
ATOM     65  H   UNL     1       6.744  11.532  -5.458  1.00  0.00     0.167 HD
ATOM     66  C   UNL     1       6.363  11.188  -8.251  1.00  0.00     0.074 A 
ATOM     67  C   UNL     1       5.969  10.614  -9.521  1.00  0.00     0.031 C 
ATOM     68  C   UNL     1       6.869  12.438  -8.104  1.00  0.00     0.034 A 
BRANCH  55  69
ATOM     69  C   UNL     1       7.842  14.090  -2.225  1.00  0.00     0.023 A 
ATOM     70  C   UNL     1       9.056  13.985  -1.516  1.00  0.00     0.012 A 
ATOM     71  C   UNL     1       6.997  15.191  -1.995  1.00  0.00     0.148 A 
ATOM     72  C   UNL     1       9.401  14.939  -0.560  1.00  0.00     0.002 A 
ATOM     73  C   UNL     1       7.369  16.161  -1.073  1.00  0.00     0.091 A 
ATOM     74  F   UNL     1       5.829  15.253  -2.651  1.00  0.00    -0.205 F 
ATOM     75  C   UNL     1       8.563  16.030  -0.345  1.00  0.00     0.022 A 
BRANCH  73  76
ATOM     76  S   UNL     1       6.383  17.633  -0.784  1.00  0.00     0.127 S 
ATOM     77  O   UNL     1       5.722  17.303   0.477  1.00  0.00    -0.237 OA
ATOM     78  O   UNL     1       7.404  18.677  -0.683  1.00  0.00    -0.237 OA
ATOM     79  O   UNL     1       5.509  17.756  -1.943  1.00  0.00    -0.744 OA
ENDBRANCH  73  76
ENDBRANCH  55  69
BRANCH  56  80
ATOM     80  C   UNL     1       4.598   6.807  -8.256  1.00  0.00     0.023 A 
ATOM     81  C   UNL     1       5.433   6.153  -9.182  1.00  0.00     0.012 A 
ATOM     82  C   UNL     1       3.248   6.418  -8.155  1.00  0.00     0.148 A 
ATOM     83  C   UNL     1       4.931   5.141 -10.002  1.00  0.00     0.002 A 
ATOM     84  C   UNL     1       2.768   5.372  -8.933  1.00  0.00     0.091 A 
ATOM     85  F   UNL     1       2.466   7.067  -7.281  1.00  0.00    -0.205 F 
ATOM     86  C   UNL     1       3.603   4.742  -9.868  1.00  0.00     0.022 A 
BRANCH  84  87
ATOM     87  S   UNL     1       1.115   4.697  -8.733  1.00  0.00     0.127 S 
ATOM     88  O   UNL     1       0.497   5.037 -10.012  1.00  0.00    -0.237 OA
ATOM     89  O   UNL     1       1.397   3.275  -8.541  1.00  0.00    -0.237 OA
ATOM     90  O   UNL     1       0.554   5.365  -7.566  1.00  0.00    -0.744 OA
ENDBRANCH  84  87
ENDBRANCH  56  80
BRANCH  68  91
ATOM     91  C   UNL     1       7.072  13.274  -9.341  1.00  0.00     0.023 A 
ATOM     92  C   UNL     1       5.966  13.869  -9.976  1.00  0.00     0.012 A 
ATOM     93  C   UNL     1       8.374  13.574  -9.790  1.00  0.00     0.148 A 
ATOM     94  C   UNL     1       6.151  14.739 -11.050  1.00  0.00     0.002 A 
ATOM     95  C   UNL     1       8.554  14.478 -10.829  1.00  0.00     0.091 A 
ATOM     96  F   UNL     1       9.412  12.983  -9.180  1.00  0.00    -0.205 F 
ATOM     97  C   UNL     1       7.443  15.055 -11.466  1.00  0.00     0.022 A 
BRANCH  95  98
ATOM     98  S   UNL     1      10.181  15.024 -11.361  1.00  0.00     0.127 S 
ATOM     99  O   UNL     1      10.300  14.376 -12.666  1.00  0.00    -0.237 OA
ATOM    100  O   UNL     1      10.020  16.477 -11.413  1.00  0.00    -0.237 OA
ATOM    101  O   UNL     1      11.114  14.555 -10.345  1.00  0.00    -0.744 OA
ENDBRANCH  95  98
ENDBRANCH  68  91
ENDBRANCH  42  43
ENDBRANCH  35  37
ENDBRANCH  34  35
ENDBRANCH  33  34
ENDBRANCH  32  33
ENDBRANCH  31  32
ENDBRANCH  30  31
ENDBRANCH  29  30
ENDBRANCH   1  29
TORSDOF 27
