REMARK SMILES C[C@@H]1Cc2cc(C(=O)NC3(C(=O)OCCOCCOCCOCCOC(=O)c4ccc(-c5c6nc(c(-c7cccc(S(=O)(=O)[O-])c7F)c7ccc([nH]7)c(-c7cccc(S(=O)(=O)[O-])c7F)c7nc(c(-c8cccc(S(=O)(=O)[O-])c8F)c8ccc5[nH]8)C=C7)C=C6)cc4)CCCCC3)ccc2N1S(C)(=O)=O
REMARK SMILES IDX 19 1 18 2 17 3 16 4 15 5 14 6 13 7 11 8 12 9 10 10 91 11
REMARK SMILES IDX 95 12 92 13 94 14 93 15 9 16 7 17 8 18 6 20 1 21 2 22 3 23
REMARK SMILES IDX 99 24 4 25 98 26 5 27 97 28 96 29 100 30 101 31 102 32
REMARK SMILES IDX 103 33 20 34 21 35 22 36 23 37 24 38 25 39 26 40 27 41 28 42
REMARK SMILES IDX 29 43 90 44 30 45 89 46 31 47 32 48 33 49 83 50 34 51 88 52
REMARK SMILES IDX 82 53 84 54 35 55 87 56 81 57 80 58 36 60 68 61 48 62 67 63
REMARK SMILES IDX 49 64 52 65 66 66 85 67 50 68 51 69 65 71 86 72 53 73 37 74
REMARK SMILES IDX 38 75 46 76 39 77 41 78 47 79 40 80 42 81 43 82 44 83 45 84
REMARK SMILES IDX 69 85 70 86 78 87 71 88 73 89 79 90 72 91 74 92 75 93 76 94
REMARK SMILES IDX 77 95 54 96 55 97 63 98 56 99 58 100 64 101 57 102 59 103
REMARK SMILES IDX 60 104 61 105 62 106
REMARK H PARENT 9 19 84 59 52 70
REMARK Flexibility Score: inf
ROOT
ATOM      1  O   UNL     1      -3.308  -8.766   2.260  1.00  0.00    -0.377 OA
ENDROOT
BRANCH   1   2
ATOM      2  C   UNL     1      -3.949  -7.500   2.221  1.00  0.00     0.188 C 
BRANCH   2   3
ATOM      3  C   UNL     1      -3.471  -6.467   1.196  1.00  0.00     0.188 C 
BRANCH   3   4
ATOM      4  O   UNL     1      -2.546  -6.979   0.250  1.00  0.00    -0.376 OA
BRANCH   4   5
ATOM      5  C   UNL     1      -1.190  -6.580   0.350  1.00  0.00     0.202 C 
BRANCH   5   6
ATOM      6  C   UNL     1      -0.292  -7.324   1.379  1.00  0.00     0.261 C 
BRANCH   6   7
ATOM      7  O   UNL     1      -0.687  -7.409   2.772  1.00  0.00    -0.461 OA
BRANCH   7   8
ATOM      8  C   UNL     1      -1.027  -6.236   3.332  1.00  0.00     0.331 C 
ATOM      9  O   UNL     1      -1.124  -5.241   2.630  1.00  0.00    -0.249 OA
BRANCH   8  10
ATOM     10  C   UNL     1      -1.256  -6.195   4.877  1.00  0.00     0.138 C 
ATOM     11  C   UNL     1      -0.014  -6.207   5.784  1.00  0.00     0.040 C 
ATOM     12  C   UNL     1      -2.081  -7.424   5.383  1.00  0.00     0.040 C 
ATOM     13  C   UNL     1       0.834  -7.458   5.630  1.00  0.00     0.003 C 
ATOM     14  C   UNL     1      -1.328  -8.764   5.335  1.00  0.00     0.003 C 
ATOM     15  C   UNL     1       0.046  -8.707   5.996  1.00  0.00     0.000 C 
BRANCH  10  16
ATOM     16  N   UNL     1      -2.043  -4.920   5.145  1.00  0.00    -0.336 N 
ATOM     17  C   UNL     1      -1.882  -3.573   4.812  1.00  0.00     0.252 C 
ATOM     18  O   UNL     1      -2.707  -2.776   5.266  1.00  0.00    -0.269 OA
ATOM     19  H   UNL     1      -2.856  -5.082   5.677  1.00  0.00     0.165 HD
BRANCH  17  20
ATOM     20  C   UNL     1      -0.875  -3.042   3.826  1.00  0.00     0.040 A 
ATOM     21  C   UNL     1       1.317   0.162  -0.186  1.00  0.00     0.032 C 
ATOM     22  C   UNL     1       0.602  -1.185  -0.281  1.00  0.00     0.101 C 
ATOM     23  C   UNL     1      -0.766  -1.200   0.445  1.00  0.00     0.063 C 
ATOM     24  N   UNL     1       1.484  -2.183   0.429  1.00  0.00    -0.267 N 
ATOM     25  C   UNL     1      -0.486  -1.995   1.679  1.00  0.00    -0.021 A 
ATOM     26  C   UNL     1       0.792  -2.546   1.629  1.00  0.00     0.055 A 
ATOM     27  C   UNL     1      -1.346  -2.261   2.750  1.00  0.00     0.019 A 
ATOM     28  C   UNL     1       1.307  -3.212   2.719  1.00  0.00     0.028 A 
ATOM     29  C   UNL     1       0.483  -3.400   3.838  1.00  0.00     0.016 A 
BRANCH  24  30
ATOM     30  S   UNL     1       2.096  -3.404  -0.591  1.00  0.00     0.232 S 
ATOM     31  C   UNL     1       3.553  -3.964   0.265  1.00  0.00     0.183 C 
ATOM     32  O   UNL     1       1.141  -4.488  -0.672  1.00  0.00    -0.207 OA
ATOM     33  O   UNL     1       2.559  -2.740  -1.796  1.00  0.00    -0.207 OA
ENDBRANCH  24  30
ENDBRANCH  17  20
ENDBRANCH  10  16
ENDBRANCH   8  10
ENDBRANCH   7   8
ENDBRANCH   6   7
ENDBRANCH   5   6
ENDBRANCH   4   5
ENDBRANCH   3   4
ENDBRANCH   2   3
ENDBRANCH   1   2
BRANCH   1  34
ATOM     34  C   UNL     1      -3.127  -9.477   1.031  1.00  0.00     0.188 C 
BRANCH  34  35
ATOM     35  C   UNL     1      -4.097  -9.255  -0.154  1.00  0.00     0.188 C 
BRANCH  35  36
ATOM     36  O   UNL     1      -5.317  -8.617   0.191  1.00  0.00    -0.376 OA
BRANCH  36  37
ATOM     37  C   UNL     1      -6.443  -9.450   0.413  1.00  0.00     0.202 C 
BRANCH  37  38
ATOM     38  C   UNL     1      -6.334 -10.484   1.543  1.00  0.00     0.261 C 
BRANCH  38  39
ATOM     39  O   UNL     1      -5.304 -11.478   1.413  1.00  0.00    -0.460 OA
BRANCH  39  40
ATOM     40  C   UNL     1      -5.253 -12.224   0.279  1.00  0.00     0.338 C 
ATOM     41  O   UNL     1      -6.034 -12.214  -0.637  1.00  0.00    -0.246 OA
BRANCH  40  42
ATOM     42  C   UNL     1      -3.922 -12.888   0.280  1.00  0.00     0.060 A 
ATOM     43  C   UNL     1      -3.521 -13.652   1.377  1.00  0.00     0.016 A 
ATOM     44  C   UNL     1      -3.046 -12.681  -0.795  1.00  0.00     0.016 A 
ATOM     45  C   UNL     1      -2.257 -14.245   1.380  1.00  0.00     0.010 A 
ATOM     46  C   UNL     1      -1.773 -13.260  -0.782  1.00  0.00     0.010 A 
ATOM     47  C   UNL     1      -1.384 -14.074   0.290  1.00  0.00    -0.014 A 
BRANCH  47  48
ATOM     48  C   UNL     1      -0.196 -14.954   0.166  1.00  0.00     0.031 A 
ATOM     49  C   UNL     1       1.197 -14.497   0.474  1.00  0.00     0.074 A 
ATOM     50  C   UNL     1      -0.417 -16.213  -0.258  1.00  0.00     0.049 A 
ATOM     51  N   UNL     1       2.296 -15.207   0.499  1.00  0.00    -0.248 NA
ATOM     52  C   UNL     1       1.393 -13.074   0.787  1.00  0.00     0.031 C 
ATOM     53  C   UNL     1      -1.728 -16.746  -0.643  1.00  0.00     0.029 A 
ATOM     54  N   UNL     1       0.437 -17.269  -0.436  1.00  0.00    -0.354 N 
ATOM     55  C   UNL     1       3.317 -14.328   0.833  1.00  0.00     0.074 A 
ATOM     56  C   UNL     1       2.708 -13.021   0.982  1.00  0.00     0.031 C 
ATOM     57  C   UNL     1      -1.593 -18.033  -0.991  1.00  0.00     0.029 A 
ATOM     58  C   UNL     1      -0.190 -18.413  -0.867  1.00  0.00     0.049 A 
ATOM     59  H   UNL     1       1.406 -17.214  -0.271  1.00  0.00     0.167 HD
ATOM     60  C   UNL     1       4.632 -14.597   1.018  1.00  0.00     0.034 A 
ATOM     61  C   UNL     1       0.301 -19.640  -1.124  1.00  0.00     0.034 A 
ATOM     62  C   UNL     1       5.225 -15.902   0.872  1.00  0.00     0.049 A 
ATOM     63  C   UNL     1       1.758 -19.908  -0.904  1.00  0.00     0.074 A 
ATOM     64  C   UNL     1       6.540 -16.275   1.099  1.00  0.00     0.029 A 
ATOM     65  N   UNL     1       4.557 -17.040   0.450  1.00  0.00    -0.354 N 
ATOM     66  N   UNL     1       2.681 -19.095  -0.452  1.00  0.00    -0.248 NA
ATOM     67  C   UNL     1       2.240 -21.265  -1.198  1.00  0.00     0.031 C 
ATOM     68  C   UNL     1       6.670 -17.634   0.800  1.00  0.00     0.029 A 
ATOM     69  C   UNL     1       5.432 -18.113   0.403  1.00  0.00     0.049 A 
ATOM     70  H   UNL     1       3.601 -17.081   0.218  1.00  0.00     0.167 HD
ATOM     71  C   UNL     1       3.848 -19.844  -0.388  1.00  0.00     0.074 A 
ATOM     72  C   UNL     1       3.513 -21.181  -0.833  1.00  0.00     0.031 C 
ATOM     73  C   UNL     1       5.085 -19.450  -0.004  1.00  0.00     0.034 A 
BRANCH  60  74
ATOM     74  C   UNL     1       5.535 -13.485   1.480  1.00  0.00     0.023 A 
ATOM     75  C   UNL     1       5.526 -13.130   2.844  1.00  0.00     0.012 A 
ATOM     76  C   UNL     1       6.489 -12.908   0.619  1.00  0.00     0.148 A 
ATOM     77  C   UNL     1       6.451 -12.216   3.346  1.00  0.00     0.002 A 
ATOM     78  C   UNL     1       7.423 -12.014   1.132  1.00  0.00     0.091 A 
ATOM     79  F   UNL     1       6.479 -13.262  -0.673  1.00  0.00    -0.205 F 
ATOM     80  C   UNL     1       7.405 -11.667   2.494  1.00  0.00     0.022 A 
BRANCH  78  81
ATOM     81  S   UNL     1       8.725 -11.278   0.136  1.00  0.00     0.127 S 
ATOM     82  O   UNL     1       8.371  -9.860   0.194  1.00  0.00    -0.237 OA
ATOM     83  O   UNL     1       9.927 -11.638   0.887  1.00  0.00    -0.237 OA
ATOM     84  O   UNL     1       8.618 -11.886  -1.183  1.00  0.00    -0.744 OA
ENDBRANCH  78  81
ENDBRANCH  60  74
BRANCH  61  85
ATOM     85  C   UNL     1      -0.634 -20.719  -1.535  1.00  0.00     0.023 A 
ATOM     86  C   UNL     1      -1.008 -21.696  -0.595  1.00  0.00     0.012 A 
ATOM     87  C   UNL     1      -1.214 -20.731  -2.818  1.00  0.00     0.148 A 
ATOM     88  C   UNL     1      -1.942 -22.677  -0.928  1.00  0.00     0.002 A 
ATOM     89  C   UNL     1      -2.170 -21.688  -3.131  1.00  0.00     0.091 A 
ATOM     90  F   UNL     1      -0.842 -19.782  -3.689  1.00  0.00    -0.205 F 
ATOM     91  C   UNL     1      -2.529 -22.667  -2.191  1.00  0.00     0.022 A 
BRANCH  89  92
ATOM     92  S   UNL     1      -3.050 -21.702  -4.696  1.00  0.00     0.127 S 
ATOM     93  O   UNL     1      -2.617 -22.974  -5.269  1.00  0.00    -0.237 OA
ATOM     94  O   UNL     1      -4.444 -21.668  -4.253  1.00  0.00    -0.237 OA
ATOM     95  O   UNL     1      -2.610 -20.513  -5.411  1.00  0.00    -0.744 OA
ENDBRANCH  89  92
ENDBRANCH  61  85
BRANCH  73  96
ATOM     96  C   UNL     1       6.191 -20.468  -0.033  1.00  0.00     0.023 A 
ATOM     97  C   UNL     1       6.789 -20.805  -1.263  1.00  0.00     0.012 A 
ATOM     98  C   UNL     1       6.716 -20.994   1.164  1.00  0.00     0.148 A 
ATOM     99  C   UNL     1       7.892 -21.655  -1.302  1.00  0.00     0.002 A 
ATOM    100  C   UNL     1       7.836 -21.815   1.120  1.00  0.00     0.091 A 
ATOM    101  F   UNL     1       6.122 -20.664   2.320  1.00  0.00    -0.205 F 
ATOM    102  C   UNL     1       8.423 -22.149  -0.112  1.00  0.00     0.022 A 
BRANCH 100 103
ATOM    103  S   UNL     1       8.637 -22.445   2.599  1.00  0.00     0.127 S 
ATOM    104  O   UNL     1       8.430 -23.886   2.459  1.00  0.00    -0.237 OA
ATOM    105  O   UNL     1      10.019 -22.006   2.412  1.00  0.00    -0.237 OA
ATOM    106  O   UNL     1       7.948 -21.831   3.727  1.00  0.00    -0.744 OA
ENDBRANCH 100 103
ENDBRANCH  73  96
ENDBRANCH  47  48
ENDBRANCH  40  42
ENDBRANCH  39  40
ENDBRANCH  38  39
ENDBRANCH  37  38
ENDBRANCH  36  37
ENDBRANCH  35  36
ENDBRANCH  34  35
ENDBRANCH   1  34
TORSDOF 26
