REMARK SMILES CC(C)C[C@H](NC(=O)[C@H](Cc1ccccc1)NC(=O)CNC(=O)C[NH3+])C(=O)OCCOCCOCCOCCOC(=O)c1ccc(-c2c3nc(c(-c4cccc(S(=O)(=O)[O-])c4F)c4ccc([nH]4)c(-c4cccc(S(=O)(=O)[O-])c4F)c4nc(c(-c5cccc(S(=O)(=O)[O-])c5F)c5ccc2[nH]5)C=C4)C=C3)cc1
REMARK SMILES IDX 32 1 31 2 30 3 29 4 28 5 26 6 27 7 5 8 4 9 2 10 1 11 3 12
REMARK SMILES IDX 6 13 7 14 8 16 9 17 17 18 18 19 19 21 20 22 21 23 22 24
REMARK SMILES IDX 23 26 24 27 25 28 10 32 11 33 12 34 16 35 13 36 15 37 14 38
REMARK SMILES IDX 33 39 34 40 35 41 36 42 37 43 38 44 39 45 40 46 41 47 42 48
REMARK SMILES IDX 43 49 44 50 105 51 45 52 104 53 46 54 47 55 48 56 98 57
REMARK SMILES IDX 49 58 103 59 97 60 99 61 50 62 102 63 96 64 95 65 51 67
REMARK SMILES IDX 83 68 63 69 82 70 64 71 67 72 81 73 100 74 65 75 66 76 80 78
REMARK SMILES IDX 101 79 68 80 52 81 53 82 61 83 54 84 56 85 62 86 55 87 57 88
REMARK SMILES IDX 58 89 59 90 60 91 84 92 85 93 93 94 86 95 88 96 94 97 87 98
REMARK SMILES IDX 89 99 90 100 91 101 92 102 69 103 70 104 78 105 71 106
REMARK SMILES IDX 73 107 79 108 72 109 74 110 75 111 76 112 77 113
REMARK H PARENT 6 15 17 20 21 25 25 29 25 30 25 31 99 66 67 77
REMARK Flexibility Score: inf
ROOT
ATOM      1  C   UNL     1       3.570   2.064  -0.608  1.00  0.00     0.188 C 
ENDROOT
BRANCH   1   2
ATOM      2  O   UNL     1       4.906   1.983  -0.155  1.00  0.00    -0.376 OA
BRANCH   2   3
ATOM      3  C   UNL     1       5.061   2.141   1.247  1.00  0.00     0.202 C 
BRANCH   3   4
ATOM      4  C   UNL     1       4.628   0.961   2.143  1.00  0.00     0.261 C 
BRANCH   4   5
ATOM      5  O   UNL     1       3.362   0.308   1.838  1.00  0.00    -0.462 OA
BRANCH   5   6
ATOM      6  C   UNL     1       2.133   0.957   2.269  1.00  0.00     0.328 C 
ATOM      7  O   UNL     1       2.522   2.139   2.539  1.00  0.00    -0.250 OA
BRANCH   6   8
ATOM      8  C   UNL     1       0.176  -0.011   2.489  1.00  0.00     0.192 C 
BRANCH   8   9
ATOM      9  C   UNL     1      -0.871  -0.246   3.885  1.00  0.00     0.040 C 
BRANCH   9  10
ATOM     10  C   UNL     1      -1.809   0.962   4.235  1.00  0.00    -0.015 C 
ATOM     11  C   UNL     1      -2.999   1.105   3.289  1.00  0.00     0.007 C 
ATOM     12  C   UNL     1      -2.227   0.878   5.698  1.00  0.00     0.007 C 
ENDBRANCH   9  10
ENDBRANCH   8   9
BRANCH   8  13
ATOM     13  N   UNL     1      -0.533  -1.307   1.626  1.00  0.00    -0.341 N 
ATOM     14  C   UNL     1      -1.131  -1.353   0.387  1.00  0.00     0.243 C 
ATOM     15  H   UNL     1      -0.509  -2.171   2.098  1.00  0.00     0.164 HD
ATOM     16  O   UNL     1      -1.752  -2.388   0.110  1.00  0.00    -0.273 OA
BRANCH  14  17
ATOM     17  C   UNL     1      -0.971  -0.228  -0.722  1.00  0.00     0.175 C 
BRANCH  17  18
ATOM     18  N   UNL     1      -2.308  -0.043  -1.337  1.00  0.00    -0.342 N 
ATOM     19  C   UNL     1      -2.730   0.001  -2.630  1.00  0.00     0.240 C 
ATOM     20  H   UNL     1      -3.032   0.071  -0.680  1.00  0.00     0.164 HD
ATOM     21  O   UNL     1      -3.949  -0.042  -2.832  1.00  0.00    -0.273 OA
BRANCH  19  22
ATOM     22  C   UNL     1      -1.769  -0.015  -3.816  1.00  0.00     0.216 C 
BRANCH  22  23
ATOM     23  N   UNL     1      -0.704   0.965  -3.728  1.00  0.00    -0.342 N 
ATOM     24  C   UNL     1       0.611   0.778  -4.033  1.00  0.00     0.275 C 
ATOM     25  H   UNL     1      -0.959   1.862  -3.413  1.00  0.00     0.164 HD
ATOM     26  O   UNL     1       1.392   1.720  -3.897  1.00  0.00    -0.268 OA
BRANCH  24  27
ATOM     27  C   UNL     1       1.068  -0.596  -4.525  1.00  0.00     0.360 C 
BRANCH  27  28
ATOM     28  N   UNL     1       0.998  -1.587  -3.446  1.00  0.00    -0.350 N 
ATOM     29  H   UNL     1       1.611  -1.302  -2.681  1.00  0.00     0.344 HD
ATOM     30  H   UNL     1       1.297  -2.496  -3.799  1.00  0.00     0.344 HD
ATOM     31  H   UNL     1       0.039  -1.653  -3.106  1.00  0.00     0.344 HD
ENDBRANCH  27  28
ENDBRANCH  24  27
ENDBRANCH  22  23
ENDBRANCH  19  22
ENDBRANCH  17  18
BRANCH  17  32
ATOM     32  C   UNL     1      -0.346   1.132  -0.352  1.00  0.00     0.070 C 
BRANCH  32  33
ATOM     33  C   UNL     1       0.693   1.038   0.755  1.00  0.00    -0.045 A 
ATOM     34  C   UNL     1       1.508  -0.561   0.963  1.00  0.00     0.004 A 
ATOM     35  C   UNL     1       0.381   2.091   2.197  1.00  0.00     0.004 A 
ATOM     36  C   UNL     1       1.931  -1.154   2.615  1.00  0.00     0.000 A 
ATOM     37  C   UNL     1       0.900   1.503   3.832  1.00  0.00     0.000 A 
ATOM     38  C   UNL     1       1.697  -0.094   4.015  1.00  0.00     0.000 A 
ENDBRANCH  32  33
ENDBRANCH  17  32
ENDBRANCH  14  17
ENDBRANCH   8  13
ENDBRANCH   6   8
ENDBRANCH   5   6
ENDBRANCH   4   5
ENDBRANCH   3   4
ENDBRANCH   2   3
ENDBRANCH   1   2
BRANCH   1  39
ATOM     39  C   UNL     1       3.185   0.827  -1.395  1.00  0.00     0.188 C 
BRANCH  39  40
ATOM     40  O   UNL     1       3.592  -0.455  -0.931  1.00  0.00    -0.377 OA
BRANCH  40  41
ATOM     41  C   UNL     1       4.974  -0.784  -0.873  1.00  0.00     0.188 C 
BRANCH  41  42
ATOM     42  C   UNL     1       5.939  -0.142  -1.875  1.00  0.00     0.188 C 
BRANCH  42  43
ATOM     43  O   UNL     1       5.672  -0.132  -3.274  1.00  0.00    -0.376 OA
BRANCH  43  44
ATOM     44  C   UNL     1       4.505  -0.746  -3.784  1.00  0.00     0.202 C 
BRANCH  44  45
ATOM     45  C   UNL     1       4.674  -2.133  -4.372  1.00  0.00     0.261 C 
BRANCH  45  46
ATOM     46  O   UNL     1       5.315  -2.989  -3.433  1.00  0.00    -0.460 OA
BRANCH  46  47
ATOM     47  C   UNL     1       6.661  -2.909  -3.525  1.00  0.00     0.338 C 
ATOM     48  O   UNL     1       7.315  -2.346  -4.386  1.00  0.00    -0.246 OA
BRANCH  47  49
ATOM     49  C   UNL     1       7.258  -3.483  -2.321  1.00  0.00     0.060 A 
ATOM     50  C   UNL     1       8.315  -2.765  -1.754  1.00  0.00     0.016 A 
ATOM     51  C   UNL     1       6.857  -4.725  -1.819  1.00  0.00     0.016 A 
ATOM     52  C   UNL     1       9.031  -3.320  -0.721  1.00  0.00     0.010 A 
ATOM     53  C   UNL     1       7.613  -5.310  -0.810  1.00  0.00     0.010 A 
ATOM     54  C   UNL     1       8.733  -4.625  -0.317  1.00  0.00    -0.014 A 
BRANCH  54  55
ATOM     55  C   UNL     1       9.799  -5.311   0.421  1.00  0.00     0.031 A 
ATOM     56  C   UNL     1      10.768  -6.147  -0.361  1.00  0.00     0.074 A 
ATOM     57  C   UNL     1       9.989  -5.003   1.710  1.00  0.00     0.049 A 
ATOM     58  N   UNL     1      11.856  -6.739   0.046  1.00  0.00    -0.248 NA
ATOM     59  C   UNL     1      10.487  -6.325  -1.798  1.00  0.00     0.031 C 
ATOM     60  C   UNL     1       9.121  -4.132   2.503  1.00  0.00     0.029 A 
ATOM     61  N   UNL     1      10.985  -5.369   2.567  1.00  0.00    -0.354 N 
ATOM     62  C   UNL     1      12.379  -7.372  -1.074  1.00  0.00     0.074 A 
ATOM     63  C   UNL     1      11.485  -7.109  -2.177  1.00  0.00     0.031 C 
ATOM     64  C   UNL     1       9.618  -4.043   3.746  1.00  0.00     0.029 A 
ATOM     65  C   UNL     1      10.807  -4.883   3.836  1.00  0.00     0.049 A 
ATOM     66  H   UNL     1      11.753  -5.926   2.301  1.00  0.00     0.167 HD
ATOM     67  C   UNL     1      13.515  -8.098  -1.165  1.00  0.00     0.034 A 
ATOM     68  C   UNL     1      11.514  -5.134   4.951  1.00  0.00     0.034 A 
ATOM     69  C   UNL     1      14.384  -8.339  -0.047  1.00  0.00     0.049 A 
ATOM     70  C   UNL     1      12.732  -6.005   4.832  1.00  0.00     0.074 A 
ATOM     71  C   UNL     1      15.556  -9.069  -0.008  1.00  0.00     0.029 A 
ATOM     72  N   UNL     1      14.162  -7.864   1.238  1.00  0.00    -0.354 N 
ATOM     73  N   UNL     1      13.244  -6.569   3.763  1.00  0.00    -0.248 NA
ATOM     74  C   UNL     1      13.491  -6.243   6.064  1.00  0.00     0.031 C 
ATOM     75  C   UNL     1      16.017  -9.075   1.313  1.00  0.00     0.029 A 
ATOM     76  C   UNL     1      15.166  -8.297   2.084  1.00  0.00     0.049 A 
ATOM     77  H   UNL     1      13.400  -7.301   1.508  1.00  0.00     0.167 HD
ATOM     78  C   UNL     1      14.401  -7.208   4.188  1.00  0.00     0.074 A 
ATOM     79  C   UNL     1      14.531  -6.922   5.604  1.00  0.00     0.031 C 
ATOM     80  C   UNL     1      15.273  -7.974   3.484  1.00  0.00     0.034 A 
BRANCH  67  81
ATOM     81  C   UNL     1      13.864  -8.694  -2.503  1.00  0.00     0.023 A 
ATOM     82  C   UNL     1      14.284  -7.865  -3.564  1.00  0.00     0.012 A 
ATOM     83  C   UNL     1      13.818 -10.088  -2.694  1.00  0.00     0.148 A 
ATOM     84  C   UNL     1      14.629  -8.413  -4.799  1.00  0.00     0.002 A 
ATOM     85  C   UNL     1      14.211 -10.631  -3.910  1.00  0.00     0.091 A 
ATOM     86  F   UNL     1      13.388 -10.856  -1.682  1.00  0.00    -0.205 F 
ATOM     87  C   UNL     1      14.605  -9.796  -4.968  1.00  0.00     0.022 A 
BRANCH  85  88
ATOM     88  S   UNL     1      14.286 -12.401  -4.202  1.00  0.00     0.127 S 
ATOM     89  O   UNL     1      13.282 -12.570  -5.253  1.00  0.00    -0.237 OA
ATOM     90  O   UNL     1      15.669 -12.577  -4.646  1.00  0.00    -0.237 OA
ATOM     91  O   UNL     1      13.963 -13.036  -2.933  1.00  0.00    -0.744 OA
ENDBRANCH  85  88
ENDBRANCH  67  81
BRANCH  68  92
ATOM     92  C   UNL     1      11.058  -4.592   6.257  1.00  0.00     0.023 A 
ATOM     93  C   UNL     1      11.846  -3.663   6.960  1.00  0.00     0.012 A 
ATOM     94  C   UNL     1       9.826  -5.005   6.803  1.00  0.00     0.148 A 
ATOM     95  C   UNL     1      11.435  -3.192   8.208  1.00  0.00     0.002 A 
ATOM     96  C   UNL     1       9.393  -4.482   8.011  1.00  0.00     0.091 A 
ATOM     97  F   UNL     1       9.096  -5.898   6.119  1.00  0.00    -0.205 F 
ATOM     98  C   UNL     1      10.207  -3.594   8.729  1.00  0.00     0.022 A 
BRANCH  96  99
ATOM     99  S   UNL     1       7.767  -4.842   8.681  1.00  0.00     0.127 S 
ATOM    100  O   UNL     1       8.098  -5.649   9.852  1.00  0.00    -0.237 OA
ATOM    101  O   UNL     1       7.261  -3.501   8.976  1.00  0.00    -0.237 OA
ATOM    102  O   UNL     1       7.045  -5.532   7.620  1.00  0.00    -0.744 OA
ENDBRANCH  96  99
ENDBRANCH  68  92
BRANCH  80 103
ATOM    103  C   UNL     1      16.459  -8.514   4.239  1.00  0.00     0.023 A 
ATOM    104  C   UNL     1      16.279  -9.484   5.245  1.00  0.00     0.012 A 
ATOM    105  C   UNL     1      17.758  -8.062   3.937  1.00  0.00     0.148 A 
ATOM    106  C   UNL     1      17.365  -9.942   5.988  1.00  0.00     0.002 A 
ATOM    107  C   UNL     1      18.843  -8.572   4.636  1.00  0.00     0.091 A 
ATOM    108  F   UNL     1      17.908  -7.132   2.982  1.00  0.00    -0.205 F 
ATOM    109  C   UNL     1      18.646  -9.493   5.678  1.00  0.00     0.022 A 
BRANCH 107 110
ATOM    110  S   UNL     1      20.536  -8.132   4.238  1.00  0.00     0.127 S 
ATOM    111  O   UNL     1      20.912  -7.322   5.396  1.00  0.00    -0.237 OA
ATOM    112  O   UNL     1      21.185  -9.441   4.171  1.00  0.00    -0.237 OA
ATOM    113  O   UNL     1      20.480  -7.418   2.969  1.00  0.00    -0.744 OA
ENDBRANCH 107 110
ENDBRANCH  80 103
ENDBRANCH  54  55
ENDBRANCH  47  49
ENDBRANCH  46  47
ENDBRANCH  45  46
ENDBRANCH  44  45
ENDBRANCH  43  44
ENDBRANCH  42  43
ENDBRANCH  41  42
ENDBRANCH  40  41
ENDBRANCH  39  40
ENDBRANCH   1  39
TORSDOF 34
