REMARK SMILES O=C(C[NH+]1CCN(c2cc(-c3ccccc3)nc(-c3ccccc3F)n2)CC1)OCCOCCOCCOCCOC(=O)c1ccc(-c2c3nc(c(-c4cccc(S(=O)(=O)[O-])c4F)c4ccc([nH]4)c(-c4cccc(S(=O)(=O)[O-])c4F)c4nc(c(-c5cccc(S(=O)(=O)[O-])c5F)c5ccc2[nH]5)C=C4)C=C3)cc1
REMARK SMILES IDX 35 1 34 2 33 3 32 4 31 5 30 6 29 7 2 8 1 9 3 10 4 11 5 12
REMARK SMILES IDX 28 13 6 15 27 16 7 17 8 18 9 19 26 20 10 21 18 22 17 23
REMARK SMILES IDX 11 24 12 25 16 26 13 27 15 28 14 29 19 30 20 31 24 32 21 33
REMARK SMILES IDX 23 34 25 35 22 36 36 37 37 38 38 39 39 40 40 41 41 42 42 43
REMARK SMILES IDX 43 44 44 45 45 46 106 47 46 48 105 49 47 50 48 51 49 52
REMARK SMILES IDX 99 53 50 54 104 55 98 56 100 57 51 58 103 59 97 60 96 61
REMARK SMILES IDX 52 63 84 64 64 65 83 66 65 67 68 68 82 69 101 70 66 71 67 72
REMARK SMILES IDX 81 74 102 75 69 76 53 77 54 78 62 79 55 80 57 81 63 82 56 83
REMARK SMILES IDX 58 84 59 85 60 86 61 87 85 88 86 89 94 90 87 91 89 92 95 93
REMARK SMILES IDX 88 94 90 95 91 96 92 97 93 98 70 99 71 100 79 101 72 102
REMARK SMILES IDX 74 103 80 104 73 105 75 106 76 107 77 108 78 109
REMARK H PARENT 4 14 100 62 68 73
REMARK Flexibility Score: inf
ROOT
ATOM      1  O   UNL     1       2.592   1.677  -3.475  1.00  0.00    -0.377 OA
ENDROOT
BRANCH   1   2
ATOM      2  C   UNL     1       2.097   1.382  -2.178  1.00  0.00     0.188 C 
BRANCH   2   3
ATOM      3  C   UNL     1       2.855   2.082  -1.047  1.00  0.00     0.188 C 
BRANCH   3   4
ATOM      4  O   UNL     1       4.229   1.765  -0.885  1.00  0.00    -0.376 OA
BRANCH   4   5
ATOM      5  C   UNL     1       4.739   0.493  -0.533  1.00  0.00     0.202 C 
BRANCH   5   6
ATOM      6  C   UNL     1       3.870  -0.752  -0.587  1.00  0.00     0.261 C 
BRANCH   6   7
ATOM      7  O   UNL     1       2.546  -0.696  -0.008  1.00  0.00    -0.459 OA
BRANCH   7   8
ATOM      8  C   UNL     1       2.040  -0.070   1.070  1.00  0.00     0.361 C 
ATOM      9  O   UNL     1       0.820  -0.059   1.236  1.00  0.00    -0.245 OA
BRANCH   8  10
ATOM     10  C   UNL     1       2.948   0.671   2.032  1.00  0.00     0.386 C 
BRANCH  10  11
ATOM     11  N   UNL     1       3.570  -0.098   3.111  1.00  0.00    -0.323 N 
ATOM     12  C   UNL     1       2.591  -0.516   4.138  1.00  0.00     0.284 C 
ATOM     13  C   UNL     1       4.396  -1.238   2.685  1.00  0.00     0.284 C 
ATOM     14  H   UNL     1       4.225   0.566   3.525  1.00  0.00     0.348 HD
ATOM     15  C   UNL     1       1.783  -1.798   3.833  1.00  0.00     0.179 C 
ATOM     16  C   UNL     1       3.626  -2.519   2.324  1.00  0.00     0.179 C 
ATOM     17  N   UNL     1       2.713  -2.834   3.409  1.00  0.00    -0.345 N 
BRANCH  17  18
ATOM     18  C   UNL     1       2.440  -4.151   3.677  1.00  0.00     0.133 A 
ATOM     19  C   UNL     1       3.494  -5.014   3.802  1.00  0.00     0.076 A 
ATOM     20  N   UNL     1       1.194  -4.548   3.920  1.00  0.00    -0.211 NA
ATOM     21  C   UNL     1       3.248  -6.294   4.233  1.00  0.00     0.076 A 
ATOM     22  C   UNL     1       1.022  -5.835   4.274  1.00  0.00     0.165 A 
ATOM     23  N   UNL     1       2.003  -6.746   4.459  1.00  0.00    -0.228 NA
BRANCH  21  24
ATOM     24  C   UNL     1       4.417  -7.141   4.498  1.00  0.00     0.000 A 
ATOM     25  C   UNL     1       4.581  -8.383   3.882  1.00  0.00     0.010 A 
ATOM     26  C   UNL     1       5.496  -6.618   5.250  1.00  0.00     0.010 A 
ATOM     27  C   UNL     1       5.801  -9.061   3.979  1.00  0.00     0.001 A 
ATOM     28  C   UNL     1       6.713  -7.287   5.338  1.00  0.00     0.001 A 
ATOM     29  C   UNL     1       6.866  -8.508   4.694  1.00  0.00     0.000 A 
ENDBRANCH  21  24
BRANCH  22  30
ATOM     30  C   UNL     1      -0.357  -6.195   4.566  1.00  0.00     0.055 A 
ATOM     31  C   UNL     1      -1.339  -6.208   3.557  1.00  0.00     0.015 A 
ATOM     32  C   UNL     1      -0.769  -6.404   5.884  1.00  0.00     0.134 A 
ATOM     33  C   UNL     1      -2.684  -6.433   3.868  1.00  0.00     0.001 A 
ATOM     34  C   UNL     1      -2.109  -6.622   6.202  1.00  0.00     0.040 A 
ATOM     35  F   UNL     1       0.117  -6.338   6.891  1.00  0.00    -0.206 F 
ATOM     36  C   UNL     1      -3.069  -6.637   5.192  1.00  0.00     0.003 A 
ENDBRANCH  22  30
ENDBRANCH  17  18
ENDBRANCH  10  11
ENDBRANCH   8  10
ENDBRANCH   7   8
ENDBRANCH   6   7
ENDBRANCH   5   6
ENDBRANCH   4   5
ENDBRANCH   3   4
ENDBRANCH   2   3
ENDBRANCH   1   2
BRANCH   1  37
ATOM     37  C   UNL     1       3.948   1.331  -3.694  1.00  0.00     0.188 C 
BRANCH  37  38
ATOM     38  C   UNL     1       4.977   2.473  -3.512  1.00  0.00     0.188 C 
BRANCH  38  39
ATOM     39  O   UNL     1       4.586   3.825  -3.311  1.00  0.00    -0.376 OA
BRANCH  39  40
ATOM     40  C   UNL     1       3.371   4.310  -3.853  1.00  0.00     0.202 C 
BRANCH  40  41
ATOM     41  C   UNL     1       3.146   4.266  -5.370  1.00  0.00     0.261 C 
BRANCH  41  42
ATOM     42  O   UNL     1       3.505   3.041  -6.021  1.00  0.00    -0.460 OA
BRANCH  42  43
ATOM     43  C   UNL     1       4.725   3.012  -6.613  1.00  0.00     0.338 C 
ATOM     44  O   UNL     1       5.528   3.929  -6.686  1.00  0.00    -0.246 OA
BRANCH  43  45
ATOM     45  C   UNL     1       5.045   1.610  -6.972  1.00  0.00     0.060 A 
ATOM     46  C   UNL     1       6.253   1.059  -6.512  1.00  0.00     0.016 A 
ATOM     47  C   UNL     1       4.141   0.820  -7.684  1.00  0.00     0.016 A 
ATOM     48  C   UNL     1       6.559  -0.279  -6.761  1.00  0.00     0.010 A 
ATOM     49  C   UNL     1       4.471  -0.507  -7.975  1.00  0.00     0.010 A 
ATOM     50  C   UNL     1       5.689  -1.054  -7.534  1.00  0.00    -0.014 A 
BRANCH  50  51
ATOM     51  C   UNL     1       6.145  -2.353  -8.081  1.00  0.00     0.031 A 
ATOM     52  C   UNL     1       6.815  -2.342  -9.427  1.00  0.00     0.074 A 
ATOM     53  C   UNL     1       5.928  -3.513  -7.435  1.00  0.00     0.049 A 
ATOM     54  N   UNL     1       7.195  -3.346 -10.170  1.00  0.00    -0.248 NA
ATOM     55  C   UNL     1       7.087  -1.018 -10.015  1.00  0.00     0.031 C 
ATOM     56  C   UNL     1       5.304  -3.649  -6.120  1.00  0.00     0.029 A 
ATOM     57  N   UNL     1       6.172  -4.806  -7.829  1.00  0.00    -0.354 N 
ATOM     58  C   UNL     1       7.710  -2.780 -11.329  1.00  0.00     0.074 A 
ATOM     59  C   UNL     1       7.613  -1.345 -11.187  1.00  0.00     0.031 C 
ATOM     60  C   UNL     1       5.162  -4.957  -5.840  1.00  0.00     0.029 A 
ATOM     61  C   UNL     1       5.654  -5.747  -6.969  1.00  0.00     0.049 A 
ATOM     62  H   UNL     1       6.670  -5.037  -8.646  1.00  0.00     0.167 HD
ATOM     63  C   UNL     1       8.216  -3.401 -12.417  1.00  0.00     0.034 A 
ATOM     64  C   UNL     1       5.545  -7.085  -7.105  1.00  0.00     0.034 A 
ATOM     65  C   UNL     1       8.325  -4.825 -12.554  1.00  0.00     0.049 A 
ATOM     66  C   UNL     1       6.080  -7.747  -8.353  1.00  0.00     0.074 A 
ATOM     67  C   UNL     1       8.891  -5.545 -13.590  1.00  0.00     0.029 A 
ATOM     68  N   UNL     1       7.832  -5.745 -11.645  1.00  0.00    -0.354 N 
ATOM     69  N   UNL     1       6.703  -7.208  -9.374  1.00  0.00    -0.248 NA
ATOM     70  C   UNL     1       5.914  -9.206  -8.459  1.00  0.00     0.031 C 
ATOM     71  C   UNL     1       8.705  -6.904 -13.326  1.00  0.00     0.029 A 
ATOM     72  C   UNL     1       8.053  -7.029 -12.110  1.00  0.00     0.049 A 
ATOM     73  H   UNL     1       7.391  -5.520 -10.794  1.00  0.00     0.167 HD
ATOM     74  C   UNL     1       7.023  -8.261 -10.226  1.00  0.00     0.074 A 
ATOM     75  C   UNL     1       6.555  -9.473  -9.589  1.00  0.00     0.031 C 
ATOM     76  C   UNL     1       7.630  -8.229 -11.438  1.00  0.00     0.034 A 
BRANCH  63  77
ATOM     77  C   UNL     1       8.700  -2.547 -13.554  1.00  0.00     0.023 A 
ATOM     78  C   UNL     1       9.930  -1.869 -13.447  1.00  0.00     0.012 A 
ATOM     79  C   UNL     1       7.977  -2.494 -14.761  1.00  0.00     0.148 A 
ATOM     80  C   UNL     1      10.429  -1.140 -14.525  1.00  0.00     0.002 A 
ATOM     81  C   UNL     1       8.501  -1.801 -15.844  1.00  0.00     0.091 A 
ATOM     82  F   UNL     1       6.796  -3.126 -14.825  1.00  0.00    -0.205 F 
ATOM     83  C   UNL     1       9.723  -1.118 -15.726  1.00  0.00     0.022 A 
BRANCH  81  84
ATOM     84  S   UNL     1       7.708  -1.775 -17.454  1.00  0.00     0.127 S 
ATOM     85  O   UNL     1       7.353  -0.363 -17.585  1.00  0.00    -0.237 OA
ATOM     86  O   UNL     1       8.791  -2.216 -18.333  1.00  0.00    -0.237 OA
ATOM     87  O   UNL     1       6.580  -2.691 -17.365  1.00  0.00    -0.744 OA
ENDBRANCH  81  84
ENDBRANCH  63  77
BRANCH  64  88
ATOM     88  C   UNL     1       4.882  -7.904  -6.050  1.00  0.00     0.023 A 
ATOM     89  C   UNL     1       5.633  -8.845  -5.318  1.00  0.00     0.012 A 
ATOM     90  C   UNL     1       3.502  -7.781  -5.791  1.00  0.00     0.148 A 
ATOM     91  C   UNL     1       5.016  -9.676  -4.380  1.00  0.00     0.002 A 
ATOM     92  C   UNL     1       2.906  -8.569  -4.814  1.00  0.00     0.091 A 
ATOM     93  F   UNL     1       2.796  -6.901  -6.515  1.00  0.00    -0.205 F 
ATOM     94  C   UNL     1       3.655  -9.531  -4.122  1.00  0.00     0.022 A 
BRANCH  92  95
ATOM     95  S   UNL     1       1.191  -8.352  -4.327  1.00  0.00     0.127 S 
ATOM     96  O   UNL     1       0.558  -9.521  -4.932  1.00  0.00    -0.237 OA
ATOM     97  O   UNL     1       1.285  -8.386  -2.867  1.00  0.00    -0.237 OA
ATOM     98  O   UNL     1       0.795  -7.059  -4.869  1.00  0.00    -0.744 OA
ENDBRANCH  92  95
ENDBRANCH  64  88
BRANCH  76  99
ATOM     99  C   UNL     1       7.853  -9.537 -12.153  1.00  0.00     0.023 A 
ATOM    100  C   UNL     1       6.760 -10.209 -12.735  1.00  0.00     0.012 A 
ATOM    101  C   UNL     1       9.154 -10.047 -12.331  1.00  0.00     0.148 A 
ATOM    102  C   UNL     1       6.956 -11.385 -13.458  1.00  0.00     0.002 A 
ATOM    103  C   UNL     1       9.347 -11.192 -13.095  1.00  0.00     0.091 A 
ATOM    104  F   UNL     1      10.179  -9.398 -11.760  1.00  0.00    -0.205 F 
ATOM    105  C   UNL     1       8.248 -11.869 -13.649  1.00  0.00     0.022 A 
BRANCH 103 106
ATOM    106  S   UNL     1      10.980 -11.835 -13.478  1.00  0.00     0.127 S 
ATOM    107  O   UNL     1      10.999 -13.076 -12.705  1.00  0.00    -0.237 OA
ATOM    108  O   UNL     1      10.909 -12.020 -14.927  1.00  0.00    -0.237 OA
ATOM    109  O   UNL     1      11.927 -10.818 -13.042  1.00  0.00    -0.744 OA
ENDBRANCH 103 106
ENDBRANCH  76  99
ENDBRANCH  50  51
ENDBRANCH  43  45
ENDBRANCH  42  43
ENDBRANCH  41  42
ENDBRANCH  40  41
ENDBRANCH  39  40
ENDBRANCH  38  39
ENDBRANCH  37  38
ENDBRANCH   1  37
TORSDOF 27
