REMARK SMILES CNC(=O)c1ccc(N(CCC(=O)OCCOCCOCCOCCOC(=O)c2ccc(-c3c4nc(c(-c5cccc(S(=O)(=O)[O-])c5F)c5ccc([nH]5)c(-c5cccc(S(=O)(=O)[O-])c5F)c5nc(c(-c6cccc(S(=O)(=O)[O-])c6F)c6ccc3[nH]6)C=C5)C=C4)cc2)C2CC2)nn1
REMARK SMILES IDX 19 1 18 2 17 3 16 4 15 5 14 6 12 7 13 8 11 9 10 10 9 11 8 12
REMARK SMILES IDX 5 13 6 14 96 15 7 16 95 17 3 18 1 19 2 20 4 22 92 23 93 24
REMARK SMILES IDX 94 25 20 26 21 27 22 28 23 29 24 30 25 31 26 32 27 33 28 34
REMARK SMILES IDX 29 35 30 36 91 37 31 38 90 39 32 40 33 41 34 42 84 43 35 44
REMARK SMILES IDX 89 45 83 46 85 47 36 48 88 49 82 50 81 51 37 53 69 54 49 55
REMARK SMILES IDX 68 56 50 57 53 58 67 59 86 60 51 61 52 62 66 64 87 65 54 66
REMARK SMILES IDX 38 67 39 68 47 69 40 70 42 71 48 72 41 73 43 74 44 75 45 76
REMARK SMILES IDX 46 77 70 78 71 79 79 80 72 81 74 82 80 83 73 84 75 85 76 86
REMARK SMILES IDX 77 87 78 88 55 89 56 90 64 91 57 92 59 93 65 94 58 95 60 96
REMARK SMILES IDX 61 97 62 98 63 99
REMARK H PARENT 2 21 85 52 53 63
REMARK Flexibility Score: inf
ROOT
ATOM      1  C   UNL     1      -2.552   7.853   4.236  1.00  0.00     0.188 C 
ENDROOT
BRANCH   1   2
ATOM      2  C   UNL     1      -2.047   9.289   4.136  1.00  0.00     0.188 C 
BRANCH   2   3
ATOM      3  O   UNL     1      -2.120   9.952   2.891  1.00  0.00    -0.376 OA
BRANCH   3   4
ATOM      4  C   UNL     1      -1.320   9.623   1.765  1.00  0.00     0.202 C 
BRANCH   4   5
ATOM      5  C   UNL     1      -0.027   8.802   1.835  1.00  0.00     0.261 C 
BRANCH   5   6
ATOM      6  O   UNL     1      -0.162   7.477   2.378  1.00  0.00    -0.463 OA
BRANCH   6   7
ATOM      7  C   UNL     1       0.680   7.139   3.382  1.00  0.00     0.307 C 
ATOM      8  O   UNL     1       1.470   7.933   3.891  1.00  0.00    -0.252 OA
BRANCH   7   9
ATOM      9  C   UNL     1       0.637   5.689   3.832  1.00  0.00     0.144 C 
BRANCH   9  10
ATOM     10  C   UNL     1      -0.633   4.833   3.850  1.00  0.00     0.130 C 
BRANCH  10  11
ATOM     11  N   UNL     1      -1.067   4.269   2.551  1.00  0.00    -0.352 N 
BRANCH  11  12
ATOM     12  C   UNL     1      -0.922   2.867   2.418  1.00  0.00     0.151 A 
ATOM     13  C   UNL     1      -0.474   0.151   2.172  1.00  0.00     0.150 A 
ATOM     14  C   UNL     1      -1.199   0.787   1.194  1.00  0.00     0.040 A 
ATOM     15  N   UNL     1      -0.048   0.794   3.274  1.00  0.00    -0.143 NA
ATOM     16  C   UNL     1      -1.383   2.159   1.313  1.00  0.00     0.051 A 
ATOM     17  N   UNL     1      -0.294   2.153   3.388  1.00  0.00    -0.132 NA
BRANCH  13  18
ATOM     18  C   UNL     1       0.057  -1.207   1.930  1.00  0.00     0.271 C 
ATOM     19  C   UNL     1       1.335  -0.399  -0.123  1.00  0.00     0.143 C 
ATOM     20  N   UNL     1       0.850  -1.401   0.817  1.00  0.00    -0.354 N 
ATOM     21  H   UNL     1       1.122  -2.330   0.636  1.00  0.00     0.163 HD
ATOM     22  O   UNL     1      -0.204  -2.133   2.692  1.00  0.00    -0.267 OA
ENDBRANCH  13  18
ENDBRANCH  11  12
BRANCH  11  23
ATOM     23  C   UNL     1      -1.788   5.179   1.634  1.00  0.00     0.084 C 
ATOM     24  C   UNL     1      -1.492   5.242   0.163  1.00  0.00     0.027 C 
ATOM     25  C   UNL     1      -2.879   4.905   0.648  1.00  0.00     0.027 C 
ENDBRANCH  11  23
ENDBRANCH  10  11
ENDBRANCH   9  10
ENDBRANCH   7   9
ENDBRANCH   6   7
ENDBRANCH   5   6
ENDBRANCH   4   5
ENDBRANCH   3   4
ENDBRANCH   2   3
ENDBRANCH   1   2
BRANCH   1  26
ATOM     26  O   UNL     1      -3.806   7.454   3.735  1.00  0.00    -0.377 OA
BRANCH  26  27
ATOM     27  C   UNL     1      -4.218   7.899   2.460  1.00  0.00     0.188 C 
BRANCH  27  28
ATOM     28  C   UNL     1      -5.141   9.123   2.527  1.00  0.00     0.188 C 
BRANCH  28  29
ATOM     29  O   UNL     1      -6.202   9.196   3.482  1.00  0.00    -0.376 OA
BRANCH  29  30
ATOM     30  C   UNL     1      -6.263   8.264   4.549  1.00  0.00     0.202 C 
BRANCH  30  31
ATOM     31  C   UNL     1      -6.959   6.931   4.224  1.00  0.00     0.261 C 
BRANCH  31  32
ATOM     32  O   UNL     1      -6.718   6.388   2.916  1.00  0.00    -0.460 OA
BRANCH  32  33
ATOM     33  C   UNL     1      -7.520   6.862   1.930  1.00  0.00     0.338 C 
ATOM     34  O   UNL     1      -8.416   7.678   2.033  1.00  0.00    -0.246 OA
BRANCH  33  35
ATOM     35  C   UNL     1      -7.094   6.294   0.631  1.00  0.00     0.060 A 
ATOM     36  C   UNL     1      -6.726   7.167  -0.400  1.00  0.00     0.016 A 
ATOM     37  C   UNL     1      -7.150   4.917   0.402  1.00  0.00     0.016 A 
ATOM     38  C   UNL     1      -6.451   6.670  -1.677  1.00  0.00     0.010 A 
ATOM     39  C   UNL     1      -6.893   4.423  -0.882  1.00  0.00     0.010 A 
ATOM     40  C   UNL     1      -6.579   5.300  -1.937  1.00  0.00    -0.014 A 
BRANCH  40  41
ATOM     41  C   UNL     1      -6.568   4.802  -3.336  1.00  0.00     0.031 A 
ATOM     42  C   UNL     1      -7.883   4.512  -4.010  1.00  0.00     0.074 A 
ATOM     43  C   UNL     1      -5.415   4.592  -3.995  1.00  0.00     0.049 A 
ATOM     44  N   UNL     1      -8.116   3.991  -5.186  1.00  0.00    -0.248 NA
ATOM     45  C   UNL     1      -9.098   4.854  -3.251  1.00  0.00     0.031 C 
ATOM     46  C   UNL     1      -4.079   4.855  -3.465  1.00  0.00     0.029 A 
ATOM     47  N   UNL     1      -5.186   4.075  -5.248  1.00  0.00    -0.354 N 
ATOM     48  C   UNL     1      -9.500   3.905  -5.295  1.00  0.00     0.074 A 
ATOM     49  C   UNL     1     -10.054   4.426  -4.064  1.00  0.00     0.031 C 
ATOM     50  C   UNL     1      -3.167   4.461  -4.371  1.00  0.00     0.029 A 
ATOM     51  C   UNL     1      -3.853   3.887  -5.528  1.00  0.00     0.049 A 
ATOM     52  H   UNL     1      -5.907   3.862  -5.883  1.00  0.00     0.167 HD
ATOM     53  C   UNL     1     -10.244   3.443  -6.327  1.00  0.00     0.034 A 
ATOM     54  C   UNL     1      -3.258   3.286  -6.579  1.00  0.00     0.034 A 
ATOM     55  C   UNL     1      -9.693   2.938  -7.555  1.00  0.00     0.049 A 
ATOM     56  C   UNL     1      -4.107   2.744  -7.702  1.00  0.00     0.074 A 
ATOM     57  C   UNL     1     -10.366   2.485  -8.677  1.00  0.00     0.029 A 
ATOM     58  N   UNL     1      -8.339   2.801  -7.818  1.00  0.00    -0.354 N 
ATOM     59  N   UNL     1      -5.411   2.760  -7.833  1.00  0.00    -0.248 NA
ATOM     60  C   UNL     1      -3.401   2.125  -8.836  1.00  0.00     0.031 C 
ATOM     61  C   UNL     1      -9.418   2.037  -9.602  1.00  0.00     0.029 A 
ATOM     62  C   UNL     1      -8.155   2.256  -9.077  1.00  0.00     0.049 A 
ATOM     63  H   UNL     1      -7.616   3.054  -7.201  1.00  0.00     0.167 HD
ATOM     64  C   UNL     1      -5.679   2.199  -9.079  1.00  0.00     0.074 A 
ATOM     65  C   UNL     1      -4.401   1.861  -9.667  1.00  0.00     0.031 C 
ATOM     66  C   UNL     1      -6.876   1.977  -9.677  1.00  0.00     0.034 A 
BRANCH  53  67
ATOM     67  C   UNL     1     -11.743   3.463  -6.176  1.00  0.00     0.023 A 
ATOM     68  C   UNL     1     -12.437   4.689  -6.207  1.00  0.00     0.012 A 
ATOM     69  C   UNL     1     -12.468   2.261  -6.061  1.00  0.00     0.148 A 
ATOM     70  C   UNL     1     -13.827   4.721  -6.091  1.00  0.00     0.002 A 
ATOM     71  C   UNL     1     -13.856   2.297  -5.995  1.00  0.00     0.091 A 
ATOM     72  F   UNL     1     -11.788   1.106  -6.013  1.00  0.00    -0.205 F 
ATOM     73  C   UNL     1     -14.535   3.526  -5.996  1.00  0.00     0.022 A 
BRANCH  71  74
ATOM     74  S   UNL     1     -14.862   0.810  -5.954  1.00  0.00     0.127 S 
ATOM     75  O   UNL     1     -15.395   0.852  -4.593  1.00  0.00    -0.237 OA
ATOM     76  O   UNL     1     -15.847   1.079  -7.003  1.00  0.00    -0.237 OA
ATOM     77  O   UNL     1     -13.959  -0.296  -6.237  1.00  0.00    -0.744 OA
ENDBRANCH  71  74
ENDBRANCH  53  67
BRANCH  54  78
ATOM     78  C   UNL     1      -1.771   3.175  -6.628  1.00  0.00     0.023 A 
ATOM     79  C   UNL     1      -1.048   3.897  -7.597  1.00  0.00     0.012 A 
ATOM     80  C   UNL     1      -1.071   2.368  -5.708  1.00  0.00     0.148 A 
ATOM     81  C   UNL     1       0.342   3.789  -7.671  1.00  0.00     0.002 A 
ATOM     82  C   UNL     1       0.317   2.315  -5.747  1.00  0.00     0.091 A 
ATOM     83  F   UNL     1      -1.777   1.676  -4.803  1.00  0.00    -0.205 F 
ATOM     84  C   UNL     1       1.025   3.008  -6.741  1.00  0.00     0.022 A 
BRANCH  82  85
ATOM     85  S   UNL     1       1.279   1.451  -4.500  1.00  0.00     0.127 S 
ATOM     86  O   UNL     1       1.808   0.319  -5.255  1.00  0.00    -0.237 OA
ATOM     87  O   UNL     1       2.268   2.462  -4.126  1.00  0.00    -0.237 OA
ATOM     88  O   UNL     1       0.345   1.115  -3.431  1.00  0.00    -0.744 OA
ENDBRANCH  82  85
ENDBRANCH  54  78
BRANCH  66  89
ATOM     89  C   UNL     1      -6.878   1.397 -11.069  1.00  0.00     0.023 A 
ATOM     90  C   UNL     1      -6.549   0.043 -11.275  1.00  0.00     0.012 A 
ATOM     91  C   UNL     1      -7.305   2.178 -12.163  1.00  0.00     0.148 A 
ATOM     92  C   UNL     1      -6.617  -0.517 -12.551  1.00  0.00     0.002 A 
ATOM     93  C   UNL     1      -7.421   1.600 -13.421  1.00  0.00     0.091 A 
ATOM     94  F   UNL     1      -7.599   3.468 -11.949  1.00  0.00    -0.205 F 
ATOM     95  C   UNL     1      -7.066   0.257 -13.620  1.00  0.00     0.022 A 
BRANCH  93  96
ATOM     96  S   UNL     1      -8.085   2.489 -14.834  1.00  0.00     0.127 S 
ATOM     97  O   UNL     1      -6.899   2.632 -15.678  1.00  0.00    -0.237 OA
ATOM     98  O   UNL     1      -9.087   1.554 -15.344  1.00  0.00    -0.237 OA
ATOM     99  O   UNL     1      -8.628   3.735 -14.309  1.00  0.00    -0.744 OA
ENDBRANCH  93  96
ENDBRANCH  66  89
ENDBRANCH  40  41
ENDBRANCH  33  35
ENDBRANCH  32  33
ENDBRANCH  31  32
ENDBRANCH  30  31
ENDBRANCH  29  30
ENDBRANCH  28  29
ENDBRANCH  27  28
ENDBRANCH  26  27
ENDBRANCH   1  26
TORSDOF 28
