REMARK SMILES O=C(CCc1cncc([C@@H]2CN(c3ccccc3)CCO2)n1)OCCOCCOCCOCCOC(=O)c1ccc(-c2c3nc(c(-c4cccc(S(=O)(=O)[O-])c4F)c4ccc([nH]4)c(-c4cccc(S(=O)(=O)[O-])c4F)c4nc(c(-c5cccc(S(=O)(=O)[O-])c5F)c5ccc2[nH]5)C=C4)C=C3)cc1
REMARK SMILES IDX 28 1 27 2 26 3 25 4 24 5 23 6 2 7 1 8 3 9 4 10 5 11 6 12
REMARK SMILES IDX 22 13 7 14 9 15 8 16 10 17 11 18 21 19 12 20 20 21 19 22
REMARK SMILES IDX 13 23 14 24 18 25 15 26 17 27 16 28 29 29 30 30 31 31 32 32
REMARK SMILES IDX 33 33 34 34 35 35 36 36 37 37 38 38 39 39 100 40 40 41 99 42
REMARK SMILES IDX 41 43 42 44 43 45 93 46 44 47 98 48 92 49 94 50 45 51 97 52
REMARK SMILES IDX 91 53 90 54 46 56 78 57 58 58 77 59 59 60 62 61 76 62 95 63
REMARK SMILES IDX 60 64 61 65 75 67 96 68 63 69 47 70 48 71 56 72 49 73 51 74
REMARK SMILES IDX 57 75 50 76 52 77 53 78 54 79 55 80 79 81 80 82 88 83 81 84
REMARK SMILES IDX 83 85 89 86 82 87 84 88 85 89 86 90 87 91 64 92 65 93 73 94
REMARK SMILES IDX 66 95 68 96 74 97 67 98 69 99 70 100 71 101 72 102
REMARK H PARENT 94 55 62 66
REMARK Flexibility Score: inf
ROOT
ATOM      1  C   UNL     1       1.826   1.045  -2.521  1.00  0.00     0.188 C 
ENDROOT
BRANCH   1   2
ATOM      2  C   UNL     1       1.917   1.541  -1.078  1.00  0.00     0.188 C 
BRANCH   2   3
ATOM      3  O   UNL     1       3.212   1.678  -0.513  1.00  0.00    -0.376 OA
BRANCH   3   4
ATOM      4  C   UNL     1       4.041   0.517  -0.441  1.00  0.00     0.202 C 
BRANCH   4   5
ATOM      5  C   UNL     1       3.388  -0.848  -0.220  1.00  0.00     0.261 C 
BRANCH   5   6
ATOM      6  O   UNL     1       2.321  -0.947   0.745  1.00  0.00    -0.463 OA
BRANCH   6   7
ATOM      7  C   UNL     1       2.307  -0.601   2.038  1.00  0.00     0.306 C 
ATOM      8  O   UNL     1       1.400  -1.000   2.768  1.00  0.00    -0.252 OA
BRANCH   7   9
ATOM      9  C   UNL     1       3.363   0.305   2.595  1.00  0.00     0.129 C 
BRANCH   9  10
ATOM     10  C   UNL     1       4.553  -0.410   3.224  1.00  0.00     0.069 C 
BRANCH  10  11
ATOM     11  C   UNL     1       5.417  -1.237   2.306  1.00  0.00     0.060 A 
ATOM     12  C   UNL     1       5.222  -2.610   2.204  1.00  0.00     0.134 A 
ATOM     13  N   UNL     1       6.356  -0.604   1.547  1.00  0.00    -0.252 NA
ATOM     14  N   UNL     1       5.922  -3.384   1.347  1.00  0.00    -0.261 NA
ATOM     15  C   UNL     1       7.052  -1.370   0.653  1.00  0.00     0.090 A 
ATOM     16  C   UNL     1       6.816  -2.738   0.564  1.00  0.00     0.137 A 
BRANCH  15  17
ATOM     17  C   UNL     1       8.069  -0.734  -0.281  1.00  0.00     0.188 C 
ATOM     18  C   UNL     1       8.973   0.272   0.462  1.00  0.00     0.155 C 
ATOM     19  O   UNL     1       7.409  -0.092  -1.399  1.00  0.00    -0.368 OA
ATOM     20  N   UNL     1       9.934   0.890  -0.469  1.00  0.00    -0.366 N 
ATOM     21  C   UNL     1       8.385   0.423  -2.331  1.00  0.00     0.182 C 
ATOM     22  C   UNL     1       9.332   1.455  -1.685  1.00  0.00     0.145 C 
BRANCH  20  23
ATOM     23  C   UNL     1      11.263   0.516  -0.485  1.00  0.00     0.037 A 
ATOM     24  C   UNL     1      12.259   1.503  -0.499  1.00  0.00     0.026 A 
ATOM     25  C   UNL     1      11.676  -0.821  -0.470  1.00  0.00     0.026 A 
ATOM     26  C   UNL     1      13.617   1.170  -0.462  1.00  0.00     0.002 A 
ATOM     27  C   UNL     1      13.033  -1.163  -0.455  1.00  0.00     0.002 A 
ATOM     28  C   UNL     1      14.004  -0.166  -0.440  1.00  0.00     0.000 A 
ENDBRANCH  20  23
ENDBRANCH  15  17
ENDBRANCH  10  11
ENDBRANCH   9  10
ENDBRANCH   7   9
ENDBRANCH   6   7
ENDBRANCH   5   6
ENDBRANCH   4   5
ENDBRANCH   3   4
ENDBRANCH   2   3
ENDBRANCH   1   2
BRANCH   1  29
ATOM     29  O   UNL     1       2.937   0.255  -2.898  1.00  0.00    -0.377 OA
BRANCH  29  30
ATOM     30  C   UNL     1       3.756   0.815  -3.912  1.00  0.00     0.188 C 
BRANCH  30  31
ATOM     31  C   UNL     1       4.640   2.024  -3.529  1.00  0.00     0.188 C 
BRANCH  31  32
ATOM     32  O   UNL     1       4.055   3.253  -3.142  1.00  0.00    -0.376 OA
BRANCH  32  33
ATOM     33  C   UNL     1       3.131   3.958  -3.945  1.00  0.00     0.202 C 
BRANCH  33  34
ATOM     34  C   UNL     1       3.124   3.949  -5.484  1.00  0.00     0.261 C 
BRANCH  34  35
ATOM     35  O   UNL     1       3.465   2.716  -6.123  1.00  0.00    -0.460 OA
BRANCH  35  36
ATOM     36  C   UNL     1       4.707   2.651  -6.667  1.00  0.00     0.338 C 
ATOM     37  O   UNL     1       5.529   3.551  -6.716  1.00  0.00    -0.246 OA
BRANCH  36  38
ATOM     38  C   UNL     1       5.024   1.234  -6.972  1.00  0.00     0.060 A 
ATOM     39  C   UNL     1       6.224   0.704  -6.472  1.00  0.00     0.016 A 
ATOM     40  C   UNL     1       4.143   0.421  -7.688  1.00  0.00     0.016 A 
ATOM     41  C   UNL     1       6.552  -0.634  -6.698  1.00  0.00     0.010 A 
ATOM     42  C   UNL     1       4.488  -0.910  -7.940  1.00  0.00     0.010 A 
ATOM     43  C   UNL     1       5.703  -1.438  -7.467  1.00  0.00    -0.014 A 
BRANCH  43  44
ATOM     44  C   UNL     1       6.161  -2.768  -7.939  1.00  0.00     0.031 A 
ATOM     45  C   UNL     1       6.822  -2.851  -9.288  1.00  0.00     0.074 A 
ATOM     46  C   UNL     1       5.957  -3.884  -7.216  1.00  0.00     0.049 A 
ATOM     47  N   UNL     1       7.216  -3.904  -9.954  1.00  0.00    -0.248 NA
ATOM     48  C   UNL     1       7.067  -1.573  -9.980  1.00  0.00     0.031 C 
ATOM     49  C   UNL     1       5.337  -3.938  -5.893  1.00  0.00     0.029 A 
ATOM     50  N   UNL     1       6.215  -5.199  -7.521  1.00  0.00    -0.354 N 
ATOM     51  C   UNL     1       7.720  -3.422 -11.155  1.00  0.00     0.074 A 
ATOM     52  C   UNL     1       7.594  -1.982 -11.125  1.00  0.00     0.031 C 
ATOM     53  C   UNL     1       5.214  -5.226  -5.523  1.00  0.00     0.029 A 
ATOM     54  C   UNL     1       5.720  -6.086  -6.592  1.00  0.00     0.049 A 
ATOM     55  H   UNL     1       6.707  -5.480  -8.326  1.00  0.00     0.167 HD
ATOM     56  C   UNL     1       8.244  -4.116 -12.191  1.00  0.00     0.034 A 
ATOM     57  C   UNL     1       5.646  -7.433  -6.624  1.00  0.00     0.034 A 
ATOM     58  C   UNL     1       8.386  -5.545 -12.219  1.00  0.00     0.049 A 
ATOM     59  C   UNL     1       6.200  -8.180  -7.814  1.00  0.00     0.074 A 
ATOM     60  C   UNL     1       8.973  -6.328 -13.197  1.00  0.00     0.029 A 
ATOM     61  N   UNL     1       7.915  -6.406 -11.243  1.00  0.00    -0.354 N 
ATOM     62  N   UNL     1       6.815  -7.711  -8.873  1.00  0.00    -0.248 NA
ATOM     63  C   UNL     1       6.067  -9.646  -7.803  1.00  0.00     0.031 C 
ATOM     64  C   UNL     1       8.825  -7.668 -12.828  1.00  0.00     0.029 A 
ATOM     65  C   UNL     1       8.170  -7.716 -11.608  1.00  0.00     0.049 A 
ATOM     66  H   UNL     1       7.465  -6.127 -10.413  1.00  0.00     0.167 HD
ATOM     67  C   UNL     1       7.162  -8.821  -9.638  1.00  0.00     0.074 A 
ATOM     68  C   UNL     1       6.718  -9.988  -8.907  1.00  0.00     0.031 C 
ATOM     69  C   UNL     1       7.773  -8.871 -10.847  1.00  0.00     0.034 A 
BRANCH  56  70
ATOM     70  C   UNL     1       8.723  -3.342 -13.387  1.00  0.00     0.023 A 
ATOM     71  C   UNL     1       9.946  -2.646 -13.323  1.00  0.00     0.012 A 
ATOM     72  C   UNL     1       8.004  -3.380 -14.597  1.00  0.00     0.148 A 
ATOM     73  C   UNL     1      10.442  -1.987 -14.447  1.00  0.00     0.002 A 
ATOM     74  C   UNL     1       8.524  -2.754 -15.722  1.00  0.00     0.091 A 
ATOM     75  F   UNL     1       6.831  -4.028 -14.623  1.00  0.00    -0.205 F 
ATOM     76  C   UNL     1       9.739  -2.052 -15.647  1.00  0.00     0.022 A 
BRANCH  74  77
ATOM     77  S   UNL     1       7.733  -2.837 -17.332  1.00  0.00     0.127 S 
ATOM     78  O   UNL     1       7.345  -1.443 -17.542  1.00  0.00    -0.237 OA
ATOM     79  O   UNL     1       8.827  -3.301 -18.186  1.00  0.00    -0.237 OA
ATOM     80  O   UNL     1       6.627  -3.773 -17.191  1.00  0.00    -0.744 OA
ENDBRANCH  74  77
ENDBRANCH  56  70
BRANCH  57  81
ATOM     81  C   UNL     1       5.009  -8.183  -5.503  1.00  0.00     0.023 A 
ATOM     82  C   UNL     1       5.792  -9.028  -4.693  1.00  0.00     0.012 A 
ATOM     83  C   UNL     1       3.624  -8.092  -5.259  1.00  0.00     0.148 A 
ATOM     84  C   UNL     1       5.204  -9.796  -3.687  1.00  0.00     0.002 A 
ATOM     85  C   UNL     1       3.053  -8.817  -4.220  1.00  0.00     0.091 A 
ATOM     86  F   UNL     1       2.888  -7.308  -6.059  1.00  0.00    -0.205 F 
ATOM     87  C   UNL     1       3.837  -9.684  -3.444  1.00  0.00     0.022 A 
BRANCH  85  88
ATOM     88  S   UNL     1       1.323  -8.641  -3.771  1.00  0.00     0.127 S 
ATOM     89  O   UNL     1       0.746  -9.866  -4.317  1.00  0.00    -0.237 OA
ATOM     90  O   UNL     1       1.390  -8.589  -2.310  1.00  0.00    -0.237 OA
ATOM     91  O   UNL     1       0.888  -7.398  -4.394  1.00  0.00    -0.744 OA
ENDBRANCH  85  88
ENDBRANCH  57  81
BRANCH  69  92
ATOM     92  C   UNL     1       8.023 -10.225 -11.460  1.00  0.00     0.023 A 
ATOM     93  C   UNL     1       6.945 -10.958 -11.993  1.00  0.00     0.012 A 
ATOM     94  C   UNL     1       9.333 -10.728 -11.591  1.00  0.00     0.148 A 
ATOM     95  C   UNL     1       7.162 -12.182 -12.624  1.00  0.00     0.002 A 
ATOM     96  C   UNL     1       9.548 -11.926 -12.264  1.00  0.00     0.091 A 
ATOM     97  F   UNL     1      10.345 -10.022 -11.066  1.00  0.00    -0.205 F 
ATOM     98  C   UNL     1       8.463 -12.659 -12.771  1.00  0.00     0.022 A 
BRANCH  96  99
ATOM     99  S   UNL     1      11.193 -12.572 -12.586  1.00  0.00     0.127 S 
ATOM    100  O   UNL     1      11.237 -13.732 -11.698  1.00  0.00    -0.237 OA
ATOM    101  O   UNL     1      11.126 -12.896 -14.011  1.00  0.00    -0.237 OA
ATOM    102  O   UNL     1      12.120 -11.498 -12.253  1.00  0.00    -0.744 OA
ENDBRANCH  96  99
ENDBRANCH  69  92
ENDBRANCH  43  44
ENDBRANCH  36  38
ENDBRANCH  35  36
ENDBRANCH  34  35
ENDBRANCH  33  34
ENDBRANCH  32  33
ENDBRANCH  31  32
ENDBRANCH  30  31
ENDBRANCH  29  30
ENDBRANCH   1  29
TORSDOF 27
