REMARK SMILES Cc1ccc(CNC(=O)NC[C@@H]2CC[C@@H](C(=O)OCCOCCOCCOCCOC(=O)c3ccc(-c4c5nc(c(-c6cccc(S(=O)(=O)[O-])c6F)c6ccc([nH]6)c(-c6cccc(S(=O)(=O)[O-])c6F)c6nc(c(-c7cccc(S(=O)(=O)[O-])c7F)c7ccc4[nH]7)C=C6)C=C5)cc3)O2)cn1
REMARK SMILES IDX 23 1 22 2 21 3 20 4 19 5 18 6 16 7 17 8 15 9 12 10 13 11
REMARK SMILES IDX 96 12 14 13 11 14 10 15 7 16 8 17 9 19 6 21 5 22 1 23 2 24
REMARK SMILES IDX 3 25 98 26 4 27 97 28 24 29 25 30 26 31 27 32 28 33 29 34
REMARK SMILES IDX 30 35 31 36 32 37 33 38 34 39 95 40 35 41 94 42 36 43 37 44
REMARK SMILES IDX 38 45 88 46 39 47 93 48 87 49 89 50 40 51 92 52 86 53 85 54
REMARK SMILES IDX 41 56 73 57 53 58 72 59 54 60 57 61 71 62 90 63 55 64 56 65
REMARK SMILES IDX 70 67 91 68 58 69 42 70 43 71 51 72 44 73 46 74 52 75 45 76
REMARK SMILES IDX 47 77 48 78 49 79 50 80 74 81 75 82 83 83 76 84 78 85 84 86
REMARK SMILES IDX 77 87 79 88 80 89 81 90 82 91 59 92 60 93 68 94 61 95 63 96
REMARK SMILES IDX 69 97 62 98 64 99 65 100 66 101 67 102
REMARK H PARENT 7 18 10 20 89 55 57 66
REMARK Flexibility Score: inf
ROOT
ATOM      1  C   UNL     1      -5.973   3.820  -6.409  1.00  0.00     0.188 C 
ENDROOT
BRANCH   1   2
ATOM      2  C   UNL     1      -6.916   2.947  -7.274  1.00  0.00     0.188 C 
BRANCH   2   3
ATOM      3  O   UNL     1      -8.174   3.526  -7.571  1.00  0.00    -0.376 OA
BRANCH   3   4
ATOM      4  C   UNL     1      -9.346   2.990  -6.984  1.00  0.00     0.202 C 
BRANCH   4   5
ATOM      5  C   UNL     1      -9.458   2.995  -5.455  1.00  0.00     0.261 C 
BRANCH   5   6
ATOM      6  O   UNL     1      -8.274   2.568  -4.779  1.00  0.00    -0.461 OA
BRANCH   6   7
ATOM      7  C   UNL     1      -8.002   1.238  -4.748  1.00  0.00     0.335 C 
ATOM      8  O   UNL     1      -8.722   0.360  -5.205  1.00  0.00    -0.249 OA
BRANCH   7   9
ATOM      9  C   UNL     1      -6.572   1.023  -4.238  1.00  0.00     0.228 C 
ATOM     10  C   UNL     1      -5.648   1.386  -2.117  1.00  0.00     0.138 C 
ATOM     11  C   UNL     1      -5.305  -0.027  -2.556  1.00  0.00     0.037 C 
ATOM     12  O   UNL     1      -6.129   2.020  -3.311  1.00  0.00    -0.361 OA
ATOM     13  C   UNL     1      -6.372  -0.323  -3.579  1.00  0.00     0.047 C 
BRANCH  10  14
ATOM     14  C   UNL     1      -4.479   2.209  -1.548  1.00  0.00     0.149 C 
BRANCH  14  15
ATOM     15  N   UNL     1      -4.694   2.600  -0.164  1.00  0.00    -0.336 N 
ATOM     16  N   UNL     1      -3.748   0.930   1.214  1.00  0.00    -0.334 N 
ATOM     17  C   UNL     1      -4.391   2.085   1.029  1.00  0.00     0.315 C 
ATOM     18  H   UNL     1      -3.588   0.737   2.165  1.00  0.00     0.165 HD
ATOM     19  O   UNL     1      -4.713   2.712   2.039  1.00  0.00    -0.249 OA
ATOM     20  H   UNL     1      -5.182   3.451  -0.089  1.00  0.00     0.165 HD
BRANCH  16  21
ATOM     21  C   UNL     1      -3.235  -0.098   0.349  1.00  0.00     0.155 C 
BRANCH  21  22
ATOM     22  C   UNL     1      -1.740  -0.117   0.259  1.00  0.00    -0.010 A 
ATOM     23  C   UNL     1       2.504  -0.069  -0.056  1.00  0.00     0.066 C 
ATOM     24  C   UNL     1       1.010  -0.121   0.021  1.00  0.00     0.037 A 
ATOM     25  C   UNL     1       0.336  -1.336   0.059  1.00  0.00     0.024 A 
ATOM     26  N   UNL     1       0.366   1.066   0.065  1.00  0.00    -0.261 NA
ATOM     27  C   UNL     1      -1.051  -1.330   0.170  1.00  0.00     0.009 A 
ATOM     28  C   UNL     1      -0.983   1.046   0.180  1.00  0.00     0.116 A 
ENDBRANCH  21  22
ENDBRANCH  16  21
ENDBRANCH  14  15
ENDBRANCH  10  14
ENDBRANCH   7   9
ENDBRANCH   6   7
ENDBRANCH   5   6
ENDBRANCH   4   5
ENDBRANCH   3   4
ENDBRANCH   2   3
ENDBRANCH   1   2
BRANCH   1  29
ATOM     29  O   UNL     1      -6.408   5.054  -5.861  1.00  0.00    -0.377 OA
BRANCH  29  30
ATOM     30  C   UNL     1      -7.309   5.880  -6.584  1.00  0.00     0.188 C 
BRANCH  30  31
ATOM     31  C   UNL     1      -7.167   6.013  -8.117  1.00  0.00     0.188 C 
BRANCH  31  32
ATOM     32  O   UNL     1      -6.092   5.272  -8.675  1.00  0.00    -0.376 OA
BRANCH  32  33
ATOM     33  C   UNL     1      -4.959   6.006  -9.107  1.00  0.00     0.202 C 
BRANCH  33  34
ATOM     34  C   UNL     1      -4.176   6.785  -8.041  1.00  0.00     0.261 C 
BRANCH  34  35
ATOM     35  O   UNL     1      -4.932   7.705  -7.240  1.00  0.00    -0.460 OA
BRANCH  35  36
ATOM     36  C   UNL     1      -5.491   8.765  -7.870  1.00  0.00     0.338 C 
ATOM     37  O   UNL     1      -5.419   9.036  -9.051  1.00  0.00    -0.246 OA
BRANCH  36  38
ATOM     38  C   UNL     1      -6.384   9.432  -6.897  1.00  0.00     0.060 A 
ATOM     39  C   UNL     1      -7.756   9.509  -7.173  1.00  0.00     0.016 A 
ATOM     40  C   UNL     1      -5.868   9.957  -5.710  1.00  0.00     0.016 A 
ATOM     41  C   UNL     1      -8.613  10.141  -6.272  1.00  0.00     0.010 A 
ATOM     42  C   UNL     1      -6.724  10.611  -4.821  1.00  0.00     0.010 A 
ATOM     43  C   UNL     1      -8.094  10.736  -5.115  1.00  0.00    -0.014 A 
BRANCH  43  44
ATOM     44  C   UNL     1      -8.943  11.653  -4.318  1.00  0.00     0.031 A 
ATOM     45  C   UNL     1      -8.810  13.133  -4.559  1.00  0.00     0.074 A 
ATOM     46  C   UNL     1      -9.816  11.189  -3.407  1.00  0.00     0.049 A 
ATOM     47  N   UNL     1      -9.430  14.126  -3.979  1.00  0.00    -0.248 NA
ATOM     48  C   UNL     1      -7.846  13.547  -5.593  1.00  0.00     0.031 C 
ATOM     49  C   UNL     1     -10.044   9.780  -3.092  1.00  0.00     0.029 A 
ATOM     50  N   UNL     1     -10.661  11.865  -2.561  1.00  0.00    -0.354 N 
ATOM     51  C   UNL     1      -8.908  15.281  -4.549  1.00  0.00     0.074 A 
ATOM     52  C   UNL     1      -7.917  14.867  -5.517  1.00  0.00     0.031 C 
ATOM     53  C   UNL     1     -10.953   9.696  -2.105  1.00  0.00     0.029 A 
ATOM     54  C   UNL     1     -11.349  11.044  -1.699  1.00  0.00     0.049 A 
ATOM     55  H   UNL     1     -10.763  12.844  -2.571  1.00  0.00     0.167 HD
ATOM     56  C   UNL     1      -9.229  16.571  -4.295  1.00  0.00     0.034 A 
ATOM     57  C   UNL     1     -12.185  11.351  -0.686  1.00  0.00     0.034 A 
ATOM     58  C   UNL     1     -10.225  16.979  -3.343  1.00  0.00     0.049 A 
ATOM     59  C   UNL     1     -12.499  12.800  -0.404  1.00  0.00     0.074 A 
ATOM     60  C   UNL     1     -10.664  18.259  -3.056  1.00  0.00     0.029 A 
ATOM     61  N   UNL     1     -10.919  16.120  -2.506  1.00  0.00    -0.354 N 
ATOM     62  N   UNL     1     -12.093  13.874  -1.036  1.00  0.00    -0.248 NA
ATOM     63  C   UNL     1     -13.413  13.075   0.716  1.00  0.00     0.031 C 
ATOM     64  C   UNL     1     -11.592  18.178  -2.013  1.00  0.00     0.029 A 
ATOM     65  C   UNL     1     -11.768  16.843  -1.686  1.00  0.00     0.049 A 
ATOM     66  H   UNL     1     -10.823  15.141  -2.497  1.00  0.00     0.167 HD
ATOM     67  C   UNL     1     -12.735  14.946  -0.421  1.00  0.00     0.074 A 
ATOM     68  C   UNL     1     -13.571  14.388   0.621  1.00  0.00     0.031 C 
ATOM     69  C   UNL     1     -12.634  16.272  -0.687  1.00  0.00     0.034 A 
BRANCH  56  70
ATOM     70  C   UNL     1      -8.497  17.640  -5.062  1.00  0.00     0.023 A 
ATOM     71  C   UNL     1      -8.761  17.832  -6.433  1.00  0.00     0.012 A 
ATOM     72  C   UNL     1      -7.588  18.493  -4.406  1.00  0.00     0.148 A 
ATOM     73  C   UNL     1      -8.109  18.838  -7.146  1.00  0.00     0.002 A 
ATOM     74  C   UNL     1      -6.979  19.523  -5.111  1.00  0.00     0.091 A 
ATOM     75  F   UNL     1      -7.333  18.277  -3.107  1.00  0.00    -0.205 F 
ATOM     76  C   UNL     1      -7.229  19.689  -6.483  1.00  0.00     0.022 A 
BRANCH  74  77
ATOM     77  S   UNL     1      -5.896  20.723  -4.330  1.00  0.00     0.127 S 
ATOM     78  O   UNL     1      -4.604  20.387  -4.928  1.00  0.00    -0.237 OA
ATOM     79  O   UNL     1      -6.466  21.991  -4.785  1.00  0.00    -0.237 OA
ATOM     80  O   UNL     1      -5.998  20.487  -2.897  1.00  0.00    -0.744 OA
ENDBRANCH  74  77
ENDBRANCH  56  70
BRANCH  57  81
ATOM     81  C   UNL     1     -12.813  10.271   0.128  1.00  0.00     0.023 A 
ATOM     82  C   UNL     1     -14.206  10.069   0.060  1.00  0.00     0.012 A 
ATOM     83  C   UNL     1     -12.044   9.456   0.980  1.00  0.00     0.148 A 
ATOM     84  C   UNL     1     -14.826   9.103   0.854  1.00  0.00     0.002 A 
ATOM     85  C   UNL     1     -12.660   8.457   1.725  1.00  0.00     0.091 A 
ATOM     86  F   UNL     1     -10.723   9.674   1.045  1.00  0.00    -0.205 F 
ATOM     87  C   UNL     1     -14.053   8.292   1.679  1.00  0.00     0.022 A 
BRANCH  85  88
ATOM     88  S   UNL     1     -11.734   7.285   2.722  1.00  0.00     0.127 S 
ATOM     89  O   UNL     1     -12.133   7.665   4.075  1.00  0.00    -0.237 OA
ATOM     90  O   UNL     1     -12.273   6.007   2.256  1.00  0.00    -0.237 OA
ATOM     91  O   UNL     1     -10.334   7.507   2.390  1.00  0.00    -0.744 OA
ENDBRANCH  85  88
ENDBRANCH  57  81
BRANCH  69  92
ATOM     92  C   UNL     1     -13.487  17.218   0.121  1.00  0.00     0.023 A 
ATOM     93  C   UNL     1     -13.199  17.448   1.480  1.00  0.00     0.012 A 
ATOM     94  C   UNL     1     -14.536  17.934  -0.492  1.00  0.00     0.148 A 
ATOM     95  C   UNL     1     -13.966  18.342   2.227  1.00  0.00     0.002 A 
ATOM     96  C   UNL     1     -15.260  18.864   0.243  1.00  0.00     0.091 A 
ATOM     97  F   UNL     1     -14.805  17.693  -1.784  1.00  0.00    -0.205 F 
ATOM     98  C   UNL     1     -14.987  19.058   1.607  1.00  0.00     0.022 A 
BRANCH  96  99
ATOM     99  S   UNL     1     -16.524  19.905  -0.496  1.00  0.00     0.127 S 
ATOM    100  O   UNL     1     -17.745  19.346   0.083  1.00  0.00    -0.237 OA
ATOM    101  O   UNL     1     -16.164  21.232   0.004  1.00  0.00    -0.237 OA
ATOM    102  O   UNL     1     -16.387  19.744  -1.937  1.00  0.00    -0.744 OA
ENDBRANCH  96  99
ENDBRANCH  69  92
ENDBRANCH  43  44
ENDBRANCH  36  38
ENDBRANCH  35  36
ENDBRANCH  34  35
ENDBRANCH  33  34
ENDBRANCH  32  33
ENDBRANCH  31  32
ENDBRANCH  30  31
ENDBRANCH  29  30
ENDBRANCH   1  29
TORSDOF 27
