REMARK SMILES CCCC[C@@H](Sc1nc(OCCC2CCCCC2)cc(OCCC2CCCCC2)n1)C(=O)OCCOCCOCCOCCOC(=O)c1ccc(-c2c3nc(c(-c4cccc(S(=O)(=O)[O-])c4F)c4ccc([nH]4)c(-c4cccc(S(=O)(=O)[O-])c4F)c4nc(c(-c5cccc(S(=O)(=O)[O-])c5F)c5ccc2[nH]5)C=C4)C=C3)cc1
REMARK SMILES IDX 37 1 36 2 35 3 34 4 33 5 31 6 32 7 5 8 4 9 3 10 2 11 1 12
REMARK SMILES IDX 6 13 7 14 8 15 30 16 9 17 20 18 19 19 10 20 11 21 12 22
REMARK SMILES IDX 13 23 14 24 18 25 15 26 17 27 16 28 21 29 22 30 23 31 24 32
REMARK SMILES IDX 25 33 29 34 26 35 28 36 27 37 38 38 39 39 40 40 41 41 42 42
REMARK SMILES IDX 43 43 44 44 45 45 46 46 47 47 48 48 49 49 110 50 50 51
REMARK SMILES IDX 109 52 51 53 52 54 53 55 103 56 54 57 108 58 102 59 104 60
REMARK SMILES IDX 55 61 107 62 101 63 100 64 56 66 88 67 68 68 87 69 69 70
REMARK SMILES IDX 72 71 86 72 105 73 70 74 71 75 85 77 106 78 73 79 57 80
REMARK SMILES IDX 58 81 66 82 59 83 61 84 67 85 60 86 62 87 63 88 64 89 65 90
REMARK SMILES IDX 89 91 90 92 98 93 91 94 93 95 99 96 92 97 94 98 95 99 96 100
REMARK SMILES IDX 97 101 74 102 75 103 83 104 76 105 78 106 84 107 77 108
REMARK SMILES IDX 79 109 80 110 81 111 82 112
REMARK H PARENT 104 65 72 76
REMARK Flexibility Score: inf
ROOT
ATOM      1  C   UNL     1      -1.567  -3.917   0.063  1.00  0.00     0.188 C 
ENDROOT
BRANCH   1   2
ATOM      2  O   UNL     1      -2.419  -5.052  -0.015  1.00  0.00    -0.376 OA
BRANCH   2   3
ATOM      3  C   UNL     1      -2.509  -5.856  -1.185  1.00  0.00     0.202 C 
BRANCH   3   4
ATOM      4  C   UNL     1      -2.716  -5.293  -2.597  1.00  0.00     0.261 C 
BRANCH   4   5
ATOM      5  O   UNL     1      -1.969  -4.127  -2.927  1.00  0.00    -0.462 OA
BRANCH   5   6
ATOM      6  C   UNL     1      -2.645  -2.963  -2.796  1.00  0.00     0.319 C 
ATOM      7  O   UNL     1      -3.801  -2.878  -2.385  1.00  0.00    -0.251 OA
BRANCH   6   8
ATOM      8  C   UNL     1      -1.829  -1.748  -3.197  1.00  0.00     0.164 C 
BRANCH   8   9
ATOM      9  C   UNL     1      -0.286  -1.892  -3.197  1.00  0.00     0.027 C 
BRANCH   9  10
ATOM     10  C   UNL     1       0.543  -0.834  -2.416  1.00  0.00     0.001 C 
BRANCH  10  11
ATOM     11  C   UNL     1      -0.019  -0.286  -1.092  1.00  0.00    -0.003 C 
ATOM     12  C   UNL     1       0.910  -0.417   0.110  1.00  0.00     0.004 C 
ENDBRANCH  10  11
ENDBRANCH   9  10
ENDBRANCH   8   9
BRANCH   8  13
ATOM     13  S   UNL     1      -2.505  -1.214  -4.810  1.00  0.00    -0.071 SA
BRANCH  13  14
ATOM     14  C   UNL     1      -1.808   0.396  -4.736  1.00  0.00     0.195 A 
ATOM     15  N   UNL     1      -2.135   1.157  -3.673  1.00  0.00    -0.187 NA
ATOM     16  N   UNL     1      -0.813   0.628  -5.594  1.00  0.00    -0.187 NA
ATOM     17  C   UNL     1      -1.409   2.257  -3.494  1.00  0.00     0.221 A 
ATOM     18  C   UNL     1      -0.105   1.732  -5.393  1.00  0.00     0.221 A 
ATOM     19  C   UNL     1      -0.400   2.579  -4.362  1.00  0.00     0.136 A 
BRANCH  17  20
ATOM     20  O   UNL     1      -1.545   2.850  -2.260  1.00  0.00    -0.477 OA
BRANCH  20  21
ATOM     21  C   UNL     1      -1.627   4.269  -2.143  1.00  0.00     0.231 C 
BRANCH  21  22
ATOM     22  C   UNL     1      -0.355   5.107  -1.772  1.00  0.00     0.045 C 
BRANCH  22  23
ATOM     23  C   UNL     1       1.039   4.608  -2.184  1.00  0.00    -0.008 C 
ATOM     24  C   UNL     1       2.230   5.547  -1.941  1.00  0.00     0.004 C 
ATOM     25  C   UNL     1       1.372   3.266  -1.535  1.00  0.00     0.004 C 
ATOM     26  C   UNL     1       3.506   4.927  -2.559  1.00  0.00     0.000 C 
ATOM     27  C   UNL     1       2.553   2.605  -2.221  1.00  0.00     0.000 C 
ATOM     28  C   UNL     1       3.780   3.491  -2.098  1.00  0.00     0.000 C 
ENDBRANCH  22  23
ENDBRANCH  21  22
ENDBRANCH  20  21
ENDBRANCH  17  20
BRANCH  18  29
ATOM     29  O   UNL     1       0.900   1.900  -6.295  1.00  0.00    -0.477 OA
BRANCH  29  30
ATOM     30  C   UNL     1       1.634   3.118  -6.365  1.00  0.00     0.231 C 
BRANCH  30  31
ATOM     31  C   UNL     1       1.261   3.946  -7.604  1.00  0.00     0.045 C 
BRANCH  31  32
ATOM     32  C   UNL     1      -0.081   4.731  -7.593  1.00  0.00    -0.008 C 
ATOM     33  C   UNL     1      -1.325   3.820  -7.605  1.00  0.00     0.004 C 
ATOM     34  C   UNL     1      -0.049   5.894  -6.584  1.00  0.00     0.004 C 
ATOM     35  C   UNL     1      -2.502   4.171  -6.697  1.00  0.00     0.000 C 
ATOM     36  C   UNL     1      -1.415   6.348  -6.093  1.00  0.00     0.000 C 
ATOM     37  C   UNL     1      -2.188   5.154  -5.592  1.00  0.00     0.000 C 
ENDBRANCH  31  32
ENDBRANCH  30  31
ENDBRANCH  29  30
ENDBRANCH  18  29
ENDBRANCH  13  14
ENDBRANCH   8  13
ENDBRANCH   6   8
ENDBRANCH   5   6
ENDBRANCH   4   5
ENDBRANCH   3   4
ENDBRANCH   2   3
ENDBRANCH   1   2
BRANCH   1  38
ATOM     38  C   UNL     1      -0.108  -3.980  -0.399  1.00  0.00     0.188 C 
BRANCH  38  39
ATOM     39  O   UNL     1       0.126  -4.944  -1.398  1.00  0.00    -0.377 OA
BRANCH  39  40
ATOM     40  C   UNL     1       0.836  -6.113  -1.014  1.00  0.00     0.188 C 
BRANCH  40  41
ATOM     41  C   UNL     1       0.530  -6.726   0.372  1.00  0.00     0.188 C 
BRANCH  41  42
ATOM     42  O   UNL     1       0.591  -5.811   1.460  1.00  0.00    -0.376 OA
BRANCH  42  43
ATOM     43  C   UNL     1       1.792  -5.761   2.218  1.00  0.00     0.202 C 
BRANCH  43  44
ATOM     44  C   UNL     1       3.051  -5.239   1.506  1.00  0.00     0.261 C 
BRANCH  44  45
ATOM     45  O   UNL     1       3.507  -6.006   0.380  1.00  0.00    -0.460 OA
BRANCH  45  46
ATOM     46  C   UNL     1       3.782  -7.318   0.568  1.00  0.00     0.338 C 
ATOM     47  O   UNL     1       3.765  -7.928   1.613  1.00  0.00    -0.246 OA
BRANCH  46  48
ATOM     48  C   UNL     1       3.888  -7.934  -0.776  1.00  0.00     0.060 A 
ATOM     49  C   UNL     1       2.965  -8.923  -1.144  1.00  0.00     0.016 A 
ATOM     50  C   UNL     1       4.865  -7.508  -1.676  1.00  0.00     0.016 A 
ATOM     51  C   UNL     1       3.018  -9.491  -2.417  1.00  0.00     0.010 A 
ATOM     52  C   UNL     1       4.939  -8.103  -2.937  1.00  0.00     0.010 A 
ATOM     53  C   UNL     1       4.029  -9.109  -3.306  1.00  0.00    -0.014 A 
BRANCH  53  54
ATOM     54  C   UNL     1       4.253  -9.872  -4.556  1.00  0.00     0.031 A 
ATOM     55  C   UNL     1       5.295 -10.953  -4.551  1.00  0.00     0.074 A 
ATOM     56  C   UNL     1       3.573  -9.589  -5.680  1.00  0.00     0.049 A 
ATOM     57  N   UNL     1       5.747 -11.676  -5.541  1.00  0.00    -0.248 NA
ATOM     58  C   UNL     1       5.914 -11.256  -3.249  1.00  0.00     0.031 C 
ATOM     59  C   UNL     1       2.515  -8.588  -5.801  1.00  0.00     0.029 A 
ATOM     60  N   UNL     1       3.702 -10.101  -6.948  1.00  0.00    -0.354 N 
ATOM     61  C   UNL     1       6.725 -12.496  -4.992  1.00  0.00     0.074 A 
ATOM     62  C   UNL     1       6.804 -12.178  -3.583  1.00  0.00     0.031 C 
ATOM     63  C   UNL     1       2.114  -8.533  -7.083  1.00  0.00     0.029 A 
ATOM     64  C   UNL     1       2.914  -9.464  -7.878  1.00  0.00     0.049 A 
ATOM     65  H   UNL     1       4.300 -10.851  -7.169  1.00  0.00     0.167 HD
ATOM     66  C   UNL     1       7.484 -13.434  -5.604  1.00  0.00     0.034 A 
ATOM     67  C   UNL     1       2.875  -9.594  -9.219  1.00  0.00     0.034 A 
ATOM     68  C   UNL     1       7.406 -13.741  -7.006  1.00  0.00     0.049 A 
ATOM     69  C   UNL     1       3.792 -10.585  -9.892  1.00  0.00     0.074 A 
ATOM     70  C   UNL     1       8.109 -14.696  -7.718  1.00  0.00     0.029 A 
ATOM     71  N   UNL     1       6.593 -13.081  -7.916  1.00  0.00    -0.354 N 
ATOM     72  N   UNL     1       4.640 -11.426  -9.352  1.00  0.00    -0.248 NA
ATOM     73  C   UNL     1       3.734 -10.654 -11.361  1.00  0.00     0.031 C 
ATOM     74  C   UNL     1       7.753 -14.584  -9.066  1.00  0.00     0.029 A 
ATOM     75  C   UNL     1       6.797 -13.588  -9.187  1.00  0.00     0.049 A 
ATOM     76  H   UNL     1       5.964 -12.359  -7.690  1.00  0.00     0.167 HD
ATOM     77  C   UNL     1       5.192 -12.146 -10.408  1.00  0.00     0.074 A 
ATOM     78  C   UNL     1       4.568 -11.653 -11.619  1.00  0.00     0.031 C 
ATOM     79  C   UNL     1       6.137 -13.118 -10.380  1.00  0.00     0.034 A 
BRANCH  66  80
ATOM     80  C   UNL     1       8.469 -14.191  -4.753  1.00  0.00     0.023 A 
ATOM     81  C   UNL     1       8.004 -15.126  -3.805  1.00  0.00     0.012 A 
ATOM     82  C   UNL     1       9.855 -13.994  -4.905  1.00  0.00     0.148 A 
ATOM     83  C   UNL     1       8.900 -15.821  -2.994  1.00  0.00     0.002 A 
ATOM     84  C   UNL     1      10.744 -14.725  -4.126  1.00  0.00     0.091 A 
ATOM     85  F   UNL     1      10.278 -13.083  -5.794  1.00  0.00    -0.205 F 
ATOM     86  C   UNL     1      10.268 -15.627  -3.161  1.00  0.00     0.022 A 
BRANCH  84  87
ATOM     87  S   UNL     1      12.525 -14.603  -4.318  1.00  0.00     0.127 S 
ATOM     88  O   UNL     1      12.907 -13.908  -3.089  1.00  0.00    -0.237 OA
ATOM     89  O   UNL     1      12.925 -16.009  -4.373  1.00  0.00    -0.237 OA
ATOM     90  O   UNL     1      12.747 -13.860  -5.551  1.00  0.00    -0.744 OA
ENDBRANCH  84  87
ENDBRANCH  66  80
BRANCH  67  91
ATOM     91  C   UNL     1       1.927  -8.771 -10.023  1.00  0.00     0.023 A 
ATOM     92  C   UNL     1       0.848  -9.398 -10.675  1.00  0.00     0.012 A 
ATOM     93  C   UNL     1       2.085  -7.376 -10.141  1.00  0.00     0.148 A 
ATOM     94  C   UNL     1      -0.045  -8.655 -11.449  1.00  0.00     0.002 A 
ATOM     95  C   UNL     1       1.164  -6.635 -10.872  1.00  0.00     0.091 A 
ATOM     96  F   UNL     1       3.129  -6.802  -9.527  1.00  0.00    -0.205 F 
ATOM     97  C   UNL     1       0.107  -7.274 -11.539  1.00  0.00     0.022 A 
BRANCH  95  98
ATOM     98  S   UNL     1       1.214  -4.842 -10.960  1.00  0.00     0.127 S 
ATOM     99  O   UNL     1       1.495  -4.621 -12.377  1.00  0.00    -0.237 OA
ATOM    100  O   UNL     1      -0.140  -4.487 -10.537  1.00  0.00    -0.237 OA
ATOM    101  O   UNL     1       2.268  -4.431 -10.042  1.00  0.00    -0.744 OA
ENDBRANCH  95  98
ENDBRANCH  67  91
BRANCH  79 102
ATOM    102  C   UNL     1       6.545 -13.746 -11.689  1.00  0.00     0.023 A 
ATOM    103  C   UNL     1       7.340 -13.021 -12.598  1.00  0.00     0.012 A 
ATOM    104  C   UNL     1       6.226 -15.091 -11.970  1.00  0.00     0.148 A 
ATOM    105  C   UNL     1       7.790 -13.615 -13.777  1.00  0.00     0.002 A 
ATOM    106  C   UNL     1       6.720 -15.691 -13.121  1.00  0.00     0.091 A 
ATOM    107  F   UNL     1       5.460 -15.760 -11.096  1.00  0.00    -0.205 F 
ATOM    108  C   UNL     1       7.492 -14.952 -14.032  1.00  0.00     0.022 A 
BRANCH 106 109
ATOM    109  S   UNL     1       6.474 -17.433 -13.489  1.00  0.00     0.127 S 
ATOM    110  O   UNL     1       5.638 -17.368 -14.688  1.00  0.00    -0.237 OA
ATOM    111  O   UNL     1       7.842 -17.893 -13.724  1.00  0.00    -0.237 OA
ATOM    112  O   UNL     1       5.830 -18.008 -12.317  1.00  0.00    -0.744 OA
ENDBRANCH 106 109
ENDBRANCH  79 102
ENDBRANCH  53  54
ENDBRANCH  46  48
ENDBRANCH  45  46
ENDBRANCH  44  45
ENDBRANCH  43  44
ENDBRANCH  42  43
ENDBRANCH  41  42
ENDBRANCH  40  41
ENDBRANCH  39  40
ENDBRANCH  38  39
ENDBRANCH   1  38
TORSDOF 36
