REMARK SMILES C[C@@H](CC(=O)OCCOCCOCCOCCOC(=O)c1ccc(-c2c3nc(c(-c4cccc(S(=O)(=O)[O-])c4F)c4ccc([nH]4)c(-c4cccc(S(=O)(=O)[O-])c4F)c4nc(c(-c5cccc(S(=O)(=O)[O-])c5F)c5ccc2[nH]5)C=C4)C=C3)cc1)NC(=O)/C=C/c1cccnc1
REMARK SMILES IDX 11 1 10 2 9 3 8 4 7 5 6 6 4 7 5 8 3 9 2 10 1 11 84 12 85 13
REMARK SMILES IDX 86 15 87 16 88 17 89 18 90 19 94 20 91 21 93 22 92 23 12 24
REMARK SMILES IDX 13 25 14 26 15 27 16 28 17 29 18 30 19 31 20 32 21 33 22 34
REMARK SMILES IDX 83 35 23 36 82 37 24 38 25 39 26 40 76 41 27 42 81 43 75 44
REMARK SMILES IDX 77 45 28 46 80 47 74 48 73 49 29 51 61 52 41 53 60 54 42 55
REMARK SMILES IDX 45 56 59 57 78 58 43 59 44 60 58 62 79 63 46 64 30 65 31 66
REMARK SMILES IDX 39 67 32 68 34 69 40 70 33 71 35 72 36 73 37 74 38 75 62 76
REMARK SMILES IDX 63 77 71 78 64 79 66 80 72 81 65 82 67 83 68 84 69 85 70 86
REMARK SMILES IDX 47 87 48 88 56 89 49 90 51 91 57 92 50 93 52 94 53 95 54 96
REMARK SMILES IDX 55 97
REMARK H PARENT 84 14 77 50 45 61
REMARK Flexibility Score: inf
ROOT
ATOM      1  C   UNL     1      -1.647   2.643   0.562  1.00  0.00     0.188 C 
ENDROOT
BRANCH   1   2
ATOM      2  C   UNL     1      -1.430   4.156   0.517  1.00  0.00     0.188 C 
BRANCH   2   3
ATOM      3  O   UNL     1      -1.348   4.800  -0.741  1.00  0.00    -0.376 OA
BRANCH   3   4
ATOM      4  C   UNL     1      -0.265   4.490  -1.618  1.00  0.00     0.202 C 
BRANCH   4   5
ATOM      5  C   UNL     1       1.122   4.122  -1.063  1.00  0.00     0.261 C 
BRANCH   5   6
ATOM      6  O   UNL     1       1.187   2.819  -0.432  1.00  0.00    -0.463 OA
BRANCH   6   7
ATOM      7  C   UNL     1       1.691   2.767   0.818  1.00  0.00     0.307 C 
ATOM      8  O   UNL     1       2.098   3.756   1.427  1.00  0.00    -0.252 OA
BRANCH   7   9
ATOM      9  C   UNL     1       1.721   1.404   1.497  1.00  0.00     0.147 C 
BRANCH   9  10
ATOM     10  C   UNL     1       1.193   0.084   0.902  1.00  0.00     0.090 C 
ATOM     11  C   UNL     1       1.536  -0.158  -0.561  1.00  0.00     0.031 C 
BRANCH  10  12
ATOM     12  N   UNL     1      -0.241  -0.108   1.150  1.00  0.00    -0.350 N 
ATOM     13  C   UNL     1      -0.969  -0.673   2.149  1.00  0.00     0.244 C 
ATOM     14  H   UNL     1      -0.803   0.254   0.427  1.00  0.00     0.164 HD
ATOM     15  O   UNL     1      -2.196  -0.552   2.143  1.00  0.00    -0.270 OA
BRANCH  13  16
ATOM     16  C   UNL     1      -0.373  -1.538   3.199  1.00  0.00     0.072 C 
ATOM     17  C   UNL     1       0.837  -1.438   3.765  1.00  0.00     0.015 C 
BRANCH  17  18
ATOM     18  C   UNL     1       1.433  -2.408   4.699  1.00  0.00    -0.007 A 
ATOM     19  C   UNL     1       1.018  -3.738   4.817  1.00  0.00     0.011 A 
ATOM     20  C   UNL     1       2.576  -2.048   5.415  1.00  0.00     0.119 A 
ATOM     21  C   UNL     1       1.752  -4.632   5.600  1.00  0.00     0.021 A 
ATOM     22  N   UNL     1       3.302  -2.888   6.192  1.00  0.00    -0.264 NA
ATOM     23  C   UNL     1       2.882  -4.167   6.250  1.00  0.00     0.111 A 
ENDBRANCH  17  18
ENDBRANCH  13  16
ENDBRANCH  10  12
ENDBRANCH   9  10
ENDBRANCH   7   9
ENDBRANCH   6   7
ENDBRANCH   5   6
ENDBRANCH   4   5
ENDBRANCH   3   4
ENDBRANCH   2   3
ENDBRANCH   1   2
BRANCH   1  24
ATOM     24  O   UNL     1      -1.226   1.908  -0.573  1.00  0.00    -0.377 OA
BRANCH  24  25
ATOM     25  C   UNL     1      -2.115   1.703  -1.669  1.00  0.00     0.188 C 
BRANCH  25  26
ATOM     26  C   UNL     1      -3.461   2.435  -1.696  1.00  0.00     0.188 C 
BRANCH  26  27
ATOM     27  O   UNL     1      -4.201   2.273  -0.498  1.00  0.00    -0.376 OA
BRANCH  27  28
ATOM     28  C   UNL     1      -5.118   1.194  -0.392  1.00  0.00     0.202 C 
BRANCH  28  29
ATOM     29  C   UNL     1      -4.620  -0.246  -0.594  1.00  0.00     0.261 C 
BRANCH  29  30
ATOM     30  O   UNL     1      -4.070  -0.589  -1.878  1.00  0.00    -0.460 OA
BRANCH  30  31
ATOM     31  C   UNL     1      -4.773  -0.324  -2.999  1.00  0.00     0.338 C 
ATOM     32  O   UNL     1      -5.886   0.152  -3.079  1.00  0.00    -0.246 OA
BRANCH  31  33
ATOM     33  C   UNL     1      -3.858  -0.545  -4.141  1.00  0.00     0.060 A 
ATOM     34  C   UNL     1      -3.564   0.522  -4.999  1.00  0.00     0.016 A 
ATOM     35  C   UNL     1      -3.292  -1.803  -4.359  1.00  0.00     0.016 A 
ATOM     36  C   UNL     1      -2.728   0.323  -6.101  1.00  0.00     0.010 A 
ATOM     37  C   UNL     1      -2.468  -2.004  -5.469  1.00  0.00     0.010 A 
ATOM     38  C   UNL     1      -2.207  -0.951  -6.364  1.00  0.00    -0.014 A 
BRANCH  38  39
ATOM     39  C   UNL     1      -1.524  -1.236  -7.650  1.00  0.00     0.031 A 
ATOM     40  C   UNL     1      -2.304  -1.918  -8.742  1.00  0.00     0.074 A 
ATOM     41  C   UNL     1      -0.225  -0.936  -7.834  1.00  0.00     0.049 A 
ATOM     42  N   UNL     1      -1.897  -2.349  -9.906  1.00  0.00    -0.248 NA
ATOM     43  C   UNL     1      -3.735  -2.148  -8.480  1.00  0.00     0.031 C 
ATOM     44  C   UNL     1       0.636  -0.272  -6.859  1.00  0.00     0.029 A 
ATOM     45  N   UNL     1       0.604  -1.190  -8.900  1.00  0.00    -0.354 N 
ATOM     46  C   UNL     1      -3.008  -2.933 -10.502  1.00  0.00     0.074 A 
ATOM     47  C   UNL     1      -4.106  -2.804  -9.569  1.00  0.00     0.031 C 
ATOM     48  C   UNL     1       1.884  -0.205  -7.354  1.00  0.00     0.029 A 
ATOM     49  C   UNL     1       1.917  -0.852  -8.666  1.00  0.00     0.049 A 
ATOM     50  H   UNL     1       0.289  -1.577  -9.749  1.00  0.00     0.167 HD
ATOM     51  C   UNL     1      -3.109  -3.518 -11.718  1.00  0.00     0.034 A 
ATOM     52  C   UNL     1       3.021  -1.072  -9.408  1.00  0.00     0.034 A 
ATOM     53  C   UNL     1      -2.021  -3.634 -12.650  1.00  0.00     0.049 A 
ATOM     54  C   UNL     1       2.890  -1.761 -10.743  1.00  0.00     0.074 A 
ATOM     55  C   UNL     1      -2.038  -4.158 -13.930  1.00  0.00     0.029 A 
ATOM     56  N   UNL     1      -0.716  -3.242 -12.395  1.00  0.00    -0.354 N 
ATOM     57  N   UNL     1       1.810  -2.196 -11.347  1.00  0.00    -0.248 NA
ATOM     58  C   UNL     1       4.128  -1.969 -11.512  1.00  0.00     0.031 C 
ATOM     59  C   UNL     1      -0.735  -4.119 -14.435  1.00  0.00     0.029 A 
ATOM     60  C   UNL     1       0.086  -3.534 -13.484  1.00  0.00     0.049 A 
ATOM     61  H   UNL     1      -0.406  -2.818 -11.562  1.00  0.00     0.167 HD
ATOM     62  C   UNL     1       2.232  -2.695 -12.576  1.00  0.00     0.074 A 
ATOM     63  C   UNL     1       3.664  -2.491 -12.640  1.00  0.00     0.031 C 
ATOM     64  C   UNL     1       1.502  -3.280 -13.558  1.00  0.00     0.034 A 
BRANCH  51  65
ATOM     65  C   UNL     1      -4.450  -4.071 -12.121  1.00  0.00     0.023 A 
ATOM     66  C   UNL     1      -5.501  -3.192 -12.453  1.00  0.00     0.012 A 
ATOM     67  C   UNL     1      -4.651  -5.461 -12.229  1.00  0.00     0.148 A 
ATOM     68  C   UNL     1      -6.740  -3.688 -12.856  1.00  0.00     0.002 A 
ATOM     69  C   UNL     1      -5.873  -5.947 -12.676  1.00  0.00     0.091 A 
ATOM     70  F   UNL     1      -3.646  -6.280 -11.888  1.00  0.00    -0.205 F 
ATOM     71  C   UNL     1      -6.922  -5.063 -12.978  1.00  0.00     0.022 A 
BRANCH  69  72
ATOM     72  S   UNL     1      -6.182  -7.696 -12.941  1.00  0.00     0.127 S 
ATOM     73  O   UNL     1      -7.138  -7.992 -11.874  1.00  0.00    -0.237 OA
ATOM     74  O   UNL     1      -6.751  -7.705 -14.289  1.00  0.00    -0.237 OA
ATOM     75  O   UNL     1      -4.890  -8.357 -12.821  1.00  0.00    -0.744 OA
ENDBRANCH  69  72
ENDBRANCH  51  65
BRANCH  52  76
ATOM     76  C   UNL     1       4.356  -0.630  -8.911  1.00  0.00     0.023 A 
ATOM     77  C   UNL     1       5.037   0.410  -9.572  1.00  0.00     0.012 A 
ATOM     78  C   UNL     1       4.951  -1.233  -7.785  1.00  0.00     0.148 A 
ATOM     79  C   UNL     1       6.300   0.821  -9.140  1.00  0.00     0.002 A 
ATOM     80  C   UNL     1       6.182  -0.780  -7.326  1.00  0.00     0.091 A 
ATOM     81  F   UNL     1       4.297  -2.235  -7.181  1.00  0.00    -0.205 F 
ATOM     82  C   UNL     1       6.867   0.233  -8.013  1.00  0.00     0.022 A 
BRANCH  80  83
ATOM     83  S   UNL     1       6.927  -1.386  -5.808  1.00  0.00     0.127 S 
ATOM     84  O   UNL     1       8.085  -2.119  -6.313  1.00  0.00    -0.237 OA
ATOM     85  O   UNL     1       7.241  -0.139  -5.109  1.00  0.00    -0.237 OA
ATOM     86  O   UNL     1       5.902  -2.194  -5.160  1.00  0.00    -0.744 OA
ENDBRANCH  80  83
ENDBRANCH  52  76
BRANCH  64  87
ATOM     87  C   UNL     1       2.220  -3.715 -14.810  1.00  0.00     0.023 A 
ATOM     88  C   UNL     1       3.061  -4.845 -14.782  1.00  0.00     0.012 A 
ATOM     89  C   UNL     1       1.982  -3.060 -16.036  1.00  0.00     0.148 A 
ATOM     90  C   UNL     1       3.676  -5.299 -15.949  1.00  0.00     0.002 A 
ATOM     91  C   UNL     1       2.558  -3.549 -17.203  1.00  0.00     0.091 A 
ATOM     92  F   UNL     1       1.189  -1.980 -16.039  1.00  0.00    -0.205 F 
ATOM     93  C   UNL     1       3.415  -4.661 -17.159  1.00  0.00     0.022 A 
BRANCH  91  94
ATOM     94  S   UNL     1       2.203  -2.855 -18.821  1.00  0.00     0.127 S 
ATOM     95  O   UNL     1       3.489  -2.256 -19.176  1.00  0.00    -0.237 OA
ATOM     96  O   UNL     1       1.850  -4.044 -19.596  1.00  0.00    -0.237 OA
ATOM     97  O   UNL     1       1.111  -1.911 -18.626  1.00  0.00    -0.744 OA
ENDBRANCH  91  94
ENDBRANCH  64  87
ENDBRANCH  38  39
ENDBRANCH  31  33
ENDBRANCH  30  31
ENDBRANCH  29  30
ENDBRANCH  28  29
ENDBRANCH  27  28
ENDBRANCH  26  27
ENDBRANCH  25  26
ENDBRANCH  24  25
ENDBRANCH   1  24
TORSDOF 27
