REMARK SMILES O=C(N[C@@H](Cc1c[nH]c2ccccc12)C(=O)N[C@@H](CS)C(=O)N[C@@H](CO)C(=O)OCCOCCOCCOCCOC(=O)c1ccc(-c2c3nc(c(-c4cccc(S(=O)(=O)[O-])c4F)c4ccc([nH]4)c(-c4cccc(S(=O)(=O)[O-])c4F)c4nc(c(-c5cccc(S(=O)(=O)[O-])c5F)c5ccc2[nH]5)C=C4)C=C3)cc1)c1ccc(F)cc1
REMARK SMILES IDX 33 1 32 2 31 3 30 4 29 5 27 6 28 7 24 8 23 9 21 10 22 11
REMARK SMILES IDX 18 13 17 14 15 15 16 16 4 18 3 19 1 20 2 21 107 23 108 24
REMARK SMILES IDX 113 25 109 26 112 27 110 28 111 29 5 30 6 31 7 32 14 33 8 34
REMARK SMILES IDX 9 35 13 36 10 38 12 39 11 40 19 41 20 42 25 44 26 45 34 47
REMARK SMILES IDX 35 48 36 49 37 50 38 51 39 52 40 53 41 54 42 55 43 56 44 57
REMARK SMILES IDX 45 58 106 59 46 60 105 61 47 62 48 63 49 64 99 65 50 66
REMARK SMILES IDX 104 67 98 68 100 69 51 70 103 71 97 72 96 73 52 75 84 76
REMARK SMILES IDX 64 77 83 78 65 79 68 80 82 81 101 82 66 83 67 84 81 86
REMARK SMILES IDX 102 87 69 88 53 89 54 90 62 91 55 92 57 93 63 94 56 95 58 96
REMARK SMILES IDX 59 97 60 98 61 99 85 100 86 101 94 102 87 103 89 104 95 105
REMARK SMILES IDX 88 106 90 107 91 108 92 109 93 110 70 111 71 112 79 113
REMARK SMILES IDX 72 114 74 115 80 116 73 117 75 118 76 119 77 120 78 121
REMARK H PARENT 23 12 17 17 3 22 8 37 20 43 26 46 100 74 68 85
REMARK Flexibility Score: inf
ROOT
ATOM      1  C   UNL     1       1.830  -3.251   7.631  1.00  0.00     0.188 C 
ENDROOT
BRANCH   1   2
ATOM      2  O   UNL     1       1.531  -3.827   8.898  1.00  0.00    -0.376 OA
BRANCH   2   3
ATOM      3  C   UNL     1       2.323  -4.937   9.318  1.00  0.00     0.202 C 
BRANCH   3   4
ATOM      4  C   UNL     1       3.844  -4.750   9.411  1.00  0.00     0.261 C 
BRANCH   4   5
ATOM      5  O   UNL     1       4.429  -4.310   8.176  1.00  0.00    -0.462 OA
BRANCH   5   6
ATOM      6  C   UNL     1       4.811  -5.243   7.264  1.00  0.00     0.331 C 
ATOM      7  O   UNL     1       4.740  -6.454   7.420  1.00  0.00    -0.250 OA
BRANCH   6   8
ATOM      8  C   UNL     1       5.387  -4.555   6.014  1.00  0.00     0.218 C 
BRANCH   8   9
ATOM      9  N   UNL     1       4.973  -3.133   5.942  1.00  0.00    -0.339 N 
ATOM     10  C   UNL     1       5.322  -2.342   4.891  1.00  0.00     0.244 C 
ATOM     11  O   UNL     1       6.497  -1.976   4.813  1.00  0.00    -0.273 OA
ATOM     12  H   UNL     1       4.434  -2.752   6.672  1.00  0.00     0.164 HD
BRANCH  10  13
ATOM     13  C   UNL     1       4.244  -1.900   3.842  1.00  0.00     0.181 C 
BRANCH  13  14
ATOM     14  N   UNL     1       4.905  -2.043   2.534  1.00  0.00    -0.342 N 
ATOM     15  C   UNL     1       5.354  -1.086   1.670  1.00  0.00     0.243 C 
ATOM     16  O   UNL     1       6.411  -1.343   1.082  1.00  0.00    -0.273 OA
ATOM     17  H   UNL     1       5.045  -2.971   2.237  1.00  0.00     0.164 HD
BRANCH  15  18
ATOM     18  C   UNL     1       4.601   0.228   1.341  1.00  0.00     0.176 C 
BRANCH  18  19
ATOM     19  N   UNL     1       3.150   0.046   1.236  1.00  0.00    -0.340 N 
ATOM     20  O   UNL     1       1.183  -0.239   0.146  1.00  0.00    -0.269 OA
ATOM     21  C   UNL     1       2.401  -0.107   0.086  1.00  0.00     0.251 C 
ATOM     22  H   UNL     1       2.651   0.032   2.084  1.00  0.00     0.164 HD
BRANCH  21  23
ATOM     23  C   UNL     1       3.052  -0.030  -1.249  1.00  0.00     0.040 A 
ATOM     24  C   UNL     1       4.039  -0.945  -1.643  1.00  0.00     0.017 A 
ATOM     25  C   UNL     1       2.673   1.007  -2.112  1.00  0.00     0.017 A 
ATOM     26  C   UNL     1       4.700  -0.769  -2.863  1.00  0.00     0.040 A 
ATOM     27  C   UNL     1       3.328   1.170  -3.336  1.00  0.00     0.040 A 
ATOM     28  C   UNL     1       4.345   0.290  -3.692  1.00  0.00     0.123 A 
ATOM     29  F   UNL     1       4.993   0.467  -4.852  1.00  0.00    -0.207 F 
ENDBRANCH  21  23
ENDBRANCH  18  19
BRANCH  18  30
ATOM     30  C   UNL     1       5.068   1.558   1.964  1.00  0.00     0.072 C 
BRANCH  30  31
ATOM     31  C   UNL     1       4.890   1.774   3.431  1.00  0.00    -0.020 A 
ATOM     32  C   UNL     1       5.549   1.084   4.427  1.00  0.00     0.087 A 
ATOM     33  C   UNL     1       4.221   2.858   4.099  1.00  0.00     0.003 A 
ATOM     34  N   UNL     1       5.074   1.494   5.640  1.00  0.00    -0.361 N 
ATOM     35  C   UNL     1       4.303   2.617   5.473  1.00  0.00     0.046 A 
ATOM     36  C   UNL     1       3.599   4.054   3.677  1.00  0.00     0.010 A 
ATOM     37  H   UNL     1       5.257   1.052   6.501  1.00  0.00     0.166 HD
ATOM     38  C   UNL     1       3.732   3.455   6.437  1.00  0.00     0.026 A 
ATOM     39  C   UNL     1       3.095   4.947   4.635  1.00  0.00     0.001 A 
ATOM     40  C   UNL     1       3.142   4.639   5.992  1.00  0.00     0.002 A 
ENDBRANCH  30  31
ENDBRANCH  18  30
ENDBRANCH  15  18
ENDBRANCH  13  14
BRANCH  13  41
ATOM     41  C   UNL     1       2.848  -2.527   3.909  1.00  0.00     0.101 C 
BRANCH  41  42
ATOM     42  S   UNL     1       2.727  -4.317   3.623  1.00  0.00    -0.177 SA
ATOM     43  H   UNL     1       3.112  -4.600   2.350  1.00  0.00     0.102 HD
ENDBRANCH  41  42
ENDBRANCH  13  41
ENDBRANCH  10  13
ENDBRANCH   8   9
BRANCH   8  44
ATOM     44  C   UNL     1       6.912  -4.715   6.037  1.00  0.00     0.193 C 
BRANCH  44  45
ATOM     45  O   UNL     1       7.492  -3.890   7.044  1.00  0.00    -0.394 OA
ATOM     46  H   UNL     1       7.285  -2.961   6.859  1.00  0.00     0.210 HD
ENDBRANCH  44  45
ENDBRANCH   8  44
ENDBRANCH   6   8
ENDBRANCH   5   6
ENDBRANCH   4   5
ENDBRANCH   3   4
ENDBRANCH   2   3
ENDBRANCH   1   2
BRANCH   1  47
ATOM     47  C   UNL     1       2.556  -1.902   7.753  1.00  0.00     0.188 C 
BRANCH  47  48
ATOM     48  O   UNL     1       3.226  -1.739   8.985  1.00  0.00    -0.377 OA
BRANCH  48  49
ATOM     49  C   UNL     1       2.470  -1.200  10.071  1.00  0.00     0.188 C 
BRANCH  49  50
ATOM     50  C   UNL     1       0.921  -1.234  10.081  1.00  0.00     0.188 C 
BRANCH  50  51
ATOM     51  O   UNL     1       0.293  -0.845   8.860  1.00  0.00    -0.376 OA
BRANCH  51  52
ATOM     52  C   UNL     1      -0.255   0.468   8.803  1.00  0.00     0.202 C 
BRANCH  52  53
ATOM     53  C   UNL     1       0.785   1.585   8.626  1.00  0.00     0.261 C 
BRANCH  53  54
ATOM     54  O   UNL     1       1.665   1.763   9.747  1.00  0.00    -0.460 OA
BRANCH  54  55
ATOM     55  C   UNL     1       1.083   2.067  10.928  1.00  0.00     0.338 C 
ATOM     56  O   UNL     1      -0.096   2.309  11.125  1.00  0.00    -0.246 OA
BRANCH  55  57
ATOM     57  C   UNL     1       2.076   1.851  11.995  1.00  0.00     0.060 A 
ATOM     58  C   UNL     1       1.768   0.945  13.018  1.00  0.00     0.016 A 
ATOM     59  C   UNL     1       3.294   2.535  11.989  1.00  0.00     0.016 A 
ATOM     60  C   UNL     1       2.663   0.756  14.068  1.00  0.00     0.010 A 
ATOM     61  C   UNL     1       4.180   2.361  13.053  1.00  0.00     0.010 A 
ATOM     62  C   UNL     1       3.848   1.502  14.115  1.00  0.00    -0.014 A 
BRANCH  62  63
ATOM     63  C   UNL     1       4.620   1.552  15.378  1.00  0.00     0.031 A 
ATOM     64  C   UNL     1       4.311   2.658  16.349  1.00  0.00     0.074 A 
ATOM     65  C   UNL     1       5.561   0.637  15.663  1.00  0.00     0.049 A 
ATOM     66  N   UNL     1       4.835   2.902  17.521  1.00  0.00    -0.248 NA
ATOM     67  C   UNL     1       3.268   3.617  15.944  1.00  0.00     0.031 C 
ATOM     68  C   UNL     1       5.944  -0.482  14.805  1.00  0.00     0.029 A 
ATOM     69  N   UNL     1       6.380   0.520  16.758  1.00  0.00    -0.354 N 
ATOM     70  C   UNL     1       4.197   4.045  17.987  1.00  0.00     0.074 A 
ATOM     71  C   UNL     1       3.261   4.459  16.965  1.00  0.00     0.031 C 
ATOM     72  C   UNL     1       6.943  -1.161  15.397  1.00  0.00     0.029 A 
ATOM     73  C   UNL     1       7.278  -0.516  16.666  1.00  0.00     0.049 A 
ATOM     74  H   UNL     1       6.328   1.121  17.536  1.00  0.00     0.167 HD
ATOM     75  C   UNL     1       4.359   4.684  19.168  1.00  0.00     0.034 A 
ATOM     76  C   UNL     1       8.262  -0.889  17.508  1.00  0.00     0.034 A 
ATOM     77  C   UNL     1       5.286   4.273  20.184  1.00  0.00     0.049 A 
ATOM     78  C   UNL     1       8.452  -0.134  18.800  1.00  0.00     0.074 A 
ATOM     79  C   UNL     1       5.506   4.837  21.428  1.00  0.00     0.029 A 
ATOM     80  N   UNL     1       6.159   3.203  20.068  1.00  0.00    -0.354 N 
ATOM     81  N   UNL     1       7.756   0.867  19.284  1.00  0.00    -0.248 NA
ATOM     82  C   UNL     1       9.542  -0.584  19.680  1.00  0.00     0.031 C 
ATOM     83  C   UNL     1       6.529   4.119  22.056  1.00  0.00     0.029 A 
ATOM     84  C   UNL     1       6.929   3.094  21.213  1.00  0.00     0.049 A 
ATOM     85  H   UNL     1       6.222   2.608  19.287  1.00  0.00     0.167 HD
ATOM     86  C   UNL     1       8.298   1.141  20.536  1.00  0.00     0.074 A 
ATOM     87  C   UNL     1       9.368   0.188  20.744  1.00  0.00     0.031 C 
ATOM     88  C   UNL     1       7.951   2.102  21.428  1.00  0.00     0.034 A 
BRANCH  75  89
ATOM     89  C   UNL     1       3.488   5.882  19.430  1.00  0.00     0.023 A 
ATOM     90  C   UNL     1       2.122   5.695  19.724  1.00  0.00     0.012 A 
ATOM     91  C   UNL     1       4.021   7.185  19.414  1.00  0.00     0.148 A 
ATOM     92  C   UNL     1       1.292   6.788  19.969  1.00  0.00     0.002 A 
ATOM     93  C   UNL     1       3.197   8.267  19.699  1.00  0.00     0.091 A 
ATOM     94  F   UNL     1       5.315   7.343  19.101  1.00  0.00    -0.205 F 
ATOM     95  C   UNL     1       1.832   8.072  19.967  1.00  0.00     0.022 A 
BRANCH  93  96
ATOM     96  S   UNL     1       3.813   9.951  19.785  1.00  0.00     0.127 S 
ATOM     97  O   UNL     1       3.275  10.525  18.553  1.00  0.00    -0.237 OA
ATOM     98  O   UNL     1       3.190  10.447  21.012  1.00  0.00    -0.237 OA
ATOM     99  O   UNL     1       5.264   9.843  19.844  1.00  0.00    -0.744 OA
ENDBRANCH  93  96
ENDBRANCH  75  89
BRANCH  76 100
ATOM    100  C   UNL     1       9.121  -2.062  17.182  1.00  0.00     0.023 A 
ATOM    101  C   UNL     1       9.014  -3.237  17.951  1.00  0.00     0.012 A 
ATOM    102  C   UNL     1      10.039  -2.023  16.114  1.00  0.00     0.148 A 
ATOM    103  C   UNL     1       9.824  -4.341  17.682  1.00  0.00     0.002 A 
ATOM    104  C   UNL     1      10.807  -3.144  15.819  1.00  0.00     0.091 A 
ATOM    105  F   UNL     1      10.143  -0.888  15.407  1.00  0.00    -0.205 F 
ATOM    106  C   UNL     1      10.713  -4.298  16.611  1.00  0.00     0.022 A 
BRANCH 104 107
ATOM    107  S   UNL     1      11.889  -3.218  14.387  1.00  0.00     0.127 S 
ATOM    108  O   UNL     1      13.210  -3.169  15.008  1.00  0.00    -0.237 OA
ATOM    109  O   UNL     1      11.529  -4.511  13.804  1.00  0.00    -0.237 OA
ATOM    110  O   UNL     1      11.531  -2.069  13.567  1.00  0.00    -0.744 OA
ENDBRANCH 104 107
ENDBRANCH  76 100
BRANCH  88 111
ATOM    111  C   UNL     1       8.705   2.158  22.731  1.00  0.00     0.023 A 
ATOM    112  C   UNL     1      10.027   2.644  22.754  1.00  0.00     0.012 A 
ATOM    113  C   UNL     1       8.075   1.811  23.943  1.00  0.00     0.148 A 
ATOM    114  C   UNL     1      10.720   2.756  23.959  1.00  0.00     0.002 A 
ATOM    115  C   UNL     1       8.755   1.969  25.144  1.00  0.00     0.091 A 
ATOM    116  F   UNL     1       6.822   1.333  23.899  1.00  0.00    -0.205 F 
ATOM    117  C   UNL     1      10.081   2.431  25.154  1.00  0.00     0.022 A 
BRANCH 115 118
ATOM    118  S   UNL     1       7.976   1.668  26.735  1.00  0.00     0.127 S 
ATOM    119  O   UNL     1       8.580   0.396  27.127  1.00  0.00    -0.237 OA
ATOM    120  O   UNL     1       8.417   2.820  27.522  1.00  0.00    -0.237 OA
ATOM    121  O   UNL     1       6.543   1.630  26.476  1.00  0.00    -0.744 OA
ENDBRANCH 115 118
ENDBRANCH  88 111
ENDBRANCH  62  63
ENDBRANCH  55  57
ENDBRANCH  54  55
ENDBRANCH  53  54
ENDBRANCH  52  53
ENDBRANCH  51  52
ENDBRANCH  50  51
ENDBRANCH  49  50
ENDBRANCH  48  49
ENDBRANCH  47  48
ENDBRANCH   1  47
TORSDOF 35
