REMARK SMILES CN(C[C@@H]1CCC[N@H+]1C)C(=O)N[C@H]1COC[C@]1(C)C(=O)OCCOCCOCCOCCOC(=O)c1ccc(-c2c3nc(c(-c4cccc(S(=O)(=O)[O-])c4F)c4ccc([nH]4)c(-c4cccc(S(=O)(=O)[O-])c4F)c4nc(c(-c5cccc(S(=O)(=O)[O-])c5F)c5ccc2[nH]5)C=C4)C=C3)cc1
REMARK SMILES IDX 26 1 25 2 24 3 23 4 22 5 21 6 19 7 20 8 17 9 13 10 14 11
REMARK SMILES IDX 15 12 16 13 18 14 12 15 10 16 11 17 2 19 1 20 3 21 4 22 5 23
REMARK SMILES IDX 8 24 6 25 7 26 9 27 27 29 28 30 29 31 30 32 31 33 32 34
REMARK SMILES IDX 33 35 34 36 35 37 36 38 37 39 98 40 38 41 97 42 39 43 40 44
REMARK SMILES IDX 41 45 91 46 42 47 96 48 90 49 92 50 43 51 95 52 89 53 88 54
REMARK SMILES IDX 44 56 76 57 56 58 75 59 57 60 60 61 74 62 93 63 58 64 59 65
REMARK SMILES IDX 73 67 94 68 61 69 45 70 46 71 54 72 47 73 49 74 55 75 48 76
REMARK SMILES IDX 50 77 51 78 52 79 53 80 77 81 78 82 86 83 79 84 81 85 87 86
REMARK SMILES IDX 80 87 82 88 83 89 84 90 85 91 62 92 63 93 71 94 64 95 66 96
REMARK SMILES IDX 72 97 65 98 67 99 68 100 69 101 70 102
REMARK H PARENT 12 18 8 28 92 55 60 66
REMARK Flexibility Score: inf
ROOT
ATOM      1  C   UNL     1       2.813   5.174  -0.912  1.00  0.00     0.188 C 
ENDROOT
BRANCH   1   2
ATOM      2  C   UNL     1       3.341   4.892   0.489  1.00  0.00     0.188 C 
BRANCH   2   3
ATOM      3  O   UNL     1       4.504   4.103   0.503  1.00  0.00    -0.376 OA
BRANCH   3   4
ATOM      4  C   UNL     1       4.373   2.691   0.551  1.00  0.00     0.202 C 
BRANCH   4   5
ATOM      5  C   UNL     1       3.080   1.869   0.326  1.00  0.00     0.261 C 
BRANCH   5   6
ATOM      6  O   UNL     1       1.934   2.455  -0.314  1.00  0.00    -0.463 OA
BRANCH   6   7
ATOM      7  C   UNL     1       0.837   2.634   0.466  1.00  0.00     0.316 C 
ATOM      8  O   UNL     1       0.873   2.554   1.693  1.00  0.00    -0.251 OA
BRANCH   7   9
ATOM      9  C   UNL     1      -0.482   2.879  -0.287  1.00  0.00     0.111 C 
ATOM     10  C   UNL     1      -0.389   3.062  -1.819  1.00  0.00     0.129 C 
ATOM     11  C   UNL     1      -0.488   4.587  -2.027  1.00  0.00     0.186 C 
ATOM     12  O   UNL     1      -0.599   5.218  -0.749  1.00  0.00    -0.378 OA
ATOM     13  C   UNL     1      -1.026   4.226   0.185  1.00  0.00     0.181 C 
ATOM     14  C   UNL     1      -1.426   1.762   0.196  1.00  0.00     0.028 C 
BRANCH  10  15
ATOM     15  N   UNL     1      -1.464   2.426  -2.598  1.00  0.00    -0.332 N 
ATOM     16  C   UNL     1      -1.818   1.172  -2.915  1.00  0.00     0.317 C 
ATOM     17  O   UNL     1      -2.936   1.071  -3.432  1.00  0.00    -0.249 OA
ATOM     18  H   UNL     1      -2.079   3.090  -2.985  1.00  0.00     0.165 HD
BRANCH  16  19
ATOM     19  N   UNL     1      -1.050   0.087  -2.625  1.00  0.00    -0.322 N 
ATOM     20  C   UNL     1      -1.732  -1.200  -2.588  1.00  0.00     0.149 C 
BRANCH  19  21
ATOM     21  C   UNL     1       0.403   0.032  -2.435  1.00  0.00     0.185 C 
BRANCH  21  22
ATOM     22  C   UNL     1       1.299   0.130  -3.702  1.00  0.00     0.203 C 
ATOM     23  C   UNL     1       2.744  -0.242  -3.296  1.00  0.00     0.073 C 
ATOM     24  N   UNL     1       1.419   1.488  -4.280  1.00  0.00    -0.333 N 
ATOM     25  C   UNL     1       3.598   0.964  -3.637  1.00  0.00     0.068 C 
ATOM     26  C   UNL     1       2.809   1.649  -4.726  1.00  0.00     0.262 C 
ATOM     27  C   UNL     1       0.513   1.727  -5.399  1.00  0.00     0.333 C 
ATOM     28  H   UNL     1       1.161   2.167  -3.563  1.00  0.00     0.348 HD
ENDBRANCH  21  22
ENDBRANCH  19  21
ENDBRANCH  16  19
ENDBRANCH  10  15
ENDBRANCH   7   9
ENDBRANCH   6   7
ENDBRANCH   5   6
ENDBRANCH   4   5
ENDBRANCH   3   4
ENDBRANCH   2   3
ENDBRANCH   1   2
BRANCH   1  29
ATOM     29  O   UNL     1       3.233   4.317  -1.963  1.00  0.00    -0.377 OA
BRANCH  29  30
ATOM     30  C   UNL     1       4.562   4.474  -2.458  1.00  0.00     0.188 C 
BRANCH  30  31
ATOM     31  C   UNL     1       5.206   5.861  -2.352  1.00  0.00     0.188 C 
BRANCH  31  32
ATOM     32  O   UNL     1       4.458   6.999  -2.784  1.00  0.00    -0.376 OA
BRANCH  32  33
ATOM     33  C   UNL     1       3.483   6.846  -3.812  1.00  0.00     0.202 C 
BRANCH  33  34
ATOM     34  C   UNL     1       4.031   6.970  -5.228  1.00  0.00     0.261 C 
BRANCH  34  35
ATOM     35  O   UNL     1       4.668   5.753  -5.641  1.00  0.00    -0.460 OA
BRANCH  35  36
ATOM     36  C   UNL     1       6.012   5.750  -5.556  1.00  0.00     0.338 C 
ATOM     37  O   UNL     1       6.738   6.667  -5.184  1.00  0.00    -0.246 OA
BRANCH  36  38
ATOM     38  C   UNL     1       6.519   4.413  -5.882  1.00  0.00     0.060 A 
ATOM     39  C   UNL     1       7.485   3.847  -5.041  1.00  0.00     0.016 A 
ATOM     40  C   UNL     1       6.130   3.776  -7.063  1.00  0.00     0.016 A 
ATOM     41  C   UNL     1       8.134   2.679  -5.427  1.00  0.00     0.010 A 
ATOM     42  C   UNL     1       6.781   2.606  -7.447  1.00  0.00     0.010 A 
ATOM     43  C   UNL     1       7.824   2.090  -6.659  1.00  0.00    -0.014 A 
BRANCH  43  44
ATOM     44  C   UNL     1       8.716   1.054  -7.224  1.00  0.00     0.031 A 
ATOM     45  C   UNL     1       9.706   1.458  -8.281  1.00  0.00     0.074 A 
ATOM     46  C   UNL     1       8.630  -0.221  -6.810  1.00  0.00     0.049 A 
ATOM     47  N   UNL     1      10.541   0.718  -8.962  1.00  0.00    -0.248 NA
ATOM     48  C   UNL     1       9.755   2.891  -8.624  1.00  0.00     0.031 C 
ATOM     49  C   UNL     1       7.715  -0.715  -5.783  1.00  0.00     0.029 A 
ATOM     50  N   UNL     1       9.309  -1.335  -7.227  1.00  0.00    -0.354 N 
ATOM     51  C   UNL     1      11.191   1.586  -9.832  1.00  0.00     0.074 A 
ATOM     52  C   UNL     1      10.641   2.904  -9.608  1.00  0.00     0.031 C 
ATOM     53  C   UNL     1       7.872  -2.045  -5.667  1.00  0.00     0.029 A 
ATOM     54  C   UNL     1       8.874  -2.494  -6.631  1.00  0.00     0.049 A 
ATOM     55  H   UNL     1      10.037  -1.308  -7.890  1.00  0.00     0.167 HD
ATOM     56  C   UNL     1      12.170   1.311 -10.727  1.00  0.00     0.034 A 
ATOM     57  C   UNL     1       9.233  -3.772  -6.859  1.00  0.00     0.034 A 
ATOM     58  C   UNL     1      12.715  -0.003 -10.933  1.00  0.00     0.049 A 
ATOM     59  C   UNL     1      10.297  -4.058  -7.887  1.00  0.00     0.074 A 
ATOM     60  C   UNL     1      13.732  -0.391 -11.787  1.00  0.00     0.029 A 
ATOM     61  N   UNL     1      12.276  -1.149 -10.287  1.00  0.00    -0.354 N 
ATOM     62  N   UNL     1      10.975  -3.217  -8.632  1.00  0.00    -0.248 NA
ATOM     63  C   UNL     1      10.668  -5.466  -8.083  1.00  0.00     0.031 C 
ATOM     64  C   UNL     1      13.884  -1.778 -11.680  1.00  0.00     0.029 A 
ATOM     65  C   UNL     1      12.991  -2.247 -10.729  1.00  0.00     0.049 A 
ATOM     66  H   UNL     1      11.560  -1.177  -9.611  1.00  0.00     0.167 HD
ATOM     67  C   UNL     1      11.884  -3.988  -9.349  1.00  0.00     0.074 A 
ATOM     68  C   UNL     1      11.676  -5.362  -8.938  1.00  0.00     0.031 C 
ATOM     69  C   UNL     1      12.802  -3.600 -10.269  1.00  0.00     0.034 A 
BRANCH  56  70
ATOM     70  C   UNL     1      12.719   2.459 -11.534  1.00  0.00     0.023 A 
ATOM     71  C   UNL     1      13.504   3.448 -10.905  1.00  0.00     0.012 A 
ATOM     72  C   UNL     1      12.485   2.547 -12.921  1.00  0.00     0.148 A 
ATOM     73  C   UNL     1      14.010   4.526 -11.632  1.00  0.00     0.002 A 
ATOM     74  C   UNL     1      13.032   3.598 -13.648  1.00  0.00     0.091 A 
ATOM     75  F   UNL     1      11.717   1.612 -13.499  1.00  0.00    -0.205 F 
ATOM     76  C   UNL     1      13.782   4.595 -13.003  1.00  0.00     0.022 A 
BRANCH  74  77
ATOM     77  S   UNL     1      12.862   3.734 -15.431  1.00  0.00     0.127 S 
ATOM     78  O   UNL     1      11.951   4.871 -15.554  1.00  0.00    -0.237 OA
ATOM     79  O   UNL     1      14.237   4.005 -15.851  1.00  0.00    -0.237 OA
ATOM     80  O   UNL     1      12.331   2.455 -15.882  1.00  0.00    -0.744 OA
ENDBRANCH  74  77
ENDBRANCH  56  70
BRANCH  57  81
ATOM     81  C   UNL     1       8.613  -4.872  -6.069  1.00  0.00     0.023 A 
ATOM     82  C   UNL     1       9.398  -5.583  -5.140  1.00  0.00     0.012 A 
ATOM     83  C   UNL     1       7.252  -5.201  -6.213  1.00  0.00     0.148 A 
ATOM     84  C   UNL     1       8.846  -6.624  -4.394  1.00  0.00     0.002 A 
ATOM     85  C   UNL     1       6.694  -6.201  -5.425  1.00  0.00     0.091 A 
ATOM     86  F   UNL     1       6.525  -4.519  -7.109  1.00  0.00    -0.205 F 
ATOM     87  C   UNL     1       7.494  -6.927  -4.529  1.00  0.00     0.022 A 
BRANCH  85  88
ATOM     88  S   UNL     1       4.936  -6.568  -5.432  1.00  0.00     0.127 S 
ATOM     89  O   UNL     1       4.911  -7.905  -6.019  1.00  0.00    -0.237 OA
ATOM     90  O   UNL     1       4.613  -6.513  -4.006  1.00  0.00    -0.237 OA
ATOM     91  O   UNL     1       4.316  -5.517  -6.228  1.00  0.00    -0.744 OA
ENDBRANCH  85  88
ENDBRANCH  57  81
BRANCH  69  92
ATOM     92  C   UNL     1      13.693  -4.664 -10.857  1.00  0.00     0.023 A 
ATOM     93  C   UNL     1      13.168  -5.603 -11.767  1.00  0.00     0.012 A 
ATOM     94  C   UNL     1      15.070  -4.685 -10.558  1.00  0.00     0.148 A 
ATOM     95  C   UNL     1      13.993  -6.572 -12.339  1.00  0.00     0.002 A 
ATOM     96  C   UNL     1      15.895  -5.618 -11.174  1.00  0.00     0.091 A 
ATOM     97  F   UNL     1      15.547  -3.793  -9.678  1.00  0.00    -0.205 F 
ATOM     98  C   UNL     1      15.356  -6.572 -12.052  1.00  0.00     0.022 A 
BRANCH  96  99
ATOM     99  S   UNL     1      17.677  -5.628 -10.944  1.00  0.00     0.127 S 
ATOM    100  O   UNL     1      17.865  -6.830 -10.132  1.00  0.00    -0.237 OA
ATOM    101  O   UNL     1      18.165  -5.738 -12.319  1.00  0.00    -0.237 OA
ATOM    102  O   UNL     1      18.004  -4.371 -10.284  1.00  0.00    -0.744 OA
ENDBRANCH  96  99
ENDBRANCH  69  92
ENDBRANCH  43  44
ENDBRANCH  36  38
ENDBRANCH  35  36
ENDBRANCH  34  35
ENDBRANCH  33  34
ENDBRANCH  32  33
ENDBRANCH  31  32
ENDBRANCH  30  31
ENDBRANCH  29  30
ENDBRANCH   1  29
TORSDOF 27
