REMARK SMILES CCCC(=O)Nc1cccc(C(=O)N[C@@H](C(=O)OCCOCCOCCOCCOC(=O)c2ccc(-c3c4nc(c(-c5cccc(S(=O)(=O)[O-])c5F)c5ccc([nH]5)c(-c5cccc(S(=O)(=O)[O-])c5F)c5nc(c(-c6cccc(S(=O)(=O)[O-])c6F)c6ccc3[nH]6)C=C5)C=C4)cc2)c2c(C)n[nH]c2C)c1
REMARK SMILES IDX 23 1 22 2 21 3 20 4 19 5 18 6 16 7 17 8 15 9 14 10 12 11
REMARK SMILES IDX 13 12 11 14 7 15 8 16 103 17 9 18 10 19 6 20 4 21 5 22 3 24
REMARK SMILES IDX 2 25 1 26 96 27 97 28 101 29 98 30 99 31 100 32 102 33 24 35
REMARK SMILES IDX 25 36 26 37 27 38 28 39 29 40 30 41 31 42 32 43 33 44 34 45
REMARK SMILES IDX 95 46 35 47 94 48 36 49 37 50 38 51 88 52 39 53 93 54 87 55
REMARK SMILES IDX 89 56 40 57 92 58 86 59 85 60 41 62 73 63 53 64 72 65 54 66
REMARK SMILES IDX 57 67 71 68 90 69 55 70 56 71 70 73 91 74 58 75 42 76 43 77
REMARK SMILES IDX 51 78 44 79 46 80 52 81 45 82 47 83 48 84 49 85 50 86 74 87
REMARK SMILES IDX 75 88 83 89 76 90 78 91 84 92 77 93 79 94 80 95 81 96 82 97
REMARK SMILES IDX 59 98 60 99 68 100 61 101 63 102 69 103 62 104 64 105 65 106
REMARK SMILES IDX 66 107 67 108
REMARK H PARENT 14 13 6 23 100 34 89 61 57 72
REMARK Flexibility Score: inf
ROOT
ATOM      1  C   UNL     1      -2.305   2.998   1.871  1.00  0.00     0.188 C 
ENDROOT
BRANCH   1   2
ATOM      2  C   UNL     1      -3.077   3.203   0.553  1.00  0.00     0.188 C 
BRANCH   2   3
ATOM      3  O   UNL     1      -4.262   2.469   0.278  1.00  0.00    -0.376 OA
BRANCH   3   4
ATOM      4  C   UNL     1      -4.447   1.159   0.792  1.00  0.00     0.202 C 
BRANCH   4   5
ATOM      5  C   UNL     1      -3.368   0.068   0.626  1.00  0.00     0.261 C 
BRANCH   5   6
ATOM      6  O   UNL     1      -1.992   0.484   0.694  1.00  0.00    -0.461 OA
BRANCH   6   7
ATOM      7  C   UNL     1      -1.405   0.795  -0.492  1.00  0.00     0.333 C 
ATOM      8  O   UNL     1      -1.965   0.642  -1.573  1.00  0.00    -0.249 OA
BRANCH   7   9
ATOM      9  C   UNL     1       0.057   1.345  -0.327  1.00  0.00     0.227 C 
BRANCH   9  10
ATOM     10  N   UNL     1       0.595   1.509   1.034  1.00  0.00    -0.335 N 
ATOM     11  C   UNL     1       1.172   0.701   1.979  1.00  0.00     0.252 C 
ATOM     12  O   UNL     1       1.476   1.230   3.049  1.00  0.00    -0.269 OA
ATOM     13  H   UNL     1       0.521   2.440   1.346  1.00  0.00     0.165 HD
BRANCH  11  14
ATOM     14  C   UNL     1       1.589  -0.699   1.732  1.00  0.00     0.041 A 
ATOM     15  C   UNL     1       1.596  -2.690   0.385  1.00  0.00     0.041 A 
ATOM     16  C   UNL     1       2.822  -3.084   0.917  1.00  0.00     0.026 A 
ATOM     17  C   UNL     1       0.935  -1.550   0.850  1.00  0.00     0.040 A 
ATOM     18  C   UNL     1       3.410  -2.310   1.915  1.00  0.00     0.003 A 
ATOM     19  C   UNL     1       2.803  -1.115   2.310  1.00  0.00     0.014 A 
BRANCH  15  20
ATOM     20  N   UNL     1       1.016  -3.409  -0.664  1.00  0.00    -0.326 N 
ATOM     21  C   UNL     1       1.020  -2.968  -1.965  1.00  0.00     0.224 C 
ATOM     22  O   UNL     1       0.036  -3.187  -2.675  1.00  0.00    -0.275 OA
ATOM     23  H   UNL     1       0.584  -4.270  -0.461  1.00  0.00     0.169 HD
BRANCH  21  24
ATOM     24  C   UNL     1       2.256  -2.274  -2.533  1.00  0.00     0.100 C 
BRANCH  24  25
ATOM     25  C   UNL     1       2.232  -0.750  -2.513  1.00  0.00     0.006 C 
ATOM     26  C   UNL     1       3.130  -0.102  -1.470  1.00  0.00     0.004 C 
ENDBRANCH  24  25
ENDBRANCH  21  24
ENDBRANCH  15  20
ENDBRANCH  11  14
ENDBRANCH   9  10
BRANCH   9  27
ATOM     27  C   UNL     1       0.253   2.624  -1.171  1.00  0.00     0.029 A 
ATOM     28  C   UNL     1       0.386   4.024  -0.814  1.00  0.00     0.065 A 
ATOM     29  C   UNL     1       0.278   2.676  -2.571  1.00  0.00     0.038 A 
ATOM     30  C   UNL     1       0.334   4.762   0.478  1.00  0.00     0.069 C 
ATOM     31  N   UNL     1       0.541   4.805  -1.890  1.00  0.00    -0.180 NA
ATOM     32  N   UNL     1       0.478   3.977  -2.920  1.00  0.00    -0.282 N 
ATOM     33  C   UNL     1       0.105   1.682  -3.661  1.00  0.00     0.066 C 
ATOM     34  H   UNL     1       0.568   4.274  -3.854  1.00  0.00     0.190 HD
ENDBRANCH   9  27
ENDBRANCH   7   9
ENDBRANCH   6   7
ENDBRANCH   5   6
ENDBRANCH   4   5
ENDBRANCH   3   4
ENDBRANCH   2   3
ENDBRANCH   1   2
BRANCH   1  35
ATOM     35  O   UNL     1      -2.903   2.104   2.779  1.00  0.00    -0.377 OA
BRANCH  35  36
ATOM     36  C   UNL     1      -3.636   2.719   3.824  1.00  0.00     0.188 C 
BRANCH  36  37
ATOM     37  C   UNL     1      -4.537   3.904   3.419  1.00  0.00     0.188 C 
BRANCH  37  38
ATOM     38  O   UNL     1      -3.877   4.930   2.679  1.00  0.00    -0.376 OA
BRANCH  38  39
ATOM     39  C   UNL     1      -3.447   6.107   3.346  1.00  0.00     0.202 C 
BRANCH  39  40
ATOM     40  C   UNL     1      -2.228   5.980   4.276  1.00  0.00     0.261 C 
BRANCH  40  41
ATOM     41  O   UNL     1      -2.369   5.040   5.346  1.00  0.00    -0.460 OA
BRANCH  41  42
ATOM     42  C   UNL     1      -3.378   5.264   6.212  1.00  0.00     0.338 C 
ATOM     43  O   UNL     1      -4.121   6.233   6.234  1.00  0.00    -0.246 OA
BRANCH  42  44
ATOM     44  C   UNL     1      -3.598   4.030   6.987  1.00  0.00     0.060 A 
ATOM     45  C   UNL     1      -4.872   3.450   6.943  1.00  0.00     0.016 A 
ATOM     46  C   UNL     1      -2.572   3.446   7.736  1.00  0.00     0.016 A 
ATOM     47  C   UNL     1      -5.143   2.314   7.693  1.00  0.00     0.010 A 
ATOM     48  C   UNL     1      -2.856   2.326   8.522  1.00  0.00     0.010 A 
ATOM     49  C   UNL     1      -4.158   1.796   8.542  1.00  0.00    -0.014 A 
BRANCH  49  50
ATOM     50  C   UNL     1      -4.608   0.920   9.645  1.00  0.00     0.031 A 
ATOM     51  C   UNL     1      -4.945   1.575  10.957  1.00  0.00     0.074 A 
ATOM     52  C   UNL     1      -4.811  -0.395   9.460  1.00  0.00     0.049 A 
ATOM     53  N   UNL     1      -5.465   1.054  12.036  1.00  0.00    -0.248 NA
ATOM     54  C   UNL     1      -4.670   3.020  11.061  1.00  0.00     0.031 C 
ATOM     55  C   UNL     1      -4.550  -1.129   8.224  1.00  0.00     0.029 A 
ATOM     56  N   UNL     1      -5.292  -1.344  10.324  1.00  0.00    -0.354 N 
ATOM     57  C   UNL     1      -5.552   2.096  12.951  1.00  0.00     0.074 A 
ATOM     58  C   UNL     1      -5.024   3.277  12.309  1.00  0.00     0.031 C 
ATOM     59  C   UNL     1      -4.865  -2.422   8.413  1.00  0.00     0.029 A 
ATOM     60  C   UNL     1      -5.333  -2.607   9.786  1.00  0.00     0.049 A 
ATOM     61  H   UNL     1      -5.580  -1.141  11.243  1.00  0.00     0.167 HD
ATOM     62  C   UNL     1      -6.042   2.076  14.212  1.00  0.00     0.034 A 
ATOM     63  C   UNL     1      -5.704  -3.775  10.347  1.00  0.00     0.034 A 
ATOM     64  C   UNL     1      -6.575   0.902  14.842  1.00  0.00     0.049 A 
ATOM     65  C   UNL     1      -6.218  -3.774  11.764  1.00  0.00     0.074 A 
ATOM     66  C   UNL     1      -7.127   0.778  16.103  1.00  0.00     0.029 A 
ATOM     67  N   UNL     1      -6.604  -0.358  14.265  1.00  0.00    -0.354 N 
ATOM     68  N   UNL     1      -6.396  -2.764  12.582  1.00  0.00    -0.248 NA
ATOM     69  C   UNL     1      -6.623  -5.073  12.322  1.00  0.00     0.031 C 
ATOM     70  C   UNL     1      -7.452  -0.567  16.305  1.00  0.00     0.029 A 
ATOM     71  C   UNL     1      -7.151  -1.270  15.149  1.00  0.00     0.049 A 
ATOM     72  H   UNL     1      -6.283  -0.572  13.359  1.00  0.00     0.167 HD
ATOM     73  C   UNL     1      -6.979  -3.296  13.728  1.00  0.00     0.074 A 
ATOM     74  C   UNL     1      -7.137  -4.716  13.490  1.00  0.00     0.031 C 
ATOM     75  C   UNL     1      -7.347  -2.671  14.875  1.00  0.00     0.034 A 
BRANCH  62  76
ATOM     76  C   UNL     1      -6.007   3.364  14.992  1.00  0.00     0.023 A 
ATOM     77  C   UNL     1      -6.870   4.425  14.650  1.00  0.00     0.012 A 
ATOM     78  C   UNL     1      -5.133   3.508  16.086  1.00  0.00     0.148 A 
ATOM     79  C   UNL     1      -6.837   5.623  15.363  1.00  0.00     0.002 A 
ATOM     80  C   UNL     1      -5.142   4.685  16.823  1.00  0.00     0.091 A 
ATOM     81  F   UNL     1      -4.299   2.499  16.375  1.00  0.00    -0.205 F 
ATOM     82  C   UNL     1      -5.983   5.748  16.456  1.00  0.00     0.022 A 
BRANCH  80  83
ATOM     83  S   UNL     1      -4.139   4.909  18.295  1.00  0.00     0.127 S 
ATOM     84  O   UNL     1      -3.167   5.903  17.841  1.00  0.00    -0.237 OA
ATOM     85  O   UNL     1      -5.119   5.410  19.259  1.00  0.00    -0.237 OA
ATOM     86  O   UNL     1      -3.589   3.599  18.612  1.00  0.00    -0.744 OA
ENDBRANCH  80  83
ENDBRANCH  62  76
BRANCH  63  87
ATOM     87  C   UNL     1      -5.645  -5.039   9.558  1.00  0.00     0.023 A 
ATOM     88  C   UNL     1      -6.838  -5.702   9.209  1.00  0.00     0.012 A 
ATOM     89  C   UNL     1      -4.412  -5.589   9.158  1.00  0.00     0.148 A 
ATOM     90  C   UNL     1      -6.803  -6.910   8.511  1.00  0.00     0.002 A 
ATOM     91  C   UNL     1      -4.386  -6.762   8.414  1.00  0.00     0.091 A 
ATOM     92  F   UNL     1      -3.288  -4.951   9.512  1.00  0.00    -0.205 F 
ATOM     93  C   UNL     1      -5.579  -7.435   8.107  1.00  0.00     0.022 A 
BRANCH  91  94
ATOM     94  S   UNL     1      -2.867  -7.449   7.748  1.00  0.00     0.127 S 
ATOM     95  O   UNL     1      -2.740  -8.690   8.508  1.00  0.00    -0.237 OA
ATOM     96  O   UNL     1      -3.211  -7.623   6.336  1.00  0.00    -0.237 OA
ATOM     97  O   UNL     1      -1.837  -6.450   7.997  1.00  0.00    -0.744 OA
ENDBRANCH  91  94
ENDBRANCH  63  87
BRANCH  75  98
ATOM     98  C   UNL     1      -8.019  -3.502  15.939  1.00  0.00     0.023 A 
ATOM     99  C   UNL     1      -7.287  -4.467  16.657  1.00  0.00     0.012 A 
ATOM    100  C   UNL     1      -9.373  -3.281  16.262  1.00  0.00     0.148 A 
ATOM    101  C   UNL     1      -7.906  -5.236  17.643  1.00  0.00     0.002 A 
ATOM    102  C   UNL     1      -9.967  -4.010  17.284  1.00  0.00     0.091 A 
ATOM    103  F   UNL     1     -10.060  -2.369  15.558  1.00  0.00    -0.205 F 
ATOM    104  C   UNL     1      -9.241  -5.000  17.964  1.00  0.00     0.022 A 
BRANCH 102 105
ATOM    105  S   UNL     1     -11.648  -3.695  17.832  1.00  0.00     0.127 S 
ATOM    106  O   UNL     1     -12.366  -4.835  17.264  1.00  0.00    -0.237 OA
ATOM    107  O   UNL     1     -11.511  -3.725  19.289  1.00  0.00    -0.237 OA
ATOM    108  O   UNL     1     -12.008  -2.392  17.289  1.00  0.00    -0.744 OA
ENDBRANCH 102 105
ENDBRANCH  75  98
ENDBRANCH  49  50
ENDBRANCH  42  44
ENDBRANCH  41  42
ENDBRANCH  40  41
ENDBRANCH  39  40
ENDBRANCH  38  39
ENDBRANCH  37  38
ENDBRANCH  36  37
ENDBRANCH  35  36
ENDBRANCH   1  35
TORSDOF 29
