REMARK SMILES O=C(OCCOCCOCCOCCOC(=O)C1CCN(c2ccc(C(F)(F)F)cc2[N+](=O)[O-])CC1)c1ccc(-c2c3nc(c(-c4cccc(S(=O)(=O)[O-])c4F)c4ccc([nH]4)c(-c4cccc(S(=O)(=O)[O-])c4F)c4nc(c(-c5cccc(S(=O)(=O)[O-])c5F)c5ccc2[nH]5)C=C4)C=C3)cc1
REMARK SMILES IDX 8 1 7 2 6 3 5 4 4 5 3 6 2 7 1 8 37 9 38 10 99 11 39 12 98 13
REMARK SMILES IDX 40 14 41 15 42 16 92 17 43 18 97 19 91 20 93 21 44 22 96 23
REMARK SMILES IDX 90 24 89 25 45 27 77 28 57 29 76 30 58 31 61 32 75 33 94 34
REMARK SMILES IDX 59 35 60 36 74 38 95 39 62 40 46 41 47 42 55 43 48 44 50 45
REMARK SMILES IDX 56 46 49 47 51 48 52 49 53 50 54 51 78 52 79 53 87 54 80 55
REMARK SMILES IDX 82 56 88 57 81 58 83 59 84 60 85 61 86 62 63 63 64 64 72 65
REMARK SMILES IDX 65 66 67 67 73 68 66 69 68 70 69 71 70 72 71 73 9 74 10 75
REMARK SMILES IDX 11 76 12 77 13 78 14 79 15 80 16 81 17 82 18 83 19 84 36 85
REMARK SMILES IDX 20 86 35 87 21 88 22 89 23 90 31 91 24 92 30 93 25 94 32 95
REMARK SMILES IDX 33 96 34 97 26 98 27 99 28 100 29 101
REMARK H PARENT 93 26 61 37
REMARK Flexibility Score: inf
ROOT
ATOM      1  C   UNL     1       2.618   1.500  -2.447  1.00  0.00     0.188 C 
ENDROOT
BRANCH   1   2
ATOM      2  C   UNL     1       2.616   0.534  -1.276  1.00  0.00     0.188 C 
BRANCH   2   3
ATOM      3  O   UNL     1       3.942   0.283  -0.847  1.00  0.00    -0.376 OA
BRANCH   3   4
ATOM      4  C   UNL     1       4.470  -1.011  -1.049  1.00  0.00     0.202 C 
BRANCH   4   5
ATOM      5  C   UNL     1       4.211  -1.939   0.141  1.00  0.00     0.261 C 
BRANCH   5   6
ATOM      6  O   UNL     1       2.838  -1.898   0.568  1.00  0.00    -0.460 OA
BRANCH   6   7
ATOM      7  C   UNL     1       2.240  -1.002   1.394  1.00  0.00     0.338 C 
ATOM      8  O   UNL     1       1.016  -1.055   1.519  1.00  0.00    -0.246 OA
BRANCH   7   9
ATOM      9  C   UNL     1       2.972   0.049   2.176  1.00  0.00     0.060 A 
ATOM     10  C   UNL     1       4.216   0.587   1.844  1.00  0.00     0.016 A 
ATOM     11  C   UNL     1       2.320   0.576   3.305  1.00  0.00     0.016 A 
ATOM     12  C   UNL     1       4.811   1.588   2.578  1.00  0.00     0.010 A 
ATOM     13  C   UNL     1       2.934   1.553   4.096  1.00  0.00     0.010 A 
ATOM     14  C   UNL     1       4.201   2.025   3.741  1.00  0.00    -0.014 A 
BRANCH  14  15
ATOM     15  C   UNL     1       5.102   2.706   4.675  1.00  0.00     0.031 A 
ATOM     16  C   UNL     1       5.754   1.851   5.720  1.00  0.00     0.074 A 
ATOM     17  C   UNL     1       5.501   3.961   4.414  1.00  0.00     0.049 A 
ATOM     18  N   UNL     1       6.625   2.178   6.630  1.00  0.00    -0.248 NA
ATOM     19  C   UNL     1       5.399   0.417   5.717  1.00  0.00     0.031 C 
ATOM     20  C   UNL     1       5.038   4.776   3.287  1.00  0.00     0.029 A 
ATOM     21  N   UNL     1       6.413   4.751   5.050  1.00  0.00    -0.354 N 
ATOM     22  C   UNL     1       6.857   1.015   7.354  1.00  0.00     0.074 A 
ATOM     23  C   UNL     1       6.074  -0.038   6.758  1.00  0.00     0.031 C 
ATOM     24  C   UNL     1       5.670   5.961   3.318  1.00  0.00     0.029 A 
ATOM     25  C   UNL     1       6.526   6.003   4.497  1.00  0.00     0.049 A 
ATOM     26  H   UNL     1       6.938   4.453   5.828  1.00  0.00     0.167 HD
ATOM     27  C   UNL     1       7.647   0.859   8.438  1.00  0.00     0.034 A 
ATOM     28  C   UNL     1       7.220   7.068   4.938  1.00  0.00     0.034 A 
ATOM     29  C   UNL     1       8.424   1.933   8.984  1.00  0.00     0.049 A 
ATOM     30  C   UNL     1       8.035   6.887   6.190  1.00  0.00     0.074 A 
ATOM     31  C   UNL     1       9.231   1.936  10.103  1.00  0.00     0.029 A 
ATOM     32  N   UNL     1       8.476   3.211   8.440  1.00  0.00    -0.354 N 
ATOM     33  N   UNL     1       8.229   5.797   6.898  1.00  0.00    -0.248 NA
ATOM     34  C   UNL     1       8.738   8.069   6.699  1.00  0.00     0.031 C 
ATOM     35  C   UNL     1       9.739   3.230  10.258  1.00  0.00     0.029 A 
ATOM     36  C   UNL     1       9.292   4.018   9.205  1.00  0.00     0.049 A 
ATOM     37  H   UNL     1       8.001   3.497   7.627  1.00  0.00     0.167 HD
ATOM     38  C   UNL     1       9.103   6.151   7.916  1.00  0.00     0.074 A 
ATOM     39  C   UNL     1       9.414   7.555   7.718  1.00  0.00     0.031 C 
ATOM     40  C   UNL     1       9.600   5.399   8.930  1.00  0.00     0.034 A 
BRANCH  27  41
ATOM     41  C   UNL     1       7.619  -0.479   9.125  1.00  0.00     0.023 A 
ATOM     42  C   UNL     1       8.213  -1.611   8.532  1.00  0.00     0.012 A 
ATOM     43  C   UNL     1       6.956  -0.614  10.361  1.00  0.00     0.148 A 
ATOM     44  C   UNL     1       8.110  -2.865   9.139  1.00  0.00     0.002 A 
ATOM     45  C   UNL     1       6.901  -1.854  10.983  1.00  0.00     0.091 A 
ATOM     46  F   UNL     1       6.366   0.467  10.889  1.00  0.00    -0.205 F 
ATOM     47  C   UNL     1       7.462  -2.984  10.366  1.00  0.00     0.022 A 
BRANCH  45  48
ATOM     48  S   UNL     1       6.147  -2.091  12.595  1.00  0.00     0.127 S 
ATOM     49  O   UNL     1       4.994  -2.929  12.260  1.00  0.00    -0.237 OA
ATOM     50  O   UNL     1       7.210  -2.784  13.326  1.00  0.00    -0.237 OA
ATOM     51  O   UNL     1       5.828  -0.765  13.093  1.00  0.00    -0.744 OA
ENDBRANCH  45  48
ENDBRANCH  27  41
BRANCH  28  52
ATOM     52  C   UNL     1       7.151   8.371   4.218  1.00  0.00     0.023 A 
ATOM     53  C   UNL     1       8.306   8.906   3.618  1.00  0.00     0.012 A 
ATOM     54  C   UNL     1       5.936   9.081   4.116  1.00  0.00     0.148 A 
ATOM     55  C   UNL     1       8.259  10.135   2.957  1.00  0.00     0.002 A 
ATOM     56  C   UNL     1       5.884  10.276   3.409  1.00  0.00     0.091 A 
ATOM     57  F   UNL     1       4.849   8.568   4.710  1.00  0.00    -0.205 F 
ATOM     58  C   UNL     1       7.049  10.815   2.844  1.00  0.00     0.022 A 
BRANCH  56  59
ATOM     59  S   UNL     1       4.346  11.157   3.118  1.00  0.00     0.127 S 
ATOM     60  O   UNL     1       4.519  12.343   3.954  1.00  0.00    -0.237 OA
ATOM     61  O   UNL     1       4.406  11.405   1.677  1.00  0.00    -0.237 OA
ATOM     62  O   UNL     1       3.285  10.247   3.527  1.00  0.00    -0.744 OA
ENDBRANCH  56  59
ENDBRANCH  28  52
BRANCH  40  63
ATOM     63  C   UNL     1      10.575   6.067   9.857  1.00  0.00     0.023 A 
ATOM     64  C   UNL     1      10.129   7.025  10.787  1.00  0.00     0.012 A 
ATOM     65  C   UNL     1      11.928   5.676   9.849  1.00  0.00     0.148 A 
ATOM     66  C   UNL     1      11.027   7.615  11.672  1.00  0.00     0.002 A 
ATOM     67  C   UNL     1      12.803   6.222  10.775  1.00  0.00     0.091 A 
ATOM     68  F   UNL     1      12.329   4.776   8.940  1.00  0.00    -0.205 F 
ATOM     69  C   UNL     1      12.359   7.204  11.677  1.00  0.00     0.022 A 
BRANCH  67  70
ATOM     70  S   UNL     1      14.501   5.662  10.926  1.00  0.00     0.127 S 
ATOM     71  O   UNL     1      15.237   6.784  10.347  1.00  0.00    -0.237 OA
ATOM     72  O   UNL     1      14.650   5.514  12.374  1.00  0.00    -0.237 OA
ATOM     73  O   UNL     1      14.578   4.412  10.183  1.00  0.00    -0.744 OA
ENDBRANCH  67  70
ENDBRANCH  40  63
ENDBRANCH  14  15
ENDBRANCH   7   9
ENDBRANCH   6   7
ENDBRANCH   5   6
ENDBRANCH   4   5
ENDBRANCH   3   4
ENDBRANCH   2   3
ENDBRANCH   1   2
BRANCH   1  74
ATOM     74  O   UNL     1       3.902   1.927  -2.912  1.00  0.00    -0.377 OA
BRANCH  74  75
ATOM     75  C   UNL     1       4.801   2.485  -1.945  1.00  0.00     0.188 C 
BRANCH  75  76
ATOM     76  C   UNL     1       5.452   3.763  -2.470  1.00  0.00     0.188 C 
BRANCH  76  77
ATOM     77  O   UNL     1       4.689   4.954  -2.308  1.00  0.00    -0.376 OA
BRANCH  77  78
ATOM     78  C   UNL     1       3.302   4.894  -2.612  1.00  0.00     0.202 C 
BRANCH  78  79
ATOM     79  C   UNL     1       2.933   4.805  -4.104  1.00  0.00     0.261 C 
BRANCH  79  80
ATOM     80  O   UNL     1       3.161   3.522  -4.750  1.00  0.00    -0.463 OA
BRANCH  80  81
ATOM     81  C   UNL     1       4.243   3.430  -5.565  1.00  0.00     0.309 C 
ATOM     82  O   UNL     1       5.011   4.362  -5.791  1.00  0.00    -0.252 OA
BRANCH  81  83
ATOM     83  C   UNL     1       4.456   2.062  -6.230  1.00  0.00     0.103 C 
ATOM     84  C   UNL     1       3.222   1.420  -6.868  1.00  0.00     0.037 C 
ATOM     85  C   UNL     1       5.402   1.093  -5.495  1.00  0.00     0.037 C 
ATOM     86  C   UNL     1       2.680   0.191  -6.149  1.00  0.00     0.117 C 
ATOM     87  C   UNL     1       4.803  -0.214  -4.952  1.00  0.00     0.117 C 
ATOM     88  N   UNL     1       3.772  -0.731  -5.848  1.00  0.00    -0.366 N 
BRANCH  88  89
ATOM     89  C   UNL     1       3.527  -2.097  -5.936  1.00  0.00     0.116 A 
ATOM     90  C   UNL     1       3.740  -2.690  -7.194  1.00  0.00     0.034 A 
ATOM     91  C   UNL     1       3.110  -2.982  -4.925  1.00  0.00     0.293 A 
ATOM     92  C   UNL     1       3.599  -4.071  -7.415  1.00  0.00     0.016 A 
ATOM     93  C   UNL     1       3.006  -4.377  -5.122  1.00  0.00     0.101 A 
ATOM     94  C   UNL     1       3.254  -4.936  -6.372  1.00  0.00     0.062 A 
BRANCH  91  95
ATOM     95  N   UNL     1       2.615  -2.535  -3.642  1.00  0.00     0.064 N 
ATOM     96  O   UNL     1       2.950  -3.209  -2.654  1.00  0.00    -0.258 OA
ATOM     97  O   UNL     1       1.816  -1.592  -3.624  1.00  0.00    -0.258 OA
ENDBRANCH  91  95
BRANCH  94  98
ATOM     98  C   UNL     1       3.101  -6.420  -6.592  1.00  0.00     0.416 C 
ATOM     99  F   UNL     1       2.036  -6.716  -7.385  1.00  0.00    -0.166 F 
ATOM    100  F   UNL     1       4.187  -6.976  -7.194  1.00  0.00    -0.166 F 
ATOM    101  F   UNL     1       2.914  -7.121  -5.439  1.00  0.00    -0.166 F 
ENDBRANCH  94  98
ENDBRANCH  88  89
ENDBRANCH  81  83
ENDBRANCH  80  81
ENDBRANCH  79  80
ENDBRANCH  78  79
ENDBRANCH  77  78
ENDBRANCH  76  77
ENDBRANCH  75  76
ENDBRANCH  74  75
ENDBRANCH   1  74
TORSDOF 26
