REMARK SMILES O=C(OCCOCCOCCOCCOC(=O)c1cc(-c2cccc(Cl)c2)ccc1Cl)c1ccc(-c2c3nc(c(-c4cccc(S(=O)(=O)[O-])c4F)c4ccc([nH]4)c(-c4cccc(S(=O)(=O)[O-])c4F)c4nc(c(-c5cccc(S(=O)(=O)[O-])c5F)c5ccc2[nH]5)C=C4)C=C3)cc1
REMARK SMILES IDX 8 1 7 2 6 3 5 4 4 5 3 6 2 7 1 8 32 9 33 10 94 11 34 12 93 13
REMARK SMILES IDX 35 14 36 15 37 16 87 17 38 18 92 19 86 20 88 21 39 22 91 23
REMARK SMILES IDX 85 24 84 25 40 27 72 28 52 29 71 30 53 31 56 32 70 33 89 34
REMARK SMILES IDX 54 35 55 36 69 38 90 39 57 40 41 41 42 42 50 43 43 44 45 45
REMARK SMILES IDX 51 46 44 47 46 48 47 49 48 50 49 51 73 52 74 53 82 54 75 55
REMARK SMILES IDX 77 56 83 57 76 58 78 59 79 60 80 61 81 62 58 63 59 64 67 65
REMARK SMILES IDX 60 66 62 67 68 68 61 69 63 70 64 71 65 72 66 73 9 74 10 75
REMARK SMILES IDX 11 76 12 77 13 78 14 79 15 80 16 81 17 82 18 83 19 84 30 85
REMARK SMILES IDX 20 86 29 87 31 88 28 89 21 90 22 91 27 92 23 93 25 94 24 95
REMARK SMILES IDX 26 96
REMARK H PARENT 88 26 56 37
REMARK Flexibility Score: inf
ROOT
ATOM      1  C   UNL     1       1.769   2.113  -1.624  1.00  0.00     0.188 C 
ENDROOT
BRANCH   1   2
ATOM      2  C   UNL     1       2.220   0.685  -1.322  1.00  0.00     0.188 C 
BRANCH   2   3
ATOM      3  O   UNL     1       3.562   0.667  -0.831  1.00  0.00    -0.376 OA
BRANCH   3   4
ATOM      4  C   UNL     1       4.369  -0.429  -1.260  1.00  0.00     0.202 C 
BRANCH   4   5
ATOM      5  C   UNL     1       4.140  -1.731  -0.489  1.00  0.00     0.261 C 
BRANCH   5   6
ATOM      6  O   UNL     1       2.769  -1.904  -0.102  1.00  0.00    -0.460 OA
BRANCH   6   7
ATOM      7  C   UNL     1       2.187  -1.536   1.070  1.00  0.00     0.338 C 
ATOM      8  O   UNL     1       1.002  -1.823   1.240  1.00  0.00    -0.246 OA
BRANCH   7   9
ATOM      9  C   UNL     1       2.901  -0.814   2.172  1.00  0.00     0.060 A 
ATOM     10  C   UNL     1       4.033  -0.012   2.016  1.00  0.00     0.016 A 
ATOM     11  C   UNL     1       2.353  -0.920   3.462  1.00  0.00     0.016 A 
ATOM     12  C   UNL     1       4.667   0.580   3.095  1.00  0.00     0.010 A 
ATOM     13  C   UNL     1       2.965  -0.301   4.557  1.00  0.00     0.010 A 
ATOM     14  C   UNL     1       4.154   0.411   4.374  1.00  0.00    -0.014 A 
BRANCH  14  15
ATOM     15  C   UNL     1       5.016   0.814   5.497  1.00  0.00     0.031 A 
ATOM     16  C   UNL     1       5.755  -0.270   6.222  1.00  0.00     0.074 A 
ATOM     17  C   UNL     1       5.247   2.116   5.734  1.00  0.00     0.049 A 
ATOM     18  N   UNL     1       6.559  -0.183   7.244  1.00  0.00    -0.248 NA
ATOM     19  C   UNL     1       5.578  -1.643   5.711  1.00  0.00     0.031 C 
ATOM     20  C   UNL     1       4.668   3.228   4.976  1.00  0.00     0.029 A 
ATOM     21  N   UNL     1       6.048   2.725   6.662  1.00  0.00    -0.354 N 
ATOM     22  C   UNL     1       6.931  -1.489   7.536  1.00  0.00     0.074 A 
ATOM     23  C   UNL     1       6.286  -2.351   6.574  1.00  0.00     0.031 C 
ATOM     24  C   UNL     1       5.135   4.386   5.470  1.00  0.00     0.029 A 
ATOM     25  C   UNL     1       5.991   4.098   6.615  1.00  0.00     0.049 A 
ATOM     26  H   UNL     1       6.609   2.229   7.300  1.00  0.00     0.167 HD
ATOM     27  C   UNL     1       7.737  -1.924   8.530  1.00  0.00     0.034 A 
ATOM     28  C   UNL     1       6.544   5.008   7.439  1.00  0.00     0.034 A 
ATOM     29  C   UNL     1       8.376  -1.036   9.457  1.00  0.00     0.049 A 
ATOM     30  C   UNL     1       7.386   4.494   8.578  1.00  0.00     0.074 A 
ATOM     31  C   UNL     1       9.174  -1.342  10.541  1.00  0.00     0.029 A 
ATOM     32  N   UNL     1       8.277   0.349   9.402  1.00  0.00    -0.354 N 
ATOM     33  N   UNL     1       7.725   3.257   8.859  1.00  0.00    -0.248 NA
ATOM     34  C   UNL     1       7.929   5.493   9.505  1.00  0.00     0.031 C 
ATOM     35  C   UNL     1       9.536  -0.140  11.158  1.00  0.00     0.029 A 
ATOM     36  C   UNL     1       8.993   0.916  10.438  1.00  0.00     0.049 A 
ATOM     37  H   UNL     1       7.771   0.853   8.725  1.00  0.00     0.167 HD
ATOM     38  C   UNL     1       8.541   3.329   9.980  1.00  0.00     0.074 A 
ATOM     39  C   UNL     1       8.664   4.737  10.309  1.00  0.00     0.031 C 
ATOM     40  C   UNL     1       9.123   2.330  10.689  1.00  0.00     0.034 A 
BRANCH  27  41
ATOM     41  C   UNL     1       7.910  -3.412   8.671  1.00  0.00     0.023 A 
ATOM     42  C   UNL     1       8.686  -4.132   7.740  1.00  0.00     0.012 A 
ATOM     43  C   UNL     1       7.260  -4.104   9.712  1.00  0.00     0.148 A 
ATOM     44  C   UNL     1       8.778  -5.522   7.819  1.00  0.00     0.002 A 
ATOM     45  C   UNL     1       7.391  -5.484   9.808  1.00  0.00     0.091 A 
ATOM     46  F   UNL     1       6.501  -3.405  10.567  1.00  0.00    -0.205 F 
ATOM     47  C   UNL     1       8.136  -6.196   8.855  1.00  0.00     0.022 A 
BRANCH  45  48
ATOM     48  S   UNL     1       6.646  -6.437  11.136  1.00  0.00     0.127 S 
ATOM     49  O   UNL     1       5.623  -7.195  10.418  1.00  0.00    -0.237 OA
ATOM     50  O   UNL     1       7.778  -7.235  11.609  1.00  0.00    -0.237 OA
ATOM     51  O   UNL     1       6.143  -5.465  12.097  1.00  0.00    -0.744 OA
ENDBRANCH  45  48
ENDBRANCH  27  41
BRANCH  28  52
ATOM     52  C   UNL     1       6.310   6.466   7.228  1.00  0.00     0.023 A 
ATOM     53  C   UNL     1       7.388   7.310   6.896  1.00  0.00     0.012 A 
ATOM     54  C   UNL     1       5.019   7.022   7.338  1.00  0.00     0.148 A 
ATOM     55  C   UNL     1       7.189   8.680   6.706  1.00  0.00     0.002 A 
ATOM     56  C   UNL     1       4.818   8.376   7.091  1.00  0.00     0.091 A 
ATOM     57  F   UNL     1       4.005   6.213   7.678  1.00  0.00    -0.205 F 
ATOM     58  C   UNL     1       5.905   9.210   6.792  1.00  0.00     0.022 A 
BRANCH  56  59
ATOM     59  S   UNL     1       3.180   9.115   7.057  1.00  0.00     0.127 S 
ATOM     60  O   UNL     1       3.181   9.899   8.289  1.00  0.00    -0.237 OA
ATOM     61  O   UNL     1       3.228   9.902   5.825  1.00  0.00    -0.237 OA
ATOM     62  O   UNL     1       2.247   7.997   7.016  1.00  0.00    -0.744 OA
ENDBRANCH  56  59
ENDBRANCH  28  52
BRANCH  40  63
ATOM     63  C   UNL     1       9.975   2.730  11.861  1.00  0.00     0.023 A 
ATOM     64  C   UNL     1       9.367   3.183  13.047  1.00  0.00     0.012 A 
ATOM     65  C   UNL     1      11.372   2.563  11.809  1.00  0.00     0.148 A 
ATOM     66  C   UNL     1      10.145   3.494  14.160  1.00  0.00     0.002 A 
ATOM     67  C   UNL     1      12.133   2.822  12.939  1.00  0.00     0.091 A 
ATOM     68  F   UNL     1      11.926   2.150  10.660  1.00  0.00    -0.205 F 
ATOM     69  C   UNL     1      11.524   3.300  14.111  1.00  0.00     0.022 A 
BRANCH  67  70
ATOM     70  S   UNL     1      13.897   2.491  12.996  1.00  0.00     0.127 S 
ATOM     71  O   UNL     1      14.455   3.840  12.931  1.00  0.00    -0.237 OA
ATOM     72  O   UNL     1      14.046   1.829  14.293  1.00  0.00    -0.237 OA
ATOM     73  O   UNL     1      14.181   1.638  11.850  1.00  0.00    -0.744 OA
ENDBRANCH  67  70
ENDBRANCH  40  63
ENDBRANCH  14  15
ENDBRANCH   7   9
ENDBRANCH   6   7
ENDBRANCH   5   6
ENDBRANCH   4   5
ENDBRANCH   3   4
ENDBRANCH   2   3
ENDBRANCH   1   2
BRANCH   1  74
ATOM     74  O   UNL     1       2.426   2.719  -2.737  1.00  0.00    -0.377 OA
BRANCH  74  75
ATOM     75  C   UNL     1       3.848   2.640  -2.748  1.00  0.00     0.188 C 
BRANCH  75  76
ATOM     76  C   UNL     1       4.637   3.264  -1.575  1.00  0.00     0.188 C 
BRANCH  76  77
ATOM     77  O   UNL     1       3.805   3.809  -0.568  1.00  0.00    -0.376 OA
BRANCH  77  78
ATOM     78  C   UNL     1       3.752   5.226  -0.489  1.00  0.00     0.202 C 
BRANCH  78  79
ATOM     79  C   UNL     1       3.225   5.994  -1.714  1.00  0.00     0.261 C 
BRANCH  79  80
ATOM     80  O   UNL     1       3.710   5.554  -2.996  1.00  0.00    -0.460 OA
BRANCH  80  81
ATOM     81  C   UNL     1       4.895   5.996  -3.472  1.00  0.00     0.339 C 
ATOM     82  O   UNL     1       5.692   6.731  -2.917  1.00  0.00    -0.246 OA
BRANCH  81  83
ATOM     83  C   UNL     1       5.163   5.230  -4.715  1.00  0.00     0.079 A 
ATOM     84  C   UNL     1       6.214   4.285  -4.697  1.00  0.00     0.026 A 
ATOM     85  C   UNL     1       4.287   5.279  -5.804  1.00  0.00     0.055 A 
ATOM     86  C   UNL     1       6.334   3.330  -5.723  1.00  0.00    -0.017 A 
ATOM     87  C   UNL     1       4.438   4.368  -6.852  1.00  0.00     0.022 A 
ATOM     88  Cl  UNL     1       2.999   6.424  -5.917  1.00  0.00    -0.083 Cl
ATOM     89  C   UNL     1       5.440   3.395  -6.803  1.00  0.00     0.010 A 
BRANCH  86  90
ATOM     90  C   UNL     1       7.302   2.228  -5.661  1.00  0.00    -0.017 A 
ATOM     91  C   UNL     1       8.556   2.335  -6.280  1.00  0.00     0.009 A 
ATOM     92  C   UNL     1       6.959   1.005  -5.057  1.00  0.00     0.029 A 
ATOM     93  C   UNL     1       9.439   1.251  -6.309  1.00  0.00     0.002 A 
ATOM     94  C   UNL     1       7.845  -0.075  -5.086  1.00  0.00     0.041 A 
ATOM     95  C   UNL     1       9.082   0.041  -5.714  1.00  0.00     0.020 A 
ATOM     96  Cl  UNL     1       7.392  -1.571  -4.362  1.00  0.00    -0.084 Cl
ENDBRANCH  86  90
ENDBRANCH  81  83
ENDBRANCH  80  81
ENDBRANCH  79  80
ENDBRANCH  78  79
ENDBRANCH  77  78
ENDBRANCH  76  77
ENDBRANCH  75  76
ENDBRANCH  74  75
ENDBRANCH   1  74
TORSDOF 24
