REMARK SMILES COc1cc2c(CC(=O)OCCOCCOCCOCCOC(=O)c3ccc(-c4c5nc(c(-c6cccc(S(=O)(=O)[O-])c6F)c6ccc([nH]6)c(-c6cccc(S(=O)(=O)[O-])c6F)c6nc(c(-c7cccc(S(=O)(=O)[O-])c7F)c7ccc4[nH]7)C=C6)C=C5)cc3)c(C)n(C(=O)c3ccc(Cl)cc3)c2cc1Cl
REMARK SMILES IDX 16 1 15 2 14 3 13 4 12 5 11 6 10 7 8 8 9 9 7 10 6 11 3 12
REMARK SMILES IDX 4 13 102 14 5 15 101 16 103 17 100 18 88 19 90 20 89 21 2 22
REMARK SMILES IDX 1 23 91 24 92 25 93 26 94 27 99 28 95 29 98 30 96 31 97 32
REMARK SMILES IDX 17 33 18 34 19 35 20 36 21 37 22 38 23 39 24 40 25 41 26 42
REMARK SMILES IDX 87 43 27 44 86 45 28 46 29 47 30 48 80 49 31 50 85 51 79 52
REMARK SMILES IDX 81 53 32 54 84 55 78 56 77 57 33 59 65 60 45 61 64 62 46 63
REMARK SMILES IDX 49 64 63 65 82 66 47 67 48 68 62 70 83 71 50 72 34 73 35 74
REMARK SMILES IDX 43 75 36 76 38 77 44 78 37 79 39 80 40 81 41 82 42 83 66 84
REMARK SMILES IDX 67 85 75 86 68 87 70 88 76 89 69 90 71 91 72 92 73 93 74 94
REMARK SMILES IDX 51 95 52 96 60 97 53 98 55 99 61 100 54 101 56 102 57 103
REMARK SMILES IDX 58 104 59 105
REMARK H PARENT 81 58 49 69
REMARK Flexibility Score: inf
ROOT
ATOM      1  O   UNL     1      -0.111  -0.028  -4.588  1.00  0.00    -0.377 OA
ENDROOT
BRANCH   1   2
ATOM      2  C   UNL     1      -1.316   0.497  -4.083  1.00  0.00     0.188 C 
BRANCH   2   3
ATOM      3  C   UNL     1      -2.696  -0.045  -4.434  1.00  0.00     0.188 C 
BRANCH   3   4
ATOM      4  O   UNL     1      -2.780  -0.610  -5.725  1.00  0.00    -0.376 OA
BRANCH   4   5
ATOM      5  C   UNL     1      -3.353   0.172  -6.758  1.00  0.00     0.202 C 
BRANCH   5   6
ATOM      6  C   UNL     1      -2.574   1.392  -7.296  1.00  0.00     0.261 C 
BRANCH   6   7
ATOM      7  O   UNL     1      -1.929   2.266  -6.341  1.00  0.00    -0.463 OA
BRANCH   7   8
ATOM      8  C   UNL     1      -2.688   3.202  -5.727  1.00  0.00     0.310 C 
ATOM      9  O   UNL     1      -3.904   3.289  -5.889  1.00  0.00    -0.252 OA
BRANCH   8  10
ATOM     10  C   UNL     1      -1.962   4.117  -4.739  1.00  0.00     0.160 C 
BRANCH  10  11
ATOM     11  C   UNL     1      -0.459   4.014  -4.505  1.00  0.00    -0.008 A 
ATOM     12  C   UNL     1       0.591   2.167  -1.265  1.00  0.00     0.138 A 
ATOM     13  C   UNL     1      -0.274   2.814  -2.173  1.00  0.00     0.058 A 
ATOM     14  C   UNL     1       1.958   2.270  -1.478  1.00  0.00     0.085 A 
ATOM     15  C   UNL     1       0.193   3.443  -3.360  1.00  0.00     0.008 A 
ATOM     16  C   UNL     1       2.445   2.973  -2.591  1.00  0.00     0.051 A 
ATOM     17  Cl  UNL     1       3.188   1.643  -0.431  1.00  0.00    -0.080 Cl
ATOM     18  C   UNL     1       1.572   3.537  -3.551  1.00  0.00     0.058 A 
ATOM     19  C   UNL     1       0.549   4.565  -5.294  1.00  0.00     0.028 A 
ATOM     20  N   UNL     1       1.806   4.262  -4.735  1.00  0.00    -0.280 N 
ATOM     21  C   UNL     1       0.338   5.349  -6.553  1.00  0.00     0.065 C 
BRANCH  12  22
ATOM     22  O   UNL     1      -0.088   1.523  -0.266  1.00  0.00    -0.495 OA
ATOM     23  C   UNL     1       0.552   0.478   0.455  1.00  0.00     0.278 C 
ENDBRANCH  12  22
BRANCH  20  24
ATOM     24  C   UNL     1       3.092   4.651  -5.231  1.00  0.00     0.262 C 
ATOM     25  O   UNL     1       3.172   5.423  -6.183  1.00  0.00    -0.268 OA
BRANCH  24  26
ATOM     26  C   UNL     1       4.385   4.244  -4.649  1.00  0.00     0.040 A 
ATOM     27  C   UNL     1       4.887   2.958  -4.878  1.00  0.00     0.015 A 
ATOM     28  C   UNL     1       5.072   5.145  -3.825  1.00  0.00     0.015 A 
ATOM     29  C   UNL     1       6.051   2.549  -4.218  1.00  0.00     0.021 A 
ATOM     30  C   UNL     1       6.236   4.731  -3.172  1.00  0.00     0.021 A 
ATOM     31  C   UNL     1       6.711   3.432  -3.360  1.00  0.00     0.041 A 
ATOM     32  Cl  UNL     1       8.111   2.908  -2.507  1.00  0.00    -0.084 Cl
ENDBRANCH  24  26
ENDBRANCH  20  24
ENDBRANCH  10  11
ENDBRANCH   8  10
ENDBRANCH   7   8
ENDBRANCH   6   7
ENDBRANCH   5   6
ENDBRANCH   4   5
ENDBRANCH   3   4
ENDBRANCH   2   3
ENDBRANCH   1   2
BRANCH   1  33
ATOM     33  C   UNL     1      -0.161  -1.148  -5.436  1.00  0.00     0.188 C 
BRANCH  33  34
ATOM     34  C   UNL     1      -0.538  -2.473  -4.760  1.00  0.00     0.188 C 
BRANCH  34  35
ATOM     35  O   UNL     1      -0.179  -2.758  -3.407  1.00  0.00    -0.376 OA
BRANCH  35  36
ATOM     36  C   UNL     1       0.807  -1.991  -2.740  1.00  0.00     0.202 C 
BRANCH  36  37
ATOM     37  C   UNL     1       2.272  -2.079  -3.204  1.00  0.00     0.261 C 
BRANCH  37  38
ATOM     38  O   UNL     1       2.432  -2.142  -4.620  1.00  0.00    -0.460 OA
BRANCH  38  39
ATOM     39  C   UNL     1       2.980  -3.277  -5.147  1.00  0.00     0.338 C 
ATOM     40  O   UNL     1       3.607  -4.122  -4.579  1.00  0.00    -0.246 OA
BRANCH  39  41
ATOM     41  C   UNL     1       2.381  -3.393  -6.504  1.00  0.00     0.060 A 
ATOM     42  C   UNL     1       2.384  -2.303  -7.379  1.00  0.00     0.016 A 
ATOM     43  C   UNL     1       1.540  -4.492  -6.727  1.00  0.00     0.016 A 
ATOM     44  C   UNL     1       1.420  -2.250  -8.380  1.00  0.00     0.010 A 
ATOM     45  C   UNL     1       0.576  -4.432  -7.734  1.00  0.00     0.010 A 
ATOM     46  C   UNL     1       0.479  -3.288  -8.527  1.00  0.00    -0.014 A 
BRANCH  46  47
ATOM     47  C   UNL     1      -0.404  -3.220  -9.698  1.00  0.00     0.031 A 
ATOM     48  C   UNL     1       0.371  -3.199 -10.968  1.00  0.00     0.074 A 
ATOM     49  C   UNL     1      -1.746  -3.338  -9.770  1.00  0.00     0.049 A 
ATOM     50  N   UNL     1       0.454  -2.251 -11.844  1.00  0.00    -0.248 NA
ATOM     51  C   UNL     1       1.283  -4.331 -11.192  1.00  0.00     0.031 C 
ATOM     52  C   UNL     1      -2.689  -3.707  -8.715  1.00  0.00     0.029 A 
ATOM     53  N   UNL     1      -2.541  -3.270 -10.887  1.00  0.00    -0.354 N 
ATOM     54  C   UNL     1       1.292  -2.754 -12.833  1.00  0.00     0.074 A 
ATOM     55  C   UNL     1       1.899  -3.951 -12.308  1.00  0.00     0.031 C 
ATOM     56  C   UNL     1      -3.865  -4.068  -9.284  1.00  0.00     0.029 A 
ATOM     57  C   UNL     1      -3.797  -3.845 -10.720  1.00  0.00     0.049 A 
ATOM     58  H   UNL     1      -2.248  -2.853 -11.729  1.00  0.00     0.167 HD
ATOM     59  C   UNL     1       1.284  -2.298 -14.112  1.00  0.00     0.034 A 
ATOM     60  C   UNL     1      -4.662  -4.187 -11.709  1.00  0.00     0.034 A 
ATOM     61  C   UNL     1       0.594  -1.055 -14.273  1.00  0.00     0.049 A 
ATOM     62  C   UNL     1      -4.279  -3.427 -12.923  1.00  0.00     0.074 A 
ATOM     63  C   UNL     1       0.730   0.224 -13.777  1.00  0.00     0.029 A 
ATOM     64  N   UNL     1      -0.646  -1.112 -14.856  1.00  0.00    -0.354 N 
ATOM     65  N   UNL     1      -4.429  -2.142 -13.073  1.00  0.00    -0.248 NA
ATOM     66  C   UNL     1      -3.459  -4.085 -13.929  1.00  0.00     0.031 C 
ATOM     67  C   UNL     1      -0.596   0.742 -13.710  1.00  0.00     0.029 A 
ATOM     68  C   UNL     1      -1.459  -0.258 -14.164  1.00  0.00     0.049 A 
ATOM     69  H   UNL     1      -0.903  -1.665 -15.629  1.00  0.00     0.167 HD
ATOM     70  C   UNL     1      -3.410  -1.770 -13.937  1.00  0.00     0.074 A 
ATOM     71  C   UNL     1      -2.943  -3.014 -14.534  1.00  0.00     0.031 C 
ATOM     72  C   UNL     1      -2.849  -0.529 -13.871  1.00  0.00     0.034 A 
BRANCH  59  73
ATOM     73  C   UNL     1       1.613  -3.178 -15.282  1.00  0.00     0.023 A 
ATOM     74  C   UNL     1       1.998  -2.574 -16.493  1.00  0.00     0.012 A 
ATOM     75  C   UNL     1       1.322  -4.561 -15.301  1.00  0.00     0.148 A 
ATOM     76  C   UNL     1       2.103  -3.321 -17.670  1.00  0.00     0.002 A 
ATOM     77  C   UNL     1       1.517  -5.313 -16.449  1.00  0.00     0.091 A 
ATOM     78  F   UNL     1       0.731  -5.130 -14.242  1.00  0.00    -0.205 F 
ATOM     79  C   UNL     1       1.885  -4.696 -17.644  1.00  0.00     0.022 A 
BRANCH  77  80
ATOM     80  S   UNL     1       1.319  -7.096 -16.419  1.00  0.00     0.127 S 
ATOM     81  O   UNL     1      -0.035  -7.250 -16.939  1.00  0.00    -0.237 OA
ATOM     82  O   UNL     1       2.386  -7.537 -17.319  1.00  0.00    -0.237 OA
ATOM     83  O   UNL     1       1.529  -7.469 -15.025  1.00  0.00    -0.744 OA
ENDBRANCH  77  80
ENDBRANCH  59  73
BRANCH  60  84
ATOM     84  C   UNL     1      -5.692  -5.260 -11.797  1.00  0.00     0.023 A 
ATOM     85  C   UNL     1      -6.625  -5.228 -12.860  1.00  0.00     0.012 A 
ATOM     86  C   UNL     1      -5.601  -6.450 -11.046  1.00  0.00     0.148 A 
ATOM     87  C   UNL     1      -7.384  -6.354 -13.203  1.00  0.00     0.002 A 
ATOM     88  C   UNL     1      -6.375  -7.563 -11.377  1.00  0.00     0.091 A 
ATOM     89  F   UNL     1      -4.687  -6.538 -10.071  1.00  0.00    -0.205 F 
ATOM     90  C   UNL     1      -7.253  -7.525 -12.467  1.00  0.00     0.022 A 
BRANCH  88  91
ATOM     91  S   UNL     1      -6.253  -9.102 -10.455  1.00  0.00     0.127 S 
ATOM     92  O   UNL     1      -7.642  -9.565 -10.433  1.00  0.00    -0.237 OA
ATOM     93  O   UNL     1      -5.359  -9.892 -11.295  1.00  0.00    -0.237 OA
ATOM     94  O   UNL     1      -5.735  -8.724  -9.145  1.00  0.00    -0.744 OA
ENDBRANCH  88  91
ENDBRANCH  60  84
BRANCH  72  95
ATOM     95  C   UNL     1      -3.596   0.557 -13.148  1.00  0.00     0.023 A 
ATOM     96  C   UNL     1      -3.848   0.496 -11.762  1.00  0.00     0.012 A 
ATOM     97  C   UNL     1      -3.879   1.743 -13.848  1.00  0.00     0.148 A 
ATOM     98  C   UNL     1      -4.387   1.595 -11.091  1.00  0.00     0.002 A 
ATOM     99  C   UNL     1      -4.370   2.849 -13.167  1.00  0.00     0.091 A 
ATOM    100  F   UNL     1      -3.620   1.778 -15.164  1.00  0.00    -0.205 F 
ATOM    101  C   UNL     1      -4.632   2.776 -11.790  1.00  0.00     0.022 A 
BRANCH  99 102
ATOM    102  S   UNL     1      -4.600   4.437 -13.969  1.00  0.00     0.127 S 
ATOM    103  O   UNL     1      -6.047   4.618 -13.879  1.00  0.00    -0.237 OA
ATOM    104  O   UNL     1      -3.816   5.328 -13.112  1.00  0.00    -0.237 OA
ATOM    105  O   UNL     1      -4.077   4.290 -15.322  1.00  0.00    -0.744 OA
ENDBRANCH  99 102
ENDBRANCH  72  95
ENDBRANCH  46  47
ENDBRANCH  39  41
ENDBRANCH  38  39
ENDBRANCH  37  38
ENDBRANCH  36  37
ENDBRANCH  35  36
ENDBRANCH  34  35
ENDBRANCH  33  34
ENDBRANCH   1  33
TORSDOF 27
