REMARK SMILES O=C(OCCOCCOCCOCCOC(=O)c1cc([C@@H]2C=NN=C2c2ccc(F)cc2)c2c(ccc3ccccc32)n1)c1ccc(-c2c3nc(c(-c4cccc(S(=O)(=O)[O-])c4F)c4ccc([nH]4)c(-c4cccc(S(=O)(=O)[O-])c4F)c4nc(c(-c5cccc(S(=O)(=O)[O-])c5F)c5ccc2[nH]5)C=C4)C=C3)cc1
REMARK SMILES IDX 8 1 7 2 6 3 5 4 4 5 3 6 2 7 1 8 44 9 45 10 106 11 46 12
REMARK SMILES IDX 105 13 47 14 48 15 49 16 99 17 50 18 104 19 98 20 100 21
REMARK SMILES IDX 51 22 103 23 97 24 96 25 52 27 84 28 64 29 83 30 65 31 68 32
REMARK SMILES IDX 82 33 101 34 66 35 67 36 81 38 102 39 69 40 53 41 54 42
REMARK SMILES IDX 62 43 55 44 57 45 63 46 56 47 58 48 59 49 60 50 61 51 85 52
REMARK SMILES IDX 86 53 94 54 87 55 89 56 95 57 88 58 90 59 91 60 92 61 93 62
REMARK SMILES IDX 70 63 71 64 79 65 72 66 74 67 80 68 73 69 75 70 76 71 77 72
REMARK SMILES IDX 78 73 9 74 10 75 11 76 12 77 13 78 14 79 15 80 16 81 17 82
REMARK SMILES IDX 18 83 19 84 43 85 20 86 34 87 33 88 35 89 42 90 36 91 37 92
REMARK SMILES IDX 41 93 38 94 40 95 39 96 21 97 22 98 25 99 23 100 24 101
REMARK SMILES IDX 26 102 27 103 32 104 28 105 31 106 29 107 30 108
REMARK H PARENT 100 26 68 37
REMARK Flexibility Score: inf
ROOT
ATOM      1  C   UNL     1       2.331  -1.460  -1.452  1.00  0.00     0.188 C 
ENDROOT
BRANCH   1   2
ATOM      2  C   UNL     1       3.070  -0.117  -1.621  1.00  0.00     0.188 C 
BRANCH   2   3
ATOM      3  O   UNL     1       4.428   0.109  -1.282  1.00  0.00    -0.376 OA
BRANCH   3   4
ATOM      4  C   UNL     1       5.175  -0.226  -0.131  1.00  0.00     0.202 C 
BRANCH   4   5
ATOM      5  C   UNL     1       4.636  -0.462   1.281  1.00  0.00     0.261 C 
BRANCH   5   6
ATOM      6  O   UNL     1       3.286  -0.880   1.366  1.00  0.00    -0.460 OA
BRANCH   6   7
ATOM      7  C   UNL     1       2.183  -0.106   1.417  1.00  0.00     0.338 C 
ATOM      8  O   UNL     1       1.099  -0.668   1.566  1.00  0.00    -0.246 OA
BRANCH   7   9
ATOM      9  C   UNL     1       2.192   1.370   1.226  1.00  0.00     0.060 A 
ATOM     10  C   UNL     1       3.315   2.203   1.192  1.00  0.00     0.016 A 
ATOM     11  C   UNL     1       0.916   1.948   1.090  1.00  0.00     0.016 A 
ATOM     12  C   UNL     1       3.170   3.566   1.290  1.00  0.00     0.010 A 
ATOM     13  C   UNL     1       0.761   3.316   1.137  1.00  0.00     0.010 A 
ATOM     14  C   UNL     1       1.889   4.092   1.352  1.00  0.00    -0.014 A 
BRANCH  14  15
ATOM     15  C   UNL     1       1.783   5.497   1.660  1.00  0.00     0.031 A 
ATOM     16  C   UNL     1       2.287   6.386   0.589  1.00  0.00     0.074 A 
ATOM     17  C   UNL     1       1.240   5.877   2.832  1.00  0.00     0.049 A 
ATOM     18  N   UNL     1       3.284   7.205   0.641  1.00  0.00    -0.248 NA
ATOM     19  C   UNL     1       1.722   6.206  -0.758  1.00  0.00     0.031 C 
ATOM     20  C   UNL     1       0.531   5.032   3.801  1.00  0.00     0.029 A 
ATOM     21  N   UNL     1       1.066   7.126   3.330  1.00  0.00    -0.354 N 
ATOM     22  C   UNL     1       3.293   7.839  -0.599  1.00  0.00     0.074 A 
ATOM     23  C   UNL     1       2.474   7.043  -1.472  1.00  0.00     0.031 C 
ATOM     24  C   UNL     1      -0.230   5.817   4.593  1.00  0.00     0.029 A 
ATOM     25  C   UNL     1       0.048   7.205   4.275  1.00  0.00     0.049 A 
ATOM     26  H   UNL     1       1.607   7.901   3.050  1.00  0.00     0.167 HD
ATOM     27  C   UNL     1       3.716   9.125  -0.722  1.00  0.00     0.034 A 
ATOM     28  C   UNL     1      -0.592   8.334   4.664  1.00  0.00     0.034 A 
ATOM     29  C   UNL     1       4.568   9.508   0.373  1.00  0.00     0.049 A 
ATOM     30  C   UNL     1       0.281   9.474   4.297  1.00  0.00     0.074 A 
ATOM     31  C   UNL     1       5.758   9.035   0.889  1.00  0.00     0.029 A 
ATOM     32  N   UNL     1       4.014  10.294   1.352  1.00  0.00    -0.354 N 
ATOM     33  N   UNL     1       1.447   9.695   4.837  1.00  0.00    -0.248 NA
ATOM     34  C   UNL     1       0.051  10.119   3.013  1.00  0.00     0.031 C 
ATOM     35  C   UNL     1       5.626   9.175   2.300  1.00  0.00     0.029 A 
ATOM     36  C   UNL     1       4.398   9.786   2.563  1.00  0.00     0.049 A 
ATOM     37  H   UNL     1       3.442  11.083   1.209  1.00  0.00     0.167 HD
ATOM     38  C   UNL     1       2.244  10.108   3.777  1.00  0.00     0.074 A 
ATOM     39  C   UNL     1       1.307  10.459   2.711  1.00  0.00     0.031 C 
ATOM     40  C   UNL     1       3.583   9.842   3.758  1.00  0.00     0.034 A 
BRANCH  27  41
ATOM     41  C   UNL     1       3.038  10.147  -1.607  1.00  0.00     0.023 A 
ATOM     42  C   UNL     1       3.646  11.416  -1.719  1.00  0.00     0.012 A 
ATOM     43  C   UNL     1       1.718  10.028  -2.104  1.00  0.00     0.148 A 
ATOM     44  C   UNL     1       2.961  12.514  -2.251  1.00  0.00     0.002 A 
ATOM     45  C   UNL     1       1.076  11.097  -2.717  1.00  0.00     0.091 A 
ATOM     46  F   UNL     1       1.002   8.926  -1.868  1.00  0.00    -0.205 F 
ATOM     47  C   UNL     1       1.679  12.353  -2.762  1.00  0.00     0.022 A 
BRANCH  45  48
ATOM     48  S   UNL     1      -0.554  10.910  -3.451  1.00  0.00     0.127 S 
ATOM     49  O   UNL     1      -1.396  11.587  -2.470  1.00  0.00    -0.237 OA
ATOM     50  O   UNL     1      -0.391  11.615  -4.722  1.00  0.00    -0.237 OA
ATOM     51  O   UNL     1      -0.755   9.472  -3.591  1.00  0.00    -0.744 OA
ENDBRANCH  45  48
ENDBRANCH  27  41
BRANCH  28  52
ATOM     52  C   UNL     1      -2.025   8.521   4.995  1.00  0.00     0.023 A 
ATOM     53  C   UNL     1      -2.425   9.697   5.661  1.00  0.00     0.012 A 
ATOM     54  C   UNL     1      -3.028   7.715   4.409  1.00  0.00     0.148 A 
ATOM     55  C   UNL     1      -3.770  10.082   5.702  1.00  0.00     0.002 A 
ATOM     56  C   UNL     1      -4.364   8.098   4.457  1.00  0.00     0.091 A 
ATOM     57  F   UNL     1      -2.666   6.624   3.723  1.00  0.00    -0.205 F 
ATOM     58  C   UNL     1      -4.738   9.290   5.091  1.00  0.00     0.022 A 
BRANCH  56  59
ATOM     59  S   UNL     1      -5.665   7.146   3.658  1.00  0.00     0.127 S 
ATOM     60  O   UNL     1      -6.662   7.044   4.724  1.00  0.00    -0.237 OA
ATOM     61  O   UNL     1      -6.039   8.020   2.550  1.00  0.00    -0.237 OA
ATOM     62  O   UNL     1      -5.056   5.876   3.284  1.00  0.00    -0.744 OA
ENDBRANCH  56  59
ENDBRANCH  28  52
BRANCH  40  63
ATOM     63  C   UNL     1       4.226   9.309   5.016  1.00  0.00     0.023 A 
ATOM     64  C   UNL     1       3.902   8.046   5.554  1.00  0.00     0.012 A 
ATOM     65  C   UNL     1       5.334  10.002   5.531  1.00  0.00     0.148 A 
ATOM     66  C   UNL     1       4.662   7.492   6.589  1.00  0.00     0.002 A 
ATOM     67  C   UNL     1       6.120   9.424   6.520  1.00  0.00     0.091 A 
ATOM     68  F   UNL     1       5.628  11.202   5.008  1.00  0.00    -0.205 F 
ATOM     69  C   UNL     1       5.782   8.173   7.059  1.00  0.00     0.022 A 
BRANCH  67  70
ATOM     70  S   UNL     1       7.659  10.178   7.051  1.00  0.00     0.127 S 
ATOM     71  O   UNL     1       7.308  10.689   8.374  1.00  0.00    -0.237 OA
ATOM     72  O   UNL     1       8.579   9.039   7.058  1.00  0.00    -0.237 OA
ATOM     73  O   UNL     1       7.976  11.190   6.050  1.00  0.00    -0.744 OA
ENDBRANCH  67  70
ENDBRANCH  40  63
ENDBRANCH  14  15
ENDBRANCH   7   9
ENDBRANCH   6   7
ENDBRANCH   5   6
ENDBRANCH   4   5
ENDBRANCH   3   4
ENDBRANCH   2   3
ENDBRANCH   1   2
BRANCH   1  74
ATOM     74  O   UNL     1       2.880  -2.582  -2.119  1.00  0.00    -0.377 OA
BRANCH  74  75
ATOM     75  C   UNL     1       4.195  -2.883  -1.713  1.00  0.00     0.188 C 
BRANCH  75  76
ATOM     76  C   UNL     1       5.285  -2.470  -2.728  1.00  0.00     0.188 C 
BRANCH  76  77
ATOM     77  O   UNL     1       4.979  -1.849  -3.972  1.00  0.00    -0.376 OA
BRANCH  77  78
ATOM     78  C   UNL     1       3.752  -2.078  -4.642  1.00  0.00     0.202 C 
BRANCH  78  79
ATOM     79  C   UNL     1       3.390  -3.503  -5.074  1.00  0.00     0.261 C 
BRANCH  79  80
ATOM     80  O   UNL     1       3.628  -4.516  -4.094  1.00  0.00    -0.459 OA
BRANCH  80  81
ATOM     81  C   UNL     1       4.848  -5.115  -4.151  1.00  0.00     0.357 C 
ATOM     82  O   UNL     1       5.703  -4.989  -4.993  1.00  0.00    -0.244 OA
BRANCH  81  83
ATOM     83  C   UNL     1       4.955  -5.975  -2.943  1.00  0.00     0.149 A 
ATOM     84  C   UNL     1       4.101  -7.031  -2.841  1.00  0.00     0.041 A 
ATOM     85  N   UNL     1       5.898  -5.706  -2.022  1.00  0.00    -0.241 NA
ATOM     86  C   UNL     1       4.322  -8.000  -1.842  1.00  0.00    -0.021 A 
ATOM     87  C   UNL     1       6.029  -6.535  -0.979  1.00  0.00     0.072 A 
ATOM     88  C   UNL     1       5.359  -7.786  -0.843  1.00  0.00     0.012 A 
ATOM     89  C   UNL     1       6.931  -6.104  -0.025  1.00  0.00     0.029 A 
ATOM     90  C   UNL     1       5.865  -8.668   0.225  1.00  0.00    -0.009 A 
ATOM     91  C   UNL     1       7.279  -6.881   1.070  1.00  0.00     0.011 A 
ATOM     92  C   UNL     1       6.792  -8.174   1.185  1.00  0.00    -0.018 A 
ATOM     93  C   UNL     1       5.572 -10.042   0.374  1.00  0.00     0.009 A 
ATOM     94  C   UNL     1       7.278  -8.976   2.236  1.00  0.00     0.009 A 
ATOM     95  C   UNL     1       6.067 -10.849   1.405  1.00  0.00     0.001 A 
ATOM     96  C   UNL     1       6.912 -10.310   2.351  1.00  0.00     0.001 A 
BRANCH  86  97
ATOM     97  C   UNL     1       3.526  -9.237  -2.165  1.00  0.00     0.115 C 
ATOM     98  C   UNL     1       2.816 -10.040  -1.153  1.00  0.00     0.123 C 
ATOM     99  C   UNL     1       4.277 -10.337  -2.849  1.00  0.00     0.083 C 
ATOM    100  N   UNL     1       2.946 -11.314  -1.361  1.00  0.00    -0.162 NA
ATOM    101  N   UNL     1       3.881 -11.510  -2.451  1.00  0.00    -0.154 NA
BRANCH  99 102
ATOM    102  C   UNL     1       5.272 -10.079  -3.909  1.00  0.00    -0.001 A 
ATOM    103  C   UNL     1       4.973 -10.437  -5.224  1.00  0.00     0.013 A 
ATOM    104  C   UNL     1       6.476  -9.418  -3.622  1.00  0.00     0.013 A 
ATOM    105  C   UNL     1       5.863 -10.099  -6.249  1.00  0.00     0.040 A 
ATOM    106  C   UNL     1       7.346  -9.053  -4.650  1.00  0.00     0.040 A 
ATOM    107  C   UNL     1       7.033  -9.401  -5.956  1.00  0.00     0.123 A 
ATOM    108  F   UNL     1       7.873  -9.071  -6.945  1.00  0.00    -0.207 F 
ENDBRANCH  99 102
ENDBRANCH  86  97
ENDBRANCH  81  83
ENDBRANCH  80  81
ENDBRANCH  79  80
ENDBRANCH  78  79
ENDBRANCH  77  78
ENDBRANCH  76  77
ENDBRANCH  75  76
ENDBRANCH  74  75
ENDBRANCH   1  74
TORSDOF 25
