REMARK SMILES O=C(CSc1nnnn1-c1ccc(C(=O)OCCOCCOCCOCCOC(=O)c2ccc(-c3c4nc(c(-c5cccc(S(=O)(=O)[O-])c5F)c5ccc([nH]5)c(-c5cccc(S(=O)(=O)[O-])c5F)c5nc(c(-c6cccc(S(=O)(=O)[O-])c6F)c6ccc3[nH]6)C=C5)C=C4)cc2)cc1)Nc1nc(-c2ccccc2)cs1
REMARK SMILES IDX 20 1 19 2 18 3 17 4 16 5 14 6 15 7 13 8 10 9 11 10 95 11
REMARK SMILES IDX 12 12 94 13 9 14 5 15 6 16 7 17 8 18 4 19 3 20 2 21 1 22
REMARK SMILES IDX 96 23 97 25 98 26 107 27 99 28 106 29 100 30 101 31 105 32
REMARK SMILES IDX 102 33 104 34 103 35 21 36 22 37 23 38 24 39 25 40 26 41
REMARK SMILES IDX 27 42 28 43 29 44 30 45 31 46 32 47 93 48 33 49 92 50 34 51
REMARK SMILES IDX 35 52 36 53 86 54 37 55 91 56 85 57 87 58 38 59 90 60 84 61
REMARK SMILES IDX 83 62 39 64 71 65 51 66 70 67 52 68 55 69 69 70 88 71 53 72
REMARK SMILES IDX 54 73 68 75 89 76 56 77 40 78 41 79 49 80 42 81 44 82 50 83
REMARK SMILES IDX 43 84 45 85 46 86 47 87 48 88 72 89 73 90 81 91 74 92 76 93
REMARK SMILES IDX 82 94 75 95 77 96 78 97 79 98 80 99 57 100 58 101 66 102
REMARK SMILES IDX 59 103 61 104 67 105 60 106 62 107 63 108 64 109 65 110
REMARK H PARENT 96 24 87 63 55 74
REMARK Flexibility Score: inf
ROOT
ATOM      1  C   UNL     1       8.927   7.865  -2.362  1.00  0.00     0.188 C 
ENDROOT
BRANCH   1   2
ATOM      2  O   UNL     1      10.345   7.796  -2.393  1.00  0.00    -0.376 OA
BRANCH   2   3
ATOM      3  C   UNL     1      11.056   6.835  -3.155  1.00  0.00     0.202 C 
BRANCH   3   4
ATOM      4  C   UNL     1      10.611   5.374  -3.339  1.00  0.00     0.261 C 
BRANCH   4   5
ATOM      5  O   UNL     1       9.236   5.081  -3.124  1.00  0.00    -0.460 OA
BRANCH   5   6
ATOM      6  C   UNL     1       8.899   4.758  -1.860  1.00  0.00     0.338 C 
ATOM      7  O   UNL     1       9.640   4.631  -0.900  1.00  0.00    -0.246 OA
BRANCH   6   8
ATOM      8  C   UNL     1       7.424   4.742  -1.771  1.00  0.00     0.060 A 
ATOM      9  C   UNL     1       4.685   4.588  -1.431  1.00  0.00     0.069 A 
ATOM     10  C   UNL     1       5.434   5.331  -0.516  1.00  0.00     0.029 A 
ATOM     11  C   UNL     1       5.272   4.045  -2.585  1.00  0.00     0.029 A 
ATOM     12  C   UNL     1       6.817   5.369  -0.671  1.00  0.00     0.018 A 
ATOM     13  C   UNL     1       6.648   4.140  -2.765  1.00  0.00     0.018 A 
BRANCH   9  14
ATOM     14  N   UNL     1       3.381   4.196  -1.073  1.00  0.00    -0.187 N 
ATOM     15  C   UNL     1       2.891   2.903  -0.972  1.00  0.00     0.214 A 
ATOM     16  N   UNL     1       1.673   2.946  -0.489  1.00  0.00    -0.101 NA
ATOM     17  N   UNL     1       1.430   4.272  -0.214  1.00  0.00    -0.022 NA
ATOM     18  N   UNL     1       2.496   5.021  -0.472  1.00  0.00    -0.039 NA
BRANCH  15  19
ATOM     19  S   UNL     1       3.904   1.493  -1.080  1.00  0.00    -0.074 SA
BRANCH  19  20
ATOM     20  C   UNL     1       2.714   0.158  -1.277  1.00  0.00     0.178 C 
BRANCH  20  21
ATOM     21  C   UNL     1       1.947  -0.212  -0.020  1.00  0.00     0.236 C 
ATOM     22  O   UNL     1       0.836  -0.727  -0.135  1.00  0.00    -0.274 OA
ATOM     23  N   UNL     1       2.630  -0.014   1.161  1.00  0.00    -0.301 N 
ATOM     24  H   UNL     1       3.523   0.398   1.135  1.00  0.00     0.172 HD
BRANCH  23  25
ATOM     25  C   UNL     1       2.098  -0.377   2.365  1.00  0.00     0.189 A 
ATOM     26  N   UNL     1       1.051  -1.117   2.608  1.00  0.00    -0.220 NA
ATOM     27  S   UNL     1       2.925   0.237   3.728  1.00  0.00    -0.105 S 
ATOM     28  C   UNL     1       0.796  -1.124   3.961  1.00  0.00     0.084 A 
ATOM     29  C   UNL     1       1.702  -0.429   4.739  1.00  0.00     0.097 A 
BRANCH  28  30
ATOM     30  C   UNL     1      -0.356  -1.822   4.492  1.00  0.00     0.001 A 
ATOM     31  C   UNL     1      -0.452  -3.211   4.348  1.00  0.00     0.010 A 
ATOM     32  C   UNL     1      -1.402  -1.114   5.094  1.00  0.00     0.010 A 
ATOM     33  C   UNL     1      -1.577  -3.889   4.822  1.00  0.00     0.001 A 
ATOM     34  C   UNL     1      -2.531  -1.793   5.557  1.00  0.00     0.001 A 
ATOM     35  C   UNL     1      -2.615  -3.180   5.425  1.00  0.00     0.000 A 
ENDBRANCH  28  30
ENDBRANCH  23  25
ENDBRANCH  20  21
ENDBRANCH  19  20
ENDBRANCH  15  19
ENDBRANCH   9  14
ENDBRANCH   6   8
ENDBRANCH   5   6
ENDBRANCH   4   5
ENDBRANCH   3   4
ENDBRANCH   2   3
ENDBRANCH   1   2
BRANCH   1  36
ATOM     36  C   UNL     1       8.073   7.727  -3.643  1.00  0.00     0.188 C 
BRANCH  36  37
ATOM     37  O   UNL     1       8.810   7.294  -4.773  1.00  0.00    -0.377 OA
BRANCH  37  38
ATOM     38  C   UNL     1       9.268   8.325  -5.646  1.00  0.00     0.188 C 
BRANCH  38  39
ATOM     39  C   UNL     1       9.915   9.588  -5.020  1.00  0.00     0.188 C 
BRANCH  39  40
ATOM     40  O   UNL     1       9.261  10.081  -3.856  1.00  0.00    -0.376 OA
BRANCH  40  41
ATOM     41  C   UNL     1       8.497  11.274  -3.870  1.00  0.00     0.202 C 
BRANCH  41  42
ATOM     42  C   UNL     1       7.185  11.243  -4.645  1.00  0.00     0.261 C 
BRANCH  42  43
ATOM     43  O   UNL     1       7.306  10.635  -5.913  1.00  0.00    -0.460 OA
BRANCH  43  44
ATOM     44  C   UNL     1       8.055  11.309  -6.796  1.00  0.00     0.338 C 
ATOM     45  O   UNL     1       8.800  12.264  -6.575  1.00  0.00    -0.246 OA
BRANCH  44  46
ATOM     46  C   UNL     1       7.766  10.782  -8.119  1.00  0.00     0.060 A 
ATOM     47  C   UNL     1       8.596  11.199  -9.159  1.00  0.00     0.016 A 
ATOM     48  C   UNL     1       6.501  10.210  -8.327  1.00  0.00     0.016 A 
ATOM     49  C   UNL     1       8.042  11.289 -10.409  1.00  0.00     0.010 A 
ATOM     50  C   UNL     1       5.941  10.333  -9.563  1.00  0.00     0.010 A 
ATOM     51  C   UNL     1       6.691  10.962 -10.551  1.00  0.00    -0.014 A 
BRANCH  51  52
ATOM     52  C   UNL     1       6.050  11.267 -11.801  1.00  0.00     0.031 A 
ATOM     53  C   UNL     1       6.338  10.255 -12.832  1.00  0.00     0.074 A 
ATOM     54  C   UNL     1       5.204  12.307 -11.904  1.00  0.00     0.049 A 
ATOM     55  N   UNL     1       7.066  10.396 -13.887  1.00  0.00    -0.248 NA
ATOM     56  C   UNL     1       5.954   8.864 -12.540  1.00  0.00     0.031 C 
ATOM     57  C   UNL     1       4.667  13.140 -10.821  1.00  0.00     0.029 A 
ATOM     58  N   UNL     1       4.516  12.736 -12.992  1.00  0.00    -0.354 N 
ATOM     59  C   UNL     1       6.987   9.166 -14.528  1.00  0.00     0.074 A 
ATOM     60  C   UNL     1       6.540   8.217 -13.546  1.00  0.00     0.031 C 
ATOM     61  C   UNL     1       3.561  13.779 -11.266  1.00  0.00     0.029 A 
ATOM     62  C   UNL     1       3.392  13.492 -12.680  1.00  0.00     0.049 A 
ATOM     63  H   UNL     1       4.788  12.531 -13.916  1.00  0.00     0.167 HD
ATOM     64  C   UNL     1       6.954   9.092 -15.883  1.00  0.00     0.034 A 
ATOM     65  C   UNL     1       2.352  13.750 -13.511  1.00  0.00     0.034 A 
ATOM     66  C   UNL     1       7.432  10.306 -16.492  1.00  0.00     0.049 A 
ATOM     67  C   UNL     1       2.818  13.485 -14.894  1.00  0.00     0.074 A 
ATOM     68  C   UNL     1       8.603  11.034 -16.419  1.00  0.00     0.029 A 
ATOM     69  N   UNL     1       6.484  11.156 -17.009  1.00  0.00    -0.354 N 
ATOM     70  N   UNL     1       3.727  14.197 -15.498  1.00  0.00    -0.248 NA
ATOM     71  C   UNL     1       2.597  12.156 -15.445  1.00  0.00     0.031 C 
ATOM     72  C   UNL     1       8.194  12.398 -16.469  1.00  0.00     0.029 A 
ATOM     73  C   UNL     1       6.807  12.432 -16.631  1.00  0.00     0.049 A 
ATOM     74  H   UNL     1       5.708  10.893 -17.555  1.00  0.00     0.167 HD
ATOM     75  C   UNL     1       4.498  13.265 -16.183  1.00  0.00     0.074 A 
ATOM     76  C   UNL     1       3.688  12.049 -16.210  1.00  0.00     0.031 C 
ATOM     77  C   UNL     1       5.832  13.475 -16.391  1.00  0.00     0.034 A 
BRANCH  64  78
ATOM     78  C   UNL     1       6.113   8.093 -16.639  1.00  0.00     0.023 A 
ATOM     79  C   UNL     1       6.324   7.996 -18.029  1.00  0.00     0.012 A 
ATOM     80  C   UNL     1       4.966   7.446 -16.118  1.00  0.00     0.148 A 
ATOM     81  C   UNL     1       5.423   7.319 -18.858  1.00  0.00     0.002 A 
ATOM     82  C   UNL     1       4.130   6.692 -16.929  1.00  0.00     0.091 A 
ATOM     83  F   UNL     1       4.578   7.666 -14.859  1.00  0.00    -0.205 F 
ATOM     84  C   UNL     1       4.335   6.653 -18.307  1.00  0.00     0.022 A 
BRANCH  82  85
ATOM     85  S   UNL     1       2.754   5.763 -16.243  1.00  0.00     0.127 S 
ATOM     86  O   UNL     1       1.617   6.586 -16.642  1.00  0.00    -0.237 OA
ATOM     87  O   UNL     1       2.876   4.486 -16.946  1.00  0.00    -0.237 OA
ATOM     88  O   UNL     1       3.018   5.679 -14.811  1.00  0.00    -0.744 OA
ENDBRANCH  82  85
ENDBRANCH  64  78
BRANCH  65  89
ATOM     89  C   UNL     1       0.914  13.911 -13.191  1.00  0.00     0.023 A 
ATOM     90  C   UNL     1       0.062  14.532 -14.126  1.00  0.00     0.012 A 
ATOM     91  C   UNL     1       0.323  13.222 -12.108  1.00  0.00     0.148 A 
ATOM     92  C   UNL     1      -1.330  14.442 -14.005  1.00  0.00     0.002 A 
ATOM     93  C   UNL     1      -1.061  13.145 -11.985  1.00  0.00     0.091 A 
ATOM     94  F   UNL     1       1.114  12.560 -11.254  1.00  0.00    -0.205 F 
ATOM     95  C   UNL     1      -1.892  13.743 -12.940  1.00  0.00     0.022 A 
BRANCH  93  96
ATOM     96  S   UNL     1      -1.853  12.242 -10.647  1.00  0.00     0.127 S 
ATOM     97  O   UNL     1      -2.843  13.211 -10.174  1.00  0.00    -0.237 OA
ATOM     98  O   UNL     1      -2.411  11.090 -11.350  1.00  0.00    -0.237 OA
ATOM     99  O   UNL     1      -0.798  11.948  -9.686  1.00  0.00    -0.744 OA
ENDBRANCH  93  96
ENDBRANCH  65  89
BRANCH  77 100
ATOM    100  C   UNL     1       6.386  14.849 -16.102  1.00  0.00     0.023 A 
ATOM    101  C   UNL     1       6.386  15.411 -14.808  1.00  0.00     0.012 A 
ATOM    102  C   UNL     1       7.077  15.513 -17.129  1.00  0.00     0.148 A 
ATOM    103  C   UNL     1       7.041  16.619 -14.550  1.00  0.00     0.002 A 
ATOM    104  C   UNL     1       7.768  16.688 -16.859  1.00  0.00     0.091 A 
ATOM    105  F   UNL     1       7.072  14.965 -18.354  1.00  0.00    -0.205 F 
ATOM    106  C   UNL     1       7.744  17.251 -15.573  1.00  0.00     0.022 A 
BRANCH 104 107
ATOM    107  S   UNL     1       8.797  17.473 -18.101  1.00  0.00     0.127 S 
ATOM    108  O   UNL     1       7.979  18.618 -18.496  1.00  0.00    -0.237 OA
ATOM    109  O   UNL     1      10.001  17.815 -17.342  1.00  0.00    -0.237 OA
ATOM    110  O   UNL     1       9.013  16.468 -19.134  1.00  0.00    -0.744 OA
ENDBRANCH 104 107
ENDBRANCH  77 100
ENDBRANCH  51  52
ENDBRANCH  44  46
ENDBRANCH  43  44
ENDBRANCH  42  43
ENDBRANCH  41  42
ENDBRANCH  40  41
ENDBRANCH  39  40
ENDBRANCH  38  39
ENDBRANCH  37  38
ENDBRANCH  36  37
ENDBRANCH   1  36
TORSDOF 29
