REMARK SMILES C/C(=N\Nc1ccccc1C(=O)OCCOCCOCCOCCOC(=O)c1ccc(-c2c3nc(c(-c4cccc(S(=O)(=O)[O-])c4F)c4ccc([nH]4)c(-c4cccc(S(=O)(=O)[O-])c4F)c4nc(c(-c5cccc(S(=O)(=O)[O-])c5F)c5ccc2[nH]5)C=C4)C=C3)cc1)c1ccc(S(C)(=O)=O)cc1
REMARK SMILES IDX 18 1 17 2 16 3 15 4 14 5 13 6 11 7 12 8 10 9 5 10 6 11 7 12
REMARK SMILES IDX 9 13 8 14 4 15 3 17 1 18 2 19 91 20 92 21 100 22 93 23 99 24
REMARK SMILES IDX 94 25 95 26 96 27 97 28 98 29 19 30 20 31 21 32 22 33 23 34
REMARK SMILES IDX 24 35 25 36 26 37 27 38 28 39 29 40 90 41 30 42 89 43 31 44
REMARK SMILES IDX 32 45 33 46 83 47 34 48 88 49 82 50 84 51 35 52 87 53 81 54
REMARK SMILES IDX 80 55 36 57 68 58 48 59 67 60 49 61 52 62 66 63 85 64 50 65
REMARK SMILES IDX 51 66 65 68 86 69 53 70 37 71 38 72 46 73 39 74 41 75 47 76
REMARK SMILES IDX 40 77 42 78 43 79 44 80 45 81 69 82 70 83 78 84 71 85 73 86
REMARK SMILES IDX 79 87 72 88 74 89 75 90 76 91 77 92 54 93 55 94 63 95 56 96
REMARK SMILES IDX 58 97 64 98 57 99 59 100 60 101 61 102 62 103
REMARK H PARENT 4 16 84 56 52 67
REMARK Flexibility Score: inf
ROOT
ATOM      1  C   UNL     1      -3.098   0.537  -1.189  1.00  0.00     0.188 C 
ENDROOT
BRANCH   1   2
ATOM      2  C   UNL     1      -2.560  -0.522  -2.177  1.00  0.00     0.188 C 
BRANCH   2   3
ATOM      3  O   UNL     1      -2.936  -1.857  -1.910  1.00  0.00    -0.376 OA
BRANCH   3   4
ATOM      4  C   UNL     1      -2.122  -2.709  -1.126  1.00  0.00     0.202 C 
BRANCH   4   5
ATOM      5  C   UNL     1      -1.163  -2.219  -0.035  1.00  0.00     0.261 C 
BRANCH   5   6
ATOM      6  O   UNL     1      -0.875  -0.827  -0.015  1.00  0.00    -0.460 OA
BRANCH   6   7
ATOM      7  C   UNL     1       0.256  -0.409  -0.615  1.00  0.00     0.340 C 
ATOM      8  O   UNL     1       1.004  -1.081  -1.310  1.00  0.00    -0.246 OA
BRANCH   7   9
ATOM      9  C   UNL     1       0.364   1.062  -0.477  1.00  0.00     0.085 A 
ATOM     10  C   UNL     1       0.287   1.753   0.748  1.00  0.00     0.071 A 
ATOM     11  C   UNL     1       0.348   3.162   0.701  1.00  0.00     0.028 A 
ATOM     12  C   UNL     1       0.496   3.856  -0.503  1.00  0.00     0.002 A 
ATOM     13  C   UNL     1       0.520   1.765  -1.688  1.00  0.00     0.018 A 
ATOM     14  C   UNL     1       0.588   3.156  -1.699  1.00  0.00     0.001 A 
BRANCH  10  15
ATOM     15  N   UNL     1       0.328   1.181   2.043  1.00  0.00    -0.277 N 
ATOM     16  H   UNL     1       0.219   1.782   2.815  1.00  0.00     0.190 HD
BRANCH  15  17
ATOM     17  N   UNL     1       0.507  -0.131   2.288  1.00  0.00    -0.180 NA
ATOM     18  C   UNL     1       2.853   0.008   1.435  1.00  0.00     0.069 C 
ATOM     19  C   UNL     1       1.643  -0.706   2.010  1.00  0.00     0.065 C 
BRANCH  19  20
ATOM     20  C   UNL     1       1.735  -2.191   2.209  1.00  0.00    -0.002 A 
ATOM     21  C   UNL     1       0.681  -2.867   2.847  1.00  0.00     0.011 A 
ATOM     22  C   UNL     1       2.817  -2.926   1.709  1.00  0.00     0.011 A 
ATOM     23  C   UNL     1       0.710  -4.255   2.993  1.00  0.00     0.021 A 
ATOM     24  C   UNL     1       2.862  -4.312   1.871  1.00  0.00     0.021 A 
ATOM     25  C   UNL     1       1.813  -4.966   2.520  1.00  0.00     0.067 A 
BRANCH  25  26
ATOM     26  S   UNL     1       1.902  -6.721   2.774  1.00  0.00     0.175 S 
ATOM     27  C   UNL     1       1.680  -6.917   4.524  1.00  0.00     0.163 C 
ATOM     28  O   UNL     1       0.770  -7.307   2.084  1.00  0.00    -0.224 OA
ATOM     29  O   UNL     1       3.258  -7.136   2.460  1.00  0.00    -0.224 OA
ENDBRANCH  25  26
ENDBRANCH  19  20
ENDBRANCH  15  17
ENDBRANCH  10  15
ENDBRANCH   7   9
ENDBRANCH   6   7
ENDBRANCH   5   6
ENDBRANCH   4   5
ENDBRANCH   3   4
ENDBRANCH   2   3
ENDBRANCH   1   2
BRANCH   1  30
ATOM     30  O   UNL     1      -3.499   0.116   0.101  1.00  0.00    -0.377 OA
BRANCH  30  31
ATOM     31  C   UNL     1      -4.565  -0.810   0.266  1.00  0.00     0.188 C 
BRANCH  31  32
ATOM     32  C   UNL     1      -5.460  -1.270  -0.907  1.00  0.00     0.188 C 
BRANCH  32  33
ATOM     33  O   UNL     1      -5.417  -0.450  -2.064  1.00  0.00    -0.376 OA
BRANCH  33  34
ATOM     34  C   UNL     1      -6.519   0.401  -2.320  1.00  0.00     0.202 C 
BRANCH  34  35
ATOM     35  C   UNL     1      -6.754   1.536  -1.314  1.00  0.00     0.261 C 
BRANCH  35  36
ATOM     36  O   UNL     1      -6.960   1.126   0.044  1.00  0.00    -0.460 OA
BRANCH  36  37
ATOM     37  C   UNL     1      -8.039   0.346   0.283  1.00  0.00     0.338 C 
ATOM     38  O   UNL     1      -8.871  -0.026  -0.519  1.00  0.00    -0.246 OA
BRANCH  37  39
ATOM     39  C   UNL     1      -7.936  -0.142   1.672  1.00  0.00     0.060 A 
ATOM     40  C   UNL     1      -7.895  -1.524   1.899  1.00  0.00     0.016 A 
ATOM     41  C   UNL     1      -7.900   0.760   2.737  1.00  0.00     0.016 A 
ATOM     42  C   UNL     1      -7.878  -2.010   3.203  1.00  0.00     0.010 A 
ATOM     43  C   UNL     1      -7.904   0.271   4.044  1.00  0.00     0.010 A 
ATOM     44  C   UNL     1      -7.946  -1.115   4.278  1.00  0.00    -0.014 A 
BRANCH  44  45
ATOM     45  C   UNL     1      -8.318  -1.629   5.615  1.00  0.00     0.031 A 
ATOM     46  C   UNL     1      -9.768  -1.563   6.013  1.00  0.00     0.074 A 
ATOM     47  C   UNL     1      -7.405  -2.165   6.442  1.00  0.00     0.049 A 
ATOM     48  N   UNL     1     -10.342  -1.947   7.121  1.00  0.00    -0.248 NA
ATOM     49  C   UNL     1     -10.695  -0.983   5.025  1.00  0.00     0.031 C 
ATOM     50  C   UNL     1      -5.977  -2.294   6.159  1.00  0.00     0.029 A 
ATOM     51  N   UNL     1      -7.550  -2.685   7.703  1.00  0.00    -0.354 N 
ATOM     52  C   UNL     1     -11.688  -1.633   6.976  1.00  0.00     0.074 A 
ATOM     53  C   UNL     1     -11.845  -1.011   5.681  1.00  0.00     0.031 C 
ATOM     54  C   UNL     1      -5.370  -2.837   7.230  1.00  0.00     0.029 A 
ATOM     55  C   UNL     1      -6.363  -3.072   8.277  1.00  0.00     0.049 A 
ATOM     56  H   UNL     1      -8.421  -2.774   8.153  1.00  0.00     0.167 HD
ATOM     57  C   UNL     1     -12.708  -1.855   7.837  1.00  0.00     0.034 A 
ATOM     58  C   UNL     1      -6.111  -3.543   9.515  1.00  0.00     0.034 A 
ATOM     59  C   UNL     1     -12.551  -2.482   9.120  1.00  0.00     0.049 A 
ATOM     60  C   UNL     1      -7.262  -3.756  10.466  1.00  0.00     0.074 A 
ATOM     61  C   UNL     1     -13.524  -2.783  10.055  1.00  0.00     0.029 A 
ATOM     62  N   UNL     1     -11.340  -2.892   9.654  1.00  0.00    -0.354 N 
ATOM     63  N   UNL     1      -8.544  -3.553  10.276  1.00  0.00    -0.248 NA
ATOM     64  C   UNL     1      -6.935  -4.303  11.792  1.00  0.00     0.031 C 
ATOM     65  C   UNL     1     -12.896  -3.345  11.171  1.00  0.00     0.029 A 
ATOM     66  C   UNL     1     -11.537  -3.435  10.911  1.00  0.00     0.049 A 
ATOM     67  H   UNL     1     -10.467  -2.809   9.206  1.00  0.00     0.167 HD
ATOM     68  C   UNL     1      -9.178  -3.987  11.436  1.00  0.00     0.074 A 
ATOM     69  C   UNL     1      -8.139  -4.482  12.316  1.00  0.00     0.031 C 
ATOM     70  C   UNL     1     -10.498  -3.972  11.752  1.00  0.00     0.034 A 
BRANCH  57  71
ATOM     71  C   UNL     1     -14.086  -1.421   7.411  1.00  0.00     0.023 A 
ATOM     72  C   UNL     1     -14.761  -2.124   6.391  1.00  0.00     0.012 A 
ATOM     73  C   UNL     1     -14.728  -0.341   8.047  1.00  0.00     0.148 A 
ATOM     74  C   UNL     1     -16.038  -1.737   5.988  1.00  0.00     0.002 A 
ATOM     75  C   UNL     1     -16.020   0.007   7.674  1.00  0.00     0.091 A 
ATOM     76  F   UNL     1     -14.059   0.331   8.995  1.00  0.00    -0.205 F 
ATOM     77  C   UNL     1     -16.671  -0.680   6.637  1.00  0.00     0.022 A 
BRANCH  75  78
ATOM     78  S   UNL     1     -16.951   1.300   8.503  1.00  0.00     0.127 S 
ATOM     79  O   UNL     1     -17.022   2.325   7.462  1.00  0.00    -0.237 OA
ATOM     80  O   UNL     1     -18.220   0.630   8.787  1.00  0.00    -0.237 OA
ATOM     81  O   UNL     1     -16.176   1.662   9.682  1.00  0.00    -0.744 OA
ENDBRANCH  75  78
ENDBRANCH  57  71
BRANCH  58  82
ATOM     82  C   UNL     1      -4.717  -3.879   9.920  1.00  0.00     0.023 A 
ATOM     83  C   UNL     1      -4.362  -5.222  10.155  1.00  0.00     0.012 A 
ATOM     84  C   UNL     1      -3.741  -2.875  10.074  1.00  0.00     0.148 A 
ATOM     85  C   UNL     1      -3.074  -5.555  10.574  1.00  0.00     0.002 A 
ATOM     86  C   UNL     1      -2.443  -3.220  10.433  1.00  0.00     0.091 A 
ATOM     87  F   UNL     1      -4.101  -1.601   9.860  1.00  0.00    -0.205 F 
ATOM     88  C   UNL     1      -2.113  -4.557  10.704  1.00  0.00     0.022 A 
BRANCH  86  89
ATOM     89  S   UNL     1      -1.107  -2.022  10.493  1.00  0.00     0.127 S 
ATOM     90  O   UNL     1      -0.807  -1.979  11.922  1.00  0.00    -0.237 OA
ATOM     91  O   UNL     1      -0.088  -2.673   9.668  1.00  0.00    -0.237 OA
ATOM     92  O   UNL     1      -1.649  -0.796   9.924  1.00  0.00    -0.744 OA
ENDBRANCH  86  89
ENDBRANCH  58  82
BRANCH  70  93
ATOM     93  C   UNL     1     -10.907  -4.558  13.079  1.00  0.00     0.023 A 
ATOM     94  C   UNL     1     -10.589  -3.891  14.278  1.00  0.00     0.012 A 
ATOM     95  C   UNL     1     -11.664  -5.747  13.130  1.00  0.00     0.148 A 
ATOM     96  C   UNL     1     -10.976  -4.422  15.509  1.00  0.00     0.002 A 
ATOM     97  C   UNL     1     -12.093  -6.239  14.356  1.00  0.00     0.091 A 
ATOM     98  F   UNL     1     -11.944  -6.377  11.980  1.00  0.00    -0.205 F 
ATOM     99  C   UNL     1     -11.737  -5.588  15.547  1.00  0.00     0.022 A 
BRANCH  97 100
ATOM    100  S   UNL     1     -13.162  -7.677  14.491  1.00  0.00     0.127 S 
ATOM    101  O   UNL     1     -12.233  -8.694  14.981  1.00  0.00    -0.237 OA
ATOM    102  O   UNL     1     -14.155  -7.235  15.470  1.00  0.00    -0.237 OA
ATOM    103  O   UNL     1     -13.695  -7.906  13.154  1.00  0.00    -0.744 OA
ENDBRANCH  97 100
ENDBRANCH  70  93
ENDBRANCH  44  45
ENDBRANCH  37  39
ENDBRANCH  36  37
ENDBRANCH  35  36
ENDBRANCH  34  35
ENDBRANCH  33  34
ENDBRANCH  32  33
ENDBRANCH  31  32
ENDBRANCH  30  31
ENDBRANCH   1  30
TORSDOF 27
