REMARK SMILES CC[C@@H]1CC[C@@](Cc2ccc(O)cc2)(C(=O)OCCOCCOCCOCCOC(=O)c2ccc(-c3c4nc(c(-c5cccc(S(=O)(=O)[O-])c5F)c5ccc([nH]5)c(-c5cccc(S(=O)(=O)[O-])c5F)c5nc(c(-c6cccc(S(=O)(=O)[O-])c6F)c6ccc3[nH]6)C=C5)C=C4)cc2)C1
REMARK SMILES IDX 23 1 22 2 21 3 20 4 19 5 18 6 17 7 15 8 16 9 6 10 3 11 4 12
REMARK SMILES IDX 95 13 5 14 2 15 1 16 7 17 8 18 9 19 14 20 10 21 13 22 11 23
REMARK SMILES IDX 12 24 24 26 25 27 26 28 27 29 28 30 29 31 30 32 31 33 32 34
REMARK SMILES IDX 33 35 94 36 34 37 93 38 35 39 36 40 37 41 87 42 38 43 92 44
REMARK SMILES IDX 86 45 88 46 39 47 91 48 85 49 84 50 40 52 72 53 52 54 71 55
REMARK SMILES IDX 53 56 56 57 70 58 89 59 54 60 55 61 69 63 90 64 57 65 41 66
REMARK SMILES IDX 42 67 50 68 43 69 45 70 51 71 44 72 46 73 47 74 48 75 49 76
REMARK SMILES IDX 73 77 74 78 82 79 75 80 77 81 83 82 76 83 78 84 79 85 80 86
REMARK SMILES IDX 81 87 58 88 59 89 67 90 60 91 62 92 68 93 61 94 63 95 64 96
REMARK SMILES IDX 65 97 66 98
REMARK H PARENT 12 25 88 51 56 62
REMARK Flexibility Score: inf
ROOT
ATOM      1  O   UNL     1       4.065   3.587  -4.009  1.00  0.00    -0.377 OA
ENDROOT
BRANCH   1   2
ATOM      2  C   UNL     1       3.255   2.448  -3.829  1.00  0.00     0.188 C 
BRANCH   2   3
ATOM      3  C   UNL     1       3.919   1.071  -3.701  1.00  0.00     0.188 C 
BRANCH   3   4
ATOM      4  O   UNL     1       4.757   0.755  -4.791  1.00  0.00    -0.376 OA
BRANCH   4   5
ATOM      5  C   UNL     1       4.279   0.102  -5.948  1.00  0.00     0.202 C 
BRANCH   5   6
ATOM      6  C   UNL     1       2.857   0.208  -6.524  1.00  0.00     0.261 C 
BRANCH   6   7
ATOM      7  O   UNL     1       1.852   0.919  -5.794  1.00  0.00    -0.463 OA
BRANCH   7   8
ATOM      8  C   UNL     1       0.962   0.186  -5.088  1.00  0.00     0.312 C 
ATOM      9  O   UNL     1       1.101  -1.018  -4.889  1.00  0.00    -0.252 OA
BRANCH   8  10
ATOM     10  C   UNL     1      -0.290   0.979  -4.634  1.00  0.00     0.072 C 
ATOM     11  C   UNL     1       0.235   1.318  -2.293  1.00  0.00    -0.010 C 
ATOM     12  C   UNL     1      -0.041   2.707  -2.850  1.00  0.00     0.005 C 
ATOM     13  C   UNL     1      -0.637   0.444  -3.210  1.00  0.00     0.022 C 
ATOM     14  C   UNL     1      -0.170   2.504  -4.363  1.00  0.00     0.019 C 
BRANCH  11  15
ATOM     15  C   UNL     1      -0.032   1.216  -0.792  1.00  0.00     0.000 C 
ATOM     16  C   UNL     1       0.635  -0.007  -0.177  1.00  0.00     0.004 C 
ENDBRANCH  11  15
BRANCH  10  17
ATOM     17  C   UNL     1      -1.382   0.705  -5.709  1.00  0.00     0.054 C 
BRANCH  17  18
ATOM     18  C   UNL     1      -1.155   1.446  -7.026  1.00  0.00    -0.047 A 
ATOM     19  C   UNL     1      -0.248   0.953  -7.976  1.00  0.00     0.007 A 
ATOM     20  C   UNL     1      -1.768   2.686  -7.283  1.00  0.00     0.007 A 
ATOM     21  C   UNL     1       0.121   1.724  -9.083  1.00  0.00     0.046 A 
ATOM     22  C   UNL     1      -1.421   3.447  -8.412  1.00  0.00     0.046 A 
ATOM     23  C   UNL     1      -0.458   2.968  -9.288  1.00  0.00     0.115 A 
BRANCH  23  24
ATOM     24  O   UNL     1       0.032   3.735 -10.300  1.00  0.00    -0.508 OA
ATOM     25  H   UNL     1       0.682   3.388 -10.878  1.00  0.00     0.293 HD
ENDBRANCH  23  24
ENDBRANCH  17  18
ENDBRANCH  10  17
ENDBRANCH   8  10
ENDBRANCH   7   8
ENDBRANCH   6   7
ENDBRANCH   5   6
ENDBRANCH   4   5
ENDBRANCH   3   4
ENDBRANCH   2   3
ENDBRANCH   1   2
BRANCH   1  26
ATOM     26  C   UNL     1       5.009   3.511  -5.055  1.00  0.00     0.188 C 
BRANCH  26  27
ATOM     27  C   UNL     1       6.424   3.200  -4.538  1.00  0.00     0.188 C 
BRANCH  27  28
ATOM     28  O   UNL     1       6.800   3.356  -3.169  1.00  0.00    -0.376 OA
BRANCH  28  29
ATOM     29  C   UNL     1       5.952   3.980  -2.221  1.00  0.00     0.202 C 
BRANCH  29  30
ATOM     30  C   UNL     1       5.620   5.478  -2.362  1.00  0.00     0.261 C 
BRANCH  30  31
ATOM     31  O   UNL     1       5.548   6.008  -3.687  1.00  0.00    -0.460 OA
BRANCH  31  32
ATOM     32  C   UNL     1       6.722   6.384  -4.241  1.00  0.00     0.338 C 
ATOM     33  O   UNL     1       7.830   6.339  -3.733  1.00  0.00    -0.246 OA
BRANCH  32  34
ATOM     34  C   UNL     1       6.468   6.741  -5.652  1.00  0.00     0.060 A 
ATOM     35  C   UNL     1       7.205   6.097  -6.654  1.00  0.00     0.016 A 
ATOM     36  C   UNL     1       5.501   7.695  -5.983  1.00  0.00     0.016 A 
ATOM     37  C   UNL     1       6.991   6.416  -7.992  1.00  0.00     0.010 A 
ATOM     38  C   UNL     1       5.314   8.042  -7.322  1.00  0.00     0.010 A 
ATOM     39  C   UNL     1       6.082   7.426  -8.325  1.00  0.00    -0.014 A 
BRANCH  39  40
ATOM     40  C   UNL     1       6.112   8.009  -9.684  1.00  0.00     0.031 A 
ATOM     41  C   UNL     1       6.995   9.202  -9.913  1.00  0.00     0.074 A 
ATOM     42  C   UNL     1       5.360   7.510 -10.679  1.00  0.00     0.049 A 
ATOM     43  N   UNL     1       7.156   9.920 -10.991  1.00  0.00    -0.248 NA
ATOM     44  C   UNL     1       7.802   9.649  -8.763  1.00  0.00     0.031 C 
ATOM     45  C   UNL     1       4.469   6.358 -10.569  1.00  0.00     0.029 A 
ATOM     46  N   UNL     1       5.206   7.939 -11.973  1.00  0.00    -0.354 N 
ATOM     47  C   UNL     1       8.054  10.921 -10.643  1.00  0.00     0.074 A 
ATOM     48  C   UNL     1       8.403  10.721  -9.255  1.00  0.00     0.031 C 
ATOM     49  C   UNL     1       3.826   6.196 -11.738  1.00  0.00     0.029 A 
ATOM     50  C   UNL     1       4.242   7.247 -12.667  1.00  0.00     0.049 A 
ATOM     51  H   UNL     1       5.733   8.671 -12.367  1.00  0.00     0.167 HD
ATOM     52  C   UNL     1       8.552  11.914 -11.414  1.00  0.00     0.034 A 
ATOM     53  C   UNL     1       3.736   7.462 -13.898  1.00  0.00     0.034 A 
ATOM     54  C   UNL     1       8.209  12.104 -12.795  1.00  0.00     0.049 A 
ATOM     55  C   UNL     1       4.294   8.587 -14.735  1.00  0.00     0.074 A 
ATOM     56  C   UNL     1       8.697  13.047 -13.680  1.00  0.00     0.029 A 
ATOM     57  N   UNL     1       7.274  11.348 -13.485  1.00  0.00    -0.354 N 
ATOM     58  N   UNL     1       5.243   9.444 -14.441  1.00  0.00    -0.248 NA
ATOM     59  C   UNL     1       3.736   8.758 -16.085  1.00  0.00     0.031 C 
ATOM     60  C   UNL     1       8.035  12.880 -14.900  1.00  0.00     0.029 A 
ATOM     61  C   UNL     1       7.158  11.812 -14.783  1.00  0.00     0.049 A 
ATOM     62  H   UNL     1       6.768  10.593 -13.108  1.00  0.00     0.167 HD
ATOM     63  C   UNL     1       5.422  10.228 -15.578  1.00  0.00     0.074 A 
ATOM     64  C   UNL     1       4.492   9.733 -16.572  1.00  0.00     0.031 C 
ATOM     65  C   UNL     1       6.269  11.269 -15.778  1.00  0.00     0.034 A 
BRANCH  52  66
ATOM     66  C   UNL     1       9.528  12.863 -10.775  1.00  0.00     0.023 A 
ATOM     67  C   UNL     1      10.836  12.429 -10.481  1.00  0.00     0.012 A 
ATOM     68  C   UNL     1       9.159  14.193 -10.496  1.00  0.00     0.148 A 
ATOM     69  C   UNL     1      11.754  13.295  -9.888  1.00  0.00     0.002 A 
ATOM     70  C   UNL     1      10.092  15.063  -9.946  1.00  0.00     0.091 A 
ATOM     71  F   UNL     1       7.900  14.575 -10.754  1.00  0.00    -0.205 F 
ATOM     72  C   UNL     1      11.385  14.614  -9.631  1.00  0.00     0.022 A 
BRANCH  70  73
ATOM     73  S   UNL     1       9.735  16.798  -9.650  1.00  0.00     0.127 S 
ATOM     74  O   UNL     1       9.647  16.837  -8.191  1.00  0.00    -0.237 OA
ATOM     75  O   UNL     1      10.918  17.455 -10.207  1.00  0.00    -0.237 OA
ATOM     76  O   UNL     1       8.496  17.079 -10.361  1.00  0.00    -0.744 OA
ENDBRANCH  70  73
ENDBRANCH  52  66
BRANCH  53  77
ATOM     77  C   UNL     1       2.655   6.574 -14.417  1.00  0.00     0.023 A 
ATOM     78  C   UNL     1       2.919   5.708 -15.495  1.00  0.00     0.012 A 
ATOM     79  C   UNL     1       1.377   6.556 -13.821  1.00  0.00     0.148 A 
ATOM     80  C   UNL     1       1.920   4.870 -15.993  1.00  0.00     0.002 A 
ATOM     81  C   UNL     1       0.409   5.665 -14.272  1.00  0.00     0.091 A 
ATOM     82  F   UNL     1       1.146   7.382 -12.791  1.00  0.00    -0.205 F 
ATOM     83  C   UNL     1       0.668   4.843 -15.380  1.00  0.00     0.022 A 
BRANCH  81  84
ATOM     84  S   UNL     1      -1.189   5.504 -13.460  1.00  0.00     0.127 S 
ATOM     85  O   UNL     1      -2.106   5.412 -14.594  1.00  0.00    -0.237 OA
ATOM     86  O   UNL     1      -1.031   4.266 -12.690  1.00  0.00    -0.237 OA
ATOM     87  O   UNL     1      -1.346   6.702 -12.648  1.00  0.00    -0.744 OA
ENDBRANCH  81  84
ENDBRANCH  53  77
BRANCH  65  88
ATOM     88  C   UNL     1       6.272  11.926 -17.135  1.00  0.00     0.023 A 
ATOM     89  C   UNL     1       5.202  12.758 -17.516  1.00  0.00     0.012 A 
ATOM     90  C   UNL     1       7.386  11.795 -17.989  1.00  0.00     0.148 A 
ATOM     91  C   UNL     1       5.226  13.426 -18.740  1.00  0.00     0.002 A 
ATOM     92  C   UNL     1       7.425  12.502 -19.185  1.00  0.00     0.091 A 
ATOM     93  F   UNL     1       8.388  10.986 -17.615  1.00  0.00    -0.205 F 
ATOM     94  C   UNL     1       6.341  13.309 -19.567  1.00  0.00     0.022 A 
BRANCH  92  95
ATOM     95  S   UNL     1       8.862  12.490 -20.263  1.00  0.00     0.127 S 
ATOM     96  O   UNL     1       8.392  11.669 -21.377  1.00  0.00    -0.237 OA
ATOM     97  O   UNL     1       9.026  13.910 -20.579  1.00  0.00    -0.237 OA
ATOM     98  O   UNL     1       9.948  11.918 -19.478  1.00  0.00    -0.744 OA
ENDBRANCH  92  95
ENDBRANCH  65  88
ENDBRANCH  39  40
ENDBRANCH  32  34
ENDBRANCH  31  32
ENDBRANCH  30  31
ENDBRANCH  29  30
ENDBRANCH  28  29
ENDBRANCH  27  28
ENDBRANCH  26  27
ENDBRANCH   1  26
TORSDOF 27
