REMARK SMILES C[C@@H]([C@H]1CC=CS1)n1nccc1NC(=O)CC1(CC(=O)OCCOCCOCCOCCOC(=O)c2ccc(-c3c4nc(c(-c5cccc(S(=O)(=O)[O-])c5F)c5ccc([nH]5)c(-c5cccc(S(=O)(=O)[O-])c5F)c5nc(c(-c6cccc(S(=O)(=O)[O-])c6F)c6ccc3[nH]6)C=C5)C=C4)cc2)CCCCC1
REMARK SMILES IDX 25 1 24 2 23 3 22 4 21 5 19 6 20 7 18 8 17 9 99 10 103 11
REMARK SMILES IDX 100 12 102 13 101 14 16 15 14 16 13 17 15 19 12 20 8 21 9 22
REMARK SMILES IDX 10 23 11 24 2 25 1 26 3 27 4 28 7 29 5 30 6 31 26 32 27 33
REMARK SMILES IDX 28 34 29 35 30 36 31 37 32 38 33 39 34 40 35 41 36 42 37 43
REMARK SMILES IDX 98 44 38 45 97 46 39 47 40 48 41 49 91 50 42 51 96 52 90 53
REMARK SMILES IDX 92 54 43 55 95 56 89 57 88 58 44 60 76 61 56 62 75 63 57 64
REMARK SMILES IDX 60 65 74 66 93 67 58 68 59 69 73 71 94 72 61 73 45 74 46 75
REMARK SMILES IDX 54 76 47 77 49 78 55 79 48 80 50 81 51 82 52 83 53 84 77 85
REMARK SMILES IDX 78 86 86 87 79 88 81 89 87 90 80 91 82 92 83 93 84 94 85 95
REMARK SMILES IDX 62 96 63 97 71 98 64 99 66 100 72 101 65 102 67 103 68 104
REMARK SMILES IDX 69 105 70 106
REMARK H PARENT 13 18 92 59 60 70
REMARK Flexibility Score: inf
ROOT
ATOM      1  C   UNL     1       0.406   4.986   6.850  1.00  0.00     0.188 C 
ENDROOT
BRANCH   1   2
ATOM      2  O   UNL     1       0.755   6.096   7.661  1.00  0.00    -0.376 OA
BRANCH   2   3
ATOM      3  C   UNL     1       2.061   6.649   7.465  1.00  0.00     0.202 C 
BRANCH   3   4
ATOM      4  C   UNL     1       3.249   5.662   7.479  1.00  0.00     0.261 C 
BRANCH   4   5
ATOM      5  O   UNL     1       3.307   4.801   6.309  1.00  0.00    -0.463 OA
BRANCH   5   6
ATOM      6  C   UNL     1       3.458   3.474   6.514  1.00  0.00     0.306 C 
ATOM      7  O   UNL     1       3.640   2.970   7.619  1.00  0.00    -0.252 OA
BRANCH   6   8
ATOM      8  C   UNL     1       3.175   2.591   5.293  1.00  0.00     0.130 C 
BRANCH   8   9
ATOM      9  C   UNL     1       3.700   2.836   3.838  1.00  0.00    -0.010 C 
ATOM     10  C   UNL     1       4.336   1.517   3.310  1.00  0.00     0.008 C 
ATOM     11  C   UNL     1       4.790   3.942   3.738  1.00  0.00     0.008 C 
ATOM     12  C   UNL     1       5.691   1.141   3.898  1.00  0.00     0.001 C 
ATOM     13  C   UNL     1       6.136   3.561   4.355  1.00  0.00     0.001 C 
ATOM     14  C   UNL     1       6.684   2.280   3.739  1.00  0.00     0.000 C 
BRANCH   9  15
ATOM     15  C   UNL     1       2.554   3.234   2.829  1.00  0.00     0.108 C 
BRANCH  15  16
ATOM     16  C   UNL     1       1.250   2.449   2.753  1.00  0.00     0.226 C 
ATOM     17  N   UNL     1       1.048   1.210   2.081  1.00  0.00    -0.311 N 
ATOM     18  H   UNL     1       0.147   0.821   2.161  1.00  0.00     0.171 HD
ATOM     19  O   UNL     1       0.218   2.811   3.296  1.00  0.00    -0.275 OA
BRANCH  17  20
ATOM     20  C   UNL     1       1.944   0.488   1.338  1.00  0.00     0.131 A 
ATOM     21  N   UNL     1       2.111  -0.882   1.297  1.00  0.00    -0.246 N 
ATOM     22  N   UNL     1       3.334  -1.190   0.806  1.00  0.00    -0.179 NA
ATOM     23  C   UNL     1       3.714  -0.085   0.167  1.00  0.00     0.137 A 
ATOM     24  C   UNL     1       2.851   0.990   0.433  1.00  0.00     0.068 A 
BRANCH  21  25
ATOM     25  C   UNL     1       1.251  -2.004   1.712  1.00  0.00     0.120 C 
ATOM     26  C   UNL     1      -0.007  -1.588   2.491  1.00  0.00     0.034 C 
BRANCH  25  27
ATOM     27  C   UNL     1       0.900  -2.859   0.462  1.00  0.00     0.079 C 
ATOM     28  C   UNL     1       2.116  -3.519  -0.225  1.00  0.00     0.045 C 
ATOM     29  S   UNL     1      -0.244  -4.281   0.759  1.00  0.00    -0.128 SA
ATOM     30  C   UNL     1       1.646  -4.755  -0.920  1.00  0.00    -0.019 C 
ATOM     31  C   UNL     1       0.469  -5.225  -0.503  1.00  0.00     0.037 C 
ENDBRANCH  25  27
ENDBRANCH  21  25
ENDBRANCH  17  20
ENDBRANCH  15  16
ENDBRANCH   9  15
ENDBRANCH   8   9
ENDBRANCH   6   8
ENDBRANCH   5   6
ENDBRANCH   4   5
ENDBRANCH   3   4
ENDBRANCH   2   3
ENDBRANCH   1   2
BRANCH   1  32
ATOM     32  C   UNL     1       0.385   5.235   5.346  1.00  0.00     0.188 C 
BRANCH  32  33
ATOM     33  O   UNL     1       1.552   5.856   4.836  1.00  0.00    -0.377 OA
BRANCH  33  34
ATOM     34  C   UNL     1       1.445   6.964   3.946  1.00  0.00     0.188 C 
BRANCH  34  35
ATOM     35  C   UNL     1       0.090   7.667   3.860  1.00  0.00     0.188 C 
BRANCH  35  36
ATOM     36  O   UNL     1      -1.009   6.947   3.278  1.00  0.00    -0.376 OA
BRANCH  36  37
ATOM     37  C   UNL     1      -0.758   5.860   2.390  1.00  0.00     0.202 C 
BRANCH  37  38
ATOM     38  C   UNL     1      -0.573   6.250   0.942  1.00  0.00     0.261 C 
BRANCH  38  39
ATOM     39  O   UNL     1       0.642   6.967   0.811  1.00  0.00    -0.460 OA
BRANCH  39  40
ATOM     40  C   UNL     1       0.476   8.307   0.834  1.00  0.00     0.338 C 
ATOM     41  O   UNL     1      -0.506   8.930   1.189  1.00  0.00    -0.246 OA
BRANCH  40  42
ATOM     42  C   UNL     1       1.597   8.910   0.124  1.00  0.00     0.060 A 
ATOM     43  C   UNL     1       1.510  10.292  -0.038  1.00  0.00     0.016 A 
ATOM     44  C   UNL     1       2.376   8.085  -0.702  1.00  0.00     0.016 A 
ATOM     45  C   UNL     1       1.998  10.822  -1.201  1.00  0.00     0.010 A 
ATOM     46  C   UNL     1       2.824   8.607  -1.882  1.00  0.00     0.010 A 
ATOM     47  C   UNL     1       2.566   9.952  -2.138  1.00  0.00    -0.014 A 
BRANCH  47  48
ATOM     48  C   UNL     1       3.117  10.540  -3.330  1.00  0.00     0.031 A 
ATOM     49  C   UNL     1       4.380  11.231  -3.008  1.00  0.00     0.074 A 
ATOM     50  C   UNL     1       2.572  10.345  -4.542  1.00  0.00     0.049 A 
ATOM     51  N   UNL     1       4.586  12.505  -2.962  1.00  0.00    -0.248 NA
ATOM     52  C   UNL     1       5.454  10.429  -2.389  1.00  0.00     0.031 C 
ATOM     53  C   UNL     1       1.497   9.403  -4.873  1.00  0.00     0.029 A 
ATOM     54  N   UNL     1       2.967  10.815  -5.755  1.00  0.00    -0.354 N 
ATOM     55  C   UNL     1       5.933  12.613  -2.631  1.00  0.00     0.074 A 
ATOM     56  C   UNL     1       6.291  11.384  -1.986  1.00  0.00     0.031 C 
ATOM     57  C   UNL     1       1.511   9.180  -6.205  1.00  0.00     0.029 A 
ATOM     58  C   UNL     1       2.506  10.043  -6.816  1.00  0.00     0.049 A 
ATOM     59  H   UNL     1       3.523  11.620  -5.871  1.00  0.00     0.167 HD
ATOM     60  C   UNL     1       6.717  13.480  -3.325  1.00  0.00     0.034 A 
ATOM     61  C   UNL     1       2.994  10.049  -8.080  1.00  0.00     0.034 A 
ATOM     62  C   UNL     1       5.904  14.460  -4.001  1.00  0.00     0.049 A 
ATOM     63  C   UNL     1       3.731  11.320  -8.269  1.00  0.00     0.074 A 
ATOM     64  C   UNL     1       5.111  15.525  -3.640  1.00  0.00     0.029 A 
ATOM     65  N   UNL     1       5.555  14.095  -5.275  1.00  0.00    -0.354 N 
ATOM     66  N   UNL     1       3.156  12.491  -8.282  1.00  0.00    -0.248 NA
ATOM     67  C   UNL     1       5.183  11.338  -8.114  1.00  0.00     0.031 C 
ATOM     68  C   UNL     1       4.187  15.711  -4.708  1.00  0.00     0.029 A 
ATOM     69  C   UNL     1       4.454  14.777  -5.709  1.00  0.00     0.049 A 
ATOM     70  H   UNL     1       6.037  13.425  -5.811  1.00  0.00     0.167 HD
ATOM     71  C   UNL     1       4.088  13.325  -7.691  1.00  0.00     0.074 A 
ATOM     72  C   UNL     1       5.358  12.622  -7.792  1.00  0.00     0.031 C 
ATOM     73  C   UNL     1       3.696  14.332  -6.861  1.00  0.00     0.034 A 
BRANCH  60  74
ATOM     74  C   UNL     1       8.106  13.149  -3.858  1.00  0.00     0.023 A 
ATOM     75  C   UNL     1       8.758  14.182  -4.568  1.00  0.00     0.012 A 
ATOM     76  C   UNL     1       8.664  11.852  -3.980  1.00  0.00     0.148 A 
ATOM     77  C   UNL     1       9.847  13.927  -5.408  1.00  0.00     0.002 A 
ATOM     78  C   UNL     1       9.782  11.611  -4.769  1.00  0.00     0.091 A 
ATOM     79  F   UNL     1       8.067  10.796  -3.434  1.00  0.00    -0.205 F 
ATOM     80  C   UNL     1      10.360  12.640  -5.512  1.00  0.00     0.022 A 
BRANCH  78  81
ATOM     81  S   UNL     1      10.489   9.962  -4.923  1.00  0.00     0.127 S 
ATOM     82  O   UNL     1      10.187   9.645  -6.315  1.00  0.00    -0.237 OA
ATOM     83  O   UNL     1      11.898  10.217  -4.631  1.00  0.00    -0.237 OA
ATOM     84  O   UNL     1       9.811   9.138  -3.927  1.00  0.00    -0.744 OA
ENDBRANCH  78  81
ENDBRANCH  60  74
BRANCH  61  85
ATOM     85  C   UNL     1       3.058   8.955  -9.076  1.00  0.00     0.023 A 
ATOM     86  C   UNL     1       3.288   9.273 -10.430  1.00  0.00     0.012 A 
ATOM     87  C   UNL     1       3.162   7.601  -8.685  1.00  0.00     0.148 A 
ATOM     88  C   UNL     1       3.653   8.286 -11.352  1.00  0.00     0.002 A 
ATOM     89  C   UNL     1       3.509   6.620  -9.609  1.00  0.00     0.091 A 
ATOM     90  F   UNL     1       3.017   7.284  -7.393  1.00  0.00    -0.205 F 
ATOM     91  C   UNL     1       3.772   6.961 -10.941  1.00  0.00     0.022 A 
BRANCH  89  92
ATOM     92  S   UNL     1       3.684   4.892  -9.140  1.00  0.00     0.127 S 
ATOM     93  O   UNL     1       2.961   4.208 -10.213  1.00  0.00    -0.237 OA
ATOM     94  O   UNL     1       5.133   4.714  -9.167  1.00  0.00    -0.237 OA
ATOM     95  O   UNL     1       3.057   4.769  -7.829  1.00  0.00    -0.744 OA
ENDBRANCH  89  92
ENDBRANCH  61  85
BRANCH  73  96
ATOM     96  C   UNL     1       2.324  14.905  -7.048  1.00  0.00     0.023 A 
ATOM     97  C   UNL     1       1.141  14.181  -6.806  1.00  0.00     0.012 A 
ATOM     98  C   UNL     1       2.239  16.270  -7.368  1.00  0.00     0.148 A 
ATOM     99  C   UNL     1      -0.103  14.811  -6.894  1.00  0.00     0.002 A 
ATOM    100  C   UNL     1       1.008  16.905  -7.398  1.00  0.00     0.091 A 
ATOM    101  F   UNL     1       3.379  16.935  -7.617  1.00  0.00    -0.205 F 
ATOM    102  C   UNL     1      -0.169  16.177  -7.172  1.00  0.00     0.022 A 
BRANCH 100 103
ATOM    103  S   UNL     1       0.887  18.681  -7.612  1.00  0.00     0.127 S 
ATOM    104  O   UNL     1       0.468  18.792  -9.007  1.00  0.00    -0.237 OA
ATOM    105  O   UNL     1      -0.136  19.047  -6.632  1.00  0.00    -0.237 OA
ATOM    106  O   UNL     1       2.213  19.207  -7.308  1.00  0.00    -0.744 OA
ENDBRANCH 100 103
ENDBRANCH  73  96
ENDBRANCH  47  48
ENDBRANCH  40  42
ENDBRANCH  39  40
ENDBRANCH  38  39
ENDBRANCH  37  38
ENDBRANCH  36  37
ENDBRANCH  35  36
ENDBRANCH  34  35
ENDBRANCH  33  34
ENDBRANCH  32  33
ENDBRANCH   1  32
TORSDOF 29
