REMARK SMILES O=C(OCCOCCOCCOCCOC(=O)c1oc2cccc3c2c1CCC3)c1ccc(-c2c3nc(c(-c4cccc(S(=O)(=O)[O-])c4F)c4ccc([nH]4)c(-c4cccc(S(=O)(=O)[O-])c4F)c4nc(c(-c5cccc(S(=O)(=O)[O-])c5F)c5ccc2[nH]5)C=C4)C=C3)cc1
REMARK SMILES IDX 7 1 6 2 5 3 4 4 3 5 2 6 1 7 30 8 31 9 92 10 32 11 91 12
REMARK SMILES IDX 33 13 34 14 35 15 85 16 36 17 90 18 84 19 86 20 37 21 89 22
REMARK SMILES IDX 83 23 82 24 38 26 70 27 50 28 69 29 51 30 54 31 68 32 87 33
REMARK SMILES IDX 52 34 53 35 67 37 88 38 55 39 39 40 40 41 48 42 41 43 43 44
REMARK SMILES IDX 49 45 42 46 44 47 45 48 46 49 47 50 71 51 72 52 80 53 73 54
REMARK SMILES IDX 75 55 81 56 74 57 76 58 77 59 78 60 79 61 56 62 57 63 65 64
REMARK SMILES IDX 58 65 60 66 66 67 59 68 61 69 62 70 63 71 64 72 8 73 9 74
REMARK SMILES IDX 10 75 11 76 12 77 13 78 14 79 15 80 16 81 17 82 18 83 19 84
REMARK SMILES IDX 26 85 20 86 25 87 27 88 21 89 24 90 28 91 22 92 23 93 29 94
REMARK H PARENT 86 25 54 36
REMARK Flexibility Score: inf
ROOT
ATOM      1  C   UNL     1       2.956   1.684  -0.187  1.00  0.00     0.188 C 
ENDROOT
BRANCH   1   2
ATOM      2  O   UNL     1       3.991   0.797   0.234  1.00  0.00    -0.376 OA
BRANCH   2   3
ATOM      3  C   UNL     1       4.923   0.215  -0.659  1.00  0.00     0.202 C 
BRANCH   3   4
ATOM      4  C   UNL     1       4.627  -1.224  -1.099  1.00  0.00     0.261 C 
BRANCH   4   5
ATOM      5  O   UNL     1       3.244  -1.516  -1.336  1.00  0.00    -0.460 OA
BRANCH   5   6
ATOM      6  C   UNL     1       2.217  -1.463  -0.458  1.00  0.00     0.338 C 
ATOM      7  O   UNL     1       1.070  -1.466  -0.907  1.00  0.00    -0.246 OA
BRANCH   6   8
ATOM      8  C   UNL     1       2.387  -1.422   1.025  1.00  0.00     0.060 A 
ATOM      9  C   UNL     1       3.610  -1.492   1.701  1.00  0.00     0.016 A 
ATOM     10  C   UNL     1       1.201  -1.339   1.782  1.00  0.00     0.016 A 
ATOM     11  C   UNL     1       3.665  -1.579   3.067  1.00  0.00     0.010 A 
ATOM     12  C   UNL     1       1.237  -1.480   3.159  1.00  0.00     0.010 A 
ATOM     13  C   UNL     1       2.473  -1.683   3.760  1.00  0.00    -0.014 A 
BRANCH  13  14
ATOM     14  C   UNL     1       2.625  -2.309   5.050  1.00  0.00     0.031 A 
ATOM     15  C   UNL     1       3.119  -1.458   6.148  1.00  0.00     0.074 A 
ATOM     16  C   UNL     1       2.449  -3.642   5.104  1.00  0.00     0.049 A 
ATOM     17  N   UNL     1       4.239  -1.556   6.793  1.00  0.00    -0.248 NA
ATOM     18  C   UNL     1       2.311  -0.282   6.491  1.00  0.00     0.031 C 
ATOM     19  C   UNL     1       1.796  -4.496   4.102  1.00  0.00     0.029 A 
ATOM     20  N   UNL     1       2.684  -4.490   6.135  1.00  0.00    -0.354 N 
ATOM     21  C   UNL     1       4.170  -0.578   7.778  1.00  0.00     0.074 A 
ATOM     22  C   UNL     1       3.045   0.268   7.456  1.00  0.00     0.031 C 
ATOM     23  C   UNL     1       1.419  -5.645   4.697  1.00  0.00     0.029 A 
ATOM     24  C   UNL     1       1.903  -5.635   6.064  1.00  0.00     0.049 A 
ATOM     25  H   UNL     1       3.335  -4.313   6.852  1.00  0.00     0.167 HD
ATOM     26  C   UNL     1       4.869  -0.657   8.941  1.00  0.00     0.034 A 
ATOM     27  C   UNL     1       1.546  -6.397   7.121  1.00  0.00     0.034 A 
ATOM     28  C   UNL     1       5.963  -1.575   8.900  1.00  0.00     0.049 A 
ATOM     29  C   UNL     1       2.533  -6.132   8.200  1.00  0.00     0.074 A 
ATOM     30  C   UNL     1       7.130  -1.673   8.170  1.00  0.00     0.029 A 
ATOM     31  N   UNL     1       5.779  -2.800   9.493  1.00  0.00    -0.354 N 
ATOM     32  N   UNL     1       3.798  -6.447   8.127  1.00  0.00    -0.248 NA
ATOM     33  C   UNL     1       2.197  -5.139   9.210  1.00  0.00     0.031 C 
ATOM     34  C   UNL     1       7.347  -3.071   8.002  1.00  0.00     0.029 A 
ATOM     35  C   UNL     1       6.303  -3.741   8.646  1.00  0.00     0.049 A 
ATOM     36  H   UNL     1       5.351  -2.970  10.363  1.00  0.00     0.167 HD
ATOM     37  C   UNL     1       4.461  -5.415   8.781  1.00  0.00     0.074 A 
ATOM     38  C   UNL     1       3.422  -4.707   9.522  1.00  0.00     0.031 C 
ATOM     39  C   UNL     1       5.733  -5.055   8.437  1.00  0.00     0.034 A 
BRANCH  26  40
ATOM     40  C   UNL     1       4.304  -0.129  10.221  1.00  0.00     0.023 A 
ATOM     41  C   UNL     1       5.167   0.260  11.260  1.00  0.00     0.012 A 
ATOM     42  C   UNL     1       2.922  -0.200  10.504  1.00  0.00     0.148 A 
ATOM     43  C   UNL     1       4.660   0.606  12.518  1.00  0.00     0.002 A 
ATOM     44  C   UNL     1       2.418   0.234  11.718  1.00  0.00     0.091 A 
ATOM     45  F   UNL     1       2.099  -0.798   9.630  1.00  0.00    -0.205 F 
ATOM     46  C   UNL     1       3.284   0.623  12.740  1.00  0.00     0.022 A 
BRANCH  44  47
ATOM     47  S   UNL     1       0.647   0.362  11.960  1.00  0.00     0.127 S 
ATOM     48  O   UNL     1       0.332  -0.937  12.545  1.00  0.00    -0.237 OA
ATOM     49  O   UNL     1       0.538   1.499  12.874  1.00  0.00    -0.237 OA
ATOM     50  O   UNL     1       0.119   0.626  10.625  1.00  0.00    -0.744 OA
ENDBRANCH  44  47
ENDBRANCH  26  40
BRANCH  27  51
ATOM     51  C   UNL     1       0.220  -7.019   7.364  1.00  0.00     0.023 A 
ATOM     52  C   UNL     1       0.102  -7.976   8.388  1.00  0.00     0.012 A 
ATOM     53  C   UNL     1      -0.973  -6.526   6.779  1.00  0.00     0.148 A 
ATOM     54  C   UNL     1      -1.154  -8.402   8.836  1.00  0.00     0.002 A 
ATOM     55  C   UNL     1      -2.218  -6.979   7.205  1.00  0.00     0.091 A 
ATOM     56  F   UNL     1      -0.911  -5.537   5.879  1.00  0.00    -0.205 F 
ATOM     57  C   UNL     1      -2.313  -7.905   8.246  1.00  0.00     0.022 A 
BRANCH  55  58
ATOM     58  S   UNL     1      -3.742  -6.388   6.451  1.00  0.00     0.127 S 
ATOM     59  O   UNL     1      -4.567  -7.598   6.429  1.00  0.00    -0.237 OA
ATOM     60  O   UNL     1      -4.179  -5.369   7.399  1.00  0.00    -0.237 OA
ATOM     61  O   UNL     1      -3.361  -5.911   5.127  1.00  0.00    -0.744 OA
ENDBRANCH  55  58
ENDBRANCH  27  51
BRANCH  39  62
ATOM     62  C   UNL     1       6.495  -5.951   7.494  1.00  0.00     0.023 A 
ATOM     63  C   UNL     1       6.124  -6.059   6.136  1.00  0.00     0.012 A 
ATOM     64  C   UNL     1       7.715  -6.505   7.915  1.00  0.00     0.148 A 
ATOM     65  C   UNL     1       6.948  -6.718   5.221  1.00  0.00     0.002 A 
ATOM     66  C   UNL     1       8.549  -7.128   6.994  1.00  0.00     0.091 A 
ATOM     67  F   UNL     1       8.060  -6.370   9.205  1.00  0.00    -0.205 F 
ATOM     68  C   UNL     1       8.166  -7.242   5.647  1.00  0.00     0.022 A 
BRANCH  66  69
ATOM     69  S   UNL     1      10.187  -7.717   7.437  1.00  0.00     0.127 S 
ATOM     70  O   UNL     1      10.017  -9.167   7.381  1.00  0.00    -0.237 OA
ATOM     71  O   UNL     1      11.019  -7.157   6.370  1.00  0.00    -0.237 OA
ATOM     72  O   UNL     1      10.468  -7.172   8.760  1.00  0.00    -0.744 OA
ENDBRANCH  66  69
ENDBRANCH  39  62
ENDBRANCH  13  14
ENDBRANCH   6   8
ENDBRANCH   5   6
ENDBRANCH   4   5
ENDBRANCH   3   4
ENDBRANCH   2   3
ENDBRANCH   1   2
BRANCH   1  73
ATOM     73  C   UNL     1       2.365   1.606  -1.597  1.00  0.00     0.188 C 
BRANCH  73  74
ATOM     74  O   UNL     1       3.319   1.351  -2.605  1.00  0.00    -0.377 OA
BRANCH  74  75
ATOM     75  C   UNL     1       3.969   2.476  -3.170  1.00  0.00     0.188 C 
BRANCH  75  76
ATOM     76  C   UNL     1       4.989   3.256  -2.305  1.00  0.00     0.188 C 
BRANCH  76  77
ATOM     77  O   UNL     1       4.542   4.215  -1.356  1.00  0.00    -0.376 OA
BRANCH  77  78
ATOM     78  C   UNL     1       3.408   5.021  -1.613  1.00  0.00     0.202 C 
BRANCH  78  79
ATOM     79  C   UNL     1       3.442   5.987  -2.802  1.00  0.00     0.261 C 
BRANCH  79  80
ATOM     80  O   UNL     1       3.662   5.345  -4.067  1.00  0.00    -0.457 OA
BRANCH  80  81
ATOM     81  C   UNL     1       4.944   5.415  -4.555  1.00  0.00     0.374 C 
ATOM     82  O   UNL     1       5.830   6.089  -4.090  1.00  0.00    -0.242 OA
BRANCH  81  83
ATOM     83  C   UNL     1       5.081   4.434  -5.613  1.00  0.00     0.216 A 
ATOM     84  O   UNL     1       6.074   3.469  -5.486  1.00  0.00    -0.449 OA
ATOM     85  C   UNL     1       4.362   4.192  -6.761  1.00  0.00     0.014 A 
ATOM     86  C   UNL     1       5.972   2.627  -6.561  1.00  0.00     0.135 A 
ATOM     87  C   UNL     1       4.980   3.094  -7.385  1.00  0.00     0.028 A 
ATOM     88  C   UNL     1       3.200   4.828  -7.429  1.00  0.00     0.041 C 
ATOM     89  C   UNL     1       6.701   1.482  -6.852  1.00  0.00     0.048 A 
ATOM     90  C   UNL     1       4.692   2.525  -8.623  1.00  0.00    -0.037 A 
ATOM     91  C   UNL     1       3.342   4.654  -8.969  1.00  0.00     0.010 C 
ATOM     92  C   UNL     1       6.386   0.858  -8.077  1.00  0.00     0.004 A 
ATOM     93  C   UNL     1       5.412   1.374  -8.957  1.00  0.00     0.004 A 
ATOM     94  C   UNL     1       3.615   3.185  -9.443  1.00  0.00     0.036 C 
ENDBRANCH  81  83
ENDBRANCH  80  81
ENDBRANCH  79  80
ENDBRANCH  78  79
ENDBRANCH  77  78
ENDBRANCH  76  77
ENDBRANCH  75  76
ENDBRANCH  74  75
ENDBRANCH  73  74
ENDBRANCH   1  73
TORSDOF 23
