REMARK SMILES CC[C@@](O)(C(=O)OCCOCCOCCOCCOC(=O)c1ccc(-c2c3nc(c(-c4cccc(S(=O)(=O)[O-])c4F)c4ccc([nH]4)c(-c4cccc(S(=O)(=O)[O-])c4F)c4nc(c(-c5cccc(S(=O)(=O)[O-])c5F)c5ccc2[nH]5)C=C4)C=C3)cc1)[C@@H]1CCOc2ccccc21
REMARK SMILES IDX 14 1 13 2 12 3 11 4 10 5 9 6 8 7 7 8 5 9 6 10 3 11 2 12 1 13
REMARK SMILES IDX 4 14 85 16 86 17 94 18 87 19 89 20 93 21 88 22 90 23 92 24
REMARK SMILES IDX 91 25 15 26 16 27 17 28 18 29 19 30 20 31 21 32 22 33 23 34
REMARK SMILES IDX 84 35 24 36 83 37 25 38 26 39 27 40 77 41 28 42 82 43 76 44
REMARK SMILES IDX 78 45 29 46 81 47 75 48 74 49 30 51 62 52 42 53 61 54 43 55
REMARK SMILES IDX 46 56 60 57 79 58 44 59 45 60 59 62 80 63 47 64 31 65 32 66
REMARK SMILES IDX 40 67 33 68 35 69 41 70 34 71 36 72 37 73 38 74 39 75 63 76
REMARK SMILES IDX 64 77 72 78 65 79 67 80 73 81 66 82 68 83 69 84 70 85 71 86
REMARK SMILES IDX 48 87 49 88 57 89 50 90 52 91 58 92 51 93 53 94 54 95 55 96
REMARK SMILES IDX 56 97
REMARK H PARENT 4 15 78 50 46 61
REMARK Flexibility Score: inf
ROOT
ATOM      1  C   UNL     1      -0.380   5.690   3.737  1.00  0.00     0.188 C 
ENDROOT
BRANCH   1   2
ATOM      2  O   UNL     1       0.655   4.827   3.284  1.00  0.00    -0.377 OA
BRANCH   2   3
ATOM      3  C   UNL     1       0.306   3.560   2.770  1.00  0.00     0.188 C 
BRANCH   3   4
ATOM      4  C   UNL     1       0.115   2.447   3.817  1.00  0.00     0.188 C 
BRANCH   4   5
ATOM      5  O   UNL     1      -0.270   2.817   5.123  1.00  0.00    -0.376 OA
BRANCH   5   6
ATOM      6  C   UNL     1       0.645   3.467   5.997  1.00  0.00     0.202 C 
BRANCH   6   7
ATOM      7  C   UNL     1       2.160   3.636   5.747  1.00  0.00     0.261 C 
BRANCH   7   8
ATOM      8  O   UNL     1       2.619   3.468   4.399  1.00  0.00    -0.461 OA
BRANCH   8   9
ATOM      9  C   UNL     1       3.618   2.572   4.171  1.00  0.00     0.338 C 
ATOM     10  O   UNL     1       4.079   1.843   5.043  1.00  0.00    -0.249 OA
BRANCH   9  11
ATOM     11  C   UNL     1       4.023   2.505   2.649  1.00  0.00     0.168 C 
BRANCH  11  12
ATOM     12  C   UNL     1       3.909   3.923   2.021  1.00  0.00     0.044 C 
ATOM     13  C   UNL     1       4.909   4.263   0.918  1.00  0.00     0.007 C 
ENDBRANCH  11  12
BRANCH  11  14
ATOM     14  O   UNL     1       5.416   2.139   2.618  1.00  0.00    -0.378 OA
ATOM     15  H   UNL     1       5.945   2.846   3.018  1.00  0.00     0.212 HD
ENDBRANCH  11  14
BRANCH  11  16
ATOM     16  C   UNL     1       3.168   1.327   1.987  1.00  0.00     0.070 C 
ATOM     17  C   UNL     1       3.466  -0.004   2.729  1.00  0.00     0.053 C 
ATOM     18  C   UNL     1       3.254   1.082   0.477  1.00  0.00     0.001 A 
ATOM     19  C   UNL     1       2.876  -1.177   1.981  1.00  0.00     0.230 C 
ATOM     20  C   UNL     1       3.506  -0.203  -0.033  1.00  0.00     0.122 A 
ATOM     21  C   UNL     1       2.977   2.085  -0.464  1.00  0.00     0.008 A 
ATOM     22  O   UNL     1       3.557  -1.334   0.739  1.00  0.00    -0.493 OA
ATOM     23  C   UNL     1       3.697  -0.422  -1.400  1.00  0.00     0.047 A 
ATOM     24  C   UNL     1       3.157   1.871  -1.836  1.00  0.00     0.001 A 
ATOM     25  C   UNL     1       3.554   0.625  -2.302  1.00  0.00     0.004 A 
ENDBRANCH  11  16
ENDBRANCH   9  11
ENDBRANCH   8   9
ENDBRANCH   7   8
ENDBRANCH   6   7
ENDBRANCH   5   6
ENDBRANCH   4   5
ENDBRANCH   3   4
ENDBRANCH   2   3
ENDBRANCH   1   2
BRANCH   1  26
ATOM     26  C   UNL     1      -1.812   5.157   3.960  1.00  0.00     0.188 C 
BRANCH  26  27
ATOM     27  O   UNL     1      -2.263   4.204   3.009  1.00  0.00    -0.376 OA
BRANCH  27  28
ATOM     28  C   UNL     1      -3.023   4.653   1.896  1.00  0.00     0.202 C 
BRANCH  28  29
ATOM     29  C   UNL     1      -2.366   5.644   0.920  1.00  0.00     0.261 C 
BRANCH  29  30
ATOM     30  O   UNL     1      -1.948   6.901   1.471  1.00  0.00    -0.460 OA
BRANCH  30  31
ATOM     31  C   UNL     1      -2.879   7.654   2.102  1.00  0.00     0.338 C 
ATOM     32  O   UNL     1      -4.063   7.420   2.203  1.00  0.00    -0.246 OA
BRANCH  31  33
ATOM     33  C   UNL     1      -2.163   8.722   2.836  1.00  0.00     0.060 A 
ATOM     34  C   UNL     1      -2.296   8.787   4.229  1.00  0.00     0.016 A 
ATOM     35  C   UNL     1      -1.371   9.647   2.155  1.00  0.00     0.016 A 
ATOM     36  C   UNL     1      -1.669   9.809   4.942  1.00  0.00     0.010 A 
ATOM     37  C   UNL     1      -0.763  10.683   2.868  1.00  0.00     0.010 A 
ATOM     38  C   UNL     1      -0.943  10.791   4.259  1.00  0.00    -0.014 A 
BRANCH  38  39
ATOM     39  C   UNL     1      -0.550  12.034   4.964  1.00  0.00     0.031 A 
ATOM     40  C   UNL     1      -1.406  13.258   4.778  1.00  0.00     0.074 A 
ATOM     41  C   UNL     1       0.534  12.081   5.757  1.00  0.00     0.049 A 
ATOM     42  N   UNL     1      -1.240  14.467   5.247  1.00  0.00    -0.248 NA
ATOM     43  C   UNL     1      -2.611  13.096   3.947  1.00  0.00     0.031 C 
ATOM     44  C   UNL     1       1.431  10.960   6.030  1.00  0.00     0.029 A 
ATOM     45  N   UNL     1       1.078  13.129   6.457  1.00  0.00    -0.354 N 
ATOM     46  C   UNL     1      -2.296  15.216   4.744  1.00  0.00     0.074 A 
ATOM     47  C   UNL     1      -3.092  14.330   3.924  1.00  0.00     0.031 C 
ATOM     48  C   UNL     1       2.437  11.390   6.813  1.00  0.00     0.029 A 
ATOM     49  C   UNL     1       2.269  12.820   7.069  1.00  0.00     0.049 A 
ATOM     50  H   UNL     1       0.656  14.017   6.515  1.00  0.00     0.167 HD
ATOM     51  C   UNL     1      -2.587  16.521   4.954  1.00  0.00     0.034 A 
ATOM     52  C   UNL     1       3.140  13.609   7.731  1.00  0.00     0.034 A 
ATOM     53  C   UNL     1      -1.799  17.398   5.776  1.00  0.00     0.049 A 
ATOM     54  C   UNL     1       2.817  15.071   7.917  1.00  0.00     0.074 A 
ATOM     55  C   UNL     1      -2.030  18.727   6.082  1.00  0.00     0.029 A 
ATOM     56  N   UNL     1      -0.617  17.041   6.406  1.00  0.00    -0.354 N 
ATOM     57  N   UNL     1       1.762  15.742   7.521  1.00  0.00    -0.248 NA
ATOM     58  C   UNL     1       3.790  15.877   8.670  1.00  0.00     0.031 C 
ATOM     59  C   UNL     1      -0.965  19.186   6.864  1.00  0.00     0.029 A 
ATOM     60  C   UNL     1      -0.097  18.129   7.087  1.00  0.00     0.049 A 
ATOM     61  H   UNL     1      -0.207  16.147   6.374  1.00  0.00     0.167 HD
ATOM     62  C   UNL     1       1.925  17.035   8.009  1.00  0.00     0.074 A 
ATOM     63  C   UNL     1       3.172  17.048   8.746  1.00  0.00     0.031 C 
ATOM     64  C   UNL     1       1.121  18.116   7.856  1.00  0.00     0.034 A 
BRANCH  51  65
ATOM     65  C   UNL     1      -3.817  17.078   4.285  1.00  0.00     0.023 A 
ATOM     66  C   UNL     1      -5.097  16.686   4.726  1.00  0.00     0.012 A 
ATOM     67  C   UNL     1      -3.703  18.024   3.248  1.00  0.00     0.148 A 
ATOM     68  C   UNL     1      -6.244  17.198   4.120  1.00  0.00     0.002 A 
ATOM     69  C   UNL     1      -4.850  18.568   2.684  1.00  0.00     0.091 A 
ATOM     70  F   UNL     1      -2.477  18.367   2.828  1.00  0.00    -0.205 F 
ATOM     71  C   UNL     1      -6.120  18.146   3.108  1.00  0.00     0.022 A 
BRANCH  69  72
ATOM     72  S   UNL     1      -4.798  19.853   1.431  1.00  0.00     0.127 S 
ATOM     73  O   UNL     1      -5.300  19.140   0.257  1.00  0.00    -0.237 OA
ATOM     74  O   UNL     1      -5.717  20.851   1.978  1.00  0.00    -0.237 OA
ATOM     75  O   UNL     1      -3.409  20.283   1.351  1.00  0.00    -0.744 OA
ENDBRANCH  69  72
ENDBRANCH  51  65
BRANCH  52  76
ATOM     76  C   UNL     1       4.402  13.035   8.276  1.00  0.00     0.023 A 
ATOM     77  C   UNL     1       4.589  12.948   9.669  1.00  0.00     0.012 A 
ATOM     78  C   UNL     1       5.418  12.573   7.417  1.00  0.00     0.148 A 
ATOM     79  C   UNL     1       5.779  12.443  10.197  1.00  0.00     0.002 A 
ATOM     80  C   UNL     1       6.576  12.018   7.948  1.00  0.00     0.091 A 
ATOM     81  F   UNL     1       5.227  12.680   6.095  1.00  0.00    -0.205 F 
ATOM     82  C   UNL     1       6.767  11.969   9.338  1.00  0.00     0.022 A 
BRANCH  80  83
ATOM     83  S   UNL     1       7.846  11.271   6.922  1.00  0.00     0.127 S 
ATOM     84  O   UNL     1       8.969  12.182   7.126  1.00  0.00    -0.237 OA
ATOM     85  O   UNL     1       7.996   9.956   7.545  1.00  0.00    -0.237 OA
ATOM     86  O   UNL     1       7.297  11.240   5.573  1.00  0.00    -0.744 OA
ENDBRANCH  80  83
ENDBRANCH  52  76
BRANCH  64  87
ATOM     87  C   UNL     1       1.526  19.399   8.539  1.00  0.00     0.023 A 
ATOM     88  C   UNL     1       2.628  20.138   8.066  1.00  0.00     0.012 A 
ATOM     89  C   UNL     1       0.760  19.909   9.607  1.00  0.00     0.148 A 
ATOM     90  C   UNL     1       2.984  21.344   8.670  1.00  0.00     0.002 A 
ATOM     91  C   UNL     1       1.087  21.137  10.167  1.00  0.00     0.091 A 
ATOM     92  F   UNL     1      -0.277  19.184  10.052  1.00  0.00    -0.205 F 
ATOM     93  C   UNL     1       2.207  21.849   9.710  1.00  0.00     0.022 A 
BRANCH  91  94
ATOM     94  S   UNL     1       0.087  21.914  11.442  1.00  0.00     0.127 S 
ATOM     95  O   UNL     1       0.967  21.823  12.606  1.00  0.00    -0.237 OA
ATOM     96  O   UNL     1      -0.089  23.267  10.914  1.00  0.00    -0.237 OA
ATOM     97  O   UNL     1      -1.139  21.132  11.526  1.00  0.00    -0.744 OA
ENDBRANCH  91  94
ENDBRANCH  64  87
ENDBRANCH  38  39
ENDBRANCH  31  33
ENDBRANCH  30  31
ENDBRANCH  29  30
ENDBRANCH  28  29
ENDBRANCH  27  28
ENDBRANCH  26  27
ENDBRANCH   1  26
TORSDOF 26
