REMARK SMILES Cc1cc(C(=O)OCCOCCOCCOCCOC(=O)c2ccc(-c3c4nc(c(-c5cccc(S(=O)(=O)[O-])c5F)c5ccc([nH]5)c(-c5cccc(S(=O)(=O)[O-])c5F)c5nc(c(-c6cccc(S(=O)(=O)[O-])c6F)c6ccc3[nH]6)C=C5)C=C4)cc2)cc(S(=O)(=O)NNC(=O)c2c[nH]c3ccccc23)c1C
REMARK SMILES IDX 12 1 11 2 10 3 9 4 8 5 7 6 5 7 6 8 4 9 1 10 2 11 3 12 103 13
REMARK SMILES IDX 86 14 104 15 85 16 87 17 88 18 89 19 90 20 91 22 92 23 93 25
REMARK SMILES IDX 94 26 95 27 102 28 96 29 97 30 101 31 98 33 100 34 99 35
REMARK SMILES IDX 13 36 14 37 15 38 16 39 17 40 18 41 19 42 20 43 21 44 22 45
REMARK SMILES IDX 23 46 84 47 24 48 83 49 25 50 26 51 27 52 77 53 28 54 82 55
REMARK SMILES IDX 76 56 78 57 29 58 81 59 75 60 74 61 30 63 62 64 42 65 61 66
REMARK SMILES IDX 43 67 46 68 60 69 79 70 44 71 45 72 59 74 80 75 47 76 31 77
REMARK SMILES IDX 32 78 40 79 33 80 35 81 41 82 34 83 36 84 37 85 38 86 39 87
REMARK SMILES IDX 63 88 64 89 72 90 65 91 67 92 73 93 66 94 68 95 69 96 70 97
REMARK SMILES IDX 71 98 48 99 49 100 57 101 50 102 52 103 58 104 51 105 53 106
REMARK SMILES IDX 54 107 55 108 56 109
REMARK H PARENT 90 21 91 24 96 32 78 62 46 73
REMARK Flexibility Score: inf
ROOT
ATOM      1  C   UNL     1      -3.349   1.414  -1.974  1.00  0.00     0.188 C 
ENDROOT
BRANCH   1   2
ATOM      2  C   UNL     1      -4.594   0.952  -1.189  1.00  0.00     0.188 C 
BRANCH   2   3
ATOM      3  O   UNL     1      -5.474   2.003  -0.822  1.00  0.00    -0.376 OA
BRANCH   3   4
ATOM      4  C   UNL     1      -5.523   2.390   0.541  1.00  0.00     0.202 C 
BRANCH   4   5
ATOM      5  C   UNL     1      -4.245   2.986   1.141  1.00  0.00     0.261 C 
BRANCH   5   6
ATOM      6  O   UNL     1      -3.069   2.177   0.997  1.00  0.00    -0.460 OA
BRANCH   6   7
ATOM      7  C   UNL     1      -3.019   0.979   1.613  1.00  0.00     0.338 C 
ATOM      8  O   UNL     1      -3.870   0.481   2.337  1.00  0.00    -0.246 OA
BRANCH   7   9
ATOM      9  C   UNL     1      -1.838   0.256   1.079  1.00  0.00     0.061 A 
ATOM     10  C   UNL     1       1.696   1.172   0.052  1.00  0.00     0.044 C 
ATOM     11  C   UNL     1       0.468   0.331   0.297  1.00  0.00    -0.046 A 
ATOM     12  C   UNL     1      -0.653   0.965   0.845  1.00  0.00     0.019 A 
ATOM     13  C   UNL     1       0.408  -1.055   0.020  1.00  0.00    -0.028 A 
ATOM     14  C   UNL     1      -0.838  -1.740   0.144  1.00  0.00     0.088 A 
ATOM     15  C   UNL     1       1.670  -1.804  -0.337  1.00  0.00     0.046 C 
ATOM     16  C   UNL     1      -1.948  -1.093   0.701  1.00  0.00     0.037 A 
BRANCH  14  17
ATOM     17  S   UNL     1      -0.978  -3.407  -0.509  1.00  0.00     0.257 S 
ATOM     18  O   UNL     1      -0.532  -3.372  -1.886  1.00  0.00    -0.205 OA
ATOM     19  O   UNL     1      -0.369  -4.288   0.466  1.00  0.00    -0.205 OA
BRANCH  17  20
ATOM     20  N   UNL     1      -2.632  -3.861  -0.541  1.00  0.00    -0.123 NA
ATOM     21  H   UNL     1      -3.110  -3.300   0.164  1.00  0.00     0.167 HD
BRANCH  20  22
ATOM     22  N   UNL     1      -3.387  -3.709  -1.805  1.00  0.00    -0.273 N 
ATOM     23  C   UNL     1      -4.364  -4.622  -2.200  1.00  0.00     0.268 C 
ATOM     24  H   UNL     1      -3.194  -2.938  -2.386  1.00  0.00     0.186 HD
ATOM     25  O   UNL     1      -5.551  -4.310  -2.228  1.00  0.00    -0.268 OA
BRANCH  23  26
ATOM     26  C   UNL     1      -3.847  -5.821  -2.888  1.00  0.00     0.066 A 
ATOM     27  C   UNL     1      -2.525  -5.998  -3.275  1.00  0.00     0.097 A 
ATOM     28  C   UNL     1      -4.551  -6.641  -3.840  1.00  0.00     0.012 A 
ATOM     29  N   UNL     1      -2.605  -5.925  -4.651  1.00  0.00    -0.360 N 
ATOM     30  C   UNL     1      -3.784  -6.545  -5.010  1.00  0.00     0.046 A 
ATOM     31  C   UNL     1      -5.785  -7.321  -3.918  1.00  0.00     0.011 A 
ATOM     32  H   UNL     1      -1.949  -5.511  -5.258  1.00  0.00     0.166 HD
ATOM     33  C   UNL     1      -4.211  -7.007  -6.256  1.00  0.00     0.027 A 
ATOM     34  C   UNL     1      -6.171  -7.902  -5.140  1.00  0.00     0.001 A 
ATOM     35  C   UNL     1      -5.412  -7.714  -6.295  1.00  0.00     0.002 A 
ENDBRANCH  23  26
ENDBRANCH  20  22
ENDBRANCH  17  20
ENDBRANCH  14  17
ENDBRANCH   7   9
ENDBRANCH   6   7
ENDBRANCH   5   6
ENDBRANCH   4   5
ENDBRANCH   3   4
ENDBRANCH   2   3
ENDBRANCH   1   2
BRANCH   1  36
ATOM     36  O   UNL     1      -3.159   2.800  -2.201  1.00  0.00    -0.377 OA
BRANCH  36  37
ATOM     37  C   UNL     1      -4.239   3.601  -2.672  1.00  0.00     0.188 C 
BRANCH  37  38
ATOM     38  C   UNL     1      -5.428   2.981  -3.442  1.00  0.00     0.188 C 
BRANCH  38  39
ATOM     39  O   UNL     1      -5.226   1.646  -3.881  1.00  0.00    -0.376 OA
BRANCH  39  40
ATOM     40  C   UNL     1      -5.065   1.446  -5.275  1.00  0.00     0.202 C 
BRANCH  40  41
ATOM     41  C   UNL     1      -3.749   1.973  -5.858  1.00  0.00     0.261 C 
BRANCH  41  42
ATOM     42  O   UNL     1      -3.524   3.381  -5.696  1.00  0.00    -0.460 OA
BRANCH  42  43
ATOM     43  C   UNL     1      -4.400   4.221  -6.288  1.00  0.00     0.338 C 
ATOM     44  O   UNL     1      -5.366   3.918  -6.972  1.00  0.00    -0.246 OA
BRANCH  43  45
ATOM     45  C   UNL     1      -4.104   5.583  -5.807  1.00  0.00     0.060 A 
ATOM     46  C   UNL     1      -5.094   6.297  -5.119  1.00  0.00     0.016 A 
ATOM     47  C   UNL     1      -2.841   6.141  -6.019  1.00  0.00     0.016 A 
ATOM     48  C   UNL     1      -4.830   7.590  -4.666  1.00  0.00     0.010 A 
ATOM     49  C   UNL     1      -2.586   7.442  -5.584  1.00  0.00     0.010 A 
ATOM     50  C   UNL     1      -3.590   8.184  -4.935  1.00  0.00    -0.014 A 
BRANCH  50  51
ATOM     51  C   UNL     1      -3.404   9.638  -4.721  1.00  0.00     0.031 A 
ATOM     52  C   UNL     1      -3.567  10.555  -5.902  1.00  0.00     0.074 A 
ATOM     53  C   UNL     1      -3.082  10.136  -3.514  1.00  0.00     0.049 A 
ATOM     54  N   UNL     1      -3.409  11.850  -5.975  1.00  0.00    -0.248 NA
ATOM     55  C   UNL     1      -3.957   9.923  -7.175  1.00  0.00     0.031 C 
ATOM     56  C   UNL     1      -2.900   9.351  -2.295  1.00  0.00     0.029 A 
ATOM     57  N   UNL     1      -2.823  11.428  -3.127  1.00  0.00    -0.354 N 
ATOM     58  C   UNL     1      -3.652  12.185  -7.302  1.00  0.00     0.074 A 
ATOM     59  C   UNL     1      -3.956  10.957  -8.003  1.00  0.00     0.031 C 
ATOM     60  C   UNL     1      -2.528  10.176  -1.299  1.00  0.00     0.029 A 
ATOM     61  C   UNL     1      -2.420  11.539  -1.817  1.00  0.00     0.049 A 
ATOM     62  H   UNL     1      -2.918  12.201  -3.729  1.00  0.00     0.167 HD
ATOM     63  C   UNL     1      -3.638  13.406  -7.883  1.00  0.00     0.034 A 
ATOM     64  C   UNL     1      -1.988  12.614  -1.127  1.00  0.00     0.034 A 
ATOM     65  C   UNL     1      -3.347  14.627  -7.184  1.00  0.00     0.049 A 
ATOM     66  C   UNL     1      -1.947  13.960  -1.809  1.00  0.00     0.074 A 
ATOM     67  C   UNL     1      -3.352  15.920  -7.676  1.00  0.00     0.029 A 
ATOM     68  N   UNL     1      -2.981  14.706  -5.850  1.00  0.00    -0.354 N 
ATOM     69  N   UNL     1      -2.299  14.280  -3.031  1.00  0.00    -0.248 NA
ATOM     70  C   UNL     1      -1.478  15.100  -1.005  1.00  0.00     0.031 C 
ATOM     71  C   UNL     1      -2.956  16.779  -6.646  1.00  0.00     0.029 A 
ATOM     72  C   UNL     1      -2.741  16.024  -5.503  1.00  0.00     0.049 A 
ATOM     73  H   UNL     1      -2.903  13.938  -5.239  1.00  0.00     0.167 HD
ATOM     74  C   UNL     1      -2.131  15.659  -3.130  1.00  0.00     0.074 A 
ATOM     75  C   UNL     1      -1.665  16.116  -1.838  1.00  0.00     0.031 C 
ATOM     76  C   UNL     1      -2.331  16.472  -4.197  1.00  0.00     0.034 A 
BRANCH  63  77
ATOM     77  C   UNL     1      -3.963  13.484  -9.351  1.00  0.00     0.023 A 
ATOM     78  C   UNL     1      -5.289  13.282  -9.785  1.00  0.00     0.012 A 
ATOM     79  C   UNL     1      -2.967  13.808 -10.292  1.00  0.00     0.148 A 
ATOM     80  C   UNL     1      -5.614  13.373 -11.138  1.00  0.00     0.002 A 
ATOM     81  C   UNL     1      -3.308  13.943 -11.633  1.00  0.00     0.091 A 
ATOM     82  F   UNL     1      -1.709  13.971  -9.861  1.00  0.00    -0.205 F 
ATOM     83  C   UNL     1      -4.626  13.714 -12.059  1.00  0.00     0.022 A 
BRANCH  81  84
ATOM     84  S   UNL     1      -2.127  14.454 -12.885  1.00  0.00     0.127 S 
ATOM     85  O   UNL     1      -1.986  13.231 -13.675  1.00  0.00    -0.237 OA
ATOM     86  O   UNL     1      -2.845  15.536 -13.559  1.00  0.00    -0.237 OA
ATOM     87  O   UNL     1      -0.931  14.871 -12.166  1.00  0.00    -0.744 OA
ENDBRANCH  81  84
ENDBRANCH  63  77
BRANCH  64  88
ATOM     88  C   UNL     1      -1.575  12.476   0.299  1.00  0.00     0.023 A 
ATOM     89  C   UNL     1      -2.345  13.085   1.310  1.00  0.00     0.012 A 
ATOM     90  C   UNL     1      -0.422  11.752   0.659  1.00  0.00     0.148 A 
ATOM     91  C   UNL     1      -1.954  13.006   2.647  1.00  0.00     0.002 A 
ATOM     92  C   UNL     1      -0.070  11.628   1.998  1.00  0.00     0.091 A 
ATOM     93  F   UNL     1       0.308  11.195  -0.318  1.00  0.00    -0.205 F 
ATOM     94  C   UNL     1      -0.824  12.271   2.992  1.00  0.00     0.022 A 
BRANCH  92  95
ATOM     95  S   UNL     1       1.296  10.599   2.545  1.00  0.00     0.127 S 
ATOM     96  O   UNL     1       2.254  11.597   3.014  1.00  0.00    -0.237 OA
ATOM     97  O   UNL     1       0.669   9.803   3.600  1.00  0.00    -0.237 OA
ATOM     98  O   UNL     1       1.704   9.831   1.377  1.00  0.00    -0.744 OA
ENDBRANCH  92  95
ENDBRANCH  64  88
BRANCH  76  99
ATOM     99  C   UNL     1      -2.094  17.949  -4.013  1.00  0.00     0.023 A 
ATOM    100  C   UNL     1      -0.780  18.441  -3.888  1.00  0.00     0.012 A 
ATOM    101  C   UNL     1      -3.171  18.858  -4.052  1.00  0.00     0.148 A 
ATOM    102  C   UNL     1      -0.544  19.811  -3.770  1.00  0.00     0.002 A 
ATOM    103  C   UNL     1      -2.925  20.224  -3.987  1.00  0.00     0.091 A 
ATOM    104  F   UNL     1      -4.415  18.369  -4.158  1.00  0.00    -0.205 F 
ATOM    105  C   UNL     1      -1.613  20.702  -3.832  1.00  0.00     0.022 A 
BRANCH 103 106
ATOM    106  S   UNL     1      -4.227  21.449  -4.158  1.00  0.00     0.127 S 
ATOM    107  O   UNL     1      -4.311  21.987  -2.801  1.00  0.00    -0.237 OA
ATOM    108  O   UNL     1      -3.659  22.368  -5.145  1.00  0.00    -0.237 OA
ATOM    109  O   UNL     1      -5.405  20.724  -4.614  1.00  0.00    -0.744 OA
ENDBRANCH 103 106
ENDBRANCH  76  99
ENDBRANCH  50  51
ENDBRANCH  43  45
ENDBRANCH  42  43
ENDBRANCH  41  42
ENDBRANCH  40  41
ENDBRANCH  39  40
ENDBRANCH  38  39
ENDBRANCH  37  38
ENDBRANCH  36  37
ENDBRANCH   1  36
TORSDOF 27
