REMARK SMILES COCC(=O)N1[C@@H](C(=O)OCCOCCOCCOCCOC(=O)c2ccc(-c3c4nc(c(-c5cccc(S(=O)(=O)[O-])c5F)c5ccc([nH]5)c(-c5cccc(S(=O)(=O)[O-])c5F)c5nc(c(-c6cccc(S(=O)(=O)[O-])c6F)c6ccc3[nH]6)C=C5)C=C4)cc2)CC[C@@H]2CCCC[C@H]21
REMARK SMILES IDX 16 1 15 2 14 3 13 4 12 5 11 6 10 7 8 8 9 9 7 10 6 11 95 12
REMARK SMILES IDX 88 13 90 14 94 15 89 16 91 17 93 18 92 19 4 20 5 21 3 22
REMARK SMILES IDX 2 23 1 24 17 25 18 26 19 27 20 28 21 29 22 30 23 31 24 32
REMARK SMILES IDX 25 33 26 34 87 35 27 36 86 37 28 38 29 39 30 40 80 41 31 42
REMARK SMILES IDX 85 43 79 44 81 45 32 46 84 47 78 48 77 49 33 51 65 52 45 53
REMARK SMILES IDX 64 54 46 55 49 56 63 57 82 58 47 59 48 60 62 62 83 63 50 64
REMARK SMILES IDX 34 65 35 66 43 67 36 68 38 69 44 70 37 71 39 72 40 73 41 74
REMARK SMILES IDX 42 75 66 76 67 77 75 78 68 79 70 80 76 81 69 82 71 83 72 84
REMARK SMILES IDX 73 85 74 86 51 87 52 88 60 89 53 90 55 91 61 92 54 93 56 94
REMARK SMILES IDX 57 95 58 96 59 97
REMARK H PARENT 81 50 49 61
REMARK Flexibility Score: inf
ROOT
ATOM      1  O   UNL     1      -2.718  -1.128  -1.433  1.00  0.00    -0.377 OA
ENDROOT
BRANCH   1   2
ATOM      2  C   UNL     1      -3.259   0.179  -1.284  1.00  0.00     0.188 C 
BRANCH   2   3
ATOM      3  C   UNL     1      -2.578   1.404  -1.918  1.00  0.00     0.188 C 
BRANCH   3   4
ATOM      4  O   UNL     1      -1.438   1.116  -2.709  1.00  0.00    -0.376 OA
BRANCH   4   5
ATOM      5  C   UNL     1      -0.209   1.594  -2.202  1.00  0.00     0.202 C 
BRANCH   5   6
ATOM      6  C   UNL     1       0.407   0.797  -1.052  1.00  0.00     0.261 C 
BRANCH   6   7
ATOM      7  O   UNL     1      -0.477   0.272  -0.048  1.00  0.00    -0.462 OA
BRANCH   7   8
ATOM      8  C   UNL     1      -0.831   1.089   0.972  1.00  0.00     0.328 C 
ATOM      9  O   UNL     1      -0.684   2.308   0.963  1.00  0.00    -0.250 OA
BRANCH   8  10
ATOM     10  C   UNL     1      -1.399   0.312   2.185  1.00  0.00     0.195 C 
ATOM     11  N   UNL     1      -0.616   0.374   3.445  1.00  0.00    -0.324 N 
ATOM     12  C   UNL     1      -1.371  -0.090   4.625  1.00  0.00     0.089 C 
ATOM     13  C   UNL     1      -1.839  -1.143   1.940  1.00  0.00     0.037 C 
ATOM     14  C   UNL     1      -1.954  -1.510   4.437  1.00  0.00     0.012 C 
ATOM     15  C   UNL     1      -0.595  -0.001   5.954  1.00  0.00     0.025 C 
ATOM     16  C   UNL     1      -2.712  -1.624   3.108  1.00  0.00     0.008 C 
ATOM     17  C   UNL     1      -2.863  -1.865   5.624  1.00  0.00     0.006 C 
ATOM     18  C   UNL     1      -1.462  -0.406   7.145  1.00  0.00     0.002 C 
ATOM     19  C   UNL     1      -2.102  -1.778   6.946  1.00  0.00     0.000 C 
BRANCH  11  20
ATOM     20  C   UNL     1       0.742   0.041   3.360  1.00  0.00     0.249 C 
ATOM     21  O   UNL     1       1.207  -1.005   3.807  1.00  0.00    -0.272 OA
BRANCH  20  22
ATOM     22  C   UNL     1       1.652   1.136   2.772  1.00  0.00     0.259 C 
BRANCH  22  23
ATOM     23  O   UNL     1       2.121   0.972   1.450  1.00  0.00    -0.375 OA
ATOM     24  C   UNL     1       2.881  -0.215   1.262  1.00  0.00     0.195 C 
ENDBRANCH  22  23
ENDBRANCH  20  22
ENDBRANCH  11  20
ENDBRANCH   8  10
ENDBRANCH   7   8
ENDBRANCH   6   7
ENDBRANCH   5   6
ENDBRANCH   4   5
ENDBRANCH   3   4
ENDBRANCH   2   3
ENDBRANCH   1   2
BRANCH   1  25
ATOM     25  C   UNL     1      -2.068  -1.500  -2.647  1.00  0.00     0.188 C 
BRANCH  25  26
ATOM     26  C   UNL     1      -2.726  -1.078  -3.974  1.00  0.00     0.188 C 
BRANCH  26  27
ATOM     27  O   UNL     1      -4.024  -0.532  -3.808  1.00  0.00    -0.376 OA
BRANCH  27  28
ATOM     28  C   UNL     1      -5.130  -1.416  -3.914  1.00  0.00     0.202 C 
BRANCH  28  29
ATOM     29  C   UNL     1      -5.134  -2.754  -3.154  1.00  0.00     0.261 C 
BRANCH  29  30
ATOM     30  O   UNL     1      -4.008  -3.629  -3.332  1.00  0.00    -0.460 OA
BRANCH  30  31
ATOM     31  C   UNL     1      -3.757  -4.124  -4.555  1.00  0.00     0.338 C 
ATOM     32  O   UNL     1      -4.395  -3.905  -5.585  1.00  0.00    -0.246 OA
BRANCH  31  33
ATOM     33  C   UNL     1      -2.475  -4.851  -4.495  1.00  0.00     0.060 A 
ATOM     34  C   UNL     1      -1.373  -4.377  -5.220  1.00  0.00     0.016 A 
ATOM     35  C   UNL     1      -2.365  -6.014  -3.727  1.00  0.00     0.016 A 
ATOM     36  C   UNL     1      -0.173  -5.091  -5.217  1.00  0.00     0.010 A 
ATOM     37  C   UNL     1      -1.169  -6.737  -3.740  1.00  0.00     0.010 A 
ATOM     38  C   UNL     1      -0.082  -6.302  -4.517  1.00  0.00    -0.014 A 
BRANCH  38  39
ATOM     39  C   UNL     1       1.063  -7.214  -4.763  1.00  0.00     0.031 A 
ATOM     40  C   UNL     1       0.879  -8.332  -5.755  1.00  0.00     0.074 A 
ATOM     41  C   UNL     1       2.232  -7.071  -4.113  1.00  0.00     0.049 A 
ATOM     42  N   UNL     1       1.705  -9.287  -6.093  1.00  0.00    -0.248 NA
ATOM     43  C   UNL     1      -0.414  -8.380  -6.460  1.00  0.00     0.031 C 
ATOM     44  C   UNL     1       2.535  -6.030  -3.133  1.00  0.00     0.029 A 
ATOM     45  N   UNL     1       3.374  -7.833  -4.160  1.00  0.00    -0.354 N 
ATOM     46  C   UNL     1       1.022 -10.068  -7.017  1.00  0.00     0.074 A 
ATOM     47  C   UNL     1      -0.286  -9.477  -7.191  1.00  0.00     0.031 C 
ATOM     48  C   UNL     1       3.768  -6.243  -2.639  1.00  0.00     0.029 A 
ATOM     49  C   UNL     1       4.330  -7.448  -3.248  1.00  0.00     0.049 A 
ATOM     50  H   UNL     1       3.497  -8.584  -4.785  1.00  0.00     0.167 HD
ATOM     51  C   UNL     1       1.448 -11.174  -7.670  1.00  0.00     0.034 A 
ATOM     52  C   UNL     1       5.506  -8.022  -2.922  1.00  0.00     0.034 A 
ATOM     53  C   UNL     1       2.756 -11.747  -7.516  1.00  0.00     0.049 A 
ATOM     54  C   UNL     1       5.950  -9.264  -3.656  1.00  0.00     0.074 A 
ATOM     55  C   UNL     1       3.301 -12.832  -8.180  1.00  0.00     0.029 A 
ATOM     56  N   UNL     1       3.717 -11.294  -6.628  1.00  0.00    -0.354 N 
ATOM     57  N   UNL     1       5.347  -9.913  -4.623  1.00  0.00    -0.248 NA
ATOM     58  C   UNL     1       7.252  -9.833  -3.277  1.00  0.00     0.031 C 
ATOM     59  C   UNL     1       4.584 -13.054  -7.670  1.00  0.00     0.029 A 
ATOM     60  C   UNL     1       4.848 -12.087  -6.713  1.00  0.00     0.049 A 
ATOM     61  H   UNL     1       3.611 -10.523  -6.025  1.00  0.00     0.167 HD
ATOM     62  C   UNL     1       6.209 -10.942  -4.990  1.00  0.00     0.074 A 
ATOM     63  C   UNL     1       7.387 -10.816  -4.157  1.00  0.00     0.031 C 
ATOM     64  C   UNL     1       6.037 -11.913  -5.920  1.00  0.00     0.034 A 
BRANCH  51  65
ATOM     65  C   UNL     1       0.496 -11.835  -8.630  1.00  0.00     0.023 A 
ATOM     66  C   UNL     1       0.234 -11.238  -9.879  1.00  0.00     0.012 A 
ATOM     67  C   UNL     1      -0.077 -13.085  -8.325  1.00  0.00     0.148 A 
ATOM     68  C   UNL     1      -0.600 -11.866 -10.803  1.00  0.00     0.002 A 
ATOM     69  C   UNL     1      -0.872 -13.725  -9.267  1.00  0.00     0.091 A 
ATOM     70  F   UNL     1       0.168 -13.622  -7.121  1.00  0.00    -0.205 F 
ATOM     71  C   UNL     1      -1.143 -13.113 -10.502  1.00  0.00     0.022 A 
BRANCH  69  72
ATOM     72  S   UNL     1      -1.554 -15.366  -9.007  1.00  0.00     0.127 S 
ATOM     73  O   UNL     1      -2.985 -15.081  -8.919  1.00  0.00    -0.237 OA
ATOM     74  O   UNL     1      -1.145 -16.064 -10.226  1.00  0.00    -0.237 OA
ATOM     75  O   UNL     1      -0.944 -15.868  -7.784  1.00  0.00    -0.744 OA
ENDBRANCH  69  72
ENDBRANCH  51  65
BRANCH  52  76
ATOM     76  C   UNL     1       6.361  -7.430  -1.854  1.00  0.00     0.023 A 
ATOM     77  C   UNL     1       7.604  -6.856  -2.188  1.00  0.00     0.012 A 
ATOM     78  C   UNL     1       5.953  -7.442  -0.506  1.00  0.00     0.148 A 
ATOM     79  C   UNL     1       8.440  -6.340  -1.197  1.00  0.00     0.002 A 
ATOM     80  C   UNL     1       6.765  -6.875   0.469  1.00  0.00     0.091 A 
ATOM     81  F   UNL     1       4.779  -8.014  -0.202  1.00  0.00    -0.205 F 
ATOM     82  C   UNL     1       8.017  -6.340   0.130  1.00  0.00     0.022 A 
BRANCH  80  83
ATOM     83  S   UNL     1       6.240  -6.716   2.180  1.00  0.00     0.127 S 
ATOM     84  O   UNL     1       7.060  -7.729   2.839  1.00  0.00    -0.237 OA
ATOM     85  O   UNL     1       6.609  -5.332   2.481  1.00  0.00    -0.237 OA
ATOM     86  O   UNL     1       4.805  -6.965   2.171  1.00  0.00    -0.744 OA
ENDBRANCH  80  83
ENDBRANCH  52  76
BRANCH  64  87
ATOM     87  C   UNL     1       7.160 -12.896  -6.130  1.00  0.00     0.023 A 
ATOM     88  C   UNL     1       7.416 -13.886  -5.161  1.00  0.00     0.012 A 
ATOM     89  C   UNL     1       7.903 -12.890  -7.327  1.00  0.00     0.148 A 
ATOM     90  C   UNL     1       8.418 -14.835  -5.366  1.00  0.00     0.002 A 
ATOM     91  C   UNL     1       8.865 -13.869  -7.546  1.00  0.00     0.091 A 
ATOM     92  F   UNL     1       7.655 -11.930  -8.230  1.00  0.00    -0.205 F 
ATOM     93  C   UNL     1       9.132 -14.834  -6.562  1.00  0.00     0.022 A 
BRANCH  91  94
ATOM     94  S   UNL     1       9.763 -14.005  -9.096  1.00  0.00     0.127 S 
ATOM     95  O   UNL     1      11.094 -13.538  -8.711  1.00  0.00    -0.237 OA
ATOM     96  O   UNL     1       9.678 -15.438  -9.380  1.00  0.00    -0.237 OA
ATOM     97  O   UNL     1       9.054 -13.159 -10.046  1.00  0.00    -0.744 OA
ENDBRANCH  91  94
ENDBRANCH  64  87
ENDBRANCH  38  39
ENDBRANCH  31  33
ENDBRANCH  30  31
ENDBRANCH  29  30
ENDBRANCH  28  29
ENDBRANCH  27  28
ENDBRANCH  26  27
ENDBRANCH  25  26
ENDBRANCH   1  25
TORSDOF 26
