REMARK SMILES O=C(OCCOCCOCCOCCOC(=O)c1ccccc1-c1ccc(/C=C2\C(=O)N(c3cccc(Br)c3)C(=O)N=C2O)o1)c1ccc(-c2c3nc(c(-c4cccc(S(=O)(=O)[O-])c4F)c4ccc([nH]4)c(-c4cccc(S(=O)(=O)[O-])c4F)c4nc(c(-c5cccc(S(=O)(=O)[O-])c5F)c5ccc2[nH]5)C=C4)C=C3)cc1
REMARK SMILES IDX 9 1 8 2 7 3 6 4 5 5 4 6 3 7 2 8 1 9 46 10 47 11 108 12 48 13
REMARK SMILES IDX 107 14 49 15 50 16 51 17 101 18 52 19 106 20 100 21 102 22
REMARK SMILES IDX 53 23 105 24 99 25 98 26 54 28 86 29 66 30 85 31 67 32 70 33
REMARK SMILES IDX 84 34 103 35 68 36 69 37 83 39 104 40 71 41 55 42 56 43
REMARK SMILES IDX 64 44 57 45 59 46 65 47 58 48 60 49 61 50 62 51 63 52 87 53
REMARK SMILES IDX 88 54 96 55 89 56 91 57 97 58 90 59 92 60 93 61 94 62 95 63
REMARK SMILES IDX 72 64 73 65 81 66 74 67 76 68 82 69 75 70 77 71 78 72 79 73
REMARK SMILES IDX 80 74 10 75 11 76 12 77 13 78 14 79 15 80 16 81 17 82 18 83
REMARK SMILES IDX 19 84 23 85 20 86 22 87 21 88 24 89 25 90 45 91 26 92 27 93
REMARK SMILES IDX 28 94 29 95 30 96 43 97 31 98 32 99 42 100 40 101 41 102
REMARK SMILES IDX 44 103 33 105 34 106 39 107 35 108 37 109 36 110 38 111
REMARK H PARENT 102 27 70 38 44 104
REMARK Flexibility Score: inf
ROOT
ATOM      1  O   UNL     1       2.600   0.437  -3.857  1.00  0.00    -0.377 OA
ENDROOT
BRANCH   1   2
ATOM      2  C   UNL     1       1.894   0.639  -2.639  1.00  0.00     0.188 C 
BRANCH   2   3
ATOM      3  C   UNL     1       2.372  -0.186  -1.443  1.00  0.00     0.188 C 
BRANCH   3   4
ATOM      4  O   UNL     1       3.749   0.018  -1.185  1.00  0.00    -0.376 OA
BRANCH   4   5
ATOM      5  C   UNL     1       4.556  -0.951  -0.544  1.00  0.00     0.202 C 
BRANCH   5   6
ATOM      6  C   UNL     1       3.946  -1.840   0.529  1.00  0.00     0.261 C 
BRANCH   6   7
ATOM      7  O   UNL     1       2.595  -1.558   0.947  1.00  0.00    -0.460 OA
BRANCH   7   8
ATOM      8  C   UNL     1       2.023  -0.581   1.682  1.00  0.00     0.338 C 
ATOM      9  O   UNL     1       0.823  -0.671   1.936  1.00  0.00    -0.246 OA
BRANCH   8  10
ATOM     10  C   UNL     1       2.754   0.598   2.212  1.00  0.00     0.060 A 
ATOM     11  C   UNL     1       3.780   1.260   1.550  1.00  0.00     0.016 A 
ATOM     12  C   UNL     1       2.301   1.149   3.417  1.00  0.00     0.016 A 
ATOM     13  C   UNL     1       4.513   2.262   2.153  1.00  0.00     0.010 A 
ATOM     14  C   UNL     1       2.959   2.239   3.991  1.00  0.00     0.010 A 
ATOM     15  C   UNL     1       4.129   2.731   3.399  1.00  0.00    -0.014 A 
BRANCH  15  16
ATOM     16  C   UNL     1       5.098   3.551   4.144  1.00  0.00     0.031 A 
ATOM     17  C   UNL     1       5.753   2.919   5.337  1.00  0.00     0.074 A 
ATOM     18  C   UNL     1       5.488   4.748   3.667  1.00  0.00     0.049 A 
ATOM     19  N   UNL     1       6.586   3.435   6.196  1.00  0.00    -0.248 NA
ATOM     20  C   UNL     1       5.428   1.502   5.598  1.00  0.00     0.031 C 
ATOM     21  C   UNL     1       5.002   5.368   2.431  1.00  0.00     0.029 A 
ATOM     22  N   UNL     1       6.404   5.642   4.149  1.00  0.00    -0.354 N 
ATOM     23  C   UNL     1       6.807   2.442   7.142  1.00  0.00     0.074 A 
ATOM     24  C   UNL     1       6.043   1.285   6.747  1.00  0.00     0.031 C 
ATOM     25  C   UNL     1       5.641   6.533   2.242  1.00  0.00     0.029 A 
ATOM     26  C   UNL     1       6.512   6.779   3.383  1.00  0.00     0.049 A 
ATOM     27  H   UNL     1       6.934   5.487   4.964  1.00  0.00     0.167 HD
ATOM     28  C   UNL     1       7.577   2.504   8.250  1.00  0.00     0.034 A 
ATOM     29  C   UNL     1       7.208   7.907   3.616  1.00  0.00     0.034 A 
ATOM     30  C   UNL     1       8.355   3.661   8.585  1.00  0.00     0.049 A 
ATOM     31  C   UNL     1       8.024   7.967   4.879  1.00  0.00     0.074 A 
ATOM     32  C   UNL     1       9.153   3.877   9.690  1.00  0.00     0.029 A 
ATOM     33  N   UNL     1       8.425   4.805   7.801  1.00  0.00    -0.354 N 
ATOM     34  N   UNL     1       8.207   7.037   5.787  1.00  0.00    -0.248 NA
ATOM     35  C   UNL     1       8.738   9.220   5.146  1.00  0.00     0.031 C 
ATOM     36  C   UNL     1       9.677   5.170   9.591  1.00  0.00     0.029 A 
ATOM     37  C   UNL     1       9.247   5.738   8.399  1.00  0.00     0.049 A 
ATOM     38  H   UNL     1       7.956   4.932   6.945  1.00  0.00     0.167 HD
ATOM     39  C   UNL     1       9.086   7.576   6.716  1.00  0.00     0.074 A 
ATOM     40  C   UNL     1       9.411   8.910   6.246  1.00  0.00     0.031 C 
ATOM     41  C   UNL     1       9.576   7.033   7.858  1.00  0.00     0.034 A 
BRANCH  28  42
ATOM     42  C   UNL     1       7.542   1.323   9.181  1.00  0.00     0.023 A 
ATOM     43  C   UNL     1       8.142   0.099   8.821  1.00  0.00     0.012 A 
ATOM     44  C   UNL     1       6.867   1.425  10.413  1.00  0.00     0.148 A 
ATOM     45  C   UNL     1       8.029  -1.017   9.652  1.00  0.00     0.002 A 
ATOM     46  C   UNL     1       6.803   0.325  11.258  1.00  0.00     0.091 A 
ATOM     47  F   UNL     1       6.274   2.587  10.721  1.00  0.00    -0.205 F 
ATOM     48  C   UNL     1       7.367  -0.902  10.872  1.00  0.00     0.022 A 
BRANCH  46  49
ATOM     49  S   UNL     1       6.031   0.394  12.877  1.00  0.00     0.127 S 
ATOM     50  O   UNL     1       4.877  -0.486  12.693  1.00  0.00    -0.237 OA
ATOM     51  O   UNL     1       7.082  -0.150  13.737  1.00  0.00    -0.237 OA
ATOM     52  O   UNL     1       5.712   1.794  13.114  1.00  0.00    -0.744 OA
ENDBRANCH  46  49
ENDBRANCH  28  42
BRANCH  29  53
ATOM     53  C   UNL     1       7.152   9.049   2.658  1.00  0.00     0.023 A 
ATOM     54  C   UNL     1       8.315   9.446   1.971  1.00  0.00     0.012 A 
ATOM     55  C   UNL     1       5.947   9.740   2.414  1.00  0.00     0.148 A 
ATOM     56  C   UNL     1       8.287  10.527   1.086  1.00  0.00     0.002 A 
ATOM     57  C   UNL     1       5.912  10.777   1.489  1.00  0.00     0.091 A 
ATOM     58  F   UNL     1       4.851   9.363   3.088  1.00  0.00    -0.205 F 
ATOM     59  C   UNL     1       7.085  11.185   0.838  1.00  0.00     0.022 A 
BRANCH  57  60
ATOM     60  S   UNL     1       4.385  11.598   1.018  1.00  0.00     0.127 S 
ATOM     61  O   UNL     1       4.561  12.921   1.611  1.00  0.00    -0.237 OA
ATOM     62  O   UNL     1       4.461  11.562  -0.443  1.00  0.00    -0.237 OA
ATOM     63  O   UNL     1       3.313  10.789   1.582  1.00  0.00    -0.744 OA
ENDBRANCH  57  60
ENDBRANCH  29  53
BRANCH  41  64
ATOM     64  C   UNL     1      10.565   7.854   8.634  1.00  0.00     0.023 A 
ATOM     65  C   UNL     1      10.136   8.980   9.363  1.00  0.00     0.012 A 
ATOM     66  C   UNL     1      11.911   7.449   8.700  1.00  0.00     0.148 A 
ATOM     67  C   UNL     1      11.046   9.715  10.118  1.00  0.00     0.002 A 
ATOM     68  C   UNL     1      12.798   8.150   9.503  1.00  0.00     0.091 A 
ATOM     69  F   UNL     1      12.297   6.386   7.979  1.00  0.00    -0.205 F 
ATOM     70  C   UNL     1      12.372   9.292  10.200  1.00  0.00     0.022 A 
BRANCH  68  71
ATOM     71  S   UNL     1      14.488   7.602   9.755  1.00  0.00     0.127 S 
ATOM     72  O   UNL     1      15.237   8.569   8.955  1.00  0.00    -0.237 OA
ATOM     73  O   UNL     1      14.649   7.750  11.202  1.00  0.00    -0.237 OA
ATOM     74  O   UNL     1      14.538   6.225   9.283  1.00  0.00    -0.744 OA
ENDBRANCH  68  71
ENDBRANCH  41  64
ENDBRANCH  15  16
ENDBRANCH   8  10
ENDBRANCH   7   8
ENDBRANCH   6   7
ENDBRANCH   5   6
ENDBRANCH   4   5
ENDBRANCH   3   4
ENDBRANCH   2   3
ENDBRANCH   1   2
BRANCH   1  75
ATOM     75  C   UNL     1       4.026   0.429  -3.781  1.00  0.00     0.188 C 
BRANCH  75  76
ATOM     76  C   UNL     1       4.769   1.623  -3.115  1.00  0.00     0.188 C 
BRANCH  76  77
ATOM     77  O   UNL     1       3.916   2.582  -2.510  1.00  0.00    -0.376 OA
BRANCH  77  78
ATOM     78  C   UNL     1       3.785   3.829  -3.182  1.00  0.00     0.202 C 
BRANCH  78  79
ATOM     79  C   UNL     1       3.266   3.801  -4.624  1.00  0.00     0.261 C 
BRANCH  79  80
ATOM     80  O   UNL     1       3.863   2.809  -5.472  1.00  0.00    -0.460 OA
BRANCH  80  81
ATOM     81  C   UNL     1       5.076   3.007  -6.034  1.00  0.00     0.338 C 
ATOM     82  O   UNL     1       5.815   3.963  -5.893  1.00  0.00    -0.246 OA
BRANCH  81  83
ATOM     83  C   UNL     1       5.409   1.744  -6.745  1.00  0.00     0.071 A 
ATOM     84  C   UNL     1       6.481   0.978  -6.248  1.00  0.00     0.016 A 
ATOM     85  C   UNL     1       4.532   1.213  -7.709  1.00  0.00     0.032 A 
ATOM     86  C   UNL     1       6.634  -0.351  -6.650  1.00  0.00     0.001 A 
ATOM     87  C   UNL     1       4.714  -0.123  -8.106  1.00  0.00     0.013 A 
ATOM     88  C   UNL     1       5.745  -0.903  -7.570  1.00  0.00     0.001 A 
BRANCH  85  89
ATOM     89  C   UNL     1       3.400   1.988  -8.208  1.00  0.00     0.135 A 
ATOM     90  C   UNL     1       3.152   3.323  -8.431  1.00  0.00     0.051 A 
ATOM     91  O   UNL     1       2.260   1.288  -8.408  1.00  0.00    -0.457 OA
ATOM     92  C   UNL     1       1.758   3.425  -8.662  1.00  0.00     0.051 A 
ATOM     93  C   UNL     1       1.217   2.143  -8.621  1.00  0.00     0.128 A 
BRANCH  93  94
ATOM     94  C   UNL     1      -0.144   1.762  -8.784  1.00  0.00     0.066 C 
ATOM     95  C   UNL     1      -0.686   0.536  -8.623  1.00  0.00     0.106 C 
ATOM     96  C   UNL     1      -0.023  -0.730  -8.198  1.00  0.00     0.272 C 
ATOM     97  C   UNL     1      -2.110   0.377  -8.929  1.00  0.00     0.228 C 
ATOM     98  O   UNL     1       1.182  -0.815  -7.985  1.00  0.00    -0.268 OA
ATOM     99  N   UNL     1      -0.854  -1.854  -8.149  1.00  0.00    -0.226 N 
ATOM    100  N   UNL     1      -2.783  -0.706  -8.966  1.00  0.00    -0.156 NA
ATOM    101  C   UNL     1      -2.153  -1.889  -8.671  1.00  0.00     0.358 C 
ATOM    102  O   UNL     1      -2.764  -2.939  -8.858  1.00  0.00    -0.245 OA
BRANCH  97 103
ATOM    103  O   UNL     1      -2.784   1.499  -9.217  1.00  0.00    -0.493 OA
ATOM    104  H   UNL     1      -2.344   2.326  -9.206  1.00  0.00     0.295 HD
ENDBRANCH  97 103
BRANCH  99 105
ATOM    105  C   UNL     1      -0.236  -3.067  -7.694  1.00  0.00     0.055 A 
ATOM    106  C   UNL     1      -0.179  -4.204  -8.510  1.00  0.00     0.027 A 
ATOM    107  C   UNL     1       0.425  -3.083  -6.453  1.00  0.00     0.042 A 
ATOM    108  C   UNL     1       0.562  -5.320  -8.112  1.00  0.00     0.003 A 
ATOM    109  C   UNL     1       1.140  -4.209  -6.052  1.00  0.00     0.020 A 
ATOM    110  C   UNL     1       1.222  -5.324  -6.882  1.00  0.00     0.016 A 
ATOM    111  Br  UNL     1       2.026  -4.210  -4.381  1.00  0.00    -0.051 Br
ENDBRANCH  99 105
ENDBRANCH  93  94
ENDBRANCH  85  89
ENDBRANCH  81  83
ENDBRANCH  80  81
ENDBRANCH  79  80
ENDBRANCH  78  79
ENDBRANCH  77  78
ENDBRANCH  76  77
ENDBRANCH  75  76
ENDBRANCH   1  75
TORSDOF 27
