REMARK SMILES C[C@]1(C(=O)OCCOCCOCCOCCOC(=O)c2ccc(-c3c4nc(c(-c5cccc(S(=O)(=O)[O-])c5F)c5ccc([nH]5)c(-c5cccc(S(=O)(=O)[O-])c5F)c5nc(c(-c6cccc(S(=O)(=O)[O-])c6F)c6ccc3[nH]6)C=C5)C=C4)cc2)[NH2+]C2(C(=O)c3ccccc3C2=O)[C@@H]2C(=O)N(c3ccccc3)C(=O)[C@H]21
REMARK SMILES IDX 12 1 11 2 10 3 9 4 8 5 7 6 6 7 5 8 3 9 4 10 2 11 1 12 83 13
REMARK SMILES IDX 107 14 84 15 95 18 105 19 85 20 93 21 96 22 98 23 106 24
REMARK SMILES IDX 86 25 87 26 92 27 94 28 97 29 88 30 91 31 89 32 90 33 99 34
REMARK SMILES IDX 100 35 104 36 101 37 103 38 102 39 13 40 14 41 15 42 16 43
REMARK SMILES IDX 17 44 18 45 19 46 20 47 21 48 82 49 22 50 81 51 23 52 24 53
REMARK SMILES IDX 25 54 75 55 26 56 80 57 74 58 76 59 27 60 79 61 73 62 72 63
REMARK SMILES IDX 28 65 60 66 40 67 59 68 41 69 44 70 58 71 77 72 42 73 43 74
REMARK SMILES IDX 57 76 78 77 45 78 29 79 30 80 38 81 31 82 33 83 39 84 32 85
REMARK SMILES IDX 34 86 35 87 36 88 37 89 61 90 62 91 70 92 63 93 65 94 71 95
REMARK SMILES IDX 64 96 66 97 67 98 68 99 69 100 46 101 47 102 55 103 48 104
REMARK SMILES IDX 50 105 56 106 49 107 51 108 52 109 53 110 54 111
REMARK H PARENT 83 16 83 17 76 64 44 75
REMARK Flexibility Score: inf
ROOT
ATOM      1  C   UNL     1       3.753  -1.703   4.660  1.00  0.00     0.188 C 
ENDROOT
BRANCH   1   2
ATOM      2  O   UNL     1       2.836  -1.250   3.677  1.00  0.00    -0.377 OA
BRANCH   2   3
ATOM      3  C   UNL     1       3.219  -1.312   2.325  1.00  0.00     0.188 C 
BRANCH   3   4
ATOM      4  C   UNL     1       3.878  -0.034   1.792  1.00  0.00     0.188 C 
BRANCH   4   5
ATOM      5  O   UNL     1       4.455   0.914   2.671  1.00  0.00    -0.376 OA
BRANCH   5   6
ATOM      6  C   UNL     1       3.752   1.492   3.762  1.00  0.00     0.202 C 
BRANCH   6   7
ATOM      7  C   UNL     1       2.235   1.743   3.824  1.00  0.00     0.261 C 
BRANCH   7   8
ATOM      8  O   UNL     1       1.378   0.823   3.149  1.00  0.00    -0.459 OA
BRANCH   8   9
ATOM      9  C   UNL     1       0.987   1.173   1.904  1.00  0.00     0.368 C 
ATOM     10  O   UNL     1       1.352   2.200   1.341  1.00  0.00    -0.245 OA
BRANCH   9  11
ATOM     11  C   UNL     1      -0.011   0.164   1.269  1.00  0.00     0.205 C 
ATOM     12  C   UNL     1       0.304   0.112  -0.227  1.00  0.00     0.093 C 
ATOM     13  N   UNL     1       0.019  -1.257   1.830  1.00  0.00    -0.313 N 
ATOM     14  C   UNL     1      -1.414   0.570   1.606  1.00  0.00     0.172 C 
ATOM     15  C   UNL     1      -1.177  -1.444   2.750  1.00  0.00     0.237 C 
ATOM     16  H   UNL     1       0.881  -1.400   2.355  1.00  0.00     0.348 HD
ATOM     17  H   UNL     1      -0.021  -1.932   1.066  1.00  0.00     0.348 HD
ATOM     18  C   UNL     1      -1.556  -0.030   2.997  1.00  0.00     0.177 C 
ATOM     19  C   UNL     1      -1.857   1.968   1.853  1.00  0.00     0.244 C 
ATOM     20  C   UNL     1      -2.209  -2.354   2.078  1.00  0.00     0.232 C 
ATOM     21  C   UNL     1      -0.794  -2.235   4.005  1.00  0.00     0.232 C 
ATOM     22  C   UNL     1      -2.826   0.591   3.425  1.00  0.00     0.245 C 
ATOM     23  N   UNL     1      -2.734   1.890   2.929  1.00  0.00    -0.250 N 
ATOM     24  O   UNL     1      -1.535   2.917   1.160  1.00  0.00    -0.273 OA
ATOM     25  O   UNL     1      -2.774  -2.171   1.013  1.00  0.00    -0.286 OA
ATOM     26  C   UNL     1      -2.319  -3.588   2.854  1.00  0.00     0.036 A 
ATOM     27  C   UNL     1      -1.484  -3.529   3.962  1.00  0.00     0.036 A 
ATOM     28  O   UNL     1      -0.082  -1.893   4.931  1.00  0.00    -0.286 OA
ATOM     29  O   UNL     1      -3.667   0.056   4.128  1.00  0.00    -0.273 OA
ATOM     30  C   UNL     1      -3.085  -4.707   2.573  1.00  0.00     0.013 A 
ATOM     31  C   UNL     1      -1.386  -4.591   4.845  1.00  0.00     0.013 A 
ATOM     32  C   UNL     1      -3.000  -5.787   3.455  1.00  0.00     0.001 A 
ATOM     33  C   UNL     1      -2.157  -5.730   4.582  1.00  0.00     0.001 A 
BRANCH  23  34
ATOM     34  C   UNL     1      -3.294   3.033   3.533  1.00  0.00     0.052 A 
ATOM     35  C   UNL     1      -3.633   4.154   2.763  1.00  0.00     0.027 A 
ATOM     36  C   UNL     1      -3.361   3.121   4.929  1.00  0.00     0.027 A 
ATOM     37  C   UNL     1      -4.022   5.345   3.374  1.00  0.00     0.002 A 
ATOM     38  C   UNL     1      -3.711   4.327   5.539  1.00  0.00     0.002 A 
ATOM     39  C   UNL     1      -4.043   5.436   4.762  1.00  0.00     0.000 A 
ENDBRANCH  23  34
ENDBRANCH   9  11
ENDBRANCH   8   9
ENDBRANCH   7   8
ENDBRANCH   6   7
ENDBRANCH   5   6
ENDBRANCH   4   5
ENDBRANCH   3   4
ENDBRANCH   2   3
ENDBRANCH   1   2
BRANCH   1  40
ATOM     40  C   UNL     1       5.267  -1.658   4.361  1.00  0.00     0.188 C 
BRANCH  40  41
ATOM     41  O   UNL     1       5.634  -2.098   3.060  1.00  0.00    -0.376 OA
BRANCH  41  42
ATOM     42  C   UNL     1       6.058  -3.438   2.874  1.00  0.00     0.202 C 
BRANCH  42  43
ATOM     43  C   UNL     1       5.062  -4.572   3.170  1.00  0.00     0.261 C 
BRANCH  43  44
ATOM     44  O   UNL     1       4.511  -4.622   4.492  1.00  0.00    -0.460 OA
BRANCH  44  45
ATOM     45  C   UNL     1       5.361  -4.699   5.540  1.00  0.00     0.338 C 
ATOM     46  O   UNL     1       6.572  -4.797   5.492  1.00  0.00    -0.246 OA
BRANCH  45  47
ATOM     47  C   UNL     1       4.563  -4.431   6.759  1.00  0.00     0.060 A 
ATOM     48  C   UNL     1       3.419  -5.186   7.029  1.00  0.00     0.016 A 
ATOM     49  C   UNL     1       4.932  -3.378   7.607  1.00  0.00     0.016 A 
ATOM     50  C   UNL     1       2.665  -4.909   8.170  1.00  0.00     0.010 A 
ATOM     51  C   UNL     1       4.168  -3.094   8.742  1.00  0.00     0.010 A 
ATOM     52  C   UNL     1       3.045  -3.876   9.048  1.00  0.00    -0.014 A 
BRANCH  52  53
ATOM     53  C   UNL     1       2.401  -3.777  10.380  1.00  0.00     0.031 A 
ATOM     54  C   UNL     1       1.409  -2.709  10.726  1.00  0.00     0.074 A 
ATOM     55  C   UNL     1       2.760  -4.687  11.307  1.00  0.00     0.049 A 
ATOM     56  N   UNL     1       0.714  -2.575  11.827  1.00  0.00    -0.248 NA
ATOM     57  C   UNL     1       1.168  -1.657   9.729  1.00  0.00     0.031 C 
ATOM     58  C   UNL     1       3.770  -5.729  11.105  1.00  0.00     0.029 A 
ATOM     59  N   UNL     1       2.329  -4.884  12.593  1.00  0.00    -0.354 N 
ATOM     60  C   UNL     1      -0.042  -1.421  11.667  1.00  0.00     0.074 A 
ATOM     61  C   UNL     1       0.290  -0.884  10.363  1.00  0.00     0.031 C 
ATOM     62  C   UNL     1       3.868  -6.466  12.221  1.00  0.00     0.029 A 
ATOM     63  C   UNL     1       2.945  -5.940  13.221  1.00  0.00     0.049 A 
ATOM     64  H   UNL     1       1.644  -4.324  13.025  1.00  0.00     0.167 HD
ATOM     65  C   UNL     1      -0.940  -0.878  12.523  1.00  0.00     0.034 A 
ATOM     66  C   UNL     1       2.788  -6.439  14.461  1.00  0.00     0.034 A 
ATOM     67  C   UNL     1      -1.277  -1.429  13.811  1.00  0.00     0.049 A 
ATOM     68  C   UNL     1       1.769  -5.834  15.378  1.00  0.00     0.074 A 
ATOM     69  C   UNL     1      -2.241  -0.989  14.704  1.00  0.00     0.029 A 
ATOM     70  N   UNL     1      -0.655  -2.517  14.403  1.00  0.00    -0.354 N 
ATOM     71  N   UNL     1       0.952  -4.836  15.147  1.00  0.00    -0.248 NA
ATOM     72  C   UNL     1       1.625  -6.434  16.712  1.00  0.00     0.031 C 
ATOM     73  C   UNL     1      -2.182  -1.792  15.846  1.00  0.00     0.029 A 
ATOM     74  C   UNL     1      -1.202  -2.751  15.654  1.00  0.00     0.049 A 
ATOM     75  H   UNL     1       0.068  -3.045  13.994  1.00  0.00     0.167 HD
ATOM     76  C   UNL     1       0.185  -4.698  16.296  1.00  0.00     0.074 A 
ATOM     77  C   UNL     1       0.624  -5.724  17.219  1.00  0.00     0.031 C 
ATOM     78  C   UNL     1      -0.787  -3.793  16.558  1.00  0.00     0.034 A 
BRANCH  65  79
ATOM     79  C   UNL     1      -1.687   0.355  12.091  1.00  0.00     0.023 A 
ATOM     80  C   UNL     1      -2.763   0.225  11.191  1.00  0.00     0.012 A 
ATOM     81  C   UNL     1      -1.426   1.606  12.685  1.00  0.00     0.148 A 
ATOM     82  C   UNL     1      -3.567   1.322  10.884  1.00  0.00     0.002 A 
ATOM     83  C   UNL     1      -2.247   2.689  12.394  1.00  0.00     0.091 A 
ATOM     84  F   UNL     1      -0.397   1.704  13.539  1.00  0.00    -0.205 F 
ATOM     85  C   UNL     1      -3.317   2.549  11.493  1.00  0.00     0.022 A 
BRANCH  83  86
ATOM     86  S   UNL     1      -2.044   4.302  13.158  1.00  0.00     0.127 S 
ATOM     87  O   UNL     1      -1.704   5.132  12.002  1.00  0.00    -0.237 OA
ATOM     88  O   UNL     1      -3.374   4.548  13.714  1.00  0.00    -0.237 OA
ATOM     89  O   UNL     1      -0.983   4.154  14.143  1.00  0.00    -0.744 OA
ENDBRANCH  83  86
ENDBRANCH  65  79
BRANCH  66  90
ATOM     90  C   UNL     1       3.588  -7.626  14.861  1.00  0.00     0.023 A 
ATOM     91  C   UNL     1       2.978  -8.894  14.883  1.00  0.00     0.012 A 
ATOM     92  C   UNL     1       4.968  -7.513  15.116  1.00  0.00     0.148 A 
ATOM     93  C   UNL     1       3.733 -10.035  15.156  1.00  0.00     0.002 A 
ATOM     94  C   UNL     1       5.720  -8.656  15.350  1.00  0.00     0.091 A 
ATOM     95  F   UNL     1       5.519  -6.292  15.079  1.00  0.00    -0.205 F 
ATOM     96  C   UNL     1       5.104  -9.917  15.378  1.00  0.00     0.022 A 
BRANCH  94  97
ATOM     97  S   UNL     1       7.504  -8.618  15.549  1.00  0.00     0.127 S 
ATOM     98  O   UNL     1       7.663  -9.142  16.904  1.00  0.00    -0.237 OA
ATOM     99  O   UNL     1       7.940  -9.520  14.483  1.00  0.00    -0.237 OA
ATOM    100  O   UNL     1       7.896  -7.228  15.369  1.00  0.00    -0.744 OA
ENDBRANCH  94  97
ENDBRANCH  66  90
BRANCH  78 101
ATOM    101  C   UNL     1      -1.472  -3.853  17.896  1.00  0.00     0.023 A 
ATOM    102  C   UNL     1      -0.822  -3.332  19.031  1.00  0.00     0.012 A 
ATOM    103  C   UNL     1      -2.803  -4.301  18.001  1.00  0.00     0.148 A 
ATOM    104  C   UNL     1      -1.488  -3.259  20.255  1.00  0.00     0.002 A 
ATOM    105  C   UNL     1      -3.471  -4.195  19.215  1.00  0.00     0.091 A 
ATOM    106  F   UNL     1      -3.396  -4.799  16.906  1.00  0.00    -0.205 F 
ATOM    107  C   UNL     1      -2.814  -3.677  20.343  1.00  0.00     0.022 A 
BRANCH 105 108
ATOM    108  S   UNL     1      -5.199  -4.646  19.415  1.00  0.00     0.127 S 
ATOM    109  O   UNL     1      -5.107  -5.764  20.354  1.00  0.00    -0.237 OA
ATOM    110  O   UNL     1      -5.773  -3.423  19.976  1.00  0.00    -0.237 OA
ATOM    111  O   UNL     1      -5.684  -4.995  18.087  1.00  0.00    -0.744 OA
ENDBRANCH 105 108
ENDBRANCH  78 101
ENDBRANCH  52  53
ENDBRANCH  45  47
ENDBRANCH  44  45
ENDBRANCH  43  44
ENDBRANCH  42  43
ENDBRANCH  41  42
ENDBRANCH  40  41
ENDBRANCH   1  40
TORSDOF 24
