REMARK SMILES CC[C@H]1CCCC[N@H+]1[C@@H]1CC(=O)N(c2nc(CC(=O)OCCOCCOCCOCCOC(=O)c3ccc(-c4c5nc(c(-c6cccc(S(=O)(=O)[O-])c6F)c6ccc([nH]6)c(-c6cccc(S(=O)(=O)[O-])c6F)c6nc(c(-c7cccc(S(=O)(=O)[O-])c7F)c7ccc4[nH]7)C=C6)C=C5)cc3)cs2)C1=O
REMARK SMILES IDX 25 1 24 2 23 3 22 4 21 5 20 6 18 7 19 8 17 9 16 10 14 11
REMARK SMILES IDX 15 12 99 13 98 14 13 15 9 16 10 17 100 18 11 19 101 20 12 21
REMARK SMILES IDX 8 22 3 23 4 24 5 25 7 26 6 28 2 29 1 30 26 31 27 32 28 33
REMARK SMILES IDX 29 34 30 35 31 36 32 37 33 38 34 39 35 40 36 41 97 42 37 43
REMARK SMILES IDX 96 44 38 45 39 46 40 47 90 48 41 49 95 50 89 51 91 52 42 53
REMARK SMILES IDX 94 54 88 55 87 56 43 58 75 59 55 60 74 61 56 62 59 63 73 64
REMARK SMILES IDX 92 65 57 66 58 67 72 69 93 70 60 71 44 72 45 73 53 74 46 75
REMARK SMILES IDX 48 76 54 77 47 78 49 79 50 80 51 81 52 82 76 83 77 84 85 85
REMARK SMILES IDX 78 86 80 87 86 88 79 89 81 90 82 91 83 92 84 93 61 94 62 95
REMARK SMILES IDX 70 96 63 97 65 98 71 99 64 100 66 101 67 102 68 103 69 104
REMARK H PARENT 8 27 91 57 59 68
REMARK Flexibility Score: inf
ROOT
ATOM      1  C   UNL     1       0.803   9.567  -2.160  1.00  0.00     0.188 C 
ENDROOT
BRANCH   1   2
ATOM      2  C   UNL     1       1.447  10.868  -2.665  1.00  0.00     0.188 C 
BRANCH   2   3
ATOM      3  O   UNL     1       1.611  11.137  -4.059  1.00  0.00    -0.376 OA
BRANCH   3   4
ATOM      4  C   UNL     1       1.149  10.198  -5.016  1.00  0.00     0.202 C 
BRANCH   4   5
ATOM      5  C   UNL     1       2.080   9.003  -5.268  1.00  0.00     0.261 C 
BRANCH   5   6
ATOM      6  O   UNL     1       2.662   8.395  -4.096  1.00  0.00    -0.463 OA
BRANCH   6   7
ATOM      7  C   UNL     1       3.920   8.783  -3.767  1.00  0.00     0.311 C 
ATOM      8  O   UNL     1       4.566   9.621  -4.393  1.00  0.00    -0.252 OA
BRANCH   7   9
ATOM      9  C   UNL     1       4.539   8.044  -2.598  1.00  0.00     0.179 C 
BRANCH   9  10
ATOM     10  C   UNL     1       3.639   7.469  -1.549  1.00  0.00     0.065 A 
ATOM     11  C   UNL     1       2.611   5.750  -0.580  1.00  0.00     0.199 A 
ATOM     12  N   UNL     1       3.352   6.116  -1.603  1.00  0.00    -0.224 NA
ATOM     13  S   UNL     1       2.163   7.011   0.489  1.00  0.00    -0.104 S 
ATOM     14  C   UNL     1       3.173   8.087  -0.399  1.00  0.00     0.093 A 
BRANCH  11  15
ATOM     15  N   UNL     1       2.450   4.460  -0.151  1.00  0.00    -0.219 N 
ATOM     16  C   UNL     1       1.634   2.463   0.763  1.00  0.00     0.285 C 
ATOM     17  C   UNL     1       3.150   2.392   0.616  1.00  0.00     0.176 C 
ATOM     18  C   UNL     1       1.298   3.909   0.345  1.00  0.00     0.294 C 
ATOM     19  C   UNL     1       3.562   3.693   0.022  1.00  0.00     0.242 C 
ATOM     20  O   UNL     1       0.201   4.442   0.448  1.00  0.00    -0.267 OA
ATOM     21  O   UNL     1       4.742   4.000  -0.105  1.00  0.00    -0.274 OA
BRANCH  16  22
ATOM     22  N   UNL     1       1.075   2.098   2.084  1.00  0.00    -0.322 N 
ATOM     23  C   UNL     1       1.135   0.664   2.456  1.00  0.00     0.184 C 
ATOM     24  C   UNL     1       0.172   0.417   3.642  1.00  0.00     0.065 C 
ATOM     25  C   UNL     1       0.469   1.332   4.826  1.00  0.00     0.012 C 
ATOM     26  C   UNL     1       1.355   3.027   3.180  1.00  0.00     0.263 C 
ATOM     27  H   UNL     1       0.081   2.239   1.908  1.00  0.00     0.349 HD
ATOM     28  C   UNL     1       0.426   2.782   4.372  1.00  0.00     0.062 C 
BRANCH  23  29
ATOM     29  C   UNL     1       2.536   0.096   2.814  1.00  0.00     0.061 C 
ATOM     30  C   UNL     1       3.252  -0.585   1.652  1.00  0.00     0.010 C 
ENDBRANCH  23  29
ENDBRANCH  16  22
ENDBRANCH  11  15
ENDBRANCH   9  10
ENDBRANCH   7   9
ENDBRANCH   6   7
ENDBRANCH   5   6
ENDBRANCH   4   5
ENDBRANCH   3   4
ENDBRANCH   2   3
ENDBRANCH   1   2
BRANCH   1  31
ATOM     31  O   UNL     1      -0.277   9.116  -2.950  1.00  0.00    -0.377 OA
BRANCH  31  32
ATOM     32  C   UNL     1      -1.556   9.224  -2.360  1.00  0.00     0.188 C 
BRANCH  32  33
ATOM     33  C   UNL     1      -1.942  10.664  -2.013  1.00  0.00     0.188 C 
BRANCH  33  34
ATOM     34  O   UNL     1      -1.175  11.186  -0.922  1.00  0.00    -0.376 OA
BRANCH  34  35
ATOM     35  C   UNL     1      -1.827  11.198   0.346  1.00  0.00     0.202 C 
BRANCH  35  36
ATOM     36  C   UNL     1      -1.782   9.861   1.103  1.00  0.00     0.261 C 
BRANCH  36  37
ATOM     37  O   UNL     1      -2.508   8.772   0.512  1.00  0.00    -0.460 OA
BRANCH  37  38
ATOM     38  C   UNL     1      -3.809   8.956   0.207  1.00  0.00     0.338 C 
ATOM     39  O   UNL     1      -4.489   9.940   0.448  1.00  0.00    -0.246 OA
BRANCH  38  40
ATOM     40  C   UNL     1      -4.236   7.843  -0.665  1.00  0.00     0.060 A 
ATOM     41  C   UNL     1      -4.833   8.146  -1.897  1.00  0.00     0.016 A 
ATOM     42  C   UNL     1      -4.047   6.515  -0.276  1.00  0.00     0.016 A 
ATOM     43  C   UNL     1      -5.286   7.119  -2.724  1.00  0.00     0.010 A 
ATOM     44  C   UNL     1      -4.526   5.489  -1.091  1.00  0.00     0.010 A 
ATOM     45  C   UNL     1      -5.183   5.789  -2.298  1.00  0.00    -0.014 A 
BRANCH  45  46
ATOM     46  C   UNL     1      -5.976   4.733  -2.969  1.00  0.00     0.031 A 
ATOM     47  C   UNL     1      -7.352   4.448  -2.431  1.00  0.00     0.074 A 
ATOM     48  C   UNL     1      -5.480   4.015  -3.991  1.00  0.00     0.049 A 
ATOM     49  N   UNL     1      -8.210   3.530  -2.787  1.00  0.00    -0.248 NA
ATOM     50  C   UNL     1      -7.819   5.316  -1.335  1.00  0.00     0.031 C 
ATOM     51  C   UNL     1      -4.164   4.202  -4.598  1.00  0.00     0.029 A 
ATOM     52  N   UNL     1      -6.023   2.957  -4.676  1.00  0.00    -0.354 N 
ATOM     53  C   UNL     1      -9.303   3.692  -1.944  1.00  0.00     0.074 A 
ATOM     54  C   UNL     1      -9.000   4.790  -1.055  1.00  0.00     0.031 C 
ATOM     55  C   UNL     1      -3.986   3.261  -5.544  1.00  0.00     0.029 A 
ATOM     56  C   UNL     1      -5.164   2.395  -5.590  1.00  0.00     0.049 A 
ATOM     57  H   UNL     1      -6.940   2.631  -4.526  1.00  0.00     0.167 HD
ATOM     58  C   UNL     1     -10.462   2.995  -1.917  1.00  0.00     0.034 A 
ATOM     59  C   UNL     1      -5.309   1.295  -6.356  1.00  0.00     0.034 A 
ATOM     60  C   UNL     1     -10.762   1.905  -2.801  1.00  0.00     0.049 A 
ATOM     61  C   UNL     1      -6.600   0.516  -6.291  1.00  0.00     0.074 A 
ATOM     62  C   UNL     1     -11.919   1.151  -2.875  1.00  0.00     0.029 A 
ATOM     63  N   UNL     1      -9.892   1.403  -3.756  1.00  0.00    -0.354 N 
ATOM     64  N   UNL     1      -7.673   0.753  -5.574  1.00  0.00    -0.248 NA
ATOM     65  C   UNL     1      -6.713  -0.664  -7.161  1.00  0.00     0.031 C 
ATOM     66  C   UNL     1     -11.740   0.179  -3.865  1.00  0.00     0.029 A 
ATOM     67  C   UNL     1     -10.481   0.345  -4.422  1.00  0.00     0.049 A 
ATOM     68  H   UNL     1      -8.987   1.750  -3.933  1.00  0.00     0.167 HD
ATOM     69  C   UNL     1      -8.601  -0.218  -5.939  1.00  0.00     0.074 A 
ATOM     70  C   UNL     1      -7.967  -1.042  -6.947  1.00  0.00     0.031 C 
ATOM     71  C   UNL     1      -9.859  -0.419  -5.473  1.00  0.00     0.034 A 
BRANCH  58  72
ATOM     72  C   UNL     1     -11.496   3.413  -0.908  1.00  0.00     0.023 A 
ATOM     73  C   UNL     1     -12.220   4.605  -1.110  1.00  0.00     0.012 A 
ATOM     74  C   UNL     1     -11.769   2.619   0.222  1.00  0.00     0.148 A 
ATOM     75  C   UNL     1     -13.178   5.019  -0.186  1.00  0.00     0.002 A 
ATOM     76  C   UNL     1     -12.755   3.017   1.117  1.00  0.00     0.091 A 
ATOM     77  F   UNL     1     -11.048   1.505   0.411  1.00  0.00    -0.205 F 
ATOM     78  C   UNL     1     -13.452   4.220   0.921  1.00  0.00     0.022 A 
BRANCH  76  79
ATOM     79  S   UNL     1     -13.226   2.021   2.535  1.00  0.00     0.127 S 
ATOM     80  O   UNL     1     -12.636   2.778   3.638  1.00  0.00    -0.237 OA
ATOM     81  O   UNL     1     -14.688   2.070   2.476  1.00  0.00    -0.237 OA
ATOM     82  O   UNL     1     -12.656   0.701   2.304  1.00  0.00    -0.744 OA
ENDBRANCH  76  79
ENDBRANCH  58  72
BRANCH  59  83
ATOM     83  C   UNL     1      -4.218   0.881  -7.285  1.00  0.00     0.023 A 
ATOM     84  C   UNL     1      -4.411   1.001  -8.675  1.00  0.00     0.012 A 
ATOM     85  C   UNL     1      -2.992   0.382  -6.803  1.00  0.00     0.148 A 
ATOM     86  C   UNL     1      -3.415   0.606  -9.569  1.00  0.00     0.002 A 
ATOM     87  C   UNL     1      -1.985   0.037  -7.697  1.00  0.00     0.091 A 
ATOM     88  F   UNL     1      -2.834   0.256  -5.478  1.00  0.00    -0.205 F 
ATOM     89  C   UNL     1      -2.200   0.133  -9.081  1.00  0.00     0.022 A 
BRANCH  87  90
ATOM     90  S   UNL     1      -0.348  -0.473  -7.159  1.00  0.00     0.127 S 
ATOM     91  O   UNL     1      -0.346  -1.892  -7.508  1.00  0.00    -0.237 OA
ATOM     92  O   UNL     1       0.518   0.367  -7.986  1.00  0.00    -0.237 OA
ATOM     93  O   UNL     1      -0.291  -0.174  -5.734  1.00  0.00    -0.744 OA
ENDBRANCH  87  90
ENDBRANCH  59  83
BRANCH  71  94
ATOM     94  C   UNL     1     -10.668  -1.538  -6.076  1.00  0.00     0.023 A 
ATOM     95  C   UNL     1     -10.383  -2.873  -5.731  1.00  0.00     0.012 A 
ATOM     96  C   UNL     1     -11.779  -1.254  -6.895  1.00  0.00     0.148 A 
ATOM     97  C   UNL     1     -11.181  -3.912  -6.211  1.00  0.00     0.002 A 
ATOM     98  C   UNL     1     -12.596  -2.290  -7.330  1.00  0.00     0.091 A 
ATOM     99  F   UNL     1     -12.022   0.023  -7.224  1.00  0.00    -0.205 F 
ATOM    100  C   UNL     1     -12.293  -3.620  -6.998  1.00  0.00     0.022 A 
BRANCH  98 101
ATOM    101  S   UNL     1     -14.105  -1.998  -8.262  1.00  0.00     0.127 S 
ATOM    102  O   UNL     1     -13.717  -2.434  -9.602  1.00  0.00    -0.237 OA
ATOM    103  O   UNL     1     -15.063  -2.875  -7.588  1.00  0.00    -0.237 OA
ATOM    104  O   UNL     1     -14.390  -0.576  -8.125  1.00  0.00    -0.744 OA
ENDBRANCH  98 101
ENDBRANCH  71  94
ENDBRANCH  45  46
ENDBRANCH  38  40
ENDBRANCH  37  38
ENDBRANCH  36  37
ENDBRANCH  35  36
ENDBRANCH  34  35
ENDBRANCH  33  34
ENDBRANCH  32  33
ENDBRANCH  31  32
ENDBRANCH   1  31
TORSDOF 27
