REMARK SMILES COc1cc(/C=C2/S/C(=[NH+]\C(C)=O)NC2=O)cc(Br)c1OCC(=O)OCCOCCOCCOCCOC(=O)c1ccc(-c2c3nc(c(-c4cccc(S(=O)(=O)[O-])c4F)c4ccc([nH]4)c(-c4cccc(S(=O)(=O)[O-])c4F)c4nc(c(-c5cccc(S(=O)(=O)[O-])c5F)c5ccc2[nH]5)C=C4)C=C3)cc1
REMARK SMILES IDX 31 1 30 2 29 3 28 4 27 5 26 6 25 7 23 8 24 9 22 10 21 11
REMARK SMILES IDX 20 12 3 13 4 14 5 15 18 16 17 17 19 18 2 19 1 20 6 21 7 22
REMARK SMILES IDX 8 23 15 24 9 25 14 26 16 27 10 28 11 30 12 32 13 33 32 34
REMARK SMILES IDX 33 35 34 36 35 37 36 38 37 39 38 40 39 41 40 42 41 43 102 44
REMARK SMILES IDX 42 45 101 46 43 47 44 48 45 49 95 50 46 51 100 52 94 53
REMARK SMILES IDX 96 54 47 55 99 56 93 57 92 58 48 60 80 61 60 62 79 63 61 64
REMARK SMILES IDX 64 65 78 66 97 67 62 68 63 69 77 71 98 72 65 73 49 74 50 75
REMARK SMILES IDX 58 76 51 77 53 78 59 79 52 80 54 81 55 82 56 83 57 84 81 85
REMARK SMILES IDX 82 86 90 87 83 88 85 89 91 90 84 91 86 92 87 93 88 94 89 95
REMARK SMILES IDX 66 96 67 97 75 98 68 99 70 100 76 101 69 102 71 103 72 104
REMARK SMILES IDX 73 105 74 106
REMARK H PARENT 14 29 10 31 96 59 64 70
REMARK Flexibility Score: inf
ROOT
ATOM      1  O   UNL     1      -1.871   4.737  -0.174  1.00  0.00    -0.377 OA
ENDROOT
BRANCH   1   2
ATOM      2  C   UNL     1      -1.510   4.021  -1.335  1.00  0.00     0.188 C 
BRANCH   2   3
ATOM      3  C   UNL     1      -1.564   4.865  -2.653  1.00  0.00     0.188 C 
BRANCH   3   4
ATOM      4  O   UNL     1      -2.632   5.762  -2.929  1.00  0.00    -0.376 OA
BRANCH   4   5
ATOM      5  C   UNL     1      -3.689   5.784  -2.001  1.00  0.00     0.202 C 
BRANCH   5   6
ATOM      6  C   UNL     1      -4.564   4.514  -2.017  1.00  0.00     0.261 C 
BRANCH   6   7
ATOM      7  O   UNL     1      -3.903   3.258  -2.372  1.00  0.00    -0.461 OA
BRANCH   7   8
ATOM      8  C   UNL     1      -3.606   2.974  -3.674  1.00  0.00     0.344 C 
ATOM      9  O   UNL     1      -4.100   3.574  -4.623  1.00  0.00    -0.248 OA
BRANCH   8  10
ATOM     10  C   UNL     1      -2.570   1.765  -3.851  1.00  0.00     0.352 C 
BRANCH  10  11
ATOM     11  O   UNL     1      -1.312   1.513  -3.215  1.00  0.00    -0.477 OA
BRANCH  11  12
ATOM     12  C   UNL     1      -0.008   1.791  -3.572  1.00  0.00     0.176 A 
ATOM     13  C   UNL     1       0.972   1.212  -2.716  1.00  0.00     0.162 A 
ATOM     14  C   UNL     1       2.346   1.631  -2.712  1.00  0.00     0.058 A 
ATOM     15  C   UNL     1       2.803   2.694  -3.515  1.00  0.00    -0.019 A 
ATOM     16  C   UNL     1       0.512   2.650  -4.547  1.00  0.00     0.064 A 
ATOM     17  C   UNL     1       1.882   3.112  -4.495  1.00  0.00     0.028 A 
ATOM     18  Br  UNL     1      -0.493   3.265  -6.038  1.00  0.00    -0.047 Br
BRANCH  13  19
ATOM     19  O   UNL     1       0.550   0.135  -1.961  1.00  0.00    -0.493 OA
ATOM     20  C   UNL     1       0.906   0.147  -0.581  1.00  0.00     0.278 C 
ENDBRANCH  13  19
BRANCH  15  21
ATOM     21  C   UNL     1       4.211   3.276  -3.383  1.00  0.00     0.032 C 
ATOM     22  C   UNL     1       4.741   4.455  -2.936  1.00  0.00     0.110 C 
ATOM     23  S   UNL     1       6.468   4.887  -3.013  1.00  0.00     0.007 SA
ATOM     24  C   UNL     1       4.194   5.710  -2.321  1.00  0.00     0.346 C 
ATOM     25  C   UNL     1       6.141   6.592  -2.720  1.00  0.00     0.324 C 
ATOM     26  N   UNL     1       4.816   6.798  -2.806  1.00  0.00    -0.199 N 
ATOM     27  O   UNL     1       3.654   5.812  -1.231  1.00  0.00    -0.240 OA
ATOM     28  N   UNL     1       6.785   7.622  -2.318  1.00  0.00    -0.204 N 
ATOM     29  H   UNL     1       4.377   7.604  -3.163  1.00  0.00     0.316 HD
ATOM     30  C   UNL     1       8.030   7.697  -1.775  1.00  0.00     0.304 C 
ATOM     31  H   UNL     1       6.314   8.481  -2.417  1.00  0.00     0.316 HD
ATOM     32  C   UNL     1       9.159   6.903  -2.342  1.00  0.00     0.144 C 
ATOM     33  O   UNL     1       8.267   8.519  -0.890  1.00  0.00    -0.247 OA
ENDBRANCH  15  21
ENDBRANCH  11  12
ENDBRANCH  10  11
ENDBRANCH   8  10
ENDBRANCH   7   8
ENDBRANCH   6   7
ENDBRANCH   5   6
ENDBRANCH   4   5
ENDBRANCH   3   4
ENDBRANCH   2   3
ENDBRANCH   1   2
BRANCH   1  34
ATOM     34  C   UNL     1      -0.770   5.151   0.609  1.00  0.00     0.188 C 
BRANCH  34  35
ATOM     35  C   UNL     1       0.094   6.229  -0.055  1.00  0.00     0.188 C 
BRANCH  35  36
ATOM     36  O   UNL     1       0.734   5.978  -1.294  1.00  0.00    -0.376 OA
BRANCH  36  37
ATOM     37  C   UNL     1       1.382   4.763  -1.611  1.00  0.00     0.202 C 
BRANCH  37  38
ATOM     38  C   UNL     1       2.043   3.873  -0.561  1.00  0.00     0.261 C 
BRANCH  38  39
ATOM     39  O   UNL     1       2.012   4.479   0.704  1.00  0.00    -0.460 OA
BRANCH  39  40
ATOM     40  C   UNL     1       3.081   4.362   1.490  1.00  0.00     0.338 C 
ATOM     41  O   UNL     1       4.212   3.972   1.225  1.00  0.00    -0.246 OA
BRANCH  40  42
ATOM     42  C   UNL     1       2.428   4.398   2.789  1.00  0.00     0.060 A 
ATOM     43  C   UNL     1       1.688   5.524   3.184  1.00  0.00     0.016 A 
ATOM     44  C   UNL     1       2.350   3.180   3.465  1.00  0.00     0.016 A 
ATOM     45  C   UNL     1       0.894   5.443   4.312  1.00  0.00     0.010 A 
ATOM     46  C   UNL     1       1.556   3.099   4.589  1.00  0.00     0.010 A 
ATOM     47  C   UNL     1       0.874   4.245   5.032  1.00  0.00    -0.014 A 
BRANCH  47  48
ATOM     48  C   UNL     1       0.372   4.255   6.407  1.00  0.00     0.031 A 
ATOM     49  C   UNL     1       1.398   4.394   7.489  1.00  0.00     0.074 A 
ATOM     50  C   UNL     1      -0.938   4.109   6.646  1.00  0.00     0.049 A 
ATOM     51  N   UNL     1       1.246   4.344   8.780  1.00  0.00    -0.248 NA
ATOM     52  C   UNL     1       2.795   4.596   7.053  1.00  0.00     0.031 C 
ATOM     53  C   UNL     1      -1.975   3.969   5.623  1.00  0.00     0.029 A 
ATOM     54  N   UNL     1      -1.609   4.020   7.831  1.00  0.00    -0.354 N 
ATOM     55  C   UNL     1       2.524   4.469   9.307  1.00  0.00     0.074 A 
ATOM     56  C   UNL     1       3.446   4.579   8.203  1.00  0.00     0.031 C 
ATOM     57  C   UNL     1      -3.158   3.778   6.231  1.00  0.00     0.029 A 
ATOM     58  C   UNL     1      -2.946   3.751   7.675  1.00  0.00     0.049 A 
ATOM     59  H   UNL     1      -1.179   4.137   8.708  1.00  0.00     0.167 HD
ATOM     60  C   UNL     1       2.886   4.497  10.607  1.00  0.00     0.034 A 
ATOM     61  C   UNL     1      -3.873   3.484   8.612  1.00  0.00     0.034 A 
ATOM     62  C   UNL     1       1.935   4.383  11.675  1.00  0.00     0.049 A 
ATOM     63  C   UNL     1      -3.442   3.510  10.054  1.00  0.00     0.074 A 
ATOM     64  C   UNL     1       2.156   4.437  13.036  1.00  0.00     0.029 A 
ATOM     65  N   UNL     1       0.575   4.170  11.491  1.00  0.00    -0.354 N 
ATOM     66  N   UNL     1      -2.248   3.733  10.554  1.00  0.00    -0.248 NA
ATOM     67  C   UNL     1      -4.485   3.285  11.060  1.00  0.00     0.031 C 
ATOM     68  C   UNL     1       0.933   4.214  13.676  1.00  0.00     0.029 A 
ATOM     69  C   UNL     1      -0.058   4.075  12.713  1.00  0.00     0.049 A 
ATOM     70  H   UNL     1       0.128   4.098  10.616  1.00  0.00     0.167 HD
ATOM     71  C   UNL     1      -2.401   3.714  11.934  1.00  0.00     0.074 A 
ATOM     72  C   UNL     1      -3.810   3.475  12.186  1.00  0.00     0.031 C 
ATOM     73  C   UNL     1      -1.472   3.872  12.910  1.00  0.00     0.034 A 
BRANCH  60  74
ATOM     74  C   UNL     1       4.348   4.647  10.923  1.00  0.00     0.023 A 
ATOM     75  C   UNL     1       5.013   5.861  10.648  1.00  0.00     0.012 A 
ATOM     76  C   UNL     1       5.065   3.586  11.507  1.00  0.00     0.148 A 
ATOM     77  C   UNL     1       6.374   6.003  10.917  1.00  0.00     0.002 A 
ATOM     78  C   UNL     1       6.408   3.753  11.821  1.00  0.00     0.091 A 
ATOM     79  F   UNL     1       4.426   2.429  11.727  1.00  0.00    -0.205 F 
ATOM     80  C   UNL     1       7.067   4.954  11.514  1.00  0.00     0.022 A 
BRANCH  78  81
ATOM     81  S   UNL     1       7.370   2.490  12.660  1.00  0.00     0.127 S 
ATOM     82  O   UNL     1       8.336   2.119  11.627  1.00  0.00    -0.237 OA
ATOM     83  O   UNL     1       7.935   3.236  13.784  1.00  0.00    -0.237 OA
ATOM     84  O   UNL     1       6.428   1.444  13.033  1.00  0.00    -0.744 OA
ENDBRANCH  78  81
ENDBRANCH  60  74
BRANCH  61  85
ATOM     85  C   UNL     1      -5.279   3.206   8.213  1.00  0.00     0.023 A 
ATOM     86  C   UNL     1      -6.288   4.139   8.519  1.00  0.00     0.012 A 
ATOM     87  C   UNL     1      -5.615   2.041   7.495  1.00  0.00     0.148 A 
ATOM     88  C   UNL     1      -7.612   3.902   8.146  1.00  0.00     0.002 A 
ATOM     89  C   UNL     1      -6.925   1.837   7.080  1.00  0.00     0.091 A 
ATOM     90  F   UNL     1      -4.641   1.164   7.217  1.00  0.00    -0.205 F 
ATOM     91  C   UNL     1      -7.929   2.757   7.420  1.00  0.00     0.022 A 
BRANCH  89  92
ATOM     92  S   UNL     1      -7.402   0.457   6.033  1.00  0.00     0.127 S 
ATOM     93  O   UNL     1      -8.226  -0.336   6.941  1.00  0.00    -0.237 OA
ATOM     94  O   UNL     1      -8.136   1.132   4.962  1.00  0.00    -0.237 OA
ATOM     95  O   UNL     1      -6.155  -0.165   5.607  1.00  0.00    -0.744 OA
ENDBRANCH  89  92
ENDBRANCH  61  85
BRANCH  73  96
ATOM     96  C   UNL     1      -1.960   3.841  14.331  1.00  0.00     0.023 A 
ATOM     97  C   UNL     1      -2.377   2.626  14.909  1.00  0.00     0.012 A 
ATOM     98  C   UNL     1      -1.927   5.011  15.114  1.00  0.00     0.148 A 
ATOM     99  C   UNL     1      -2.796   2.587  16.237  1.00  0.00     0.002 A 
ATOM    100  C   UNL     1      -2.288   4.951  16.451  1.00  0.00     0.091 A 
ATOM    101  F   UNL     1      -1.538   6.157  14.535  1.00  0.00    -0.205 F 
ATOM    102  C   UNL     1      -2.739   3.745  17.011  1.00  0.00     0.022 A 
BRANCH 100 103
ATOM    103  S   UNL     1      -2.140   6.364  17.549  1.00  0.00     0.127 S 
ATOM    104  O   UNL     1      -3.543   6.694  17.797  1.00  0.00    -0.237 OA
ATOM    105  O   UNL     1      -1.436   5.790  18.695  1.00  0.00    -0.237 OA
ATOM    106  O   UNL     1      -1.384   7.369  16.814  1.00  0.00    -0.744 OA
ENDBRANCH 100 103
ENDBRANCH  73  96
ENDBRANCH  47  48
ENDBRANCH  40  42
ENDBRANCH  39  40
ENDBRANCH  38  39
ENDBRANCH  37  38
ENDBRANCH  36  37
ENDBRANCH  35  36
ENDBRANCH  34  35
ENDBRANCH   1  34
TORSDOF 27
