REMARK SMILES CCc1ccnc(C(=O)c2[nH]c3ccc(OC(F)(F)F)cc3c2CC(=O)OCCOCCOCCOCCOC(=O)c2ccc(-c3c4nc(c(-c5cccc(S(=O)(=O)[O-])c5F)c5ccc([nH]5)c(-c5cccc(S(=O)(=O)[O-])c5F)c5nc(c(-c6cccc(S(=O)(=O)[O-])c6F)c6ccc3[nH]6)C=C5)C=C4)cc2)c1
REMARK SMILES IDX 32 1 31 2 30 3 29 4 28 5 27 6 25 7 26 8 24 9 23 10 10 11
REMARK SMILES IDX 11 12 12 13 22 15 13 16 21 17 14 18 15 19 8 20 9 21 7 22
REMARK SMILES IDX 3 23 4 24 105 25 5 26 6 27 2 28 1 29 16 30 17 31 18 32 19 33
REMARK SMILES IDX 20 34 33 35 34 36 35 37 36 38 37 39 38 40 39 41 40 42 41 43
REMARK SMILES IDX 42 44 43 45 104 46 44 47 103 48 45 49 46 50 47 51 97 52
REMARK SMILES IDX 48 53 102 54 96 55 98 56 49 57 101 58 95 59 94 60 50 62
REMARK SMILES IDX 82 63 62 64 81 65 63 66 66 67 80 68 99 69 64 70 65 71 79 73
REMARK SMILES IDX 100 74 67 75 51 76 52 77 60 78 53 79 55 80 61 81 54 82 56 83
REMARK SMILES IDX 57 84 58 85 59 86 83 87 84 88 92 89 85 90 87 91 93 92 86 93
REMARK SMILES IDX 88 94 89 95 90 96 91 97 68 98 69 99 77 100 70 101 72 102
REMARK SMILES IDX 78 103 71 104 73 105 74 106 75 107 76 108
REMARK H PARENT 11 14 98 61 66 72
REMARK Flexibility Score: inf
ROOT
ATOM      1  C   UNL     1       0.022   8.271   0.580  1.00  0.00     0.188 C 
ENDROOT
BRANCH   1   2
ATOM      2  C   UNL     1      -0.309   9.290  -0.509  1.00  0.00     0.188 C 
BRANCH   2   3
ATOM      3  O   UNL     1      -0.233  10.661  -0.181  1.00  0.00    -0.376 OA
BRANCH   3   4
ATOM      4  C   UNL     1      -1.068  11.121   0.880  1.00  0.00     0.202 C 
BRANCH   4   5
ATOM      5  C   UNL     1      -2.518  10.602   1.001  1.00  0.00     0.261 C 
BRANCH   5   6
ATOM      6  O   UNL     1      -2.665   9.183   1.288  1.00  0.00    -0.463 OA
BRANCH   6   7
ATOM      7  C   UNL     1      -3.534   8.494   0.509  1.00  0.00     0.310 C 
ATOM      8  O   UNL     1      -4.189   9.027  -0.390  1.00  0.00    -0.252 OA
BRANCH   7   9
ATOM      9  C   UNL     1      -3.685   7.001   0.745  1.00  0.00     0.161 C 
BRANCH   9  10
ATOM     10  C   UNL     1      -2.945   6.257   1.837  1.00  0.00     0.000 A 
ATOM     11  C   UNL     1      -1.786   5.468   1.721  1.00  0.00     0.093 A 
ATOM     12  N   UNL     1      -1.467   5.072   3.006  1.00  0.00    -0.352 N 
ATOM     13  C   UNL     1      -2.579   5.154   3.809  1.00  0.00     0.046 A 
ATOM     14  H   UNL     1      -0.576   4.774   3.301  1.00  0.00     0.167 HD
ATOM     15  C   UNL     1      -3.513   5.915   3.114  1.00  0.00     0.008 A 
ATOM     16  C   UNL     1      -2.836   4.609   5.074  1.00  0.00     0.030 A 
ATOM     17  C   UNL     1      -4.782   6.106   3.699  1.00  0.00     0.057 A 
ATOM     18  C   UNL     1      -4.126   4.768   5.604  1.00  0.00     0.049 A 
ATOM     19  C   UNL     1      -5.103   5.485   4.915  1.00  0.00     0.130 A 
BRANCH  11  20
ATOM     20  C   UNL     1      -1.053   5.120   0.503  1.00  0.00     0.227 C 
ATOM     21  O   UNL     1      -1.375   5.544  -0.609  1.00  0.00    -0.285 OA
BRANCH  20  22
ATOM     22  C   UNL     1       0.088   4.161   0.512  1.00  0.00     0.113 A 
ATOM     23  C   UNL     1       0.875   1.900   0.673  1.00  0.00    -0.044 A 
ATOM     24  C   UNL     1       2.014   2.299  -0.035  1.00  0.00     0.024 A 
ATOM     25  C   UNL     1      -0.092   2.867   0.983  1.00  0.00     0.036 A 
ATOM     26  C   UNL     1       2.124   3.620  -0.435  1.00  0.00     0.112 A 
ATOM     27  N   UNL     1       1.188   4.555  -0.181  1.00  0.00    -0.253 NA
BRANCH  23  28
ATOM     28  C   UNL     1       0.642   0.464   1.075  1.00  0.00     0.032 C 
ATOM     29  C   UNL     1       1.033  -0.556   0.011  1.00  0.00     0.009 C 
ENDBRANCH  23  28
ENDBRANCH  20  22
ENDBRANCH  11  20
BRANCH  19  30
ATOM     30  O   UNL     1      -6.407   5.649   5.290  1.00  0.00    -0.406 OA
BRANCH  30  31
ATOM     31  C   UNL     1      -6.899   4.851   6.351  1.00  0.00     0.573 C 
ATOM     32  F   UNL     1      -6.673   3.536   6.125  1.00  0.00    -0.132 F 
ATOM     33  F   UNL     1      -6.344   5.203   7.528  1.00  0.00    -0.132 F 
ATOM     34  F   UNL     1      -8.238   5.024   6.440  1.00  0.00    -0.132 F 
ENDBRANCH  30  31
ENDBRANCH  19  30
ENDBRANCH   9  10
ENDBRANCH   7   9
ENDBRANCH   6   7
ENDBRANCH   5   6
ENDBRANCH   4   5
ENDBRANCH   3   4
ENDBRANCH   2   3
ENDBRANCH   1   2
BRANCH   1  35
ATOM     35  O   UNL     1      -0.170   8.629   1.936  1.00  0.00    -0.377 OA
BRANCH  35  36
ATOM     36  C   UNL     1       0.936   9.013   2.740  1.00  0.00     0.188 C 
BRANCH  36  37
ATOM     37  C   UNL     1       2.296   9.157   2.061  1.00  0.00     0.188 C 
BRANCH  37  38
ATOM     38  O   UNL     1       2.942   7.980   1.567  1.00  0.00    -0.376 OA
BRANCH  38  39
ATOM     39  C   UNL     1       2.569   6.703   2.078  1.00  0.00     0.202 C 
BRANCH  39  40
ATOM     40  C   UNL     1       3.377   6.231   3.280  1.00  0.00     0.261 C 
BRANCH  40  41
ATOM     41  O   UNL     1       3.013   6.967   4.451  1.00  0.00    -0.460 OA
BRANCH  41  42
ATOM     42  C   UNL     1       3.822   8.015   4.721  1.00  0.00     0.338 C 
ATOM     43  O   UNL     1       4.862   8.314   4.151  1.00  0.00    -0.246 OA
BRANCH  42  44
ATOM     44  C   UNL     1       3.181   8.876   5.724  1.00  0.00     0.060 A 
ATOM     45  C   UNL     1       3.255  10.261   5.529  1.00  0.00     0.016 A 
ATOM     46  C   UNL     1       2.578   8.341   6.867  1.00  0.00     0.016 A 
ATOM     47  C   UNL     1       2.797  11.121   6.515  1.00  0.00     0.010 A 
ATOM     48  C   UNL     1       2.131   9.205   7.863  1.00  0.00     0.010 A 
ATOM     49  C   UNL     1       2.298  10.592   7.709  1.00  0.00    -0.014 A 
BRANCH  49  50
ATOM     50  C   UNL     1       2.192  11.484   8.879  1.00  0.00     0.031 A 
ATOM     51  C   UNL     1       3.321  11.481   9.871  1.00  0.00     0.074 A 
ATOM     52  C   UNL     1       1.141  12.306   9.018  1.00  0.00     0.049 A 
ATOM     53  N   UNL     1       3.457  12.168  10.972  1.00  0.00    -0.248 NA
ATOM     54  C   UNL     1       4.451  10.578   9.583  1.00  0.00     0.031 C 
ATOM     55  C   UNL     1       0.015  12.400   8.090  1.00  0.00     0.029 A 
ATOM     56  N   UNL     1       0.847  13.207  10.005  1.00  0.00    -0.354 N 
ATOM     57  C   UNL     1       4.666  11.760  11.523  1.00  0.00     0.074 A 
ATOM     58  C   UNL     1       5.221  10.755  10.645  1.00  0.00     0.031 C 
ATOM     59  C   UNL     1      -0.867  13.294   8.569  1.00  0.00     0.029 A 
ATOM     60  C   UNL     1      -0.377  13.808   9.846  1.00  0.00     0.049 A 
ATOM     61  H   UNL     1       1.453  13.404  10.755  1.00  0.00     0.167 HD
ATOM     62  C   UNL     1       5.265  12.195  12.655  1.00  0.00     0.034 A 
ATOM     63  C   UNL     1      -1.032  14.657  10.660  1.00  0.00     0.034 A 
ATOM     64  C   UNL     1       4.702  13.203  13.509  1.00  0.00     0.049 A 
ATOM     65  C   UNL     1      -0.362  15.097  11.934  1.00  0.00     0.074 A 
ATOM     66  C   UNL     1       5.233  13.747  14.664  1.00  0.00     0.029 A 
ATOM     67  N   UNL     1       3.470  13.808  13.308  1.00  0.00    -0.354 N 
ATOM     68  N   UNL     1       0.820  14.772  12.401  1.00  0.00    -0.248 NA
ATOM     69  C   UNL     1      -1.100  16.047  12.777  1.00  0.00     0.031 C 
ATOM     70  C   UNL     1       4.300  14.650  15.185  1.00  0.00     0.029 A 
ATOM     71  C   UNL     1       3.213  14.708  14.326  1.00  0.00     0.049 A 
ATOM     72  H   UNL     1       2.867  13.623  12.552  1.00  0.00     0.167 HD
ATOM     73  C   UNL     1       0.987  15.509  13.568  1.00  0.00     0.074 A 
ATOM     74  C   UNL     1      -0.213  16.307  13.728  1.00  0.00     0.031 C 
ATOM     75  C   UNL     1       2.030  15.523  14.435  1.00  0.00     0.034 A 
BRANCH  62  76
ATOM     76  C   UNL     1       6.587  11.580  13.030  1.00  0.00     0.023 A 
ATOM     77  C   UNL     1       7.741  11.863  12.270  1.00  0.00     0.012 A 
ATOM     78  C   UNL     1       6.692  10.746  14.160  1.00  0.00     0.148 A 
ATOM     79  C   UNL     1       8.970  11.297  12.608  1.00  0.00     0.002 A 
ATOM     80  C   UNL     1       7.930  10.226  14.520  1.00  0.00     0.091 A 
ATOM     81  F   UNL     1       5.580  10.466  14.854  1.00  0.00    -0.205 F 
ATOM     82  C   UNL     1       9.066  10.489  13.738  1.00  0.00     0.022 A 
BRANCH  80  83
ATOM     83  S   UNL     1       8.172   9.238  16.000  1.00  0.00     0.127 S 
ATOM     84  O   UNL     1       8.482   7.927  15.432  1.00  0.00    -0.237 OA
ATOM     85  O   UNL     1       9.305   9.912  16.634  1.00  0.00    -0.237 OA
ATOM     86  O   UNL     1       6.923   9.313  16.744  1.00  0.00    -0.744 OA
ENDBRANCH  80  83
ENDBRANCH  62  76
BRANCH  63  87
ATOM     87  C   UNL     1      -2.383  15.157  10.283  1.00  0.00     0.023 A 
ATOM     88  C   UNL     1      -2.561  16.514   9.955  1.00  0.00     0.012 A 
ATOM     89  C   UNL     1      -3.489  14.285  10.229  1.00  0.00     0.148 A 
ATOM     90  C   UNL     1      -3.822  17.002   9.612  1.00  0.00     0.002 A 
ATOM     91  C   UNL     1      -4.730  14.766   9.833  1.00  0.00     0.091 A 
ATOM     92  F   UNL     1      -3.299  12.999  10.556  1.00  0.00    -0.205 F 
ATOM     93  C   UNL     1      -4.904  16.127   9.542  1.00  0.00     0.022 A 
BRANCH  91  94
ATOM     94  S   UNL     1      -6.149  13.691   9.596  1.00  0.00     0.127 S 
ATOM     95  O   UNL     1      -7.036  14.125  10.672  1.00  0.00    -0.237 OA
ATOM     96  O   UNL     1      -6.583  14.063   8.249  1.00  0.00    -0.237 OA
ATOM     97  O   UNL     1      -5.638  12.331   9.710  1.00  0.00    -0.744 OA
ENDBRANCH  91  94
ENDBRANCH  63  87
BRANCH  75  98
ATOM     98  C   UNL     1       1.953  16.471  15.603  1.00  0.00     0.023 A 
ATOM     99  C   UNL     1       1.063  16.217  16.665  1.00  0.00     0.012 A 
ATOM    100  C   UNL     1       2.825  17.575  15.678  1.00  0.00     0.148 A 
ATOM    101  C   UNL     1       1.015  17.070  17.766  1.00  0.00     0.002 A 
ATOM    102  C   UNL     1       2.813  18.387  16.804  1.00  0.00     0.091 A 
ATOM    103  F   UNL     1       3.654  17.805  14.650  1.00  0.00    -0.205 F 
ATOM    104  C   UNL     1       1.898  18.146  17.841  1.00  0.00     0.022 A 
BRANCH 102 105
ATOM    105  S   UNL     1       3.983  19.729  17.035  1.00  0.00     0.127 S 
ATOM    106  O   UNL     1       3.119  20.902  16.907  1.00  0.00    -0.237 OA
ATOM    107  O   UNL     1       4.474  19.479  18.391  1.00  0.00    -0.237 OA
ATOM    108  O   UNL     1       4.985  19.576  15.990  1.00  0.00    -0.744 OA
ENDBRANCH 102 105
ENDBRANCH  75  98
ENDBRANCH  49  50
ENDBRANCH  42  44
ENDBRANCH  41  42
ENDBRANCH  40  41
ENDBRANCH  39  40
ENDBRANCH  38  39
ENDBRANCH  37  38
ENDBRANCH  36  37
ENDBRANCH  35  36
ENDBRANCH   1  35
TORSDOF 29
