REMARK SMILES CCc1nc(C)c(C(=O)OCCOCCOCCOCCOC(=O)c2ccc(-c3c4nc(c(-c5cccc(S(=O)(=O)[O-])c5F)c5ccc([nH]5)c(-c5cccc(S(=O)(=O)[O-])c5F)c5nc(c(-c6cccc(S(=O)(=O)[O-])c6F)c6ccc3[nH]6)C=C5)C=C4)cc2)c(SCc2cnc(Cl)s2)n1
REMARK SMILES IDX 16 1 15 2 14 3 13 4 12 5 11 6 10 7 8 8 9 9 7 10 3 11 4 12
REMARK SMILES IDX 97 13 5 14 88 15 6 16 2 17 1 18 89 19 90 20 91 21 92 22
REMARK SMILES IDX 96 23 93 24 94 25 95 26 17 27 18 28 19 29 20 30 21 31 22 32
REMARK SMILES IDX 23 33 24 34 25 35 26 36 87 37 27 38 86 39 28 40 29 41 30 42
REMARK SMILES IDX 80 43 31 44 85 45 79 46 81 47 32 48 84 49 78 50 77 51 33 53
REMARK SMILES IDX 65 54 45 55 64 56 46 57 49 58 63 59 82 60 47 61 48 62 62 64
REMARK SMILES IDX 83 65 50 66 34 67 35 68 43 69 36 70 38 71 44 72 37 73 39 74
REMARK SMILES IDX 40 75 41 76 42 77 66 78 67 79 75 80 68 81 70 82 76 83 69 84
REMARK SMILES IDX 71 85 72 86 73 87 74 88 51 89 52 90 60 91 53 92 55 93 61 94
REMARK SMILES IDX 54 95 56 96 57 97 58 98 59 99
REMARK H PARENT 81 52 49 63
REMARK Flexibility Score: inf
ROOT
ATOM      1  O   UNL     1      -1.308  -6.253  -4.900  1.00  0.00    -0.377 OA
ENDROOT
BRANCH   1   2
ATOM      2  C   UNL     1      -0.194  -5.528  -4.410  1.00  0.00     0.188 C 
BRANCH   2   3
ATOM      3  C   UNL     1       1.202  -5.822  -4.996  1.00  0.00     0.188 C 
BRANCH   3   4
ATOM      4  O   UNL     1       1.568  -7.194  -5.091  1.00  0.00    -0.376 OA
BRANCH   4   5
ATOM      5  C   UNL     1       2.284  -7.885  -4.081  1.00  0.00     0.202 C 
BRANCH   5   6
ATOM      6  C   UNL     1       1.889  -7.706  -2.620  1.00  0.00     0.261 C 
BRANCH   6   7
ATOM      7  O   UNL     1       1.635  -6.328  -2.350  1.00  0.00    -0.460 OA
BRANCH   7   8
ATOM      8  C   UNL     1       2.538  -5.545  -1.750  1.00  0.00     0.342 C 
ATOM      9  O   UNL     1       3.600  -5.880  -1.266  1.00  0.00    -0.246 OA
BRANCH   8  10
ATOM     10  C   UNL     1       1.993  -4.189  -1.808  1.00  0.00     0.113 A 
ATOM     11  C   UNL     1       0.906  -1.708  -1.691  1.00  0.00     0.129 A 
ATOM     12  N   UNL     1       0.242  -2.696  -1.091  1.00  0.00    -0.237 NA
ATOM     13  N   UNL     1       2.030  -1.885  -2.396  1.00  0.00    -0.226 NA
ATOM     14  C   UNL     1       0.778  -3.932  -1.153  1.00  0.00     0.057 A 
ATOM     15  C   UNL     1       2.593  -3.121  -2.468  1.00  0.00     0.115 A 
ATOM     16  C   UNL     1      -0.011  -4.958  -0.381  1.00  0.00     0.068 C 
BRANCH  11  17
ATOM     17  C   UNL     1       0.471  -0.301  -1.397  1.00  0.00     0.074 C 
ATOM     18  C   UNL     1       0.964   0.112  -0.016  1.00  0.00     0.012 C 
ENDBRANCH  11  17
BRANCH  15  19
ATOM     19  S   UNL     1       4.104  -2.913  -3.395  1.00  0.00    -0.100 SA
BRANCH  19  20
ATOM     20  C   UNL     1       4.649  -4.446  -4.218  1.00  0.00     0.125 C 
BRANCH  20  21
ATOM     21  C   UNL     1       5.542  -5.284  -3.373  1.00  0.00     0.036 A 
ATOM     22  C   UNL     1       6.262  -4.979  -2.229  1.00  0.00     0.129 A 
ATOM     23  S   UNL     1       5.819  -6.939  -3.756  1.00  0.00    -0.107 S 
ATOM     24  N   UNL     1       6.837  -6.049  -1.573  1.00  0.00    -0.233 NA
ATOM     25  C   UNL     1       6.539  -7.138  -2.234  1.00  0.00     0.183 A 
ATOM     26  Cl  UNL     1       6.859  -8.712  -1.639  1.00  0.00    -0.051 Cl
ENDBRANCH  20  21
ENDBRANCH  19  20
ENDBRANCH  15  19
ENDBRANCH   8  10
ENDBRANCH   7   8
ENDBRANCH   6   7
ENDBRANCH   5   6
ENDBRANCH   4   5
ENDBRANCH   3   4
ENDBRANCH   2   3
ENDBRANCH   1   2
BRANCH   1  27
ATOM     27  C   UNL     1      -1.093  -7.646  -5.086  1.00  0.00     0.188 C 
BRANCH  27  28
ATOM     28  C   UNL     1      -0.640  -7.961  -6.526  1.00  0.00     0.188 C 
BRANCH  28  29
ATOM     29  O   UNL     1      -0.258  -6.793  -7.248  1.00  0.00    -0.376 OA
BRANCH  29  30
ATOM     30  C   UNL     1      -1.248  -6.141  -8.034  1.00  0.00     0.202 C 
BRANCH  30  31
ATOM     31  C   UNL     1      -2.603  -5.717  -7.430  1.00  0.00     0.261 C 
BRANCH  31  32
ATOM     32  O   UNL     1      -3.355  -6.697  -6.697  1.00  0.00    -0.460 OA
BRANCH  32  33
ATOM     33  C   UNL     1      -3.708  -7.844  -7.310  1.00  0.00     0.338 C 
ATOM     34  O   UNL     1      -3.532  -8.133  -8.479  1.00  0.00    -0.246 OA
BRANCH  33  35
ATOM     35  C   UNL     1      -4.126  -8.796  -6.249  1.00  0.00     0.060 A 
ATOM     36  C   UNL     1      -3.537 -10.070  -6.218  1.00  0.00     0.016 A 
ATOM     37  C   UNL     1      -5.035  -8.420  -5.254  1.00  0.00     0.016 A 
ATOM     38  C   UNL     1      -3.906 -10.990  -5.237  1.00  0.00     0.010 A 
ATOM     39  C   UNL     1      -5.427  -9.351  -4.288  1.00  0.00     0.010 A 
ATOM     40  C   UNL     1      -4.907 -10.658  -4.316  1.00  0.00    -0.014 A 
BRANCH  40  41
ATOM     41  C   UNL     1      -5.636 -11.756  -3.637  1.00  0.00     0.031 A 
ATOM     42  C   UNL     1      -6.876 -12.273  -4.320  1.00  0.00     0.074 A 
ATOM     43  C   UNL     1      -5.214 -12.304  -2.485  1.00  0.00     0.049 A 
ATOM     44  N   UNL     1      -7.694 -13.223  -3.954  1.00  0.00    -0.248 NA
ATOM     45  C   UNL     1      -7.242 -11.625  -5.593  1.00  0.00     0.031 C 
ATOM     46  C   UNL     1      -4.025 -11.903  -1.736  1.00  0.00     0.029 A 
ATOM     47  N   UNL     1      -5.762 -13.315  -1.734  1.00  0.00    -0.354 N 
ATOM     48  C   UNL     1      -8.681 -13.266  -4.933  1.00  0.00     0.074 A 
ATOM     49  C   UNL     1      -8.373 -12.238  -5.899  1.00  0.00     0.031 C 
ATOM     50  C   UNL     1      -3.948 -12.644  -0.615  1.00  0.00     0.029 A 
ATOM     51  C   UNL     1      -5.090 -13.557  -0.560  1.00  0.00     0.049 A 
ATOM     52  H   UNL     1      -6.561 -13.819  -2.011  1.00  0.00     0.167 HD
ATOM     53  C   UNL     1      -9.742 -14.097  -5.033  1.00  0.00     0.034 A 
ATOM     54  C   UNL     1      -5.379 -14.407   0.447  1.00  0.00     0.034 A 
ATOM     55  C   UNL     1     -10.043 -15.127  -4.080  1.00  0.00     0.049 A 
ATOM     56  C   UNL     1      -6.583 -15.309   0.326  1.00  0.00     0.074 A 
ATOM     57  C   UNL     1     -11.077 -16.044  -4.103  1.00  0.00     0.029 A 
ATOM     58  N   UNL     1      -9.316 -15.366  -2.925  1.00  0.00    -0.354 N 
ATOM     59  N   UNL     1      -7.446 -15.412  -0.657  1.00  0.00    -0.248 NA
ATOM     60  C   UNL     1      -6.833 -16.240   1.437  1.00  0.00     0.031 C 
ATOM     61  C   UNL     1     -10.992 -16.820  -2.943  1.00  0.00     0.029 A 
ATOM     62  C   UNL     1      -9.881 -16.413  -2.221  1.00  0.00     0.049 A 
ATOM     63  H   UNL     1      -8.516 -14.864  -2.646  1.00  0.00     0.167 HD
ATOM     64  C   UNL     1      -8.306 -16.448  -0.306  1.00  0.00     0.074 A 
ATOM     65  C   UNL     1      -7.854 -16.948   0.975  1.00  0.00     0.031 C 
ATOM     66  C   UNL     1      -9.378 -16.939  -0.979  1.00  0.00     0.034 A 
BRANCH  53  67
ATOM     67  C   UNL     1     -10.647 -13.928  -6.223  1.00  0.00     0.023 A 
ATOM     68  C   UNL     1     -10.198 -14.305  -7.506  1.00  0.00     0.012 A 
ATOM     69  C   UNL     1     -11.951 -13.421  -6.067  1.00  0.00     0.148 A 
ATOM     70  C   UNL     1     -11.023 -14.149  -8.620  1.00  0.00     0.002 A 
ATOM     71  C   UNL     1     -12.784 -13.315  -7.174  1.00  0.00     0.091 A 
ATOM     72  F   UNL     1     -12.346 -13.039  -4.844  1.00  0.00    -0.205 F 
ATOM     73  C   UNL     1     -12.318 -13.666  -8.451  1.00  0.00     0.022 A 
BRANCH  71  74
ATOM     74  S   UNL     1     -14.493 -12.780  -7.049  1.00  0.00     0.127 S 
ATOM     75  O   UNL     1     -14.443 -11.476  -7.709  1.00  0.00    -0.237 OA
ATOM     76  O   UNL     1     -15.194 -13.819  -7.803  1.00  0.00    -0.237 OA
ATOM     77  O   UNL     1     -14.802 -12.748  -5.626  1.00  0.00    -0.744 OA
ENDBRANCH  71  74
ENDBRANCH  53  67
BRANCH  54  78
ATOM     78  C   UNL     1      -4.497 -14.477   1.648  1.00  0.00     0.023 A 
ATOM     79  C   UNL     1      -3.734 -15.637   1.890  1.00  0.00     0.012 A 
ATOM     80  C   UNL     1      -4.415 -13.402   2.554  1.00  0.00     0.148 A 
ATOM     81  C   UNL     1      -2.935 -15.738   3.030  1.00  0.00     0.002 A 
ATOM     82  C   UNL     1      -3.574 -13.487   3.657  1.00  0.00     0.091 A 
ATOM     83  F   UNL     1      -5.161 -12.314   2.316  1.00  0.00    -0.205 F 
ATOM     84  C   UNL     1      -2.847 -14.661   3.908  1.00  0.00     0.022 A 
BRANCH  82  85
ATOM     85  S   UNL     1      -3.302 -12.105   4.771  1.00  0.00     0.127 S 
ATOM     86  O   UNL     1      -3.937 -12.579   5.998  1.00  0.00    -0.237 OA
ATOM     87  O   UNL     1      -1.841 -12.040   4.817  1.00  0.00    -0.237 OA
ATOM     88  O   UNL     1      -3.933 -10.956   4.136  1.00  0.00    -0.744 OA
ENDBRANCH  82  85
ENDBRANCH  54  78
BRANCH  66  89
ATOM     89  C   UNL     1     -10.104 -18.119  -0.386  1.00  0.00     0.023 A 
ATOM     90  C   UNL     1     -10.906 -17.957   0.759  1.00  0.00     0.012 A 
ATOM     91  C   UNL     1     -10.055 -19.375  -1.025  1.00  0.00     0.148 A 
ATOM     92  C   UNL     1     -11.620 -19.037   1.282  1.00  0.00     0.002 A 
ATOM     93  C   UNL     1     -10.810 -20.431  -0.531  1.00  0.00     0.091 A 
ATOM     94  F   UNL     1      -9.273 -19.513  -2.106  1.00  0.00    -0.205 F 
ATOM     95  C   UNL     1     -11.582 -20.268   0.630  1.00  0.00     0.022 A 
BRANCH  93  96
ATOM     96  S   UNL     1     -10.902 -22.019  -1.366  1.00  0.00     0.127 S 
ATOM     97  O   UNL     1     -10.102 -22.866  -0.483  1.00  0.00    -0.237 OA
ATOM     98  O   UNL     1     -12.338 -22.299  -1.344  1.00  0.00    -0.237 OA
ATOM     99  O   UNL     1     -10.350 -21.805  -2.697  1.00  0.00    -0.744 OA
ENDBRANCH  93  96
ENDBRANCH  66  89
ENDBRANCH  40  41
ENDBRANCH  33  35
ENDBRANCH  32  33
ENDBRANCH  31  32
ENDBRANCH  30  31
ENDBRANCH  29  30
ENDBRANCH  28  29
ENDBRANCH  27  28
ENDBRANCH   1  27
TORSDOF 27
