REMARK SMILES Cc1ccc(S(=O)(=O)n2cc(C(=O)C(=O)N[C@@H](Cc3c[nH]c4ccccc34)C(=O)NCC(=O)OCCOCCOCCOCCOC(=O)c3ccc(-c4c5nc(c(-c6cccc(S(=O)(=O)[O-])c6F)c6ccc([nH]6)c(-c6cccc(S(=O)(=O)[O-])c6F)c6nc(c(-c7cccc(S(=O)(=O)[O-])c7F)c7ccc4[nH]7)C=C6)C=C5)cc3)c3ccccc32)cc1
REMARK SMILES IDX 38 1 37 2 36 3 35 4 34 5 32 6 33 7 31 8 30 9 28 10 29 11
REMARK SMILES IDX 17 13 16 14 14 15 15 16 12 18 13 19 11 20 9 21 10 22 117 23
REMARK SMILES IDX 112 24 116 25 113 26 115 27 114 28 6 29 7 30 8 31 5 32 1 33
REMARK SMILES IDX 2 34 3 35 119 36 4 37 118 38 18 39 19 40 20 41 27 42 21 43
REMARK SMILES IDX 22 44 26 45 23 47 25 48 24 49 39 50 40 51 41 52 42 53 43 54
REMARK SMILES IDX 44 55 45 56 46 57 47 58 48 59 49 60 50 61 111 62 51 63
REMARK SMILES IDX 110 64 52 65 53 66 54 67 104 68 55 69 109 70 103 71 105 72
REMARK SMILES IDX 56 73 108 74 102 75 101 76 57 78 89 79 69 80 88 81 70 82
REMARK SMILES IDX 73 83 87 84 106 85 71 86 72 87 86 89 107 90 74 91 58 92
REMARK SMILES IDX 59 93 67 94 60 95 62 96 68 97 61 98 63 99 64 100 65 101
REMARK SMILES IDX 66 102 90 103 91 104 99 105 92 106 94 107 100 108 93 109
REMARK SMILES IDX 95 110 96 111 97 112 98 113 75 114 76 115 84 116 77 117
REMARK SMILES IDX 79 118 85 119 78 120 80 121 81 122 82 123 83 124
REMARK H PARENT 30 12 16 17 21 46 105 77 73 88
REMARK Flexibility Score: inf
ROOT
ATOM      1  C   UNL     1     -12.148   5.085  -5.408  1.00  0.00     0.188 C 
ENDROOT
BRANCH   1   2
ATOM      2  O   UNL     1     -10.868   5.918  -5.337  1.00  0.00    -0.376 OA
BRANCH   2   3
ATOM      3  C   UNL     1     -10.336   7.166  -4.390  1.00  0.00     0.202 C 
BRANCH   3   4
ATOM      4  C   UNL     1     -10.407   7.716  -2.628  1.00  0.00     0.261 C 
BRANCH   4   5
ATOM      5  O   UNL     1     -11.024   7.002  -1.169  1.00  0.00    -0.462 OA
BRANCH   5   6
ATOM      6  C   UNL     1     -12.132   6.682  -0.322  1.00  0.00     0.325 C 
ATOM      7  O   UNL     1     -13.320   7.017  -0.465  1.00  0.00    -0.250 OA
BRANCH   6   8
ATOM      8  C   UNL     1     -11.989   5.417   0.735  1.00  0.00     0.238 C 
BRANCH   8   9
ATOM      9  N   UNL     1     -12.746   4.030   0.525  1.00  0.00    -0.343 N 
ATOM     10  C   UNL     1     -12.433   2.698   0.273  1.00  0.00     0.243 C 
ATOM     11  O   UNL     1     -13.275   2.043  -0.371  1.00  0.00    -0.273 OA
ATOM     12  H   UNL     1     -13.721   4.151   0.595  1.00  0.00     0.164 HD
BRANCH  10  13
ATOM     13  C   UNL     1     -11.240   1.883   0.923  1.00  0.00     0.176 C 
BRANCH  13  14
ATOM     14  N   UNL     1      -9.969   2.587   1.271  1.00  0.00    -0.337 N 
ATOM     15  C   UNL     1      -8.613   2.412   0.962  1.00  0.00     0.293 C 
ATOM     16  O   UNL     1      -7.774   3.109   1.534  1.00  0.00    -0.265 OA
ATOM     17  H   UNL     1     -10.121   3.362   1.859  1.00  0.00     0.164 HD
BRANCH  15  18
ATOM     18  C   UNL     1      -8.083   1.390  -0.072  1.00  0.00     0.252 C 
ATOM     19  O   UNL     1      -8.812   1.147  -1.033  1.00  0.00    -0.283 OA
BRANCH  18  20
ATOM     20  C   UNL     1      -6.819   0.610   0.139  1.00  0.00     0.054 A 
ATOM     21  N   UNL     1      -4.752  -0.198   0.680  1.00  0.00    -0.240 N 
ATOM     22  C   UNL     1      -5.468   0.967   0.364  1.00  0.00     0.117 A 
ATOM     23  C   UNL     1      -5.684  -1.251   0.726  1.00  0.00     0.065 A 
ATOM     24  C   UNL     1      -6.790  -0.812   0.009  1.00  0.00     0.012 A 
ATOM     25  C   UNL     1      -5.534  -2.607   1.085  1.00  0.00     0.028 A 
ATOM     26  C   UNL     1      -7.633  -1.778  -0.579  1.00  0.00     0.011 A 
ATOM     27  C   UNL     1      -6.345  -3.544   0.453  1.00  0.00     0.002 A 
ATOM     28  C   UNL     1      -7.347  -3.138  -0.415  1.00  0.00     0.001 A 
BRANCH  21  29
ATOM     29  S   UNL     1      -3.191  -0.772   0.126  1.00  0.00     0.268 S 
ATOM     30  O   UNL     1      -3.467  -1.185  -1.242  1.00  0.00    -0.201 OA
ATOM     31  O   UNL     1      -2.894  -1.769   1.152  1.00  0.00    -0.201 OA
BRANCH  29  32
ATOM     32  C   UNL     1      -1.612   0.001   0.030  1.00  0.00     0.088 A 
ATOM     33  C   UNL     1       2.642   0.860  -0.044  1.00  0.00     0.044 C 
ATOM     34  C   UNL     1       1.161   0.606  -0.065  1.00  0.00    -0.051 A 
ATOM     35  C   UNL     1       0.741  -0.695  -0.290  1.00  0.00     0.005 A 
ATOM     36  C   UNL     1       0.184   1.600   0.177  1.00  0.00     0.005 A 
ATOM     37  C   UNL     1      -0.616  -0.978  -0.257  1.00  0.00     0.022 A 
ATOM     38  C   UNL     1      -1.210   1.308   0.230  1.00  0.00     0.022 A 
ENDBRANCH  29  32
ENDBRANCH  21  29
ENDBRANCH  18  20
ENDBRANCH  15  18
ENDBRANCH  13  14
BRANCH  13  39
ATOM     39  C   UNL     1     -11.929   1.151   2.148  1.00  0.00     0.072 C 
BRANCH  39  40
ATOM     40  C   UNL     1     -12.839   2.082   2.925  1.00  0.00    -0.020 A 
ATOM     41  C   UNL     1     -14.206   2.254   2.755  1.00  0.00     0.087 A 
ATOM     42  C   UNL     1     -12.361   3.213   3.648  1.00  0.00     0.003 A 
ATOM     43  N   UNL     1     -14.523   3.525   3.183  1.00  0.00    -0.361 N 
ATOM     44  C   UNL     1     -13.384   4.160   3.624  1.00  0.00     0.046 A 
ATOM     45  C   UNL     1     -11.061   3.594   4.024  1.00  0.00     0.010 A 
ATOM     46  H   UNL     1     -15.425   3.918   3.174  1.00  0.00     0.166 HD
ATOM     47  C   UNL     1     -13.141   5.515   3.849  1.00  0.00     0.026 A 
ATOM     48  C   UNL     1     -10.774   4.950   4.112  1.00  0.00     0.001 A 
ATOM     49  C   UNL     1     -11.802   5.881   4.019  1.00  0.00     0.002 A 
ENDBRANCH  39  40
ENDBRANCH  13  39
ENDBRANCH  10  13
ENDBRANCH   8   9
ENDBRANCH   6   8
ENDBRANCH   5   6
ENDBRANCH   4   5
ENDBRANCH   3   4
ENDBRANCH   2   3
ENDBRANCH   1   2
BRANCH   1  50
ATOM     50  C   UNL     1     -12.244   3.540  -5.054  1.00  0.00     0.188 C 
BRANCH  50  51
ATOM     51  O   UNL     1     -11.264   2.746  -5.680  1.00  0.00    -0.377 OA
BRANCH  51  52
ATOM     52  C   UNL     1     -11.668   2.285  -6.966  1.00  0.00     0.188 C 
BRANCH  52  53
ATOM     53  C   UNL     1     -12.162   3.380  -7.924  1.00  0.00     0.188 C 
BRANCH  53  54
ATOM     54  O   UNL     1     -13.382   3.947  -7.455  1.00  0.00    -0.376 OA
BRANCH  54  55
ATOM     55  C   UNL     1     -14.641   3.615  -7.966  1.00  0.00     0.202 C 
BRANCH  55  56
ATOM     56  C   UNL     1     -14.936   4.416  -9.233  1.00  0.00     0.261 C 
BRANCH  56  57
ATOM     57  O   UNL     1     -15.084   5.814  -8.902  1.00  0.00    -0.460 OA
BRANCH  57  58
ATOM     58  C   UNL     1     -13.945   6.567  -8.888  1.00  0.00     0.338 C 
ATOM     59  O   UNL     1     -13.049   6.495  -9.708  1.00  0.00    -0.246 OA
BRANCH  58  60
ATOM     60  C   UNL     1     -13.903   7.318  -7.591  1.00  0.00     0.060 A 
ATOM     61  C   UNL     1     -12.752   7.991  -7.187  1.00  0.00     0.016 A 
ATOM     62  C   UNL     1     -14.902   7.086  -6.640  1.00  0.00     0.016 A 
ATOM     63  C   UNL     1     -12.540   8.208  -5.814  1.00  0.00     0.010 A 
ATOM     64  C   UNL     1     -14.572   7.100  -5.291  1.00  0.00     0.010 A 
ATOM     65  C   UNL     1     -13.290   7.484  -4.871  1.00  0.00    -0.014 A 
BRANCH  65  66
ATOM     66  C   UNL     1     -12.905   7.030  -3.403  1.00  0.00     0.031 A 
ATOM     67  C   UNL     1     -13.280   8.377  -2.593  1.00  0.00     0.074 A 
ATOM     68  C   UNL     1     -12.114   5.829  -2.979  1.00  0.00     0.049 A 
ATOM     69  N   UNL     1     -12.578   9.021  -1.700  1.00  0.00    -0.248 NA
ATOM     70  C   UNL     1     -14.391   9.243  -3.054  1.00  0.00     0.031 C 
ATOM     71  C   UNL     1     -12.279   4.795  -1.965  1.00  0.00     0.029 A 
ATOM     72  N   UNL     1     -10.781   5.228  -3.298  1.00  0.00    -0.354 N 
ATOM     73  C   UNL     1     -13.292  10.115  -1.259  1.00  0.00     0.074 A 
ATOM     74  C   UNL     1     -14.277  10.320  -2.278  1.00  0.00     0.031 C 
ATOM     75  C   UNL     1     -11.051   4.329  -1.523  1.00  0.00     0.029 A 
ATOM     76  C   UNL     1      -9.979   4.854  -2.264  1.00  0.00     0.049 A 
ATOM     77  H   UNL     1     -10.492   5.106  -4.231  1.00  0.00     0.167 HD
ATOM     78  C   UNL     1     -13.135  10.638  -0.006  1.00  0.00     0.034 A 
ATOM     79  C   UNL     1      -8.634   4.955  -2.027  1.00  0.00     0.034 A 
ATOM     80  C   UNL     1     -12.104   9.933   0.801  1.00  0.00     0.049 A 
ATOM     81  C   UNL     1      -8.182   5.894  -0.854  1.00  0.00     0.074 A 
ATOM     82  C   UNL     1     -12.161   9.267   2.017  1.00  0.00     0.029 A 
ATOM     83  N   UNL     1     -10.792   9.716   0.331  1.00  0.00    -0.354 N 
ATOM     84  N   UNL     1      -8.933   6.680  -0.114  1.00  0.00    -0.248 NA
ATOM     85  C   UNL     1      -6.771   6.038  -0.473  1.00  0.00     0.031 C 
ATOM     86  C   UNL     1     -10.873   8.790   2.329  1.00  0.00     0.029 A 
ATOM     87  C   UNL     1     -10.043   8.974   1.243  1.00  0.00     0.049 A 
ATOM     88  H   UNL     1     -10.450  10.047  -0.531  1.00  0.00     0.167 HD
ATOM     89  C   UNL     1      -8.146   7.597   0.581  1.00  0.00     0.074 A 
ATOM     90  C   UNL     1      -6.817   7.020   0.447  1.00  0.00     0.031 C 
ATOM     91  C   UNL     1      -8.594   8.774   1.168  1.00  0.00     0.034 A 
BRANCH  78  92
ATOM     92  C   UNL     1     -14.250  11.535   0.611  1.00  0.00     0.023 A 
ATOM     93  C   UNL     1     -14.470  11.497   2.005  1.00  0.00     0.012 A 
ATOM     94  C   UNL     1     -15.176  12.342  -0.098  1.00  0.00     0.148 A 
ATOM     95  C   UNL     1     -15.632  11.990   2.618  1.00  0.00     0.002 A 
ATOM     96  C   UNL     1     -16.373  12.785   0.490  1.00  0.00     0.091 A 
ATOM     97  F   UNL     1     -14.848  12.798  -1.314  1.00  0.00    -0.205 F 
ATOM     98  C   UNL     1     -16.617  12.579   1.848  1.00  0.00     0.022 A 
BRANCH  96  99
ATOM     99  S   UNL     1     -17.700  13.565  -0.449  1.00  0.00     0.127 S 
ATOM    100  O   UNL     1     -18.858  12.741  -0.094  1.00  0.00    -0.237 OA
ATOM    101  O   UNL     1     -17.727  14.916   0.108  1.00  0.00    -0.237 OA
ATOM    102  O   UNL     1     -17.309  13.470  -1.850  1.00  0.00    -0.744 OA
ENDBRANCH  96  99
ENDBRANCH  78  92
BRANCH  79 103
ATOM    103  C   UNL     1      -7.799   4.691  -3.262  1.00  0.00     0.023 A 
ATOM    104  C   UNL     1      -7.867   3.359  -3.733  1.00  0.00     0.012 A 
ATOM    105  C   UNL     1      -7.346   5.679  -4.155  1.00  0.00     0.148 A 
ATOM    106  C   UNL     1      -7.721   3.056  -5.088  1.00  0.00     0.002 A 
ATOM    107  C   UNL     1      -7.281   5.388  -5.527  1.00  0.00     0.091 A 
ATOM    108  F   UNL     1      -7.150   6.921  -3.689  1.00  0.00    -0.205 F 
ATOM    109  C   UNL     1      -7.494   4.082  -5.994  1.00  0.00     0.022 A 
BRANCH 107 110
ATOM    110  S   UNL     1      -7.238   6.681  -6.793  1.00  0.00     0.127 S 
ATOM    111  O   UNL     1      -5.889   6.526  -7.332  1.00  0.00    -0.237 OA
ATOM    112  O   UNL     1      -8.307   6.274  -7.705  1.00  0.00    -0.237 OA
ATOM    113  O   UNL     1      -7.491   7.926  -6.078  1.00  0.00    -0.744 OA
ENDBRANCH 107 110
ENDBRANCH  79 103
BRANCH  91 114
ATOM    114  C   UNL     1      -7.742   9.823   1.953  1.00  0.00     0.023 A 
ATOM    115  C   UNL     1      -6.337   9.844   1.939  1.00  0.00     0.012 A 
ATOM    116  C   UNL     1      -8.347  10.855   2.750  1.00  0.00     0.148 A 
ATOM    117  C   UNL     1      -5.584  10.707   2.757  1.00  0.00     0.002 A 
ATOM    118  C   UNL     1      -7.602  11.719   3.556  1.00  0.00     0.091 A 
ATOM    119  F   UNL     1      -9.669  11.043   2.721  1.00  0.00    -0.205 F 
ATOM    120  C   UNL     1      -6.213  11.627   3.582  1.00  0.00     0.022 A 
BRANCH 118 121
ATOM    121  S   UNL     1      -8.348  12.995   4.592  1.00  0.00     0.127 S 
ATOM    122  O   UNL     1      -8.025  12.515   5.933  1.00  0.00    -0.237 OA
ATOM    123  O   UNL     1      -7.618  14.189   4.177  1.00  0.00    -0.237 OA
ATOM    124  O   UNL     1      -9.776  13.009   4.274  1.00  0.00    -0.744 OA
ENDBRANCH 118 121
ENDBRANCH  91 114
ENDBRANCH  65  66
ENDBRANCH  58  60
ENDBRANCH  57  58
ENDBRANCH  56  57
ENDBRANCH  55  56
ENDBRANCH  54  55
ENDBRANCH  53  54
ENDBRANCH  52  53
ENDBRANCH  51  52
ENDBRANCH  50  51
ENDBRANCH   1  50
TORSDOF 32
