REMARK SMILES CC(=O)NS(=O)(=O)c1ccc(-c2ccn(C(F)F)c(=O)c2)cc1C(=O)OCCOCCOCCOCCOC(=O)c1ccc(-c2c3nc(c(-c4cccc(S(=O)(=O)[O-])c4F)c4ccc([nH]4)c(-c4cccc(S(=O)(=O)[O-])c4F)c4nc(c(-c5cccc(S(=O)(=O)[O-])c5F)c5ccc2[nH]5)C=C4)C=C3)cc1
REMARK SMILES IDX 33 1 32 2 31 3 30 4 29 5 28 6 27 7 26 8 24 9 25 10 23 11
REMARK SMILES IDX 8 12 9 13 10 14 22 15 11 16 5 17 6 18 7 19 4 20 1 21 2 22
REMARK SMILES IDX 3 23 12 25 13 26 21 27 14 28 19 29 15 30 20 31 16 32 17 33
REMARK SMILES IDX 18 34 34 35 35 36 36 37 37 38 38 39 39 40 40 41 41 42 42 43
REMARK SMILES IDX 103 44 43 45 102 46 44 47 45 48 46 49 96 50 47 51 101 52
REMARK SMILES IDX 95 53 97 54 48 55 100 56 94 57 93 58 49 60 81 61 61 62 80 63
REMARK SMILES IDX 62 64 65 65 79 66 98 67 63 68 64 69 78 71 99 72 66 73 50 74
REMARK SMILES IDX 51 75 59 76 52 77 54 78 60 79 53 80 55 81 56 82 57 83 58 84
REMARK SMILES IDX 82 85 83 86 91 87 84 88 86 89 92 90 85 91 87 92 88 93 89 94
REMARK SMILES IDX 90 95 67 96 68 97 76 98 69 99 71 100 77 101 70 102 72 103
REMARK SMILES IDX 73 104 74 105 75 106
REMARK H PARENT 4 24 97 59 65 70
REMARK Flexibility Score: inf
ROOT
ATOM      1  C   UNL     1      -0.574   5.874   1.325  1.00  0.00     0.188 C 
ENDROOT
BRANCH   1   2
ATOM      2  O   UNL     1      -0.632   4.633   2.018  1.00  0.00    -0.377 OA
BRANCH   2   3
ATOM      3  C   UNL     1       0.595   4.176   2.559  1.00  0.00     0.188 C 
BRANCH   3   4
ATOM      4  C   UNL     1       1.330   5.125   3.512  1.00  0.00     0.188 C 
BRANCH   4   5
ATOM      5  O   UNL     1       1.658   6.369   2.904  1.00  0.00    -0.376 OA
BRANCH   5   6
ATOM      6  C   UNL     1       3.022   6.618   2.598  1.00  0.00     0.202 C 
BRANCH   6   7
ATOM      7  C   UNL     1       3.511   6.023   1.269  1.00  0.00     0.261 C 
BRANCH   7   8
ATOM      8  O   UNL     1       3.281   4.612   1.114  1.00  0.00    -0.460 OA
BRANCH   8   9
ATOM      9  C   UNL     1       3.989   3.784   1.890  1.00  0.00     0.339 C 
ATOM     10  O   UNL     1       4.816   4.128   2.721  1.00  0.00    -0.246 OA
BRANCH   9  11
ATOM     11  C   UNL     1       3.534   2.368   1.777  1.00  0.00     0.081 A 
ATOM     12  C   UNL     1       3.184   1.677   0.608  1.00  0.00     0.102 A 
ATOM     13  C   UNL     1       3.116   0.276   0.633  1.00  0.00     0.024 A 
ATOM     14  C   UNL     1       3.171  -0.417   1.841  1.00  0.00     0.010 A 
ATOM     15  C   UNL     1       3.568   1.655   2.995  1.00  0.00     0.025 A 
ATOM     16  C   UNL     1       3.341   0.276   3.039  1.00  0.00    -0.017 A 
BRANCH  12  17
ATOM     17  S   UNL     1       2.639   2.509  -0.869  1.00  0.00     0.264 S 
ATOM     18  O   UNL     1       3.823   2.930  -1.552  1.00  0.00    -0.201 OA
ATOM     19  O   UNL     1       1.554   3.407  -0.511  1.00  0.00    -0.201 OA
BRANCH  17  20
ATOM     20  N   UNL     1       1.913   1.313  -1.809  1.00  0.00    -0.249 N 
ATOM     21  C   UNL     1       0.101   0.353  -0.374  1.00  0.00     0.115 C 
ATOM     22  C   UNL     1       0.550   0.950  -1.684  1.00  0.00     0.230 C 
ATOM     23  O   UNL     1      -0.165   0.913  -2.675  1.00  0.00    -0.274 OA
ATOM     24  H   UNL     1       2.463   0.844  -2.477  1.00  0.00     0.183 HD
ENDBRANCH  17  20
ENDBRANCH  12  17
BRANCH  16  25
ATOM     25  C   UNL     1       3.316  -0.437   4.325  1.00  0.00    -0.011 A 
ATOM     26  C   UNL     1       2.263  -0.270   5.309  1.00  0.00     0.027 A 
ATOM     27  C   UNL     1       4.328  -1.282   4.583  1.00  0.00     0.080 A 
ATOM     28  C   UNL     1       2.305  -0.943   6.466  1.00  0.00     0.095 A 
ATOM     29  C   UNL     1       4.383  -2.043   5.859  1.00  0.00     0.255 A 
ATOM     30  N   UNL     1       3.345  -1.812   6.746  1.00  0.00    -0.258 N 
ATOM     31  O   UNL     1       5.324  -2.809   6.041  1.00  0.00    -0.269 OA
BRANCH  30  32
ATOM     32  C   UNL     1       3.397  -2.518   7.998  1.00  0.00     0.451 C 
ATOM     33  F   UNL     1       3.405  -3.860   7.805  1.00  0.00    -0.185 F 
ATOM     34  F   UNL     1       4.512  -2.189   8.695  1.00  0.00    -0.185 F 
ENDBRANCH  30  32
ENDBRANCH  16  25
ENDBRANCH   9  11
ENDBRANCH   8   9
ENDBRANCH   7   8
ENDBRANCH   6   7
ENDBRANCH   5   6
ENDBRANCH   4   5
ENDBRANCH   3   4
ENDBRANCH   2   3
ENDBRANCH   1   2
BRANCH   1  35
ATOM     35  C   UNL     1      -1.049   7.079   2.168  1.00  0.00     0.188 C 
BRANCH  35  36
ATOM     36  O   UNL     1      -1.901   6.928   3.305  1.00  0.00    -0.376 OA
BRANCH  36  37
ATOM     37  C   UNL     1      -2.615   5.725   3.518  1.00  0.00     0.202 C 
BRANCH  37  38
ATOM     38  C   UNL     1      -3.715   5.329   2.520  1.00  0.00     0.261 C 
BRANCH  38  39
ATOM     39  O   UNL     1      -3.509   5.732   1.163  1.00  0.00    -0.460 OA
BRANCH  39  40
ATOM     40  C   UNL     1      -3.989   6.958   0.845  1.00  0.00     0.338 C 
ATOM     41  O   UNL     1      -4.606   7.718   1.571  1.00  0.00    -0.246 OA
BRANCH  40  42
ATOM     42  C   UNL     1      -3.525   7.321  -0.513  1.00  0.00     0.060 A 
ATOM     43  C   UNL     1      -2.890   8.558  -0.686  1.00  0.00     0.016 A 
ATOM     44  C   UNL     1      -3.736   6.476  -1.605  1.00  0.00     0.016 A 
ATOM     45  C   UNL     1      -2.489   8.967  -1.956  1.00  0.00     0.010 A 
ATOM     46  C   UNL     1      -3.362   6.901  -2.884  1.00  0.00     0.010 A 
ATOM     47  C   UNL     1      -2.769   8.162  -3.067  1.00  0.00    -0.014 A 
BRANCH  47  48
ATOM     48  C   UNL     1      -2.639   8.737  -4.426  1.00  0.00     0.031 A 
ATOM     49  C   UNL     1      -3.854   9.368  -5.048  1.00  0.00     0.074 A 
ATOM     50  C   UNL     1      -1.470   8.709  -5.091  1.00  0.00     0.049 A 
ATOM     51  N   UNL     1      -3.989   9.930  -6.221  1.00  0.00    -0.248 NA
ATOM     52  C   UNL     1      -5.084   9.365  -4.237  1.00  0.00     0.031 C 
ATOM     53  C   UNL     1      -0.225   8.133  -4.590  1.00  0.00     0.029 A 
ATOM     54  N   UNL     1      -1.153   9.161  -6.347  1.00  0.00    -0.354 N 
ATOM     55  C   UNL     1      -5.318  10.326  -6.297  1.00  0.00     0.074 A 
ATOM     56  C   UNL     1      -5.953   9.933  -5.059  1.00  0.00     0.031 C 
ATOM     57  C   UNL     1       0.717   8.237  -5.545  1.00  0.00     0.029 A 
ATOM     58  C   UNL     1       0.135   8.871  -6.728  1.00  0.00     0.049 A 
ATOM     59  H   UNL     1      -1.788   9.647  -6.922  1.00  0.00     0.167 HD
ATOM     60  C   UNL     1      -5.952  10.974  -7.301  1.00  0.00     0.034 A 
ATOM     61  C   UNL     1       0.762   9.078  -7.903  1.00  0.00     0.034 A 
ATOM     62  C   UNL     1      -5.319  11.374  -8.527  1.00  0.00     0.049 A 
ATOM     63  C   UNL     1       0.025   9.776  -9.018  1.00  0.00     0.074 A 
ATOM     64  C   UNL     1      -5.865  12.072  -9.589  1.00  0.00     0.029 A 
ATOM     65  N   UNL     1      -4.002  11.099  -8.861  1.00  0.00    -0.354 N 
ATOM     66  N   UNL     1      -1.194  10.260  -9.029  1.00  0.00    -0.248 NA
ATOM     67  C   UNL     1       0.762   9.987 -10.274  1.00  0.00     0.031 C 
ATOM     68  C   UNL     1      -4.883  12.197 -10.578  1.00  0.00     0.029 A 
ATOM     69  C   UNL     1      -3.719  11.601 -10.119  1.00  0.00     0.049 A 
ATOM     70  H   UNL     1      -3.363  10.618  -8.288  1.00  0.00     0.167 HD
ATOM     71  C   UNL     1      -1.358  10.862 -10.273  1.00  0.00     0.074 A 
ATOM     72  C   UNL     1      -0.106  10.698 -10.982  1.00  0.00     0.031 C 
ATOM     73  C   UNL     1      -2.449  11.480 -10.788  1.00  0.00     0.034 A 
BRANCH  60  74
ATOM     74  C   UNL     1      -7.405  11.311  -7.102  1.00  0.00     0.023 A 
ATOM     75  C   UNL     1      -7.763  12.349  -6.218  1.00  0.00     0.012 A 
ATOM     76  C   UNL     1      -8.410  10.632  -7.817  1.00  0.00     0.148 A 
ATOM     77  C   UNL     1      -9.102  12.688  -6.028  1.00  0.00     0.002 A 
ATOM     78  C   UNL     1      -9.739  11.003  -7.653  1.00  0.00     0.091 A 
ATOM     79  F   UNL     1      -8.050   9.629  -8.631  1.00  0.00    -0.205 F 
ATOM     80  C   UNL     1     -10.088  12.023  -6.752  1.00  0.00     0.022 A 
BRANCH  78  81
ATOM     81  S   UNL     1     -11.074  10.255  -8.594  1.00  0.00     0.127 S 
ATOM     82  O   UNL     1     -11.743   9.453  -7.571  1.00  0.00    -0.237 OA
ATOM     83  O   UNL     1     -11.829  11.426  -9.041  1.00  0.00    -0.237 OA
ATOM     84  O   UNL     1     -10.437   9.501  -9.664  1.00  0.00    -0.744 OA
ENDBRANCH  78  81
ENDBRANCH  60  74
BRANCH  61  85
ATOM     85  C   UNL     1       2.180   8.649  -8.079  1.00  0.00     0.023 A 
ATOM     86  C   UNL     1       3.190   9.623  -8.201  1.00  0.00     0.012 A 
ATOM     87  C   UNL     1       2.532   7.286  -8.117  1.00  0.00     0.148 A 
ATOM     88  C   UNL     1       4.521   9.248  -8.389  1.00  0.00     0.002 A 
ATOM     89  C   UNL     1       3.866   6.919  -8.252  1.00  0.00     0.091 A 
ATOM     90  F   UNL     1       1.555   6.374  -8.022  1.00  0.00    -0.205 F 
ATOM     91  C   UNL     1       4.860   7.898  -8.404  1.00  0.00     0.022 A 
BRANCH  89  92
ATOM     92  S   UNL     1       4.407   5.208  -8.162  1.00  0.00     0.127 S 
ATOM     93  O   UNL     1       4.750   4.928  -9.553  1.00  0.00    -0.237 OA
ATOM     94  O   UNL     1       5.550   5.297  -7.252  1.00  0.00    -0.237 OA
ATOM     95  O   UNL     1       3.273   4.466  -7.626  1.00  0.00    -0.744 OA
ENDBRANCH  89  92
ENDBRANCH  61  85
BRANCH  73  96
ATOM     96  C   UNL     1      -2.340  12.063 -12.174  1.00  0.00     0.023 A 
ATOM     97  C   UNL     1      -2.320  11.207 -13.293  1.00  0.00     0.012 A 
ATOM     98  C   UNL     1      -2.347  13.459 -12.370  1.00  0.00     0.148 A 
ATOM     99  C   UNL     1      -2.280  11.731 -14.585  1.00  0.00     0.002 A 
ATOM    100  C   UNL     1      -2.355  13.973 -13.662  1.00  0.00     0.091 A 
ATOM    101  F   UNL     1      -2.349  14.257 -11.293  1.00  0.00    -0.205 F 
ATOM    102  C   UNL     1      -2.310  13.112 -14.770  1.00  0.00     0.022 A 
BRANCH 100 103
ATOM    103  S   UNL     1      -2.491  15.734 -13.994  1.00  0.00     0.127 S 
ATOM    104  O   UNL     1      -1.132  16.063 -14.419  1.00  0.00    -0.237 OA
ATOM    105  O   UNL     1      -3.490  15.773 -15.063  1.00  0.00    -0.237 OA
ATOM    106  O   UNL     1      -2.922  16.345 -12.744  1.00  0.00    -0.744 OA
ENDBRANCH 100 103
ENDBRANCH  73  96
ENDBRANCH  47  48
ENDBRANCH  40  42
ENDBRANCH  39  40
ENDBRANCH  38  39
ENDBRANCH  37  38
ENDBRANCH  36  37
ENDBRANCH  35  36
ENDBRANCH   1  35
TORSDOF 27
