REMARK SMILES Cc1ccccc1-n1c(S[C@@H](C)C(=O)OCCOCCOCCOCCOC(=O)c2ccc(-c3c4nc(c(-c5cccc(S(=O)(=O)[O-])c5F)c5ccc([nH]5)c(-c5cccc(S(=O)(=O)[O-])c5F)c5nc(c(-c6cccc(S(=O)(=O)[O-])c6F)c6ccc3[nH]6)C=C5)C=C4)cc2)nc2sc3c(c2c1=O)C[C@@H](C(C)C)OC3
REMARK SMILES IDX 21 1 20 2 19 3 18 4 17 5 16 6 15 7 13 8 14 9 11 10 12 11
REMARK SMILES IDX 10 12 9 13 8 14 99 15 93 16 98 17 100 18 94 19 97 20 95 21
REMARK SMILES IDX 96 22 101 23 107 24 102 25 106 26 7 27 1 28 2 29 3 30 4 31
REMARK SMILES IDX 6 32 5 33 103 34 104 35 105 36 22 37 23 38 24 39 25 40 26 41
REMARK SMILES IDX 27 42 28 43 29 44 30 45 31 46 92 47 32 48 91 49 33 50 34 51
REMARK SMILES IDX 35 52 85 53 36 54 90 55 84 56 86 57 37 58 89 59 83 60 82 61
REMARK SMILES IDX 38 63 70 64 50 65 69 66 51 67 54 68 68 69 87 70 52 71 53 72
REMARK SMILES IDX 67 74 88 75 55 76 39 77 40 78 48 79 41 80 43 81 49 82 42 83
REMARK SMILES IDX 44 84 45 85 46 86 47 87 71 88 72 89 80 90 73 91 75 92 81 93
REMARK SMILES IDX 74 94 76 95 77 96 78 97 79 98 56 99 57 100 65 101 58 102
REMARK SMILES IDX 60 103 66 104 59 105 61 106 62 107 63 108 64 109
REMARK H PARENT 86 62 54 73
REMARK Flexibility Score: inf
ROOT
ATOM      1  O   UNL     1       1.032   3.434  -2.753  1.00  0.00    -0.377 OA
ENDROOT
BRANCH   1   2
ATOM      2  C   UNL     1       0.917   2.492  -3.823  1.00  0.00     0.188 C 
BRANCH   2   3
ATOM      3  C   UNL     1      -0.254   1.480  -3.732  1.00  0.00     0.188 C 
BRANCH   3   4
ATOM      4  O   UNL     1      -1.446   1.780  -3.012  1.00  0.00    -0.376 OA
BRANCH   4   5
ATOM      5  C   UNL     1      -1.427   2.473  -1.789  1.00  0.00     0.202 C 
BRANCH   5   6
ATOM      6  C   UNL     1      -1.174   1.698  -0.537  1.00  0.00     0.261 C 
BRANCH   6   7
ATOM      7  O   UNL     1       0.237   1.575  -0.482  1.00  0.00    -0.462 OA
BRANCH   7   8
ATOM      8  C   UNL     1       0.682   0.377  -0.912  1.00  0.00     0.319 C 
ATOM      9  O   UNL     1      -0.028  -0.566  -1.115  1.00  0.00    -0.251 OA
BRANCH   8  10
ATOM     10  C   UNL     1       2.154   0.400  -1.241  1.00  0.00     0.161 C 
ATOM     11  C   UNL     1       2.720  -0.933  -0.823  1.00  0.00     0.032 C 
BRANCH  10  12
ATOM     12  S   UNL     1       3.324   1.597  -0.621  1.00  0.00    -0.072 SA
BRANCH  12  13
ATOM     13  C   UNL     1       2.580   2.918   0.224  1.00  0.00     0.177 A 
ATOM     14  N   UNL     1       1.677   2.794   1.314  1.00  0.00    -0.255 N 
ATOM     15  C   UNL     1       0.883   3.929   1.529  1.00  0.00     0.267 A 
ATOM     16  N   UNL     1       3.045   4.058  -0.229  1.00  0.00    -0.212 NA
ATOM     17  C   UNL     1       1.592   5.153   1.312  1.00  0.00     0.081 A 
ATOM     18  O   UNL     1      -0.279   4.017   1.904  1.00  0.00    -0.268 OA
ATOM     19  C   UNL     1       2.623   5.153   0.425  1.00  0.00     0.132 A 
ATOM     20  C   UNL     1       1.489   6.345   2.049  1.00  0.00    -0.014 A 
ATOM     21  S   UNL     1       3.368   6.687   0.337  1.00  0.00    -0.117 S 
ATOM     22  C   UNL     1       2.437   7.260   1.654  1.00  0.00     0.037 A 
ATOM     23  C   UNL     1       0.688   6.563   3.282  1.00  0.00     0.070 C 
ATOM     24  C   UNL     1       2.755   8.507   2.407  1.00  0.00     0.207 C 
ATOM     25  C   UNL     1       1.559   7.379   4.253  1.00  0.00     0.125 C 
ATOM     26  O   UNL     1       1.929   8.621   3.597  1.00  0.00    -0.372 OA
BRANCH  14  27
ATOM     27  C   UNL     1       1.338   1.565   2.039  1.00  0.00     0.054 A 
ATOM     28  C   UNL     1       3.711   0.553   2.265  1.00  0.00     0.046 C 
ATOM     29  C   UNL     1       2.208   0.481   2.257  1.00  0.00    -0.027 A 
ATOM     30  C   UNL     1       1.658  -0.794   2.531  1.00  0.00     0.005 A 
ATOM     31  C   UNL     1       0.295  -0.979   2.707  1.00  0.00     0.000 A 
ATOM     32  C   UNL     1       0.011   1.377   2.493  1.00  0.00     0.027 A 
ATOM     33  C   UNL     1      -0.520   0.123   2.766  1.00  0.00     0.002 A 
ENDBRANCH  14  27
BRANCH  25  34
ATOM     34  C   UNL     1       2.800   6.625   4.824  1.00  0.00     0.012 C 
ATOM     35  C   UNL     1       3.532   7.518   5.828  1.00  0.00     0.010 C 
ATOM     36  C   UNL     1       2.455   5.284   5.481  1.00  0.00     0.010 C 
ENDBRANCH  25  34
ENDBRANCH  12  13
ENDBRANCH  10  12
ENDBRANCH   8  10
ENDBRANCH   7   8
ENDBRANCH   6   7
ENDBRANCH   5   6
ENDBRANCH   4   5
ENDBRANCH   3   4
ENDBRANCH   2   3
ENDBRANCH   1   2
BRANCH   1  37
ATOM     37  C   UNL     1       0.691   4.782  -3.099  1.00  0.00     0.188 C 
BRANCH  37  38
ATOM     38  C   UNL     1      -0.740   5.041  -3.602  1.00  0.00     0.188 C 
BRANCH  38  39
ATOM     39  O   UNL     1      -1.123   4.069  -4.550  1.00  0.00    -0.376 OA
BRANCH  39  40
ATOM     40  C   UNL     1      -1.584   4.515  -5.804  1.00  0.00     0.202 C 
BRANCH  40  41
ATOM     41  C   UNL     1      -2.909   5.268  -5.669  1.00  0.00     0.261 C 
BRANCH  41  42
ATOM     42  O   UNL     1      -3.856   4.468  -4.905  1.00  0.00    -0.460 OA
BRANCH  42  43
ATOM     43  C   UNL     1      -4.139   4.805  -3.606  1.00  0.00     0.338 C 
ATOM     44  O   UNL     1      -3.989   5.921  -3.130  1.00  0.00    -0.246 OA
BRANCH  43  45
ATOM     45  C   UNL     1      -4.531   3.586  -2.779  1.00  0.00     0.060 A 
ATOM     46  C   UNL     1      -4.696   3.584  -1.363  1.00  0.00     0.016 A 
ATOM     47  C   UNL     1      -4.449   2.348  -3.367  1.00  0.00     0.016 A 
ATOM     48  C   UNL     1      -4.650   2.357  -0.539  1.00  0.00     0.010 A 
ATOM     49  C   UNL     1      -4.365   1.197  -2.556  1.00  0.00     0.010 A 
ATOM     50  C   UNL     1      -4.435   1.094  -1.113  1.00  0.00    -0.014 A 
BRANCH  50  51
ATOM     51  C   UNL     1      -4.029  -0.349  -0.537  1.00  0.00     0.031 A 
ATOM     52  C   UNL     1      -4.373  -1.302  -1.637  1.00  0.00     0.074 A 
ATOM     53  C   UNL     1      -3.681  -1.222   0.495  1.00  0.00     0.049 A 
ATOM     54  N   UNL     1      -3.535  -1.767  -2.495  1.00  0.00    -0.248 NA
ATOM     55  C   UNL     1      -5.795  -1.497  -1.992  1.00  0.00     0.031 C 
ATOM     56  C   UNL     1      -3.861  -1.218   1.952  1.00  0.00     0.029 A 
ATOM     57  N   UNL     1      -2.923  -2.432   0.363  1.00  0.00    -0.354 N 
ATOM     58  C   UNL     1      -4.306  -2.494  -3.379  1.00  0.00     0.074 A 
ATOM     59  C   UNL     1      -5.683  -2.120  -3.171  1.00  0.00     0.031 C 
ATOM     60  C   UNL     1      -3.396  -2.386   2.508  1.00  0.00     0.029 A 
ATOM     61  C   UNL     1      -2.715  -3.233   1.505  1.00  0.00     0.049 A 
ATOM     62  H   UNL     1      -2.554  -2.698  -0.510  1.00  0.00     0.167 HD
ATOM     63  C   UNL     1      -3.817  -3.630  -3.921  1.00  0.00     0.034 A 
ATOM     64  C   UNL     1      -1.763  -4.211   1.807  1.00  0.00     0.034 A 
ATOM     65  C   UNL     1      -2.685  -4.049  -3.162  1.00  0.00     0.049 A 
ATOM     66  C   UNL     1      -0.462  -4.050   1.040  1.00  0.00     0.074 A 
ATOM     67  C   UNL     1      -2.743  -4.758  -1.988  1.00  0.00     0.029 A 
ATOM     68  N   UNL     1      -1.394  -3.625  -3.358  1.00  0.00    -0.354 N 
ATOM     69  N   UNL     1      -0.301  -3.250   0.038  1.00  0.00    -0.248 NA
ATOM     70  C   UNL     1       0.758  -4.823   1.341  1.00  0.00     0.031 C 
ATOM     71  C   UNL     1      -1.439  -5.121  -1.765  1.00  0.00     0.029 A 
ATOM     72  C   UNL     1      -0.607  -4.234  -2.411  1.00  0.00     0.049 A 
ATOM     73  H   UNL     1      -1.087  -2.997  -4.052  1.00  0.00     0.167 HD
ATOM     74  C   UNL     1       0.820  -3.664  -0.662  1.00  0.00     0.074 A 
ATOM     75  C   UNL     1       1.517  -4.559   0.265  1.00  0.00     0.031 C 
ATOM     76  C   UNL     1       0.734  -3.885  -2.022  1.00  0.00     0.034 A 
BRANCH  63  77
ATOM     77  C   UNL     1      -4.605  -4.685  -4.629  1.00  0.00     0.023 A 
ATOM     78  C   UNL     1      -4.403  -6.032  -4.224  1.00  0.00     0.012 A 
ATOM     79  C   UNL     1      -5.447  -4.454  -5.718  1.00  0.00     0.148 A 
ATOM     80  C   UNL     1      -4.986  -7.113  -4.855  1.00  0.00     0.002 A 
ATOM     81  C   UNL     1      -6.031  -5.546  -6.363  1.00  0.00     0.091 A 
ATOM     82  F   UNL     1      -5.641  -3.194  -6.134  1.00  0.00    -0.205 F 
ATOM     83  C   UNL     1      -5.798  -6.868  -5.938  1.00  0.00     0.022 A 
BRANCH  81  84
ATOM     84  S   UNL     1      -7.117  -5.357  -7.772  1.00  0.00     0.127 S 
ATOM     85  O   UNL     1      -6.250  -5.744  -8.883  1.00  0.00    -0.237 OA
ATOM     86  O   UNL     1      -8.188  -6.311  -7.476  1.00  0.00    -0.237 OA
ATOM     87  O   UNL     1      -7.546  -3.964  -7.759  1.00  0.00    -0.744 OA
ENDBRANCH  81  84
ENDBRANCH  63  77
BRANCH  64  88
ATOM     88  C   UNL     1      -2.112  -5.701   2.146  1.00  0.00     0.023 A 
ATOM     89  C   UNL     1      -2.401  -6.213   3.419  1.00  0.00     0.012 A 
ATOM     90  C   UNL     1      -1.990  -6.722   1.157  1.00  0.00     0.148 A 
ATOM     91  C   UNL     1      -2.716  -7.593   3.609  1.00  0.00     0.002 A 
ATOM     92  C   UNL     1      -2.563  -7.985   1.272  1.00  0.00     0.091 A 
ATOM     93  F   UNL     1      -0.824  -6.755   0.492  1.00  0.00    -0.205 F 
ATOM     94  C   UNL     1      -2.883  -8.459   2.526  1.00  0.00     0.022 A 
BRANCH  92  95
ATOM     95  S   UNL     1      -2.820  -9.027  -0.176  1.00  0.00     0.127 S 
ATOM     96  O   UNL     1      -2.179 -10.281   0.215  1.00  0.00    -0.237 OA
ATOM     97  O   UNL     1      -4.280  -9.075  -0.232  1.00  0.00    -0.237 OA
ATOM     98  O   UNL     1      -2.179  -8.321  -1.274  1.00  0.00    -0.744 OA
ENDBRANCH  92  95
ENDBRANCH  64  88
BRANCH  76  99
ATOM     99  C   UNL     1       1.848  -3.415  -2.916  1.00  0.00     0.023 A 
ATOM    100  C   UNL     1       3.194  -3.628  -2.549  1.00  0.00     0.012 A 
ATOM    101  C   UNL     1       1.602  -2.542  -4.005  1.00  0.00     0.148 A 
ATOM    102  C   UNL     1       4.231  -2.892  -3.133  1.00  0.00     0.002 A 
ATOM    103  C   UNL     1       2.640  -1.837  -4.603  1.00  0.00     0.091 A 
ATOM    104  F   UNL     1       0.352  -2.326  -4.421  1.00  0.00    -0.205 F 
ATOM    105  C   UNL     1       3.950  -1.974  -4.137  1.00  0.00     0.022 A 
BRANCH 103 106
ATOM    106  S   UNL     1       2.365  -0.650  -5.925  1.00  0.00     0.127 S 
ATOM    107  O   UNL     1       3.078   0.527  -5.427  1.00  0.00    -0.237 OA
ATOM    108  O   UNL     1       3.002  -1.312  -7.060  1.00  0.00    -0.237 OA
ATOM    109  O   UNL     1       0.925  -0.470  -6.025  1.00  0.00    -0.744 OA
ENDBRANCH 103 106
ENDBRANCH  76  99
ENDBRANCH  50  51
ENDBRANCH  43  45
ENDBRANCH  42  43
ENDBRANCH  41  42
ENDBRANCH  40  41
ENDBRANCH  39  40
ENDBRANCH  38  39
ENDBRANCH  37  38
ENDBRANCH   1  37
TORSDOF 27
