REMARK SMILES Cc1ccc(S(=O)(=O)Nc2ccc(Cl)c(C(=O)OCCOCCOCCOCCOC(=O)c3ccc(-c4c5nc(c(-c6cccc(S(=O)(=O)[O-])c6F)c6ccc([nH]6)c(-c6cccc(S(=O)(=O)[O-])c6F)c6nc(c(-c7cccc(S(=O)(=O)[O-])c7F)c7ccc4[nH]7)C=C6)C=C5)cc3)c2)cc1Cl
REMARK SMILES IDX 24 1 23 2 22 3 21 4 20 5 19 6 18 7 16 8 17 9 15 10 10 11
REMARK SMILES IDX 11 12 96 13 12 14 13 15 14 16 9 17 6 19 7 20 8 21 5 22 1 23
REMARK SMILES IDX 2 24 3 25 98 26 4 27 97 28 99 29 25 30 26 31 27 32 28 33
REMARK SMILES IDX 29 34 30 35 31 36 32 37 33 38 34 39 95 40 35 41 94 42 36 43
REMARK SMILES IDX 37 44 38 45 88 46 39 47 93 48 87 49 89 50 40 51 92 52 86 53
REMARK SMILES IDX 85 54 41 56 73 57 53 58 72 59 54 60 57 61 71 62 90 63 55 64
REMARK SMILES IDX 56 65 70 67 91 68 58 69 42 70 43 71 51 72 44 73 46 74 52 75
REMARK SMILES IDX 45 76 47 77 48 78 49 79 50 80 74 81 75 82 83 83 76 84 78 85
REMARK SMILES IDX 84 86 77 87 79 88 80 89 81 90 82 91 59 92 60 93 68 94 61 95
REMARK SMILES IDX 63 96 69 97 62 98 64 99 65 100 66 101 67 102
REMARK H PARENT 9 18 89 55 57 66
REMARK Flexibility Score: inf
ROOT
ATOM      1  O   UNL     1      -4.461   1.481  -4.247  1.00  0.00    -0.377 OA
ENDROOT
BRANCH   1   2
ATOM      2  C   UNL     1      -5.464   2.123  -3.484  1.00  0.00     0.188 C 
BRANCH   2   3
ATOM      3  C   UNL     1      -5.129   3.569  -3.064  1.00  0.00     0.188 C 
BRANCH   3   4
ATOM      4  O   UNL     1      -4.127   4.196  -3.841  1.00  0.00    -0.376 OA
BRANCH   4   5
ATOM      5  C   UNL     1      -2.748   4.108  -3.523  1.00  0.00     0.202 C 
BRANCH   5   6
ATOM      6  C   UNL     1      -2.071   2.935  -2.794  1.00  0.00     0.261 C 
BRANCH   6   7
ATOM      7  O   UNL     1      -2.922   2.044  -2.088  1.00  0.00    -0.460 OA
BRANCH   7   8
ATOM      8  C   UNL     1      -3.283   2.376  -0.833  1.00  0.00     0.339 C 
ATOM      9  O   UNL     1      -2.928   3.349  -0.206  1.00  0.00    -0.246 OA
BRANCH   8  10
ATOM     10  C   UNL     1      -4.261   1.354  -0.377  1.00  0.00     0.080 A 
ATOM     11  C   UNL     1      -4.721  -1.002  -0.086  1.00  0.00     0.050 A 
ATOM     12  C   UNL     1      -5.815  -0.691   0.721  1.00  0.00     0.028 A 
ATOM     13  C   UNL     1      -4.032   0.015  -0.732  1.00  0.00     0.044 A 
ATOM     14  C   UNL     1      -6.151   0.648   0.951  1.00  0.00     0.023 A 
ATOM     15  C   UNL     1      -5.349   1.675   0.440  1.00  0.00     0.055 A 
ATOM     16  Cl  UNL     1      -5.814   3.294   0.813  1.00  0.00    -0.083 Cl
BRANCH  11  17
ATOM     17  N   UNL     1      -4.293  -2.351  -0.251  1.00  0.00    -0.280 N 
ATOM     18  H   UNL     1      -4.882  -2.994  -0.707  1.00  0.00     0.180 HD
BRANCH  17  19
ATOM     19  S   UNL     1      -2.760  -2.874   0.334  1.00  0.00     0.261 S 
ATOM     20  O   UNL     1      -2.270  -3.776  -0.683  1.00  0.00    -0.201 OA
ATOM     21  O   UNL     1      -3.015  -3.345   1.681  1.00  0.00    -0.201 OA
BRANCH  19  22
ATOM     22  C   UNL     1      -1.624  -1.509   0.479  1.00  0.00     0.089 A 
ATOM     23  C   UNL     1       0.770   2.063   0.253  1.00  0.00     0.046 C 
ATOM     24  C   UNL     1       0.010   0.774   0.400  1.00  0.00    -0.032 A 
ATOM     25  C   UNL     1      -1.149   0.754   1.189  1.00  0.00     0.006 A 
ATOM     26  C   UNL     1       0.426  -0.422  -0.204  1.00  0.00     0.045 A 
ATOM     27  C   UNL     1      -1.933  -0.401   1.274  1.00  0.00     0.022 A 
ATOM     28  C   UNL     1      -0.403  -1.550  -0.200  1.00  0.00     0.043 A 
ATOM     29  Cl  UNL     1       1.970  -0.541  -0.964  1.00  0.00    -0.084 Cl
ENDBRANCH  19  22
ENDBRANCH  17  19
ENDBRANCH  11  17
ENDBRANCH   8  10
ENDBRANCH   7   8
ENDBRANCH   6   7
ENDBRANCH   5   6
ENDBRANCH   4   5
ENDBRANCH   3   4
ENDBRANCH   2   3
ENDBRANCH   1   2
BRANCH   1  30
ATOM     30  C   UNL     1      -4.307   1.839  -5.620  1.00  0.00     0.188 C 
BRANCH  30  31
ATOM     31  C   UNL     1      -5.027   3.063  -6.238  1.00  0.00     0.188 C 
BRANCH  31  32
ATOM     32  O   UNL     1      -6.293   3.372  -5.675  1.00  0.00    -0.376 OA
BRANCH  32  33
ATOM     33  C   UNL     1      -7.465   2.978  -6.367  1.00  0.00     0.202 C 
BRANCH  33  34
ATOM     34  C   UNL     1      -7.695   1.474  -6.570  1.00  0.00     0.261 C 
BRANCH  34  35
ATOM     35  O   UNL     1      -6.652   0.761  -7.247  1.00  0.00    -0.460 OA
BRANCH  35  36
ATOM     36  C   UNL     1      -6.355   1.136  -8.511  1.00  0.00     0.338 C 
ATOM     37  O   UNL     1      -6.901   2.002  -9.167  1.00  0.00    -0.246 OA
BRANCH  36  38
ATOM     38  C   UNL     1      -5.103   0.446  -8.889  1.00  0.00     0.060 A 
ATOM     39  C   UNL     1      -3.967   1.209  -9.192  1.00  0.00     0.016 A 
ATOM     40  C   UNL     1      -5.045  -0.949  -8.906  1.00  0.00     0.016 A 
ATOM     41  C   UNL     1      -2.772   0.575  -9.533  1.00  0.00     0.010 A 
ATOM     42  C   UNL     1      -3.856  -1.581  -9.273  1.00  0.00     0.010 A 
ATOM     43  C   UNL     1      -2.722  -0.822  -9.614  1.00  0.00    -0.014 A 
BRANCH  43  44
ATOM     44  C   UNL     1      -1.543  -1.489 -10.214  1.00  0.00     0.031 A 
ATOM     45  C   UNL     1      -1.620  -1.920 -11.652  1.00  0.00     0.074 A 
ATOM     46  C   UNL     1      -0.432  -1.726  -9.493  1.00  0.00     0.049 A 
ATOM     47  N   UNL     1      -0.749  -2.579 -12.368  1.00  0.00    -0.248 NA
ATOM     48  C   UNL     1      -2.850  -1.561 -12.379  1.00  0.00     0.031 C 
ATOM     49  C   UNL     1      -0.233  -1.346  -8.097  1.00  0.00     0.029 A 
ATOM     50  N   UNL     1       0.727  -2.377  -9.836  1.00  0.00    -0.354 N 
ATOM     51  C   UNL     1      -1.336  -2.745 -13.617  1.00  0.00     0.074 A 
ATOM     52  C   UNL     1      -2.640  -2.122 -13.560  1.00  0.00     0.031 C 
ATOM     53  C   UNL     1       0.965  -1.802  -7.689  1.00  0.00     0.029 A 
ATOM     54  C   UNL     1       1.598  -2.534  -8.785  1.00  0.00     0.049 A 
ATOM     55  H   UNL     1       0.916  -2.700 -10.747  1.00  0.00     0.167 HD
ATOM     56  C   UNL     1      -0.831  -3.355 -14.715  1.00  0.00     0.034 A 
ATOM     57  C   UNL     1       2.756  -3.222  -8.708  1.00  0.00     0.034 A 
ATOM     58  C   UNL     1       0.467  -3.970 -14.769  1.00  0.00     0.049 A 
ATOM     59  C   UNL     1       3.274  -3.935  -9.931  1.00  0.00     0.074 A 
ATOM     60  C   UNL     1       1.088  -4.571 -15.850  1.00  0.00     0.029 A 
ATOM     61  N   UNL     1       1.334  -4.085 -13.694  1.00  0.00    -0.354 N 
ATOM     62  N   UNL     1       2.764  -3.985 -11.139  1.00  0.00    -0.248 NA
ATOM     63  C   UNL     1       4.542  -4.666  -9.788  1.00  0.00     0.031 C 
ATOM     64  C   UNL     1       2.312  -5.089 -15.416  1.00  0.00     0.029 A 
ATOM     65  C   UNL     1       2.475  -4.769 -14.078  1.00  0.00     0.049 A 
ATOM     66  H   UNL     1       1.164  -3.733 -12.791  1.00  0.00     0.167 HD
ATOM     67  C   UNL     1       3.663  -4.721 -11.905  1.00  0.00     0.074 A 
ATOM     68  C   UNL     1       4.761  -5.077 -11.030  1.00  0.00     0.031 C 
ATOM     69  C   UNL     1       3.583  -5.080 -13.210  1.00  0.00     0.034 A 
BRANCH  56  70
ATOM     70  C   UNL     1      -1.689  -3.386 -15.953  1.00  0.00     0.023 A 
ATOM     71  C   UNL     1      -1.912  -2.202 -16.684  1.00  0.00     0.012 A 
ATOM     72  C   UNL     1      -2.231  -4.600 -16.419  1.00  0.00     0.148 A 
ATOM     73  C   UNL     1      -2.689  -2.219 -17.842  1.00  0.00     0.002 A 
ATOM     74  C   UNL     1      -2.963  -4.617 -17.600  1.00  0.00     0.091 A 
ATOM     75  F   UNL     1      -2.026  -5.711 -15.697  1.00  0.00    -0.205 F 
ATOM     76  C   UNL     1      -3.204  -3.427 -18.305  1.00  0.00     0.022 A 
BRANCH  74  77
ATOM     77  S   UNL     1      -3.601  -6.133 -18.322  1.00  0.00     0.127 S 
ATOM     78  O   UNL     1      -5.043  -5.953 -18.156  1.00  0.00    -0.237 OA
ATOM     79  O   UNL     1      -3.130  -6.035 -19.703  1.00  0.00    -0.237 OA
ATOM     80  O   UNL     1      -3.018  -7.223 -17.554  1.00  0.00    -0.744 OA
ENDBRANCH  74  77
ENDBRANCH  56  70
BRANCH  57  81
ATOM     81  C   UNL     1       3.514  -3.270  -7.425  1.00  0.00     0.023 A 
ATOM     82  C   UNL     1       4.766  -2.633  -7.328  1.00  0.00     0.012 A 
ATOM     83  C   UNL     1       3.000  -3.947  -6.302  1.00  0.00     0.148 A 
ATOM     84  C   UNL     1       5.506  -2.696  -6.147  1.00  0.00     0.002 A 
ATOM     85  C   UNL     1       3.717  -3.960  -5.112  1.00  0.00     0.091 A 
ATOM     86  F   UNL     1       1.814  -4.561  -6.420  1.00  0.00    -0.205 F 
ATOM     87  C   UNL     1       4.978  -3.350  -5.037  1.00  0.00     0.022 A 
BRANCH  85  88
ATOM     88  S   UNL     1       3.071  -4.687  -3.602  1.00  0.00     0.127 S 
ATOM     89  O   UNL     1       3.992  -5.802  -3.391  1.00  0.00    -0.237 OA
ATOM     90  O   UNL     1       3.214  -3.582  -2.654  1.00  0.00    -0.237 OA
ATOM     91  O   UNL     1       1.695  -5.056  -3.900  1.00  0.00    -0.744 OA
ENDBRANCH  85  88
ENDBRANCH  57  81
BRANCH  69  92
ATOM     92  C   UNL     1       4.728  -5.867 -13.796  1.00  0.00     0.023 A 
ATOM     93  C   UNL     1       4.923  -7.212 -13.425  1.00  0.00     0.012 A 
ATOM     94  C   UNL     1       5.564  -5.294 -14.776  1.00  0.00     0.148 A 
ATOM     95  C   UNL     1       5.953  -7.963 -13.993  1.00  0.00     0.002 A 
ATOM     96  C   UNL     1       6.553  -6.063 -15.376  1.00  0.00     0.091 A 
ATOM     97  F   UNL     1       5.371  -4.009 -15.107  1.00  0.00    -0.205 F 
ATOM     98  C   UNL     1       6.759  -7.393 -14.976  1.00  0.00     0.022 A 
BRANCH  96  99
ATOM     99  S   UNL     1       7.576  -5.447 -16.719  1.00  0.00     0.127 S 
ATOM    100  O   UNL     1       8.889  -5.368 -16.082  1.00  0.00    -0.237 OA
ATOM    101  O   UNL     1       7.445  -6.508 -17.718  1.00  0.00    -0.237 OA
ATOM    102  O   UNL     1       6.999  -4.169 -17.114  1.00  0.00    -0.744 OA
ENDBRANCH  96  99
ENDBRANCH  69  92
ENDBRANCH  43  44
ENDBRANCH  36  38
ENDBRANCH  35  36
ENDBRANCH  34  35
ENDBRANCH  33  34
ENDBRANCH  32  33
ENDBRANCH  31  32
ENDBRANCH  30  31
ENDBRANCH   1  30
TORSDOF 26
