REMARK SMILES Cc1cc(=O)c(Oc2ccc(C(=O)OCCOCCOCCOCCOC(=O)c3ccc(-c4c5nc(c(-c6cccc(S(=O)(=O)[O-])c6F)c6ccc([nH]6)c(-c6cccc(S(=O)(=O)[O-])c6F)c6nc(c(-c7cccc(S(=O)(=O)[O-])c7F)c7ccc4[nH]7)C=C6)C=C5)cc3)cc2)c(-c2ccc(S(C)(=O)=O)cc2)o1
REMARK SMILES IDX 19 1 18 2 17 3 16 4 15 5 14 6 12 7 13 8 11 9 8 10 9 11 93 12
REMARK SMILES IDX 10 13 92 14 7 15 6 16 1 17 2 18 3 19 105 20 4 21 94 22 5 23
REMARK SMILES IDX 95 24 96 25 104 26 97 27 103 28 98 29 99 30 100 31 101 32
REMARK SMILES IDX 102 33 20 34 21 35 22 36 23 37 24 38 25 39 26 40 27 41 28 42
REMARK SMILES IDX 29 43 30 44 91 45 31 46 90 47 32 48 33 49 34 50 84 51 35 52
REMARK SMILES IDX 89 53 83 54 85 55 36 56 88 57 82 58 81 59 37 61 69 62 49 63
REMARK SMILES IDX 68 64 50 65 53 66 67 67 86 68 51 69 52 70 66 72 87 73 54 74
REMARK SMILES IDX 38 75 39 76 47 77 40 78 42 79 48 80 41 81 43 82 44 83 45 84
REMARK SMILES IDX 46 85 70 86 71 87 79 88 72 89 74 90 80 91 73 92 75 93 76 94
REMARK SMILES IDX 77 95 78 96 55 97 56 98 64 99 57 100 59 101 65 102 58 103
REMARK SMILES IDX 60 104 61 105 62 106 63 107
REMARK H PARENT 85 60 53 71
REMARK Flexibility Score: inf
ROOT
ATOM      1  C   UNL     1      -3.456  -4.195   7.265  1.00  0.00     0.188 C 
ENDROOT
BRANCH   1   2
ATOM      2  C   UNL     1      -4.264  -5.438   7.029  1.00  0.00     0.188 C 
BRANCH   2   3
ATOM      3  O   UNL     1      -5.374  -5.591   7.900  1.00  0.00    -0.376 OA
BRANCH   3   4
ATOM      4  C   UNL     1      -6.308  -6.583   7.457  1.00  0.00     0.202 C 
BRANCH   4   5
ATOM      5  C   UNL     1      -5.693  -7.941   7.058  1.00  0.00     0.261 C 
BRANCH   5   6
ATOM      6  O   UNL     1      -4.750  -7.882   5.954  1.00  0.00    -0.460 OA
BRANCH   6   7
ATOM      7  C   UNL     1      -5.177  -7.440   4.745  1.00  0.00     0.338 C 
ATOM      8  O   UNL     1      -6.341  -7.345   4.394  1.00  0.00    -0.246 OA
BRANCH   7   9
ATOM      9  C   UNL     1      -4.013  -6.888   3.962  1.00  0.00     0.060 A 
ATOM     10  C   UNL     1      -1.907  -5.597   2.571  1.00  0.00     0.127 A 
ATOM     11  C   UNL     1      -3.214  -5.496   2.107  1.00  0.00     0.048 A 
ATOM     12  C   UNL     1      -1.648  -6.382   3.703  1.00  0.00     0.048 A 
ATOM     13  C   UNL     1      -4.264  -6.115   2.816  1.00  0.00     0.019 A 
ATOM     14  C   UNL     1      -2.686  -7.024   4.393  1.00  0.00     0.019 A 
BRANCH  10  15
ATOM     15  O   UNL     1      -0.797  -5.149   1.911  1.00  0.00    -0.449 OA
BRANCH  15  16
ATOM     16  C   UNL     1      -0.567  -3.906   1.351  1.00  0.00     0.217 A 
ATOM     17  C   UNL     1       0.972  -0.116  -0.059  1.00  0.00     0.088 C 
ATOM     18  C   UNL     1       0.503  -1.492   0.290  1.00  0.00     0.105 A 
ATOM     19  C   UNL     1       1.211  -2.597   0.052  1.00  0.00     0.098 A 
ATOM     20  O   UNL     1      -0.726  -1.530   0.907  1.00  0.00    -0.457 OA
ATOM     21  C   UNL     1       0.662  -3.893   0.483  1.00  0.00     0.228 A 
ATOM     22  C   UNL     1      -1.178  -2.704   1.504  1.00  0.00     0.180 A 
ATOM     23  O   UNL     1       1.240  -4.923   0.146  1.00  0.00    -0.285 OA
BRANCH  22  24
ATOM     24  C   UNL     1      -2.368  -2.400   2.305  1.00  0.00     0.021 A 
ATOM     25  C   UNL     1      -3.508  -1.865   1.675  1.00  0.00     0.013 A 
ATOM     26  C   UNL     1      -2.357  -2.537   3.691  1.00  0.00     0.013 A 
ATOM     27  C   UNL     1      -4.662  -1.574   2.404  1.00  0.00     0.021 A 
ATOM     28  C   UNL     1      -3.501  -2.219   4.418  1.00  0.00     0.021 A 
ATOM     29  C   UNL     1      -4.660  -1.781   3.778  1.00  0.00     0.067 A 
BRANCH  29  30
ATOM     30  S   UNL     1      -6.175  -1.664   4.706  1.00  0.00     0.175 S 
ATOM     31  C   UNL     1      -6.117  -0.059   5.451  1.00  0.00     0.163 C 
ATOM     32  O   UNL     1      -7.264  -1.671   3.743  1.00  0.00    -0.224 OA
ATOM     33  O   UNL     1      -6.110  -2.670   5.743  1.00  0.00    -0.224 OA
ENDBRANCH  29  30
ENDBRANCH  22  24
ENDBRANCH  15  16
ENDBRANCH  10  15
ENDBRANCH   7   9
ENDBRANCH   6   7
ENDBRANCH   5   6
ENDBRANCH   4   5
ENDBRANCH   3   4
ENDBRANCH   2   3
ENDBRANCH   1   2
BRANCH   1  34
ATOM     34  O   UNL     1      -2.869  -4.102   8.545  1.00  0.00    -0.377 OA
BRANCH  34  35
ATOM     35  C   UNL     1      -3.788  -3.686   9.539  1.00  0.00     0.188 C 
BRANCH  35  36
ATOM     36  C   UNL     1      -4.524  -2.336   9.345  1.00  0.00     0.188 C 
BRANCH  36  37
ATOM     37  O   UNL     1      -4.164  -1.374   8.348  1.00  0.00    -0.376 OA
BRANCH  37  38
ATOM     38  C   UNL     1      -2.814  -1.111   7.997  1.00  0.00     0.202 C 
BRANCH  38  39
ATOM     39  C   UNL     1      -2.066  -0.107   8.860  1.00  0.00     0.261 C 
BRANCH  39  40
ATOM     40  O   UNL     1      -1.471  -0.805   9.954  1.00  0.00    -0.460 OA
BRANCH  40  41
ATOM     41  C   UNL     1      -2.194  -0.809  11.091  1.00  0.00     0.338 C 
ATOM     42  O   UNL     1      -3.118  -0.055  11.368  1.00  0.00    -0.246 OA
BRANCH  41  43
ATOM     43  C   UNL     1      -1.851  -2.025  11.858  1.00  0.00     0.060 A 
ATOM     44  C   UNL     1      -0.650  -2.716  11.651  1.00  0.00     0.016 A 
ATOM     45  C   UNL     1      -2.825  -2.541  12.727  1.00  0.00     0.016 A 
ATOM     46  C   UNL     1      -0.402  -3.889  12.357  1.00  0.00     0.010 A 
ATOM     47  C   UNL     1      -2.582  -3.719  13.427  1.00  0.00     0.010 A 
ATOM     48  C   UNL     1      -1.347  -4.364  13.283  1.00  0.00    -0.014 A 
BRANCH  48  49
ATOM     49  C   UNL     1      -0.894  -5.299  14.330  1.00  0.00     0.031 A 
ATOM     50  C   UNL     1      -1.192  -6.758  14.303  1.00  0.00     0.074 A 
ATOM     51  C   UNL     1      -0.183  -4.744  15.330  1.00  0.00     0.049 A 
ATOM     52  N   UNL     1      -0.716  -7.689  15.085  1.00  0.00    -0.248 NA
ATOM     53  C   UNL     1      -2.141  -7.241  13.290  1.00  0.00     0.031 C 
ATOM     54  C   UNL     1       0.088  -3.307  15.460  1.00  0.00     0.029 A 
ATOM     55  N   UNL     1       0.451  -5.300  16.405  1.00  0.00    -0.354 N 
ATOM     56  C   UNL     1      -1.295  -8.875  14.660  1.00  0.00     0.074 A 
ATOM     57  C   UNL     1      -2.184  -8.541  13.566  1.00  0.00     0.031 C 
ATOM     58  C   UNL     1       0.871  -3.101  16.525  1.00  0.00     0.029 A 
ATOM     59  C   UNL     1       1.145  -4.384  17.157  1.00  0.00     0.049 A 
ATOM     60  H   UNL     1       0.415  -6.261  16.618  1.00  0.00     0.167 HD
ATOM     61  C   UNL     1      -1.072 -10.123  15.133  1.00  0.00     0.034 A 
ATOM     62  C   UNL     1       1.944  -4.558  18.224  1.00  0.00     0.034 A 
ATOM     63  C   UNL     1      -0.182 -10.418  16.226  1.00  0.00     0.049 A 
ATOM     64  C   UNL     1       2.189  -5.950  18.712  1.00  0.00     0.074 A 
ATOM     65  C   UNL     1       0.147 -11.653  16.754  1.00  0.00     0.029 A 
ATOM     66  N   UNL     1       0.511  -9.468  16.963  1.00  0.00    -0.354 N 
ATOM     67  N   UNL     1       1.734  -7.077  18.220  1.00  0.00    -0.248 NA
ATOM     68  C   UNL     1       3.069  -6.106  19.875  1.00  0.00     0.031 C 
ATOM     69  C   UNL     1       1.029 -11.450  17.819  1.00  0.00     0.029 A 
ATOM     70  C   UNL     1       1.263 -10.088  17.944  1.00  0.00     0.049 A 
ATOM     71  H   UNL     1       0.472  -8.496  16.811  1.00  0.00     0.167 HD
ATOM     72  C   UNL     1       2.286  -8.081  18.999  1.00  0.00     0.074 A 
ATOM     73  C   UNL     1       3.117  -7.429  19.993  1.00  0.00     0.031 C 
ATOM     74  C   UNL     1       2.111  -9.420  18.900  1.00  0.00     0.034 A 
BRANCH  61  75
ATOM     75  C   UNL     1      -1.734 -11.277  14.431  1.00  0.00     0.023 A 
ATOM     76  C   UNL     1      -1.212 -11.708  13.195  1.00  0.00     0.012 A 
ATOM     77  C   UNL     1      -2.783 -12.001  15.030  1.00  0.00     0.148 A 
ATOM     78  C   UNL     1      -1.730 -12.834  12.558  1.00  0.00     0.002 A 
ATOM     79  C   UNL     1      -3.279 -13.138  14.402  1.00  0.00     0.091 A 
ATOM     80  F   UNL     1      -3.267 -11.570  16.204  1.00  0.00    -0.205 F 
ATOM     81  C   UNL     1      -2.756 -13.554  13.165  1.00  0.00     0.022 A 
BRANCH  79  82
ATOM     82  S   UNL     1      -4.568 -14.166  15.115  1.00  0.00     0.127 S 
ATOM     83  O   UNL     1      -5.665 -13.958  14.170  1.00  0.00    -0.237 OA
ATOM     84  O   UNL     1      -3.964 -15.497  15.065  1.00  0.00    -0.237 OA
ATOM     85  O   UNL     1      -4.801 -13.649  16.456  1.00  0.00    -0.744 OA
ENDBRANCH  79  82
ENDBRANCH  61  75
BRANCH  62  86
ATOM     86  C   UNL     1       2.638  -3.373  18.789  1.00  0.00     0.023 A 
ATOM     87  C   UNL     1       3.985  -3.147  18.452  1.00  0.00     0.012 A 
ATOM     88  C   UNL     1       1.931  -2.398  19.519  1.00  0.00     0.148 A 
ATOM     89  C   UNL     1       4.620  -1.964  18.833  1.00  0.00     0.002 A 
ATOM     90  C   UNL     1       2.558  -1.207  19.863  1.00  0.00     0.091 A 
ATOM     91  F   UNL     1       0.642  -2.633  19.804  1.00  0.00    -0.205 F 
ATOM     92  C   UNL     1       3.904  -0.991  19.527  1.00  0.00     0.022 A 
BRANCH  90  93
ATOM     93  S   UNL     1       1.693   0.150  20.660  1.00  0.00     0.127 S 
ATOM     94  O   UNL     1       2.423   0.268  21.921  1.00  0.00    -0.237 OA
ATOM     95  O   UNL     1       1.917   1.243  19.713  1.00  0.00    -0.237 OA
ATOM     96  O   UNL     1       0.306  -0.276  20.781  1.00  0.00    -0.744 OA
ENDBRANCH  90  93
ENDBRANCH  62  86
BRANCH  74  97
ATOM     97  C   UNL     1       2.826 -10.298  19.886  1.00  0.00     0.023 A 
ATOM     98  C   UNL     1       2.274 -10.484  21.167  1.00  0.00     0.012 A 
ATOM     99  C   UNL     1       3.934 -11.066  19.480  1.00  0.00     0.148 A 
ATOM    100  C   UNL     1       2.812 -11.435  22.032  1.00  0.00     0.002 A 
ATOM    101  C   UNL     1       4.443 -12.035  20.335  1.00  0.00     0.091 A 
ATOM    102  F   UNL     1       4.437 -10.861  18.255  1.00  0.00    -0.205 F 
ATOM    103  C   UNL     1       3.884 -12.219  21.611  1.00  0.00     0.022 A 
BRANCH 101 104
ATOM    104  S   UNL     1       5.769 -13.148  19.858  1.00  0.00     0.127 S 
ATOM    105  O   UNL     1       6.795 -12.831  20.852  1.00  0.00    -0.237 OA
ATOM    106  O   UNL     1       5.143 -14.459  20.023  1.00  0.00    -0.237 OA
ATOM    107  O   UNL     1       6.118 -12.801  18.487  1.00  0.00    -0.744 OA
ENDBRANCH 101 104
ENDBRANCH  74  97
ENDBRANCH  48  49
ENDBRANCH  41  43
ENDBRANCH  40  41
ENDBRANCH  39  40
ENDBRANCH  38  39
ENDBRANCH  37  38
ENDBRANCH  36  37
ENDBRANCH  35  36
ENDBRANCH  34  35
ENDBRANCH   1  34
TORSDOF 27
