REMARK SMILES COc1cc([C@@H]2CC(=O)Nc3c(C(=O)OCCOCCOCCOCCOC(=O)c4ccc(-c5c6nc(c(-c7cccc(S(=O)(=O)[O-])c7F)c7ccc([nH]7)c(-c7cccc(S(=O)(=O)[O-])c7F)c7nc(c(-c8cccc(S(=O)(=O)[O-])c8F)c8ccc5[nH]8)C=C7)C=C6)cc4)cn(-c4ccc(F)cc4)c32)c(OC)c2c1OCO2
REMARK SMILES IDX 22 1 21 2 20 3 19 4 18 5 17 6 16 7 15 8 13 9 14 10 12 11
REMARK SMILES IDX 6 12 7 13 102 14 8 15 11 16 94 17 9 18 10 19 93 20 5 22 3 23
REMARK SMILES IDX 4 24 107 25 106 26 108 27 103 28 110 29 109 30 2 31 1 32
REMARK SMILES IDX 104 33 105 34 95 35 96 36 101 37 97 38 100 39 98 40 99 41
REMARK SMILES IDX 23 42 24 43 25 44 26 45 27 46 28 47 29 48 30 49 31 50 92 51
REMARK SMILES IDX 32 52 91 53 33 54 34 55 35 56 85 57 36 58 90 59 84 60 86 61
REMARK SMILES IDX 37 62 89 63 83 64 82 65 38 67 70 68 50 69 69 70 51 71 54 72
REMARK SMILES IDX 68 73 87 74 52 75 53 76 67 78 88 79 55 80 39 81 40 82 48 83
REMARK SMILES IDX 41 84 43 85 49 86 42 87 44 88 45 89 46 90 47 91 71 92 72 93
REMARK SMILES IDX 80 94 73 95 75 96 81 97 74 98 76 99 77 100 78 101 79 102
REMARK SMILES IDX 56 103 57 104 65 105 58 106 60 107 66 108 59 109 61 110
REMARK SMILES IDX 62 111 63 112 64 113
REMARK H PARENT 10 21 86 66 54 77
REMARK Flexibility Score: inf
ROOT
ATOM      1  C   UNL     1      -1.811  -8.676   9.954  1.00  0.00     0.188 C 
ENDROOT
BRANCH   1   2
ATOM      2  O   UNL     1      -1.037  -8.149   8.881  1.00  0.00    -0.377 OA
BRANCH   2   3
ATOM      3  C   UNL     1      -1.781  -7.892   7.701  1.00  0.00     0.188 C 
BRANCH   3   4
ATOM      4  C   UNL     1      -1.668  -8.978   6.604  1.00  0.00     0.188 C 
BRANCH   4   5
ATOM      5  O   UNL     1      -0.681 -10.011   6.612  1.00  0.00    -0.376 OA
BRANCH   5   6
ATOM      6  C   UNL     1       0.406 -10.006   7.522  1.00  0.00     0.202 C 
BRANCH   6   7
ATOM      7  C   UNL     1       1.538  -9.005   7.258  1.00  0.00     0.261 C 
BRANCH   7   8
ATOM      8  O   UNL     1       1.099  -7.712   6.839  1.00  0.00    -0.460 OA
BRANCH   8   9
ATOM      9  C   UNL     1       0.835  -7.615   5.505  1.00  0.00     0.341 C 
ATOM     10  O   UNL     1       1.127  -8.460   4.669  1.00  0.00    -0.246 OA
BRANCH   9  11
ATOM     11  C   UNL     1       0.088  -6.412   5.178  1.00  0.00     0.102 A 
ATOM     12  C   UNL     1      -0.448  -2.790   5.123  1.00  0.00     0.082 C 
ATOM     13  C   UNL     1      -0.238  -2.431   6.604  1.00  0.00     0.115 C 
ATOM     14  C   UNL     1      -0.570  -4.273   4.984  1.00  0.00     0.055 A 
ATOM     15  C   UNL     1       0.595  -3.425   7.410  1.00  0.00     0.225 C 
ATOM     16  C   UNL     1       0.025  -5.166   5.841  1.00  0.00     0.078 A 
ATOM     17  N   UNL     1      -1.183  -4.989   3.986  1.00  0.00    -0.317 N 
ATOM     18  O   UNL     1       1.209  -3.078   8.420  1.00  0.00    -0.275 OA
ATOM     19  N   UNL     1       0.585  -4.745   7.025  1.00  0.00    -0.324 N 
ATOM     20  C   UNL     1      -0.753  -6.291   4.080  1.00  0.00     0.109 A 
ATOM     21  H   UNL     1       0.994  -5.414   7.619  1.00  0.00     0.170 HD
BRANCH  12  22
ATOM     22  C   UNL     1       0.651  -2.232   4.197  1.00  0.00     0.012 A 
ATOM     23  C   UNL     1       1.135  -0.802   2.256  1.00  0.00     0.165 A 
ATOM     24  C   UNL     1       0.271  -1.232   3.268  1.00  0.00     0.059 A 
ATOM     25  C   UNL     1       2.408  -1.340   2.225  1.00  0.00     0.211 A 
ATOM     26  C   UNL     1       2.819  -2.274   3.156  1.00  0.00     0.211 A 
ATOM     27  O   UNL     1       3.397  -1.044   1.333  1.00  0.00    -0.449 OA
ATOM     28  C   UNL     1       1.977  -2.733   4.158  1.00  0.00     0.168 A 
ATOM     29  O   UNL     1       4.106  -2.671   2.936  1.00  0.00    -0.449 OA
ATOM     30  C   UNL     1       4.480  -1.843   1.831  1.00  0.00     0.468 C 
BRANCH  23  31
ATOM     31  O   UNL     1       0.614   0.124   1.399  1.00  0.00    -0.493 OA
ATOM     32  C   UNL     1       1.086   0.046   0.060  1.00  0.00     0.278 C 
ENDBRANCH  23  31
BRANCH  28  33
ATOM     33  O   UNL     1       2.317  -3.638   5.112  1.00  0.00    -0.492 OA
ATOM     34  C   UNL     1       3.605  -4.227   5.133  1.00  0.00     0.278 C 
ENDBRANCH  28  33
ENDBRANCH  12  22
BRANCH  17  35
ATOM     35  C   UNL     1      -2.001  -4.509   2.950  1.00  0.00     0.046 A 
ATOM     36  C   UNL     1      -1.417  -3.816   1.888  1.00  0.00     0.029 A 
ATOM     37  C   UNL     1      -3.372  -4.787   2.973  1.00  0.00     0.029 A 
ATOM     38  C   UNL     1      -2.225  -3.349   0.855  1.00  0.00     0.041 A 
ATOM     39  C   UNL     1      -4.174  -4.314   1.933  1.00  0.00     0.041 A 
ATOM     40  C   UNL     1      -3.594  -3.597   0.888  1.00  0.00     0.123 A 
ATOM     41  F   UNL     1      -4.365  -3.148  -0.112  1.00  0.00    -0.207 F 
ENDBRANCH  17  35
ENDBRANCH   9  11
ENDBRANCH   8   9
ENDBRANCH   7   8
ENDBRANCH   6   7
ENDBRANCH   5   6
ENDBRANCH   4   5
ENDBRANCH   3   4
ENDBRANCH   2   3
ENDBRANCH   1   2
BRANCH   1  42
ATOM     42  C   UNL     1      -2.545 -10.006   9.663  1.00  0.00     0.188 C 
BRANCH  42  43
ATOM     43  O   UNL     1      -3.380  -9.965   8.505  1.00  0.00    -0.376 OA
BRANCH  43  44
ATOM     44  C   UNL     1      -4.794  -9.986   8.650  1.00  0.00     0.202 C 
BRANCH  44  45
ATOM     45  C   UNL     1      -5.401  -8.621   8.968  1.00  0.00     0.261 C 
BRANCH  45  46
ATOM     46  O   UNL     1      -4.806  -8.025  10.106  1.00  0.00    -0.460 OA
BRANCH  46  47
ATOM     47  C   UNL     1      -4.870  -8.749  11.240  1.00  0.00     0.338 C 
ATOM     48  O   UNL     1      -5.397  -9.833  11.402  1.00  0.00    -0.246 OA
BRANCH  47  49
ATOM     49  C   UNL     1      -4.209  -7.992  12.305  1.00  0.00     0.060 A 
ATOM     50  C   UNL     1      -4.182  -8.628  13.546  1.00  0.00     0.016 A 
ATOM     51  C   UNL     1      -4.113  -6.604  12.146  1.00  0.00     0.016 A 
ATOM     52  C   UNL     1      -4.470  -7.858  14.638  1.00  0.00     0.010 A 
ATOM     53  C   UNL     1      -4.446  -5.843  13.224  1.00  0.00     0.010 A 
ATOM     54  C   UNL     1      -4.738  -6.508  14.413  1.00  0.00    -0.014 A 
BRANCH  54  55
ATOM     55  C   UNL     1      -5.479  -5.803  15.423  1.00  0.00     0.031 A 
ATOM     56  C   UNL     1      -4.627  -5.134  16.413  1.00  0.00     0.074 A 
ATOM     57  C   UNL     1      -6.814  -5.676  15.308  1.00  0.00     0.049 A 
ATOM     58  N   UNL     1      -4.546  -5.382  17.676  1.00  0.00    -0.248 NA
ATOM     59  C   UNL     1      -3.616  -4.194  15.905  1.00  0.00     0.031 C 
ATOM     60  C   UNL     1      -7.644  -6.010  14.142  1.00  0.00     0.029 A 
ATOM     61  N   UNL     1      -7.675  -5.020  16.128  1.00  0.00    -0.354 N 
ATOM     62  C   UNL     1      -3.637  -4.447  18.151  1.00  0.00     0.074 A 
ATOM     63  C   UNL     1      -2.927  -3.933  17.012  1.00  0.00     0.031 C 
ATOM     64  C   UNL     1      -8.786  -5.291  14.209  1.00  0.00     0.029 A 
ATOM     65  C   UNL     1      -8.789  -4.540  15.454  1.00  0.00     0.049 A 
ATOM     66  H   UNL     1      -7.525  -4.898  17.094  1.00  0.00     0.167 HD
ATOM     67  C   UNL     1      -3.745  -3.928  19.400  1.00  0.00     0.034 A 
ATOM     68  C   UNL     1      -9.543  -3.478  15.828  1.00  0.00     0.034 A 
ATOM     69  C   UNL     1      -4.606  -4.709  20.245  1.00  0.00     0.049 A 
ATOM     70  C   UNL     1      -9.249  -3.199  17.259  1.00  0.00     0.074 A 
ATOM     71  C   UNL     1      -4.655  -6.041  20.609  1.00  0.00     0.029 A 
ATOM     72  N   UNL     1      -5.840  -4.186  20.550  1.00  0.00    -0.354 N 
ATOM     73  N   UNL     1      -9.558  -4.002  18.242  1.00  0.00    -0.248 NA
ATOM     74  C   UNL     1      -8.211  -2.222  17.560  1.00  0.00     0.031 C 
ATOM     75  C   UNL     1      -6.042  -6.355  20.671  1.00  0.00     0.029 A 
ATOM     76  C   UNL     1      -6.755  -5.191  20.378  1.00  0.00     0.049 A 
ATOM     77  H   UNL     1      -6.030  -3.264  20.838  1.00  0.00     0.167 HD
ATOM     78  C   UNL     1      -8.479  -3.923  19.118  1.00  0.00     0.074 A 
ATOM     79  C   UNL     1      -7.740  -2.734  18.700  1.00  0.00     0.031 C 
ATOM     80  C   UNL     1      -8.107  -4.983  19.899  1.00  0.00     0.034 A 
BRANCH  67  81
ATOM     81  C   UNL     1      -3.353  -2.517  19.734  1.00  0.00     0.023 A 
ATOM     82  C   UNL     1      -3.216  -2.189  21.096  1.00  0.00     0.012 A 
ATOM     83  C   UNL     1      -3.345  -1.449  18.806  1.00  0.00     0.148 A 
ATOM     84  C   UNL     1      -3.092  -0.861  21.513  1.00  0.00     0.002 A 
ATOM     85  C   UNL     1      -3.113  -0.144  19.216  1.00  0.00     0.091 A 
ATOM     86  F   UNL     1      -3.705  -1.653  17.534  1.00  0.00    -0.205 F 
ATOM     87  C   UNL     1      -3.017   0.161  20.572  1.00  0.00     0.022 A 
BRANCH  85  88
ATOM     88  S   UNL     1      -2.916   1.168  18.007  1.00  0.00     0.127 S 
ATOM     89  O   UNL     1      -4.269   1.709  17.934  1.00  0.00    -0.237 OA
ATOM     90  O   UNL     1      -1.933   2.038  18.654  1.00  0.00    -0.237 OA
ATOM     91  O   UNL     1      -2.416   0.497  16.813  1.00  0.00    -0.744 OA
ENDBRANCH  85  88
ENDBRANCH  67  81
BRANCH  68  92
ATOM     92  C   UNL     1     -10.246  -2.519  14.941  1.00  0.00     0.023 A 
ATOM     93  C   UNL     1     -11.303  -1.744  15.450  1.00  0.00     0.012 A 
ATOM     94  C   UNL     1      -9.771  -2.216  13.643  1.00  0.00     0.148 A 
ATOM     95  C   UNL     1     -11.872  -0.713  14.689  1.00  0.00     0.002 A 
ATOM     96  C   UNL     1     -10.369  -1.223  12.873  1.00  0.00     0.091 A 
ATOM     97  F   UNL     1      -8.671  -2.830  13.186  1.00  0.00    -0.205 F 
ATOM     98  C   UNL     1     -11.414  -0.459  13.398  1.00  0.00     0.022 A 
BRANCH  96  99
ATOM     99  S   UNL     1      -9.844  -0.916  11.180  1.00  0.00     0.127 S 
ATOM    100  O   UNL     1     -11.104  -0.580  10.516  1.00  0.00    -0.237 OA
ATOM    101  O   UNL     1      -8.919   0.201  11.339  1.00  0.00    -0.237 OA
ATOM    102  O   UNL     1      -9.259  -2.175  10.729  1.00  0.00    -0.744 OA
ENDBRANCH  96  99
ENDBRANCH  68  92
BRANCH  80 103
ATOM    103  C   UNL     1      -9.026  -6.176  20.009  1.00  0.00     0.023 A 
ATOM    104  C   UNL     1      -9.402  -6.930  18.879  1.00  0.00     0.012 A 
ATOM    105  C   UNL     1      -9.327  -6.683  21.288  1.00  0.00     0.148 A 
ATOM    106  C   UNL     1     -10.077  -8.146  19.016  1.00  0.00     0.002 A 
ATOM    107  C   UNL     1      -9.954  -7.917  21.422  1.00  0.00     0.091 A 
ATOM    108  F   UNL     1      -8.961  -5.964  22.361  1.00  0.00    -0.205 F 
ATOM    109  C   UNL     1     -10.339  -8.648  20.288  1.00  0.00     0.022 A 
BRANCH 107 110
ATOM    110  S   UNL     1     -10.179  -8.678  23.034  1.00  0.00     0.127 S 
ATOM    111  O   UNL     1     -11.566  -8.338  23.344  1.00  0.00    -0.237 OA
ATOM    112  O   UNL     1      -9.947 -10.097  22.755  1.00  0.00    -0.237 OA
ATOM    113  O   UNL     1      -9.170  -8.075  23.896  1.00  0.00    -0.744 OA
ENDBRANCH 107 110
ENDBRANCH  80 103
ENDBRANCH  54  55
ENDBRANCH  47  49
ENDBRANCH  46  47
ENDBRANCH  45  46
ENDBRANCH  44  45
ENDBRANCH  43  44
ENDBRANCH  42  43
ENDBRANCH   1  42
TORSDOF 27
