REMARK SMILES CC[C@H](C)N(C)C(=O)N1[C@@H](C(=O)OCCOCCOCCOCCOC(=O)c2ccc(-c3c4nc(c(-c5cccc(S(=O)(=O)[O-])c5F)c5ccc([nH]5)c(-c5cccc(S(=O)(=O)[O-])c5F)c5nc(c(-c6cccc(S(=O)(=O)[O-])c6F)c6ccc3[nH]6)C=C5)C=C4)cc2)CC[C@H]2CCCC[C@@H]21
REMARK SMILES IDX 18 1 17 2 16 3 15 4 14 5 13 6 11 7 12 8 10 9 9 10 98 11
REMARK SMILES IDX 91 12 93 13 97 14 92 15 94 16 96 17 95 18 7 19 8 20 5 21
REMARK SMILES IDX 6 22 3 23 4 24 2 25 1 26 19 27 20 28 21 29 22 30 23 31 24 32
REMARK SMILES IDX 25 33 26 34 27 35 28 36 29 37 90 38 30 39 89 40 31 41 32 42
REMARK SMILES IDX 33 43 83 44 34 45 88 46 82 47 84 48 35 49 87 50 81 51 80 52
REMARK SMILES IDX 36 54 68 55 48 56 67 57 49 58 52 59 66 60 85 61 50 62 51 63
REMARK SMILES IDX 65 65 86 66 53 67 37 68 38 69 46 70 39 71 41 72 47 73 40 74
REMARK SMILES IDX 42 75 43 76 44 77 45 78 69 79 70 80 78 81 71 82 73 83 79 84
REMARK SMILES IDX 72 85 74 86 75 87 76 88 77 89 54 90 55 91 63 92 56 93 58 94
REMARK SMILES IDX 64 95 57 96 59 97 60 98 61 99 62 100
REMARK H PARENT 84 53 52 64
REMARK Flexibility Score: inf
ROOT
ATOM      1  C   UNL     1      -1.226   1.659  -2.609  1.00  0.00     0.188 C 
ENDROOT
BRANCH   1   2
ATOM      2  C   UNL     1      -1.900   2.944  -3.117  1.00  0.00     0.188 C 
BRANCH   2   3
ATOM      3  O   UNL     1      -3.001   3.486  -2.398  1.00  0.00    -0.376 OA
BRANCH   3   4
ATOM      4  C   UNL     1      -4.058   2.607  -2.010  1.00  0.00     0.202 C 
BRANCH   4   5
ATOM      5  C   UNL     1      -4.647   1.629  -3.045  1.00  0.00     0.261 C 
BRANCH   5   6
ATOM      6  O   UNL     1      -3.691   0.799  -3.761  1.00  0.00    -0.462 OA
BRANCH   6   7
ATOM      7  C   UNL     1      -3.866   0.751  -5.099  1.00  0.00     0.329 C 
ATOM      8  O   UNL     1      -4.751   1.399  -5.668  1.00  0.00    -0.250 OA
BRANCH   7   9
ATOM      9  C   UNL     1      -2.892  -0.127  -5.960  1.00  0.00     0.197 C 
ATOM     10  N   UNL     1      -1.678  -0.949  -5.663  1.00  0.00    -0.308 N 
ATOM     11  C   UNL     1      -1.127  -1.688  -6.822  1.00  0.00     0.091 C 
ATOM     12  C   UNL     1      -2.411   0.928  -7.027  1.00  0.00     0.038 C 
ATOM     13  C   UNL     1      -1.563  -1.106  -8.175  1.00  0.00     0.012 C 
ATOM     14  C   UNL     1      -1.422  -3.202  -6.819  1.00  0.00     0.025 C 
ATOM     15  C   UNL     1      -1.444   0.404  -8.090  1.00  0.00     0.008 C 
ATOM     16  C   UNL     1      -0.721  -1.729  -9.289  1.00  0.00     0.006 C 
ATOM     17  C   UNL     1      -0.623  -3.882  -7.929  1.00  0.00     0.002 C 
ATOM     18  C   UNL     1      -0.886  -3.252  -9.296  1.00  0.00     0.000 C 
BRANCH  10  19
ATOM     19  C   UNL     1      -1.445  -1.572  -4.444  1.00  0.00     0.320 C 
ATOM     20  O   UNL     1      -2.373  -1.928  -3.728  1.00  0.00    -0.248 OA
BRANCH  19  21
ATOM     21  N   UNL     1      -0.074  -1.801  -4.149  1.00  0.00    -0.325 N 
ATOM     22  C   UNL     1       1.005  -0.992  -4.719  1.00  0.00     0.149 C 
BRANCH  21  23
ATOM     23  C   UNL     1       0.304  -2.584  -2.954  1.00  0.00     0.083 C 
ATOM     24  C   UNL     1      -0.209  -1.862  -1.739  1.00  0.00     0.031 C 
BRANCH  23  25
ATOM     25  C   UNL     1       0.024  -4.094  -2.985  1.00  0.00     0.021 C 
ATOM     26  C   UNL     1      -0.099  -4.729  -1.598  1.00  0.00     0.006 C 
ENDBRANCH  23  25
ENDBRANCH  21  23
ENDBRANCH  19  21
ENDBRANCH  10  19
ENDBRANCH   7   9
ENDBRANCH   6   7
ENDBRANCH   5   6
ENDBRANCH   4   5
ENDBRANCH   3   4
ENDBRANCH   2   3
ENDBRANCH   1   2
BRANCH   1  27
ATOM     27  O   UNL     1      -1.972   0.995  -1.621  1.00  0.00    -0.377 OA
BRANCH  27  28
ATOM     28  C   UNL     1      -1.490   0.799  -0.311  1.00  0.00     0.188 C 
BRANCH  28  29
ATOM     29  C   UNL     1      -0.556   1.809   0.346  1.00  0.00     0.188 C 
BRANCH  29  30
ATOM     30  O   UNL     1       0.716   2.091  -0.227  1.00  0.00    -0.376 OA
BRANCH  30  31
ATOM     31  C   UNL     1       1.612   1.040  -0.568  1.00  0.00     0.202 C 
BRANCH  31  32
ATOM     32  C   UNL     1       2.033   0.038   0.521  1.00  0.00     0.261 C 
BRANCH  32  33
ATOM     33  O   UNL     1       1.018  -0.948   0.810  1.00  0.00    -0.460 OA
BRANCH  33  34
ATOM     34  C   UNL     1       0.534  -0.995   2.068  1.00  0.00     0.338 C 
ATOM     35  O   UNL     1       0.898  -0.296   3.007  1.00  0.00    -0.246 OA
BRANCH  34  36
ATOM     36  C   UNL     1      -0.646  -1.887   2.143  1.00  0.00     0.060 A 
ATOM     37  C   UNL     1      -1.859  -1.321   2.550  1.00  0.00     0.016 A 
ATOM     38  C   UNL     1      -0.570  -3.263   1.909  1.00  0.00     0.016 A 
ATOM     39  C   UNL     1      -2.978  -2.127   2.784  1.00  0.00     0.010 A 
ATOM     40  C   UNL     1      -1.702  -4.071   2.134  1.00  0.00     0.010 A 
ATOM     41  C   UNL     1      -2.903  -3.518   2.626  1.00  0.00    -0.014 A 
BRANCH  41  42
ATOM     42  C   UNL     1      -4.005  -4.384   3.156  1.00  0.00     0.031 A 
ATOM     43  C   UNL     1      -3.761  -5.204   4.405  1.00  0.00     0.074 A 
ATOM     44  C   UNL     1      -5.231  -4.425   2.593  1.00  0.00     0.049 A 
ATOM     45  N   UNL     1      -4.572  -6.011   5.044  1.00  0.00    -0.248 NA
ATOM     46  C   UNL     1      -2.424  -5.103   5.011  1.00  0.00     0.031 C 
ATOM     47  C   UNL     1      -5.643  -3.691   1.399  1.00  0.00     0.029 A 
ATOM     48  N   UNL     1      -6.358  -5.131   2.955  1.00  0.00    -0.354 N 
ATOM     49  C   UNL     1      -3.833  -6.543   6.095  1.00  0.00     0.074 A 
ATOM     50  C   UNL     1      -2.503  -5.983   5.997  1.00  0.00     0.031 C 
ATOM     51  C   UNL     1      -6.925  -3.991   1.121  1.00  0.00     0.029 A 
ATOM     52  C   UNL     1      -7.422  -4.962   2.097  1.00  0.00     0.049 A 
ATOM     53  H   UNL     1      -6.399  -5.706   3.753  1.00  0.00     0.167 HD
ATOM     54  C   UNL     1      -4.218  -7.401   7.071  1.00  0.00     0.034 A 
ATOM     55  C   UNL     1      -8.648  -5.530   2.084  1.00  0.00     0.034 A 
ATOM     56  C   UNL     1      -5.544  -7.936   7.219  1.00  0.00     0.049 A 
ATOM     57  C   UNL     1      -9.043  -6.512   3.164  1.00  0.00     0.074 A 
ATOM     58  C   UNL     1      -6.029  -8.755   8.225  1.00  0.00     0.029 A 
ATOM     59  N   UNL     1      -6.590  -7.726   6.338  1.00  0.00    -0.354 N 
ATOM     60  N   UNL     1      -8.370  -6.901   4.219  1.00  0.00    -0.248 NA
ATOM     61  C   UNL     1     -10.384  -7.115   3.063  1.00  0.00     0.031 C 
ATOM     62  C   UNL     1      -7.356  -9.077   7.927  1.00  0.00     0.029 A 
ATOM     63  C   UNL     1      -7.711  -8.421   6.761  1.00  0.00     0.049 A 
ATOM     64  H   UNL     1      -6.544  -7.165   5.530  1.00  0.00     0.167 HD
ATOM     65  C   UNL     1      -9.215  -7.759   4.921  1.00  0.00     0.074 A 
ATOM     66  C   UNL     1     -10.458  -7.819   4.185  1.00  0.00     0.031 C 
ATOM     67  C   UNL     1      -8.972  -8.443   6.066  1.00  0.00     0.034 A 
BRANCH  54  68
ATOM     68  C   UNL     1      -3.182  -7.813   8.087  1.00  0.00     0.023 A 
ATOM     69  C   UNL     1      -2.736  -6.887   9.051  1.00  0.00     0.012 A 
ATOM     70  C   UNL     1      -2.699  -9.136   8.121  1.00  0.00     0.148 A 
ATOM     71  C   UNL     1      -1.792  -7.260  10.008  1.00  0.00     0.002 A 
ATOM     72  C   UNL     1      -1.797  -9.513   9.108  1.00  0.00     0.091 A 
ATOM     73  F   UNL     1      -3.126  -9.997   7.186  1.00  0.00    -0.205 F 
ATOM     74  C   UNL     1      -1.332  -8.573  10.042  1.00  0.00     0.022 A 
BRANCH  72  75
ATOM     75  S   UNL     1      -1.210 -11.200   9.290  1.00  0.00     0.127 S 
ATOM     76  O   UNL     1       0.193 -11.067   8.898  1.00  0.00    -0.237 OA
ATOM     77  O   UNL     1      -1.423 -11.447  10.717  1.00  0.00    -0.237 OA
ATOM     78  O   UNL     1      -2.030 -12.012   8.403  1.00  0.00    -0.744 OA
ENDBRANCH  72  75
ENDBRANCH  54  68
BRANCH  55  79
ATOM     79  C   UNL     1      -9.631  -5.180   1.014  1.00  0.00     0.023 A 
ATOM     80  C   UNL     1     -10.808  -4.482   1.350  1.00  0.00     0.012 A 
ATOM     81  C   UNL     1      -9.423  -5.564  -0.326  1.00  0.00     0.148 A 
ATOM     82  C   UNL     1     -11.775  -4.205   0.382  1.00  0.00     0.002 A 
ATOM     83  C   UNL     1     -10.364  -5.236  -1.295  1.00  0.00     0.091 A 
ATOM     84  F   UNL     1      -8.309  -6.247  -0.623  1.00  0.00    -0.205 F 
ATOM     85  C   UNL     1     -11.549  -4.574  -0.941  1.00  0.00     0.022 A 
BRANCH  83  86
ATOM     86  S   UNL     1     -10.116  -5.575  -3.042  1.00  0.00     0.127 S 
ATOM     87  O   UNL     1     -11.172  -6.548  -3.311  1.00  0.00    -0.237 OA
ATOM     88  O   UNL     1     -10.330  -4.255  -3.635  1.00  0.00    -0.237 OA
ATOM     89  O   UNL     1      -8.755  -6.080  -3.159  1.00  0.00    -0.744 OA
ENDBRANCH  83  86
ENDBRANCH  55  79
BRANCH  67  90
ATOM     90  C   UNL     1     -10.075  -9.297   6.645  1.00  0.00     0.023 A 
ATOM     91  C   UNL     1     -10.441 -10.502   6.013  1.00  0.00     0.012 A 
ATOM     92  C   UNL     1     -10.677  -8.957   7.875  1.00  0.00     0.148 A 
ATOM     93  C   UNL     1     -11.403 -11.340   6.580  1.00  0.00     0.002 A 
ATOM     94  C   UNL     1     -11.598  -9.820   8.459  1.00  0.00     0.091 A 
ATOM     95  F   UNL     1     -10.326  -7.802   8.459  1.00  0.00    -0.205 F 
ATOM     96  C   UNL     1     -11.972 -11.006   7.807  1.00  0.00     0.022 A 
BRANCH  94  97
ATOM     97  S   UNL     1     -12.313  -9.526  10.082  1.00  0.00     0.127 S 
ATOM     98  O   UNL     1     -13.717  -9.287   9.751  1.00  0.00    -0.237 OA
ATOM     99  O   UNL     1     -12.056 -10.793  10.767  1.00  0.00    -0.237 OA
ATOM    100  O   UNL     1     -11.604  -8.381  10.636  1.00  0.00    -0.744 OA
ENDBRANCH  94  97
ENDBRANCH  67  90
ENDBRANCH  41  42
ENDBRANCH  34  36
ENDBRANCH  33  34
ENDBRANCH  32  33
ENDBRANCH  31  32
ENDBRANCH  30  31
ENDBRANCH  29  30
ENDBRANCH  28  29
ENDBRANCH  27  28
ENDBRANCH   1  27
TORSDOF 27
