REMARK SMILES O=C(OCCOCCOCCOCCOC(=O)[C@@H]1CCCC[C@H]1C(=O)Nc1ccc(NC(=O)c2ccco2)cc1)c1ccc(-c2c3nc(c(-c4cccc(S(=O)(=O)[O-])c4F)c4ccc([nH]4)c(-c4cccc(S(=O)(=O)[O-])c4F)c4nc(c(-c5cccc(S(=O)(=O)[O-])c5F)c5ccc2[nH]5)C=C4)C=C3)cc1
REMARK SMILES IDX 10 1 9 2 8 3 7 4 6 5 5 6 4 7 3 8 2 9 1 10 41 11 42 12 103 13
REMARK SMILES IDX 43 14 102 15 44 16 45 17 46 18 96 19 47 20 101 21 95 22
REMARK SMILES IDX 97 23 48 24 100 25 94 26 93 27 49 29 81 30 61 31 80 32 62 33
REMARK SMILES IDX 65 34 79 35 98 36 63 37 64 38 78 40 99 41 66 42 50 43 51 44
REMARK SMILES IDX 59 45 52 46 54 47 60 48 53 49 55 50 56 51 57 52 58 53 82 54
REMARK SMILES IDX 83 55 91 56 84 57 86 58 92 59 85 60 87 61 88 62 89 63 90 64
REMARK SMILES IDX 67 65 68 66 76 67 69 68 71 69 77 70 70 71 72 72 73 73 74 74
REMARK SMILES IDX 75 75 11 76 12 77 13 78 14 79 15 80 16 81 17 82 18 83 19 84
REMARK SMILES IDX 23 85 20 86 22 87 21 88 24 89 25 90 26 91 27 93 28 94 40 95
REMARK SMILES IDX 29 96 39 97 30 98 31 99 32 100 33 102 34 103 35 104 38 105
REMARK SMILES IDX 36 106 37 107
REMARK H PARENT 97 28 65 39 26 92 31 101
REMARK Flexibility Score: inf
ROOT
ATOM      1  C   UNL     1       4.309   3.379  -0.397  1.00  0.00     0.188 C 
ENDROOT
BRANCH   1   2
ATOM      2  O   UNL     1       2.926   3.670  -0.582  1.00  0.00    -0.377 OA
BRANCH   2   3
ATOM      3  C   UNL     1       2.008   2.671  -0.124  1.00  0.00     0.188 C 
BRANCH   3   4
ATOM      4  C   UNL     1       2.309   1.255  -0.619  1.00  0.00     0.188 C 
BRANCH   4   5
ATOM      5  O   UNL     1       3.601   0.837  -0.189  1.00  0.00    -0.376 OA
BRANCH   5   6
ATOM      6  C   UNL     1       4.430   0.192  -1.157  1.00  0.00     0.202 C 
BRANCH   6   7
ATOM      7  C   UNL     1       4.095  -1.277  -1.384  1.00  0.00     0.261 C 
BRANCH   7   8
ATOM      8  O   UNL     1       2.723  -1.583  -1.103  1.00  0.00    -0.460 OA
BRANCH   8   9
ATOM      9  C   UNL     1       2.171  -1.915   0.093  1.00  0.00     0.338 C 
ATOM     10  O   UNL     1       0.971  -2.188   0.118  1.00  0.00    -0.246 OA
BRANCH   9  11
ATOM     11  C   UNL     1       2.931  -1.985   1.381  1.00  0.00     0.060 A 
ATOM     12  C   UNL     1       4.076  -1.250   1.679  1.00  0.00     0.016 A 
ATOM     13  C   UNL     1       2.410  -2.805   2.395  1.00  0.00     0.016 A 
ATOM     14  C   UNL     1       4.730  -1.353   2.886  1.00  0.00     0.010 A 
ATOM     15  C   UNL     1       3.051  -2.908   3.636  1.00  0.00     0.010 A 
ATOM     16  C   UNL     1       4.234  -2.199   3.863  1.00  0.00    -0.014 A 
BRANCH  16  17
ATOM     17  C   UNL     1       5.140  -2.456   4.989  1.00  0.00     0.031 A 
ATOM     18  C   UNL     1       5.900  -3.744   4.970  1.00  0.00     0.074 A 
ATOM     19  C   UNL     1       5.432  -1.459   5.843  1.00  0.00     0.049 A 
ATOM     20  N   UNL     1       6.756  -4.209   5.834  1.00  0.00    -0.248 NA
ATOM     21  C   UNL     1       5.689  -4.620   3.800  1.00  0.00     0.031 C 
ATOM     22  C   UNL     1       4.853  -0.110   5.798  1.00  0.00     0.029 A 
ATOM     23  N   UNL     1       6.311  -1.409   6.888  1.00  0.00    -0.354 N 
ATOM     24  C   UNL     1       7.140  -5.450   5.343  1.00  0.00     0.074 A 
ATOM     25  C   UNL     1       6.441  -5.665   4.100  1.00  0.00     0.031 C 
ATOM     26  C   UNL     1       5.387   0.629   6.784  1.00  0.00     0.029 A 
ATOM     27  C   UNL     1       6.280  -0.213   7.567  1.00  0.00     0.049 A 
ATOM     28  H   UNL     1       6.906  -2.154   7.131  1.00  0.00     0.167 HD
ATOM     29  C   UNL     1       8.005  -6.327   5.895  1.00  0.00     0.034 A 
ATOM     30  C   UNL     1       6.869   0.124   8.728  1.00  0.00     0.034 A 
ATOM     31  C   UNL     1       8.681  -6.068   7.133  1.00  0.00     0.049 A 
ATOM     32  C   UNL     1       7.742  -0.914   9.380  1.00  0.00     0.074 A 
ATOM     33  C   UNL     1       9.508  -6.898   7.859  1.00  0.00     0.029 A 
ATOM     34  N   UNL     1       8.594  -4.868   7.828  1.00  0.00    -0.354 N 
ATOM     35  N   UNL     1       8.068  -2.109   8.941  1.00  0.00    -0.248 NA
ATOM     36  C   UNL     1       8.341  -0.562  10.671  1.00  0.00     0.031 C 
ATOM     37  C   UNL     1       9.900  -6.207   9.011  1.00  0.00     0.029 A 
ATOM     38  C   UNL     1       9.352  -4.932   8.978  1.00  0.00     0.049 A 
ATOM     39  H   UNL     1       8.068  -4.086   7.541  1.00  0.00     0.167 HD
ATOM     40  C   UNL     1       8.930  -2.643   9.888  1.00  0.00     0.074 A 
ATOM     41  C   UNL     1       9.098  -1.623  10.908  1.00  0.00     0.031 C 
ATOM     42  C   UNL     1       9.518  -3.864   9.932  1.00  0.00     0.034 A 
BRANCH  29  43
ATOM     43  C   UNL     1       8.198  -7.638   5.185  1.00  0.00     0.023 A 
ATOM     44  C   UNL     1       8.921  -7.692   3.976  1.00  0.00     0.012 A 
ATOM     45  C   UNL     1       7.620  -8.814   5.700  1.00  0.00     0.148 A 
ATOM     46  C   UNL     1       9.035  -8.892   3.272  1.00  0.00     0.002 A 
ATOM     47  C   UNL     1       7.776 -10.013   5.017  1.00  0.00     0.091 A 
ATOM     48  F   UNL     1       6.907  -8.731   6.832  1.00  0.00    -0.205 F 
ATOM     49  C   UNL     1       8.469 -10.052   3.796  1.00  0.00     0.022 A 
BRANCH  47  50
ATOM     50  S   UNL     1       7.131 -11.571   5.633  1.00  0.00     0.127 S 
ATOM     51  O   UNL     1       6.152 -11.915   4.602  1.00  0.00    -0.237 OA
ATOM     52  O   UNL     1       8.329 -12.411   5.641  1.00  0.00    -0.237 OA
ATOM     53  O   UNL     1       6.572 -11.287   6.947  1.00  0.00    -0.744 OA
ENDBRANCH  47  50
ENDBRANCH  29  43
BRANCH  30  54
ATOM     54  C   UNL     1       6.610   1.449   9.362  1.00  0.00     0.023 A 
ATOM     55  C   UNL     1       7.664   2.360   9.561  1.00  0.00     0.012 A 
ATOM     56  C   UNL     1       5.312   1.807   9.785  1.00  0.00     0.148 A 
ATOM     57  C   UNL     1       7.440   3.579  10.206  1.00  0.00     0.002 A 
ATOM     58  C   UNL     1       5.085   3.045  10.373  1.00  0.00     0.091 A 
ATOM     59  F   UNL     1       4.319   0.923   9.609  1.00  0.00    -0.205 F 
ATOM     60  C   UNL     1       6.151   3.925  10.604  1.00  0.00     0.022 A 
BRANCH  58  61
ATOM     61  S   UNL     1       3.435   3.614  10.800  1.00  0.00     0.127 S 
ATOM     62  O   UNL     1       3.450   3.506  12.257  1.00  0.00    -0.237 OA
ATOM     63  O   UNL     1       3.442   4.984  10.284  1.00  0.00    -0.237 OA
ATOM     64  O   UNL     1       2.521   2.719  10.105  1.00  0.00    -0.744 OA
ENDBRANCH  58  61
ENDBRANCH  30  54
BRANCH  42  65
ATOM     65  C   UNL     1      10.431  -4.134  11.093  1.00  0.00     0.023 A 
ATOM     66  C   UNL     1       9.895  -4.343  12.378  1.00  0.00     0.012 A 
ATOM     67  C   UNL     1      11.817  -4.256  10.884  1.00  0.00     0.148 A 
ATOM     68  C   UNL     1      10.735  -4.634  13.450  1.00  0.00     0.002 A 
ATOM     69  C   UNL     1      12.640  -4.606  11.944  1.00  0.00     0.091 A 
ATOM     70  F   UNL     1      12.302  -4.032   9.654  1.00  0.00    -0.205 F 
ATOM     71  C   UNL     1      12.103  -4.779  13.230  1.00  0.00     0.022 A 
BRANCH  69  72
ATOM     72  S   UNL     1      14.391  -4.927  11.726  1.00  0.00     0.127 S 
ATOM     73  O   UNL     1      14.989  -3.751  12.354  1.00  0.00    -0.237 OA
ATOM     74  O   UNL     1      14.571  -6.175  12.468  1.00  0.00    -0.237 OA
ATOM     75  O   UNL     1      14.602  -5.044  10.289  1.00  0.00    -0.744 OA
ENDBRANCH  69  72
ENDBRANCH  42  65
ENDBRANCH  16  17
ENDBRANCH   9  11
ENDBRANCH   8   9
ENDBRANCH   7   8
ENDBRANCH   6   7
ENDBRANCH   5   6
ENDBRANCH   4   5
ENDBRANCH   3   4
ENDBRANCH   2   3
ENDBRANCH   1   2
BRANCH   1  76
ATOM     76  C   UNL     1       4.866   3.254   1.028  1.00  0.00     0.188 C 
BRANCH  76  77
ATOM     77  O   UNL     1       3.854   3.048   1.993  1.00  0.00    -0.376 OA
BRANCH  77  78
ATOM     78  C   UNL     1       3.628   4.111   2.913  1.00  0.00     0.202 C 
BRANCH  78  79
ATOM     79  C   UNL     1       3.222   5.505   2.385  1.00  0.00     0.261 C 
BRANCH  79  80
ATOM     80  O   UNL     1       3.724   5.860   1.089  1.00  0.00    -0.463 OA
BRANCH  80  81
ATOM     81  C   UNL     1       4.848   6.611   0.949  1.00  0.00     0.309 C 
ATOM     82  O   UNL     1       5.524   7.076   1.857  1.00  0.00    -0.252 OA
BRANCH  81  83
ATOM     83  C   UNL     1       5.205   6.663  -0.534  1.00  0.00     0.111 C 
ATOM     84  C   UNL     1       6.625   6.144  -0.793  1.00  0.00     0.016 C 
ATOM     85  C   UNL     1       4.843   7.963  -1.238  1.00  0.00     0.093 C 
ATOM     86  C   UNL     1       6.958   6.162  -2.280  1.00  0.00     0.001 C 
ATOM     87  C   UNL     1       5.457   8.149  -2.639  1.00  0.00     0.014 C 
ATOM     88  C   UNL     1       6.870   7.589  -2.793  1.00  0.00     0.001 C 
BRANCH  85  89
ATOM     89  C   UNL     1       3.316   8.167  -1.226  1.00  0.00     0.228 C 
ATOM     90  O   UNL     1       2.843   8.934  -0.374  1.00  0.00    -0.274 OA
ATOM     91  N   UNL     1       2.415   7.635  -2.106  1.00  0.00    -0.326 N 
ATOM     92  H   UNL     1       1.505   7.981  -1.959  1.00  0.00     0.169 HD
BRANCH  91  93
ATOM     93  C   UNL     1       2.467   6.717  -3.169  1.00  0.00     0.041 A 
ATOM     94  C   UNL     1       1.649   6.953  -4.268  1.00  0.00     0.028 A 
ATOM     95  C   UNL     1       3.232   5.561  -3.200  1.00  0.00     0.028 A 
ATOM     96  C   UNL     1       1.776   6.174  -5.428  1.00  0.00     0.028 A 
ATOM     97  C   UNL     1       3.375   4.785  -4.352  1.00  0.00     0.028 A 
ATOM     98  C   UNL     1       2.734   5.165  -5.518  1.00  0.00     0.041 A 
BRANCH  98  99
ATOM     99  N   UNL     1       3.135   4.516  -6.698  1.00  0.00    -0.319 N 
ATOM    100  C   UNL     1       3.028   4.892  -8.024  1.00  0.00     0.291 C 
ATOM    101  H   UNL     1       3.566   3.642  -6.556  1.00  0.00     0.170 HD
ATOM    102  O   UNL     1       3.458   4.115  -8.879  1.00  0.00    -0.265 OA
BRANCH 100 103
ATOM    103  C   UNL     1       2.484   6.188  -8.344  1.00  0.00     0.191 A 
ATOM    104  C   UNL     1       2.903   7.474  -8.048  1.00  0.00     0.056 A 
ATOM    105  O   UNL     1       1.270   6.235  -8.972  1.00  0.00    -0.459 OA
ATOM    106  C   UNL     1       1.849   8.338  -8.436  1.00  0.00     0.043 A 
ATOM    107  C   UNL     1       0.886   7.536  -9.002  1.00  0.00     0.196 A 
ENDBRANCH 100 103
ENDBRANCH  98  99
ENDBRANCH  91  93
ENDBRANCH  85  89
ENDBRANCH  81  83
ENDBRANCH  80  81
ENDBRANCH  79  80
ENDBRANCH  78  79
ENDBRANCH  77  78
ENDBRANCH  76  77
ENDBRANCH   1  76
TORSDOF 27
