REMARK SMILES CCCCCCNC(=O)Oc1cccc(-c2ccc([C@@H](C)C(=O)OCCOCCOCCOCCOC(=O)c3ccc(-c4c5nc(c(-c6cccc(S(=O)(=O)[O-])c6F)c6ccc([nH]6)c(-c6cccc(S(=O)(=O)[O-])c6F)c6nc(c(-c7cccc(S(=O)(=O)[O-])c7F)c7ccc4[nH]7)C=C6)C=C5)cc3)cc2O)c1
REMARK SMILES IDX 27 1 26 2 25 3 24 4 22 5 23 6 20 7 21 8 19 9 16 10 17 11
REMARK SMILES IDX 103 12 18 13 102 14 15 15 11 16 12 17 105 18 13 19 14 20
REMARK SMILES IDX 10 21 8 22 7 23 9 25 6 26 5 27 4 28 3 29 2 30 1 31 104 32
REMARK SMILES IDX 28 34 29 35 30 36 31 37 32 38 33 39 34 40 35 41 36 42 37 43
REMARK SMILES IDX 38 44 39 45 40 46 101 47 41 48 100 49 42 50 43 51 44 52
REMARK SMILES IDX 94 53 45 54 99 55 93 56 95 57 46 58 98 59 92 60 91 61 47 63
REMARK SMILES IDX 79 64 59 65 78 66 60 67 63 68 77 69 96 70 61 71 62 72 76 74
REMARK SMILES IDX 97 75 64 76 48 77 49 78 57 79 50 80 52 81 58 82 51 83 53 84
REMARK SMILES IDX 54 85 55 86 56 87 80 88 81 89 89 90 82 91 84 92 90 93 83 94
REMARK SMILES IDX 85 95 86 96 87 97 88 98 65 99 66 100 74 101 67 102 69 103
REMARK SMILES IDX 75 104 68 105 70 106 71 107 72 108 73 109
REMARK H PARENT 7 24 104 33 95 62 63 73
REMARK Flexibility Score: inf
ROOT
ATOM      1  O   UNL     1      -0.222 -12.679  -7.099  1.00  0.00    -0.376 OA
ENDROOT
BRANCH   1   2
ATOM      2  C   UNL     1      -0.575 -12.739  -8.475  1.00  0.00     0.202 C 
BRANCH   2   3
ATOM      3  C   UNL     1      -2.003 -13.116  -8.913  1.00  0.00     0.261 C 
BRANCH   3   4
ATOM      4  O   UNL     1      -3.089 -12.380  -8.312  1.00  0.00    -0.463 OA
BRANCH   4   5
ATOM      5  C   UNL     1      -3.815 -13.034  -7.377  1.00  0.00     0.313 C 
ATOM      6  O   UNL     1      -3.590 -14.195  -7.035  1.00  0.00    -0.252 OA
BRANCH   5   7
ATOM      7  C   UNL     1      -4.979 -12.256  -6.765  1.00  0.00     0.126 C 
ATOM      8  C   UNL     1      -6.284 -12.825  -7.309  1.00  0.00     0.025 C 
BRANCH   7   9
ATOM      9  C   UNL     1      -4.997 -10.728  -6.751  1.00  0.00    -0.030 A 
ATOM     10  C   UNL     1      -5.029  -7.853  -6.580  1.00  0.00     0.024 A 
ATOM     11  C   UNL     1      -5.000  -8.527  -7.817  1.00  0.00     0.013 A 
ATOM     12  C   UNL     1      -5.046  -8.658  -5.431  1.00  0.00     0.123 A 
ATOM     13  C   UNL     1      -4.988  -9.936  -7.905  1.00  0.00     0.005 A 
ATOM     14  C   UNL     1      -5.037 -10.057  -5.511  1.00  0.00     0.051 A 
BRANCH  10  15
ATOM     15  C   UNL     1      -5.092  -6.374  -6.528  1.00  0.00    -0.011 A 
ATOM     16  C   UNL     1      -4.255  -4.215  -5.762  1.00  0.00     0.133 A 
ATOM     17  C   UNL     1      -5.346  -3.559  -6.328  1.00  0.00     0.047 A 
ATOM     18  C   UNL     1      -4.121  -5.606  -5.854  1.00  0.00     0.056 A 
ATOM     19  C   UNL     1      -6.302  -4.301  -7.015  1.00  0.00     0.004 A 
ATOM     20  C   UNL     1      -6.176  -5.692  -7.111  1.00  0.00     0.009 A 
BRANCH  16  21
ATOM     21  O   UNL     1      -3.382  -3.435  -4.981  1.00  0.00    -0.410 OA
BRANCH  21  22
ATOM     22  C   UNL     1      -2.039  -3.436  -5.324  1.00  0.00     0.412 C 
ATOM     23  N   UNL     1      -1.264  -2.653  -4.512  1.00  0.00    -0.321 N 
ATOM     24  H   UNL     1      -0.295  -2.670  -4.686  1.00  0.00     0.167 HD
ATOM     25  O   UNL     1      -1.535  -4.058  -6.251  1.00  0.00    -0.224 OA
BRANCH  23  26
ATOM     26  C   UNL     1      -1.704  -1.802  -3.424  1.00  0.00     0.119 C 
BRANCH  26  27
ATOM     27  C   UNL     1      -1.088  -2.208  -2.083  1.00  0.00     0.021 C 
BRANCH  27  28
ATOM     28  C   UNL     1       0.442  -2.109  -2.012  1.00  0.00     0.002 C 
BRANCH  28  29
ATOM     29  C   UNL     1       1.030  -0.713  -2.245  1.00  0.00    -0.000 C 
BRANCH  29  30
ATOM     30  C   UNL     1       0.569   0.370  -1.266  1.00  0.00    -0.003 C 
ATOM     31  C   UNL     1       0.974   0.096   0.174  1.00  0.00     0.004 C 
ENDBRANCH  29  30
ENDBRANCH  28  29
ENDBRANCH  27  28
ENDBRANCH  26  27
ENDBRANCH  23  26
ENDBRANCH  21  22
ENDBRANCH  16  21
ENDBRANCH  10  15
BRANCH  12  32
ATOM     32  O   UNL     1      -5.098  -8.142  -4.160  1.00  0.00    -0.507 OA
ATOM     33  H   UNL     1      -5.106  -7.214  -4.032  1.00  0.00     0.293 HD
ENDBRANCH  12  32
ENDBRANCH   7   9
ENDBRANCH   5   7
ENDBRANCH   4   5
ENDBRANCH   3   4
ENDBRANCH   2   3
ENDBRANCH   1   2
BRANCH   1  34
ATOM     34  C   UNL     1      -0.982 -11.891  -6.191  1.00  0.00     0.188 C 
BRANCH  34  35
ATOM     35  C   UNL     1      -1.595 -10.550  -6.616  1.00  0.00     0.188 C 
BRANCH  35  36
ATOM     36  O   UNL     1      -1.492 -10.261  -7.992  1.00  0.00    -0.377 OA
BRANCH  36  37
ATOM     37  C   UNL     1      -0.512  -9.310  -8.372  1.00  0.00     0.188 C 
BRANCH  37  38
ATOM     38  C   UNL     1       0.850  -9.397  -7.660  1.00  0.00     0.188 C 
BRANCH  38  39
ATOM     39  O   UNL     1       0.772  -9.334  -6.238  1.00  0.00    -0.376 OA
BRANCH  39  40
ATOM     40  C   UNL     1       0.936  -8.066  -5.615  1.00  0.00     0.202 C 
BRANCH  40  41
ATOM     41  C   UNL     1      -0.122  -6.984  -5.884  1.00  0.00     0.261 C 
BRANCH  41  42
ATOM     42  O   UNL     1      -0.297  -6.587  -7.250  1.00  0.00    -0.460 OA
BRANCH  42  43
ATOM     43  C   UNL     1       0.764  -6.094  -7.926  1.00  0.00     0.338 C 
ATOM     44  O   UNL     1       1.883  -5.912  -7.502  1.00  0.00    -0.246 OA
BRANCH  43  45
ATOM     45  C   UNL     1       0.377  -6.043  -9.358  1.00  0.00     0.060 A 
ATOM     46  C   UNL     1       1.089  -6.824 -10.279  1.00  0.00     0.016 A 
ATOM     47  C   UNL     1      -0.691  -5.251  -9.784  1.00  0.00     0.016 A 
ATOM     48  C   UNL     1       0.755  -6.791 -11.635  1.00  0.00     0.010 A 
ATOM     49  C   UNL     1      -1.005  -5.197 -11.146  1.00  0.00     0.010 A 
ATOM     50  C   UNL     1      -0.266  -5.943 -12.082  1.00  0.00    -0.014 A 
BRANCH  50  51
ATOM     51  C   UNL     1      -0.437  -5.687 -13.535  1.00  0.00     0.031 A 
ATOM     52  C   UNL     1       0.190  -4.450 -14.118  1.00  0.00     0.074 A 
ATOM     53  C   UNL     1      -1.145  -6.517 -14.321  1.00  0.00     0.049 A 
ATOM     54  N   UNL     1       0.109  -3.969 -15.331  1.00  0.00    -0.248 NA
ATOM     55  C   UNL     1       1.021  -3.645 -13.206  1.00  0.00     0.031 C 
ATOM     56  C   UNL     1      -1.780  -7.759 -13.887  1.00  0.00     0.029 A 
ATOM     57  N   UNL     1      -1.476  -6.416 -15.652  1.00  0.00    -0.354 N 
ATOM     58  C   UNL     1       0.843  -2.790 -15.320  1.00  0.00     0.074 A 
ATOM     59  C   UNL     1       1.363  -2.626 -13.980  1.00  0.00     0.031 C 
ATOM     60  C   UNL     1      -2.460  -8.285 -14.921  1.00  0.00     0.029 A 
ATOM     61  C   UNL     1      -2.337  -7.400 -16.079  1.00  0.00     0.049 A 
ATOM     62  H   UNL     1      -1.131  -5.707 -16.241  1.00  0.00     0.167 HD
ATOM     63  C   UNL     1       1.070  -1.922 -16.334  1.00  0.00     0.034 A 
ATOM     64  C   UNL     1      -2.980  -7.546 -17.256  1.00  0.00     0.034 A 
ATOM     65  C   UNL     1       0.560  -2.089 -17.667  1.00  0.00     0.049 A 
ATOM     66  C   UNL     1      -2.755  -6.537 -18.355  1.00  0.00     0.074 A 
ATOM     67  C   UNL     1       0.775  -1.289 -18.774  1.00  0.00     0.029 A 
ATOM     68  N   UNL     1      -0.284  -3.112 -18.069  1.00  0.00    -0.354 N 
ATOM     69  N   UNL     1      -1.969  -5.487 -18.366  1.00  0.00    -0.248 NA
ATOM     70  C   UNL     1      -3.489  -6.745 -19.614  1.00  0.00     0.031 C 
ATOM     71  C   UNL     1       0.025  -1.804 -19.836  1.00  0.00     0.029 A 
ATOM     72  C   UNL     1      -0.621  -2.950 -19.401  1.00  0.00     0.049 A 
ATOM     73  H   UNL     1      -0.598  -3.845 -17.492  1.00  0.00     0.167 HD
ATOM     74  C   UNL     1      -2.087  -4.932 -19.637  1.00  0.00     0.074 A 
ATOM     75  C   UNL     1      -3.006  -5.772 -20.376  1.00  0.00     0.031 C 
ATOM     76  C   UNL     1      -1.498  -3.820 -20.143  1.00  0.00     0.034 A 
BRANCH  63  77
ATOM     77  C   UNL     1       1.911  -0.708 -16.040  1.00  0.00     0.023 A 
ATOM     78  C   UNL     1       3.298  -0.846 -15.833  1.00  0.00     0.012 A 
ATOM     79  C   UNL     1       1.333   0.577 -16.020  1.00  0.00     0.148 A 
ATOM     80  C   UNL     1       4.092   0.271 -15.578  1.00  0.00     0.002 A 
ATOM     81  C   UNL     1       2.137   1.690 -15.813  1.00  0.00     0.091 A 
ATOM     82  F   UNL     1       0.008   0.684 -16.197  1.00  0.00    -0.205 F 
ATOM     83  C   UNL     1       3.514   1.538 -15.579  1.00  0.00     0.022 A 
BRANCH  81  84
ATOM     84  S   UNL     1       1.503   3.369 -15.873  1.00  0.00     0.127 S 
ATOM     85  O   UNL     1       1.621   3.779 -14.474  1.00  0.00    -0.237 OA
ATOM     86  O   UNL     1       2.447   4.021 -16.781  1.00  0.00    -0.237 OA
ATOM     87  O   UNL     1       0.142   3.268 -16.380  1.00  0.00    -0.744 OA
ENDBRANCH  81  84
ENDBRANCH  63  77
BRANCH  64  88
ATOM     88  C   UNL     1      -3.906  -8.698 -17.465  1.00  0.00     0.023 A 
ATOM     89  C   UNL     1      -3.571  -9.703 -18.394  1.00  0.00     0.012 A 
ATOM     90  C   UNL     1      -5.115  -8.800 -16.750  1.00  0.00     0.148 A 
ATOM     91  C   UNL     1      -4.438 -10.771 -18.629  1.00  0.00     0.002 A 
ATOM     92  C   UNL     1      -5.947  -9.896 -16.946  1.00  0.00     0.091 A 
ATOM     93  F   UNL     1      -5.426  -7.824 -15.885  1.00  0.00    -0.205 F 
ATOM     94  C   UNL     1      -5.620 -10.873 -17.899  1.00  0.00     0.022 A 
BRANCH  92  95
ATOM     95  S   UNL     1      -7.426 -10.175 -15.966  1.00  0.00     0.127 S 
ATOM     96  O   UNL     1      -8.481 -10.013 -16.963  1.00  0.00    -0.237 OA
ATOM     97  O   UNL     1      -7.222 -11.548 -15.502  1.00  0.00    -0.237 OA
ATOM     98  O   UNL     1      -7.396  -9.172 -14.911  1.00  0.00    -0.744 OA
ENDBRANCH  92  95
ENDBRANCH  64  88
BRANCH  76  99
ATOM     99  C   UNL     1      -1.786  -3.453 -21.577  1.00  0.00     0.023 A 
ATOM    100  C   UNL     1      -3.045  -2.930 -21.930  1.00  0.00     0.012 A 
ATOM    101  C   UNL     1      -0.772  -3.534 -22.554  1.00  0.00     0.148 A 
ATOM    102  C   UNL     1      -3.300  -2.518 -23.239  1.00  0.00     0.002 A 
ATOM    103  C   UNL     1      -1.017  -3.074 -23.842  1.00  0.00     0.091 A 
ATOM    104  F   UNL     1       0.415  -4.046 -22.200  1.00  0.00    -0.205 F 
ATOM    105  C   UNL     1      -2.283  -2.577 -24.190  1.00  0.00     0.022 A 
BRANCH 103 106
ATOM    106  S   UNL     1       0.257  -3.018 -25.109  1.00  0.00     0.127 S 
ATOM    107  O   UNL     1      -0.228  -4.014 -26.063  1.00  0.00    -0.237 OA
ATOM    108  O   UNL     1       0.167  -1.634 -25.574  1.00  0.00    -0.237 OA
ATOM    109  O   UNL     1       1.507  -3.356 -24.442  1.00  0.00    -0.744 OA
ENDBRANCH 103 106
ENDBRANCH  76  99
ENDBRANCH  50  51
ENDBRANCH  43  45
ENDBRANCH  42  43
ENDBRANCH  41  42
ENDBRANCH  40  41
ENDBRANCH  39  40
ENDBRANCH  38  39
ENDBRANCH  37  38
ENDBRANCH  36  37
ENDBRANCH  35  36
ENDBRANCH  34  35
ENDBRANCH   1  34
TORSDOF 33
