REMARK SMILES O=C(OCCOCCOCCOCCOC(=O)[C@H](c1c[nH]c2ccc(Cl)cc12)[NH+]1CCN(c2cccc(Cl)c2)CC1)c1ccc(-c2c3nc(c(-c4cccc(S(=O)(=O)[O-])c4F)c4ccc([nH]4)c(-c4cccc(S(=O)(=O)[O-])c4F)c4nc(c(-c5cccc(S(=O)(=O)[O-])c5F)c5ccc2[nH]5)C=C4)C=C3)cc1
REMARK SMILES IDX 8 1 7 2 6 3 5 4 4 5 3 6 2 7 1 8 42 9 43 10 104 11 44 12
REMARK SMILES IDX 103 13 45 14 46 15 47 16 97 17 48 18 102 19 96 20 98 21
REMARK SMILES IDX 49 22 101 23 95 24 94 25 50 27 82 28 62 29 81 30 63 31 66 32
REMARK SMILES IDX 80 33 99 34 64 35 65 36 79 38 100 39 67 40 51 41 52 42 60 43
REMARK SMILES IDX 53 44 55 45 61 46 54 47 56 48 57 49 58 50 59 51 83 52 84 53
REMARK SMILES IDX 92 54 85 55 87 56 93 57 86 58 88 59 89 60 90 61 91 62 68 63
REMARK SMILES IDX 69 64 77 65 70 66 72 67 78 68 71 69 73 70 74 71 75 72 76 73
REMARK SMILES IDX 9 74 10 75 11 76 12 77 13 78 14 79 15 80 16 81 17 82 18 83
REMARK SMILES IDX 29 84 30 85 41 86 31 88 40 89 32 90 33 91 34 92 39 93 35 94
REMARK SMILES IDX 37 95 36 96 38 97 19 98 20 99 28 100 21 101 22 102 27 103
REMARK SMILES IDX 23 105 25 106 24 107 26 108
REMARK H PARENT 98 26 66 37 29 87 21 104
REMARK Flexibility Score: inf
ROOT
ATOM      1  C   UNL     1       1.251   2.217  -2.328  1.00  0.00     0.188 C 
ENDROOT
BRANCH   1   2
ATOM      2  C   UNL     1       0.864   3.471  -1.518  1.00  0.00     0.188 C 
BRANCH   2   3
ATOM      3  O   UNL     1       1.084   4.746  -2.118  1.00  0.00    -0.376 OA
BRANCH   3   4
ATOM      4  C   UNL     1       0.015   5.446  -2.742  1.00  0.00     0.202 C 
BRANCH   4   5
ATOM      5  C   UNL     1      -1.118   5.929  -1.823  1.00  0.00     0.261 C 
BRANCH   5   6
ATOM      6  O   UNL     1      -1.547   4.996  -0.801  1.00  0.00    -0.460 OA
BRANCH   6   7
ATOM      7  C   UNL     1      -2.506   4.038  -0.884  1.00  0.00     0.338 C 
ATOM      8  O   UNL     1      -2.930   3.476   0.119  1.00  0.00    -0.246 OA
BRANCH   7   9
ATOM      9  C   UNL     1      -3.000   3.635  -2.212  1.00  0.00     0.060 A 
ATOM     10  C   UNL     1      -2.115   3.294  -3.224  1.00  0.00     0.016 A 
ATOM     11  C   UNL     1      -4.364   3.538  -2.454  1.00  0.00     0.016 A 
ATOM     12  C   UNL     1      -2.533   3.174  -4.532  1.00  0.00     0.010 A 
ATOM     13  C   UNL     1      -4.806   3.245  -3.747  1.00  0.00     0.010 A 
ATOM     14  C   UNL     1      -3.890   3.153  -4.812  1.00  0.00    -0.014 A 
BRANCH  14  15
ATOM     15  C   UNL     1      -4.342   3.194  -6.220  1.00  0.00     0.031 A 
ATOM     16  C   UNL     1      -5.257   4.315  -6.616  1.00  0.00     0.074 A 
ATOM     17  C   UNL     1      -3.901   2.308  -7.134  1.00  0.00     0.049 A 
ATOM     18  N   UNL     1      -6.062   4.405  -7.634  1.00  0.00    -0.248 NA
ATOM     19  C   UNL     1      -5.298   5.481  -5.712  1.00  0.00     0.031 C 
ATOM     20  C   UNL     1      -2.901   1.261  -6.904  1.00  0.00     0.029 A 
ATOM     21  N   UNL     1      -4.239   2.150  -8.453  1.00  0.00    -0.354 N 
ATOM     22  C   UNL     1      -6.808   5.557  -7.415  1.00  0.00     0.074 A 
ATOM     23  C   UNL     1      -6.325   6.161  -6.196  1.00  0.00     0.031 C 
ATOM     24  C   UNL     1      -2.681   0.596  -8.047  1.00  0.00     0.029 A 
ATOM     25  C   UNL     1      -3.628   1.068  -9.045  1.00  0.00     0.049 A 
ATOM     26  H   UNL     1      -4.857   2.751  -8.929  1.00  0.00     0.167 HD
ATOM     27  C   UNL     1      -7.824   6.038  -8.166  1.00  0.00     0.034 A 
ATOM     28  C   UNL     1      -3.875   0.471 -10.226  1.00  0.00     0.034 A 
ATOM     29  C   UNL     1      -8.200   5.444  -9.418  1.00  0.00     0.049 A 
ATOM     30  C   UNL     1      -5.003   1.023 -11.054  1.00  0.00     0.074 A 
ATOM     31  C   UNL     1      -9.216   5.804 -10.281  1.00  0.00     0.029 A 
ATOM     32  N   UNL     1      -7.538   4.368  -9.997  1.00  0.00    -0.354 N 
ATOM     33  N   UNL     1      -5.776   2.056 -10.809  1.00  0.00    -0.248 NA
ATOM     34  C   UNL     1      -5.305   0.326 -12.309  1.00  0.00     0.031 C 
ATOM     35  C   UNL     1      -9.172   4.936 -11.379  1.00  0.00     0.029 A 
ATOM     36  C   UNL     1      -8.113   4.054 -11.211  1.00  0.00     0.049 A 
ATOM     37  H   UNL     1      -6.771   3.897  -9.598  1.00  0.00     0.167 HD
ATOM     38  C   UNL     1      -6.646   2.146 -11.886  1.00  0.00     0.074 A 
ATOM     39  C   UNL     1      -6.283   1.076 -12.798  1.00  0.00     0.031 C 
ATOM     40  C   UNL     1      -7.670   3.010 -12.101  1.00  0.00     0.034 A 
BRANCH  27  41
ATOM     41  C   UNL     1      -8.599   7.207  -7.621  1.00  0.00     0.023 A 
ATOM     42  C   UNL     1      -8.023   8.492  -7.570  1.00  0.00     0.012 A 
ATOM     43  C   UNL     1      -9.905   7.018  -7.125  1.00  0.00     0.148 A 
ATOM     44  C   UNL     1      -8.714   9.558  -6.991  1.00  0.00     0.002 A 
ATOM     45  C   UNL     1     -10.605   8.094  -6.591  1.00  0.00     0.091 A 
ATOM     46  F   UNL     1     -10.427   5.784  -7.153  1.00  0.00    -0.205 F 
ATOM     47  C   UNL     1     -10.005   9.361  -6.509  1.00  0.00     0.022 A 
BRANCH  45  48
ATOM     48  S   UNL     1     -12.294   7.955  -5.998  1.00  0.00     0.127 S 
ATOM     49  O   UNL     1     -12.117   8.129  -4.557  1.00  0.00    -0.237 OA
ATOM     50  O   UNL     1     -12.948   9.077  -6.672  1.00  0.00    -0.237 OA
ATOM     51  O   UNL     1     -12.761   6.639  -6.414  1.00  0.00    -0.744 OA
ENDBRANCH  45  48
ENDBRANCH  27  41
BRANCH  28  52
ATOM     52  C   UNL     1      -3.085  -0.721 -10.655  1.00  0.00     0.023 A 
ATOM     53  C   UNL     1      -2.248  -0.629 -11.783  1.00  0.00     0.012 A 
ATOM     54  C   UNL     1      -3.118  -1.930  -9.929  1.00  0.00     0.148 A 
ATOM     55  C   UNL     1      -1.473  -1.720 -12.188  1.00  0.00     0.002 A 
ATOM     56  C   UNL     1      -2.296  -2.989 -10.298  1.00  0.00     0.091 A 
ATOM     57  F   UNL     1      -3.941  -2.016  -8.874  1.00  0.00    -0.205 F 
ATOM     58  C   UNL     1      -1.485  -2.893 -11.437  1.00  0.00     0.022 A 
BRANCH  56  59
ATOM     59  S   UNL     1      -2.144  -4.475  -9.297  1.00  0.00     0.127 S 
ATOM     60  O   UNL     1      -2.904  -5.444 -10.082  1.00  0.00    -0.237 OA
ATOM     61  O   UNL     1      -0.697  -4.691  -9.285  1.00  0.00    -0.237 OA
ATOM     62  O   UNL     1      -2.705  -4.126  -7.998  1.00  0.00    -0.744 OA
ENDBRANCH  56  59
ENDBRANCH  28  52
BRANCH  40  63
ATOM     63  C   UNL     1      -8.421   2.861 -13.391  1.00  0.00     0.023 A 
ATOM     64  C   UNL     1      -9.341   1.808 -13.552  1.00  0.00     0.012 A 
ATOM     65  C   UNL     1      -8.268   3.821 -14.409  1.00  0.00     0.148 A 
ATOM     66  C   UNL     1     -10.081   1.696 -14.726  1.00  0.00     0.002 A 
ATOM     67  C   UNL     1      -9.047   3.733 -15.552  1.00  0.00     0.091 A 
ATOM     68  F   UNL     1      -7.367   4.799 -14.237  1.00  0.00    -0.205 F 
ATOM     69  C   UNL     1      -9.945   2.665 -15.719  1.00  0.00     0.022 A 
BRANCH  67  70
ATOM     70  S   UNL     1      -9.011   4.997 -16.826  1.00  0.00     0.127 S 
ATOM     71  O   UNL     1      -8.258   4.330 -17.886  1.00  0.00    -0.237 OA
ATOM     72  O   UNL     1     -10.434   5.189 -17.113  1.00  0.00    -0.237 OA
ATOM     73  O   UNL     1      -8.359   6.152 -16.223  1.00  0.00    -0.744 OA
ENDBRANCH  67  70
ENDBRANCH  40  63
ENDBRANCH  14  15
ENDBRANCH   7   9
ENDBRANCH   6   7
ENDBRANCH   5   6
ENDBRANCH   4   5
ENDBRANCH   3   4
ENDBRANCH   2   3
ENDBRANCH   1   2
BRANCH   1  74
ATOM     74  O   UNL     1       2.082   2.453  -3.451  1.00  0.00    -0.377 OA
BRANCH  74  75
ATOM     75  C   UNL     1       1.414   2.571  -4.703  1.00  0.00     0.188 C 
BRANCH  75  76
ATOM     76  C   UNL     1       2.363   2.174  -5.841  1.00  0.00     0.188 C 
BRANCH  76  77
ATOM     77  O   UNL     1       2.637   0.779  -5.931  1.00  0.00    -0.376 OA
BRANCH  77  78
ATOM     78  C   UNL     1       3.215   0.159  -4.783  1.00  0.00     0.202 C 
BRANCH  78  79
ATOM     79  C   UNL     1       4.649   0.586  -4.410  1.00  0.00     0.261 C 
BRANCH  79  80
ATOM     80  O   UNL     1       4.790   1.894  -3.793  1.00  0.00    -0.459 OA
BRANCH  80  81
ATOM     81  C   UNL     1       5.585   2.799  -4.438  1.00  0.00     0.370 C 
ATOM     82  O   UNL     1       6.069   2.581  -5.550  1.00  0.00    -0.245 OA
BRANCH  81  83
ATOM     83  C   UNL     1       5.895   4.121  -3.666  1.00  0.00     0.328 C 
BRANCH  83  84
ATOM     84  N   UNL     1       5.547   5.318  -4.483  1.00  0.00    -0.316 N 
ATOM     85  C   UNL     1       4.149   5.500  -4.893  1.00  0.00     0.284 C 
ATOM     86  C   UNL     1       6.154   6.596  -4.083  1.00  0.00     0.284 C 
ATOM     87  H   UNL     1       6.026   5.019  -5.333  1.00  0.00     0.349 HD
ATOM     88  C   UNL     1       3.272   6.452  -4.058  1.00  0.00     0.178 C 
ATOM     89  C   UNL     1       5.304   7.537  -3.182  1.00  0.00     0.178 C 
ATOM     90  N   UNL     1       3.955   7.715  -3.739  1.00  0.00    -0.360 N 
BRANCH  90  91
ATOM     91  C   UNL     1       3.095   8.623  -3.110  1.00  0.00     0.038 A 
ATOM     92  C   UNL     1       2.551   9.668  -3.868  1.00  0.00     0.026 A 
ATOM     93  C   UNL     1       2.639   8.447  -1.796  1.00  0.00     0.046 A 
ATOM     94  C   UNL     1       1.558  10.500  -3.346  1.00  0.00     0.004 A 
ATOM     95  C   UNL     1       1.639   9.273  -1.278  1.00  0.00     0.043 A 
ATOM     96  C   UNL     1       1.090  10.295  -2.050  1.00  0.00     0.020 A 
ATOM     97  Cl  UNL     1       1.043   8.998   0.315  1.00  0.00    -0.084 Cl
ENDBRANCH  90  91
ENDBRANCH  83  84
BRANCH  83  98
ATOM     98  C   UNL     1       5.449   4.258  -2.233  1.00  0.00     0.046 A 
ATOM     99  C   UNL     1       4.170   4.141  -1.755  1.00  0.00     0.094 A 
ATOM    100  C   UNL     1       6.235   4.648  -1.091  1.00  0.00     0.011 A 
ATOM    101  N   UNL     1       4.107   4.526  -0.453  1.00  0.00    -0.361 N 
ATOM    102  C   UNL     1       5.361   4.859  -0.018  1.00  0.00     0.046 A 
ATOM    103  C   UNL     1       7.604   4.908  -0.887  1.00  0.00     0.031 A 
ATOM    104  H   UNL     1       3.287   4.559   0.091  1.00  0.00     0.166 HD
ATOM    105  C   UNL     1       5.766   5.348   1.226  1.00  0.00     0.028 A 
ATOM    106  C   UNL     1       8.027   5.378   0.360  1.00  0.00     0.041 A 
ATOM    107  C   UNL     1       7.125   5.608   1.397  1.00  0.00     0.022 A 
ATOM    108  Cl  UNL     1       9.701   5.696   0.613  1.00  0.00    -0.084 Cl
ENDBRANCH  83  98
ENDBRANCH  81  83
ENDBRANCH  80  81
ENDBRANCH  79  80
ENDBRANCH  78  79
ENDBRANCH  77  78
ENDBRANCH  76  77
ENDBRANCH  75  76
ENDBRANCH  74  75
ENDBRANCH   1  74
TORSDOF 26
