REMARK SMILES C[C@@H]([NH3+])CCC(=O)N[C@H]1C=C[C@@H](C(=O)OCCOCCOCCOCCOC(=O)c2ccc(-c3c4nc(c(-c5cccc(S(=O)(=O)[O-])c5F)c5ccc([nH]5)c(-c5cccc(S(=O)(=O)[O-])c5F)c5nc(c(-c6cccc(S(=O)(=O)[O-])c6F)c6ccc3[nH]6)C=C5)C=C4)cc2)C1
REMARK SMILES IDX 20 1 19 2 18 3 17 4 16 5 15 6 13 7 14 8 12 9 9 10 10 11
REMARK SMILES IDX 93 12 11 13 8 14 6 15 7 16 5 18 4 19 2 20 1 21 3 22 21 26
REMARK SMILES IDX 22 27 23 28 24 29 25 30 26 31 27 32 28 33 29 34 30 35 31 36
REMARK SMILES IDX 92 37 32 38 91 39 33 40 34 41 35 42 85 43 36 44 90 45 84 46
REMARK SMILES IDX 86 47 37 48 89 49 83 50 82 51 38 53 70 54 50 55 69 56 51 57
REMARK SMILES IDX 54 58 68 59 87 60 52 61 53 62 67 64 88 65 55 66 39 67 40 68
REMARK SMILES IDX 48 69 41 70 43 71 49 72 42 73 44 74 45 75 46 76 47 77 71 78
REMARK SMILES IDX 72 79 80 80 73 81 75 82 81 83 74 84 76 85 77 86 78 87 79 88
REMARK SMILES IDX 56 89 57 90 65 91 58 92 60 93 66 94 59 95 61 96 62 97 63 98
REMARK SMILES IDX 64 99
REMARK H PARENT 8 17 3 23 3 24 3 25 86 52 54 63
REMARK Flexibility Score: inf
ROOT
ATOM      1  C   UNL     1       0.061  -4.075   0.752  1.00  0.00     0.188 C 
ENDROOT
BRANCH   1   2
ATOM      2  C   UNL     1       0.601  -4.121   2.187  1.00  0.00     0.188 C 
BRANCH   2   3
ATOM      3  O   UNL     1      -0.227  -3.725   3.279  1.00  0.00    -0.376 OA
BRANCH   3   4
ATOM      4  C   UNL     1      -1.168  -2.680   3.094  1.00  0.00     0.202 C 
BRANCH   4   5
ATOM      5  C   UNL     1      -0.661  -1.310   2.623  1.00  0.00     0.261 C 
BRANCH   5   6
ATOM      6  O   UNL     1       0.320  -1.254   1.542  1.00  0.00    -0.463 OA
BRANCH   6   7
ATOM      7  C   UNL     1       1.397  -0.459   1.781  1.00  0.00     0.312 C 
ATOM      8  O   UNL     1       1.729  -0.115   2.917  1.00  0.00    -0.252 OA
BRANCH   7   9
ATOM      9  C   UNL     1       2.165   0.098   0.554  1.00  0.00     0.124 C 
ATOM     10  C   UNL     1       1.777   1.038  -1.727  1.00  0.00     0.106 C 
ATOM     11  C   UNL     1       1.625   2.079  -0.686  1.00  0.00    -0.006 C 
ATOM     12  C   UNL     1       1.960  -0.300  -0.932  1.00  0.00     0.048 C 
ATOM     13  C   UNL     1       1.920   1.592   0.528  1.00  0.00    -0.014 C 
BRANCH  10  14
ATOM     14  N   UNL     1       0.952   1.200  -2.943  1.00  0.00    -0.350 N 
ATOM     15  C   UNL     1      -0.269   1.335  -3.511  1.00  0.00     0.220 C 
ATOM     16  O   UNL     1      -0.197   1.473  -4.745  1.00  0.00    -0.275 OA
ATOM     17  H   UNL     1       1.591   1.216  -3.692  1.00  0.00     0.164 HD
BRANCH  15  18
ATOM     18  C   UNL     1      -1.660   1.401  -2.889  1.00  0.00     0.106 C 
BRANCH  18  19
ATOM     19  C   UNL     1      -2.162   0.121  -2.251  1.00  0.00     0.074 C 
BRANCH  19  20
ATOM     20  C   UNL     1      -1.353  -0.156  -1.017  1.00  0.00     0.178 C 
ATOM     21  C   UNL     1      -1.589   0.833   0.115  1.00  0.00     0.075 C 
BRANCH  20  22
ATOM     22  N   UNL     1      -1.529  -1.539  -0.654  1.00  0.00    -0.355 N 
ATOM     23  H   UNL     1      -2.511  -1.712  -0.440  1.00  0.00     0.344 HD
ATOM     24  H   UNL     1      -0.960  -1.751   0.165  1.00  0.00     0.344 HD
ATOM     25  H   UNL     1      -1.241  -2.134  -1.431  1.00  0.00     0.344 HD
ENDBRANCH  20  22
ENDBRANCH  19  20
ENDBRANCH  18  19
ENDBRANCH  15  18
ENDBRANCH  10  14
ENDBRANCH   7   9
ENDBRANCH   6   7
ENDBRANCH   5   6
ENDBRANCH   4   5
ENDBRANCH   3   4
ENDBRANCH   2   3
ENDBRANCH   1   2
BRANCH   1  26
ATOM     26  O   UNL     1      -1.334  -3.877   0.749  1.00  0.00    -0.377 OA
BRANCH  26  27
ATOM     27  C   UNL     1      -2.162  -4.739  -0.004  1.00  0.00     0.188 C 
BRANCH  27  28
ATOM     28  C   UNL     1      -2.092  -6.189   0.475  1.00  0.00     0.188 C 
BRANCH  28  29
ATOM     29  O   UNL     1      -0.772  -6.719   0.421  1.00  0.00    -0.376 OA
BRANCH  29  30
ATOM     30  C   UNL     1      -0.375  -7.404  -0.762  1.00  0.00     0.202 C 
BRANCH  30  31
ATOM     31  C   UNL     1      -0.330  -6.633  -2.099  1.00  0.00     0.261 C 
BRANCH  31  32
ATOM     32  O   UNL     1      -1.560  -6.084  -2.603  1.00  0.00    -0.460 OA
BRANCH  32  33
ATOM     33  C   UNL     1      -2.630  -6.891  -2.720  1.00  0.00     0.338 C 
ATOM     34  O   UNL     1      -2.672  -8.092  -2.491  1.00  0.00    -0.246 OA
BRANCH  33  35
ATOM     35  C   UNL     1      -3.812  -6.055  -3.002  1.00  0.00     0.060 A 
ATOM     36  C   UNL     1      -4.841  -5.992  -2.054  1.00  0.00     0.016 A 
ATOM     37  C   UNL     1      -3.928  -5.376  -4.217  1.00  0.00     0.016 A 
ATOM     38  C   UNL     1      -6.014  -5.293  -2.339  1.00  0.00     0.010 A 
ATOM     39  C   UNL     1      -5.113  -4.692  -4.509  1.00  0.00     0.010 A 
ATOM     40  C   UNL     1      -6.177  -4.685  -3.589  1.00  0.00    -0.014 A 
BRANCH  40  41
ATOM     41  C   UNL     1      -7.525  -4.227  -4.006  1.00  0.00     0.031 A 
ATOM     42  C   UNL     1      -8.349  -5.135  -4.882  1.00  0.00     0.074 A 
ATOM     43  C   UNL     1      -8.019  -3.040  -3.610  1.00  0.00     0.049 A 
ATOM     44  N   UNL     1      -9.534  -4.942  -5.396  1.00  0.00    -0.248 NA
ATOM     45  C   UNL     1      -7.753  -6.440  -5.222  1.00  0.00     0.031 C 
ATOM     46  C   UNL     1      -7.334  -2.087  -2.739  1.00  0.00     0.029 A 
ATOM     47  N   UNL     1      -9.210  -2.427  -3.911  1.00  0.00    -0.354 N 
ATOM     48  C   UNL     1      -9.808  -6.074  -6.154  1.00  0.00     0.074 A 
ATOM     49  C   UNL     1      -8.669  -6.956  -6.029  1.00  0.00     0.031 C 
ATOM     50  C   UNL     1      -8.107  -0.995  -2.596  1.00  0.00     0.029 A 
ATOM     51  C   UNL     1      -9.323  -1.159  -3.391  1.00  0.00     0.049 A 
ATOM     52  H   UNL     1      -9.916  -2.855  -4.447  1.00  0.00     0.167 HD
ATOM     53  C   UNL     1     -10.911  -6.357  -6.886  1.00  0.00     0.034 A 
ATOM     54  C   UNL     1     -10.285  -0.230  -3.563  1.00  0.00     0.034 A 
ATOM     55  C   UNL     1     -12.052  -5.490  -6.991  1.00  0.00     0.049 A 
ATOM     56  C   UNL     1     -11.484  -0.560  -4.420  1.00  0.00     0.074 A 
ATOM     57  C   UNL     1     -13.242  -5.717  -7.659  1.00  0.00     0.029 A 
ATOM     58  N   UNL     1     -12.138  -4.224  -6.436  1.00  0.00    -0.354 N 
ATOM     59  N   UNL     1     -11.783  -1.681  -5.030  1.00  0.00    -0.248 NA
ATOM     60  C   UNL     1     -12.492   0.498  -4.589  1.00  0.00     0.031 C 
ATOM     61  C   UNL     1     -14.028  -4.566  -7.550  1.00  0.00     0.029 A 
ATOM     62  C   UNL     1     -13.349  -3.645  -6.769  1.00  0.00     0.049 A 
ATOM     63  H   UNL     1     -11.440  -3.799  -5.886  1.00  0.00     0.167 HD
ATOM     64  C   UNL     1     -13.031  -1.479  -5.613  1.00  0.00     0.074 A 
ATOM     65  C   UNL     1     -13.439  -0.133  -5.269  1.00  0.00     0.031 C 
ATOM     66  C   UNL     1     -13.769  -2.326  -6.372  1.00  0.00     0.034 A 
BRANCH  53  67
ATOM     67  C   UNL     1     -10.941  -7.657  -7.645  1.00  0.00     0.023 A 
ATOM     68  C   UNL     1     -11.105  -8.876  -6.957  1.00  0.00     0.012 A 
ATOM     69  C   UNL     1     -10.882  -7.657  -9.052  1.00  0.00     0.148 A 
ATOM     70  C   UNL     1     -11.185 -10.079  -7.660  1.00  0.00     0.002 A 
ATOM     71  C   UNL     1     -11.011  -8.853  -9.746  1.00  0.00     0.091 A 
ATOM     72  F   UNL     1     -10.703  -6.489  -9.684  1.00  0.00    -0.205 F 
ATOM     73  C   UNL     1     -11.151 -10.066  -9.052  1.00  0.00     0.022 A 
BRANCH  71  74
ATOM     74  S   UNL     1     -11.064  -8.932 -11.540  1.00  0.00     0.127 S 
ATOM     75  O   UNL     1      -9.816  -9.633 -11.841  1.00  0.00    -0.237 OA
ATOM     76  O   UNL     1     -12.276  -9.715 -11.775  1.00  0.00    -0.237 OA
ATOM     77  O   UNL     1     -11.128  -7.553 -12.004  1.00  0.00    -0.744 OA
ENDBRANCH  71  74
ENDBRANCH  53  67
BRANCH  54  78
ATOM     78  C   UNL     1     -10.178   1.105  -2.905  1.00  0.00     0.023 A 
ATOM     79  C   UNL     1     -11.110   1.469  -1.913  1.00  0.00     0.012 A 
ATOM     80  C   UNL     1      -9.178   2.026  -3.275  1.00  0.00     0.148 A 
ATOM     81  C   UNL     1     -11.077   2.739  -1.335  1.00  0.00     0.002 A 
ATOM     82  C   UNL     1      -9.114   3.267  -2.653  1.00  0.00     0.091 A 
ATOM     83  F   UNL     1      -8.311   1.671  -4.234  1.00  0.00    -0.205 F 
ATOM     84  C   UNL     1     -10.076   3.635  -1.699  1.00  0.00     0.022 A 
BRANCH  82  85
ATOM     85  S   UNL     1      -7.789   4.438  -2.969  1.00  0.00     0.127 S 
ATOM     86  O   UNL     1      -8.494   5.505  -3.675  1.00  0.00    -0.237 OA
ATOM     87  O   UNL     1      -7.357   4.776  -1.612  1.00  0.00    -0.237 OA
ATOM     88  O   UNL     1      -6.798   3.710  -3.749  1.00  0.00    -0.744 OA
ENDBRANCH  82  85
ENDBRANCH  54  78
BRANCH  66  89
ATOM     89  C   UNL     1     -15.124  -1.857  -6.841  1.00  0.00     0.023 A 
ATOM     90  C   UNL     1     -15.227  -0.861  -7.831  1.00  0.00     0.012 A 
ATOM     91  C   UNL     1     -16.297  -2.467  -6.350  1.00  0.00     0.148 A 
ATOM     92  C   UNL     1     -16.476  -0.453  -8.299  1.00  0.00     0.002 A 
ATOM     93  C   UNL     1     -17.534  -2.095  -6.861  1.00  0.00     0.091 A 
ATOM     94  F   UNL     1     -16.180  -3.404  -5.398  1.00  0.00    -0.205 F 
ATOM     95  C   UNL     1     -17.627  -1.078  -7.824  1.00  0.00     0.022 A 
BRANCH  93  96
ATOM     96  S   UNL     1     -19.060  -2.916  -6.386  1.00  0.00     0.127 S 
ATOM     97  O   UNL     1     -19.731  -1.872  -5.612  1.00  0.00    -0.237 OA
ATOM     98  O   UNL     1     -19.674  -3.203  -7.683  1.00  0.00    -0.237 OA
ATOM     99  O   UNL     1     -18.666  -4.096  -5.628  1.00  0.00    -0.744 OA
ENDBRANCH  93  96
ENDBRANCH  66  89
ENDBRANCH  40  41
ENDBRANCH  33  35
ENDBRANCH  32  33
ENDBRANCH  31  32
ENDBRANCH  30  31
ENDBRANCH  29  30
ENDBRANCH  28  29
ENDBRANCH  27  28
ENDBRANCH  26  27
ENDBRANCH   1  26
TORSDOF 28
