REMARK SMILES NS(=O)(=O)c1ccc(N2N=C(C(=O)OCCOCCOCCOCCOC(=O)c3ccc(-c4c5nc(c(-c6cccc(S(=O)(=O)[O-])c6F)c6ccc([nH]6)c(-c6cccc(S(=O)(=O)[O-])c6F)c6nc(c(-c7cccc(S(=O)(=O)[O-])c7F)c7ccc4[nH]7)C=C6)C=C5)cc3)C[C@H]2c2ccco2)cc1
REMARK SMILES IDX 20 1 19 2 18 3 17 4 16 5 15 6 14 7 12 8 13 9 11 10 9 11
REMARK SMILES IDX 10 12 93 13 92 14 8 15 5 16 6 17 100 18 7 19 99 20 2 21 3 22
REMARK SMILES IDX 4 23 1 24 94 27 95 28 98 29 96 30 97 31 21 32 22 33 23 34
REMARK SMILES IDX 24 35 25 36 26 37 27 38 28 39 29 40 30 41 91 42 31 43 90 44
REMARK SMILES IDX 32 45 33 46 34 47 84 48 35 49 89 50 83 51 85 52 36 53 88 54
REMARK SMILES IDX 82 55 81 56 37 58 69 59 49 60 68 61 50 62 53 63 67 64 86 65
REMARK SMILES IDX 51 66 52 67 66 69 87 70 54 71 38 72 39 73 47 74 40 75 42 76
REMARK SMILES IDX 48 77 41 78 43 79 44 80 45 81 46 82 70 83 71 84 79 85 72 86
REMARK SMILES IDX 74 87 80 88 73 89 75 90 76 91 77 92 78 93 55 94 56 95 64 96
REMARK SMILES IDX 57 97 59 98 65 99 58 100 60 101 61 102 62 103 63 104
REMARK H PARENT 1 25 1 26 85 57 53 68
REMARK Flexibility Score: inf
ROOT
ATOM      1  O   UNL     1       2.930   5.982   8.995  1.00  0.00    -0.377 OA
ENDROOT
BRANCH   1   2
ATOM      2  C   UNL     1       3.174   5.032   7.971  1.00  0.00     0.188 C 
BRANCH   2   3
ATOM      3  C   UNL     1       4.631   5.021   7.478  1.00  0.00     0.188 C 
BRANCH   3   4
ATOM      4  O   UNL     1       5.567   5.555   8.395  1.00  0.00    -0.376 OA
BRANCH   4   5
ATOM      5  C   UNL     1       5.831   6.948   8.483  1.00  0.00     0.202 C 
BRANCH   5   6
ATOM      6  C   UNL     1       4.907   8.086   8.004  1.00  0.00     0.261 C 
BRANCH   6   7
ATOM      7  O   UNL     1       3.832   7.730   7.144  1.00  0.00    -0.459 OA
BRANCH   7   8
ATOM      8  C   UNL     1       4.041   7.782   5.821  1.00  0.00     0.354 C 
ATOM      9  O   UNL     1       5.028   8.162   5.224  1.00  0.00    -0.245 OA
BRANCH   8  10
ATOM     10  C   UNL     1       2.869   7.092   5.172  1.00  0.00     0.148 C 
ATOM     11  N   UNL     1       1.729   5.758   3.992  1.00  0.00    -0.254 N 
ATOM     12  N   UNL     1       3.004   6.092   4.349  1.00  0.00    -0.169 NA
ATOM     13  C   UNL     1       0.753   6.800   4.373  1.00  0.00     0.180 C 
ATOM     14  C   UNL     1       1.466   7.432   5.575  1.00  0.00     0.101 C 
BRANCH  11  15
ATOM     15  C   UNL     1       1.531   4.806   3.004  1.00  0.00     0.060 A 
ATOM     16  C   UNL     1       1.018   2.858   1.037  1.00  0.00     0.082 A 
ATOM     17  C   UNL     1       1.231   2.465   2.359  1.00  0.00     0.024 A 
ATOM     18  C   UNL     1       1.117   4.202   0.678  1.00  0.00     0.024 A 
ATOM     19  C   UNL     1       1.489   3.442   3.332  1.00  0.00     0.029 A 
ATOM     20  C   UNL     1       1.384   5.160   1.658  1.00  0.00     0.029 A 
BRANCH  16  21
ATOM     21  S   UNL     1       0.640   1.681  -0.223  1.00  0.00     0.238 S 
ATOM     22  O   UNL     1       1.329   2.064  -1.443  1.00  0.00    -0.207 OA
ATOM     23  O   UNL     1      -0.769   1.405  -0.188  1.00  0.00    -0.207 OA
BRANCH  21  24
ATOM     24  N   UNL     1       1.404   0.267   0.268  1.00  0.00    -0.225 NA
ATOM     25  H   UNL     1       1.230  -0.469  -0.417  1.00  0.00     0.137 HD
ATOM     26  H   UNL     1       1.038  -0.020   1.176  1.00  0.00     0.137 HD
ENDBRANCH  21  24
ENDBRANCH  16  21
ENDBRANCH  11  15
BRANCH  13  27
ATOM     27  C   UNL     1       0.433   7.845   3.340  1.00  0.00     0.128 A 
ATOM     28  C   UNL     1      -0.466   7.900   2.292  1.00  0.00     0.048 A 
ATOM     29  O   UNL     1       1.143   9.012   3.390  1.00  0.00    -0.467 OA
ATOM     30  C   UNL     1      -0.277   9.156   1.666  1.00  0.00     0.042 A 
ATOM     31  C   UNL     1       0.696   9.804   2.387  1.00  0.00     0.195 A 
ENDBRANCH  13  27
ENDBRANCH   8  10
ENDBRANCH   7   8
ENDBRANCH   6   7
ENDBRANCH   5   6
ENDBRANCH   4   5
ENDBRANCH   3   4
ENDBRANCH   2   3
ENDBRANCH   1   2
BRANCH   1  32
ATOM     32  C   UNL     1       3.189   5.598  10.345  1.00  0.00     0.188 C 
BRANCH  32  33
ATOM     33  C   UNL     1       4.180   4.460  10.682  1.00  0.00     0.188 C 
BRANCH  33  34
ATOM     34  O   UNL     1       4.089   3.318   9.837  1.00  0.00    -0.376 OA
BRANCH  34  35
ATOM     35  C   UNL     1       3.418   2.170  10.335  1.00  0.00     0.202 C 
BRANCH  35  36
ATOM     36  C   UNL     1       1.899   2.305  10.510  1.00  0.00     0.261 C 
BRANCH  36  37
ATOM     37  O   UNL     1       1.479   3.298  11.457  1.00  0.00    -0.460 OA
BRANCH  37  38
ATOM     38  C   UNL     1       1.890   3.126  12.732  1.00  0.00     0.338 C 
ATOM     39  O   UNL     1       2.520   2.184  13.177  1.00  0.00    -0.246 OA
BRANCH  38  40
ATOM     40  C   UNL     1       1.620   4.371  13.477  1.00  0.00     0.060 A 
ATOM     41  C   UNL     1       2.691   5.001  14.121  1.00  0.00     0.016 A 
ATOM     42  C   UNL     1       0.327   4.893  13.565  1.00  0.00     0.016 A 
ATOM     43  C   UNL     1       2.458   6.122  14.913  1.00  0.00     0.010 A 
ATOM     44  C   UNL     1       0.095   6.014  14.368  1.00  0.00     0.010 A 
ATOM     45  C   UNL     1       1.152   6.600  15.085  1.00  0.00    -0.014 A 
BRANCH  45  46
ATOM     46  C   UNL     1       0.895   7.592  16.156  1.00  0.00     0.031 A 
ATOM     47  C   UNL     1       0.342   7.116  17.471  1.00  0.00     0.074 A 
ATOM     48  C   UNL     1       1.199   8.890  15.985  1.00  0.00     0.049 A 
ATOM     49  N   UNL     1       0.139   7.786  18.575  1.00  0.00    -0.248 NA
ATOM     50  C   UNL     1      -0.034   5.695  17.551  1.00  0.00     0.031 C 
ATOM     51  C   UNL     1       1.715   9.479  14.752  1.00  0.00     0.029 A 
ATOM     52  N   UNL     1       1.101   9.947  16.854  1.00  0.00    -0.354 N 
ATOM     53  C   UNL     1      -0.409   6.878  19.473  1.00  0.00     0.074 A 
ATOM     54  C   UNL     1      -0.528   5.615  18.777  1.00  0.00     0.031 C 
ATOM     55  C   UNL     1       1.868  10.801  14.935  1.00  0.00     0.029 A 
ATOM     56  C   UNL     1       1.450  11.151  16.293  1.00  0.00     0.049 A 
ATOM     57  H   UNL     1       0.807   9.852  17.788  1.00  0.00     0.167 HD
ATOM     58  C   UNL     1      -0.766   7.069  20.766  1.00  0.00     0.034 A 
ATOM     59  C   UNL     1       1.425  12.395  16.811  1.00  0.00     0.034 A 
ATOM     60  C   UNL     1      -0.642   8.324  21.458  1.00  0.00     0.049 A 
ATOM     61  C   UNL     1       1.038  12.589  18.252  1.00  0.00     0.074 A 
ATOM     62  C   UNL     1      -0.914   8.606  22.785  1.00  0.00     0.029 A 
ATOM     63  N   UNL     1      -0.238   9.514  20.872  1.00  0.00    -0.354 N 
ATOM     64  N   UNL     1       0.662  11.693  19.134  1.00  0.00    -0.248 NA
ATOM     65  C   UNL     1       1.118  13.957  18.785  1.00  0.00     0.031 C 
ATOM     66  C   UNL     1      -0.716   9.976  22.990  1.00  0.00     0.029 A 
ATOM     67  C   UNL     1      -0.271  10.538  21.804  1.00  0.00     0.049 A 
ATOM     68  H   UNL     1       0.034   9.616  19.931  1.00  0.00     0.167 HD
ATOM     69  C   UNL     1       0.492  12.380  20.331  1.00  0.00     0.074 A 
ATOM     70  C   UNL     1       0.825  13.765  20.064  1.00  0.00     0.031 C 
ATOM     71  C   UNL     1       0.092  11.908  21.539  1.00  0.00     0.034 A 
BRANCH  58  72
ATOM     72  C   UNL     1      -1.324   5.883  21.511  1.00  0.00     0.023 A 
ATOM     73  C   UNL     1      -0.487   4.796  21.838  1.00  0.00     0.012 A 
ATOM     74  C   UNL     1      -2.677   5.851  21.898  1.00  0.00     0.148 A 
ATOM     75  C   UNL     1      -0.999   3.676  22.493  1.00  0.00     0.002 A 
ATOM     76  C   UNL     1      -3.169   4.754  22.595  1.00  0.00     0.091 A 
ATOM     77  F   UNL     1      -3.466   6.880  21.556  1.00  0.00    -0.205 F 
ATOM     78  C   UNL     1      -2.336   3.659  22.878  1.00  0.00     0.022 A 
BRANCH  76  79
ATOM     79  S   UNL     1      -4.856   4.680  23.205  1.00  0.00     0.127 S 
ATOM     80  O   UNL     1      -5.466   3.735  22.272  1.00  0.00    -0.237 OA
ATOM     81  O   UNL     1      -4.671   4.164  24.562  1.00  0.00    -0.237 OA
ATOM     82  O   UNL     1      -5.363   6.043  23.142  1.00  0.00    -0.744 OA
ENDBRANCH  76  79
ENDBRANCH  58  72
BRANCH  59  83
ATOM     83  C   UNL     1       1.813  13.547  15.951  1.00  0.00     0.023 A 
ATOM     84  C   UNL     1       3.029  14.220  16.175  1.00  0.00     0.012 A 
ATOM     85  C   UNL     1       1.000  13.933  14.868  1.00  0.00     0.148 A 
ATOM     86  C   UNL     1       3.420  15.271  15.343  1.00  0.00     0.002 A 
ATOM     87  C   UNL     1       1.423  14.938  14.008  1.00  0.00     0.091 A 
ATOM     88  F   UNL     1      -0.159  13.285  14.684  1.00  0.00    -0.205 F 
ATOM     89  C   UNL     1       2.625  15.620  14.253  1.00  0.00     0.022 A 
BRANCH  87  90
ATOM     90  S   UNL     1       0.538  15.354  12.502  1.00  0.00     0.127 S 
ATOM     91  O   UNL     1       0.111  16.724  12.774  1.00  0.00    -0.237 OA
ATOM     92  O   UNL     1       1.591  15.223  11.495  1.00  0.00    -0.237 OA
ATOM     93  O   UNL     1      -0.532  14.373  12.386  1.00  0.00    -0.744 OA
ENDBRANCH  87  90
ENDBRANCH  59  83
BRANCH  71  94
ATOM     94  C   UNL     1       0.028  12.886  22.686  1.00  0.00     0.023 A 
ATOM     95  C   UNL     1      -0.967  13.884  22.714  1.00  0.00     0.012 A 
ATOM     96  C   UNL     1       0.923  12.777  23.769  1.00  0.00     0.148 A 
ATOM     97  C   UNL     1      -1.040  14.785  23.777  1.00  0.00     0.002 A 
ATOM     98  C   UNL     1       0.810  13.643  24.851  1.00  0.00     0.091 A 
ATOM     99  F   UNL     1       1.876  11.834  23.720  1.00  0.00    -0.205 F 
ATOM    100  C   UNL     1      -0.160  14.657  24.849  1.00  0.00     0.022 A 
BRANCH  98 101
ATOM    101  S   UNL     1       1.837  13.486  26.317  1.00  0.00     0.127 S 
ATOM    102  O   UNL     1       2.761  14.608  26.155  1.00  0.00    -0.237 OA
ATOM    103  O   UNL     1       0.864  13.649  27.397  1.00  0.00    -0.237 OA
ATOM    104  O   UNL     1       2.439  12.162  26.243  1.00  0.00    -0.744 OA
ENDBRANCH  98 101
ENDBRANCH  71  94
ENDBRANCH  45  46
ENDBRANCH  38  40
ENDBRANCH  37  38
ENDBRANCH  36  37
ENDBRANCH  35  36
ENDBRANCH  34  35
ENDBRANCH  33  34
ENDBRANCH  32  33
ENDBRANCH   1  32
TORSDOF 27
