REMARK SMILES O=C(OCCOCCOCCOCCOC(=O)[C@@H]1CN(c2ncccn2)CCN1C(=O)C1CCOCC1)c1ccc(-c2c3nc(c(-c4cccc(S(=O)(=O)[O-])c4F)c4ccc([nH]4)c(-c4cccc(S(=O)(=O)[O-])c4F)c4nc(c(-c5cccc(S(=O)(=O)[O-])c5F)c5ccc2[nH]5)C=C4)C=C3)cc1
REMARK SMILES IDX 8 1 7 2 6 3 5 4 4 5 3 6 2 7 1 8 38 9 39 10 100 11 40 12
REMARK SMILES IDX 99 13 41 14 42 15 43 16 93 17 44 18 98 19 92 20 94 21 45 22
REMARK SMILES IDX 97 23 91 24 90 25 46 27 78 28 58 29 77 30 59 31 62 32 76 33
REMARK SMILES IDX 95 34 60 35 61 36 75 38 96 39 63 40 47 41 48 42 56 43 49 44
REMARK SMILES IDX 51 45 57 46 50 47 52 48 53 49 54 50 55 51 79 52 80 53 88 54
REMARK SMILES IDX 81 55 83 56 89 57 82 58 84 59 85 60 86 61 87 62 64 63 65 64
REMARK SMILES IDX 73 65 66 66 68 67 74 68 67 69 69 70 70 71 71 72 72 73 9 74
REMARK SMILES IDX 10 75 11 76 12 77 13 78 14 79 15 80 16 81 17 82 18 83 19 84
REMARK SMILES IDX 29 85 20 86 28 87 27 88 30 89 31 90 32 91 33 92 37 93 34 94
REMARK SMILES IDX 36 95 35 96 21 97 22 98 26 99 23 100 25 101 24 102
REMARK H PARENT 94 26 62 37
REMARK Flexibility Score: inf
ROOT
ATOM      1  C   UNL     1       1.278  -1.192   1.699  1.00  0.00     0.188 C 
ENDROOT
BRANCH   1   2
ATOM      2  C   UNL     1       1.918   0.046   1.054  1.00  0.00     0.188 C 
BRANCH   2   3
ATOM      3  O   UNL     1       3.231  -0.224   0.571  1.00  0.00    -0.376 OA
BRANCH   3   4
ATOM      4  C   UNL     1       4.282   0.719   0.759  1.00  0.00     0.202 C 
BRANCH   4   5
ATOM      5  C   UNL     1       4.072   2.099   0.170  1.00  0.00     0.261 C 
BRANCH   5   6
ATOM      6  O   UNL     1       2.847   2.339  -0.538  1.00  0.00    -0.460 OA
BRANCH   6   7
ATOM      7  C   UNL     1       2.212   1.696  -1.540  1.00  0.00     0.338 C 
ATOM      8  O   UNL     1       1.019   1.944  -1.713  1.00  0.00    -0.246 OA
BRANCH   7   9
ATOM      9  C   UNL     1       2.872   0.782  -2.509  1.00  0.00     0.060 A 
ATOM     10  C   UNL     1       3.855  -0.158  -2.214  1.00  0.00     0.016 A 
ATOM     11  C   UNL     1       2.379   0.820  -3.821  1.00  0.00     0.016 A 
ATOM     12  C   UNL     1       4.433  -0.948  -3.183  1.00  0.00     0.010 A 
ATOM     13  C   UNL     1       2.920  -0.002  -4.808  1.00  0.00     0.010 A 
ATOM     14  C   UNL     1       3.983  -0.851  -4.486  1.00  0.00    -0.014 A 
BRANCH  14  15
ATOM     15  C   UNL     1       4.819  -1.481  -5.505  1.00  0.00     0.031 A 
ATOM     16  C   UNL     1       5.687  -0.572  -6.310  1.00  0.00     0.074 A 
ATOM     17  C   UNL     1       4.900  -2.820  -5.568  1.00  0.00     0.049 A 
ATOM     18  N   UNL     1       6.409  -0.838  -7.356  1.00  0.00    -0.248 NA
ATOM     19  C   UNL     1       5.760   0.836  -5.866  1.00  0.00     0.031 C 
ATOM     20  C   UNL     1       4.215  -3.754  -4.668  1.00  0.00     0.029 A 
ATOM     21  N   UNL     1       5.597  -3.626  -6.420  1.00  0.00    -0.354 N 
ATOM     22  C   UNL     1       6.938   0.382  -7.755  1.00  0.00     0.074 A 
ATOM     23  C   UNL     1       6.506   1.382  -6.811  1.00  0.00     0.031 C 
ATOM     24  C   UNL     1       4.507  -5.011  -5.037  1.00  0.00     0.029 A 
ATOM     25  C   UNL     1       5.312  -4.959  -6.248  1.00  0.00     0.049 A 
ATOM     26  H   UNL     1       6.237  -3.288  -7.087  1.00  0.00     0.167 HD
ATOM     27  C   UNL     1       7.691   0.627  -8.847  1.00  0.00     0.034 A 
ATOM     28  C   UNL     1       5.606  -5.998  -7.049  1.00  0.00     0.034 A 
ATOM     29  C   UNL     1       8.098  -0.418  -9.739  1.00  0.00     0.049 A 
ATOM     30  C   UNL     1       6.381  -5.689  -8.302  1.00  0.00     0.074 A 
ATOM     31  C   UNL     1       8.828  -0.327 -10.905  1.00  0.00     0.029 A 
ATOM     32  N   UNL     1       7.785  -1.760  -9.553  1.00  0.00    -0.354 N 
ATOM     33  N   UNL     1       6.869  -4.537  -8.704  1.00  0.00    -0.248 NA
ATOM     34  C   UNL     1       6.645  -6.808  -9.211  1.00  0.00     0.031 C 
ATOM     35  C   UNL     1       8.922  -1.613 -11.446  1.00  0.00     0.029 A 
ATOM     36  C   UNL     1       8.288  -2.510 -10.594  1.00  0.00     0.049 A 
ATOM     37  H   UNL     1       7.278  -2.121  -8.791  1.00  0.00     0.167 HD
ATOM     38  C   UNL     1       7.517  -4.792  -9.903  1.00  0.00     0.074 A 
ATOM     39  C   UNL     1       7.379  -6.218 -10.146  1.00  0.00     0.031 C 
ATOM     40  C   UNL     1       8.153  -3.938 -10.743  1.00  0.00     0.034 A 
BRANCH  27  41
ATOM     41  C   UNL     1       8.014   2.060  -9.154  1.00  0.00     0.023 A 
ATOM     42  C   UNL     1       8.951   2.772  -8.378  1.00  0.00     0.012 A 
ATOM     43  C   UNL     1       7.345   2.715 -10.206  1.00  0.00     0.148 A 
ATOM     44  C   UNL     1       9.191   4.125  -8.625  1.00  0.00     0.002 A 
ATOM     45  C   UNL     1       7.621   4.049 -10.474  1.00  0.00     0.091 A 
ATOM     46  F   UNL     1       6.428   2.030 -10.902  1.00  0.00    -0.205 F 
ATOM     47  C   UNL     1       8.533   4.760  -9.677  1.00  0.00     0.022 A 
BRANCH  45  48
ATOM     48  S   UNL     1       6.868   4.938 -11.840  1.00  0.00     0.127 S 
ATOM     49  O   UNL     1       6.084   5.952 -11.136  1.00  0.00    -0.237 OA
ATOM     50  O   UNL     1       8.040   5.455 -12.546  1.00  0.00    -0.237 OA
ATOM     51  O   UNL     1       6.088   3.958 -12.582  1.00  0.00    -0.744 OA
ENDBRANCH  45  48
ENDBRANCH  27  41
BRANCH  28  52
ATOM     52  C   UNL     1       5.116  -7.369  -6.729  1.00  0.00     0.023 A 
ATOM     53  C   UNL     1       6.038  -8.396  -6.454  1.00  0.00     0.012 A 
ATOM     54  C   UNL     1       3.736  -7.660  -6.681  1.00  0.00     0.148 A 
ATOM     55  C   UNL     1       5.598  -9.690  -6.168  1.00  0.00     0.002 A 
ATOM     56  C   UNL     1       3.303  -8.937  -6.341  1.00  0.00     0.091 A 
ATOM     57  F   UNL     1       2.868  -6.679  -6.965  1.00  0.00    -0.205 F 
ATOM     58  C   UNL     1       4.232  -9.959  -6.102  1.00  0.00     0.022 A 
BRANCH  56  59
ATOM     59  S   UNL     1       1.565  -9.335  -6.115  1.00  0.00     0.127 S 
ATOM     60  O   UNL     1       1.286 -10.136  -7.304  1.00  0.00    -0.237 OA
ATOM     61  O   UNL     1       1.586 -10.085  -4.858  1.00  0.00    -0.237 OA
ATOM     62  O   UNL     1       0.876  -8.055  -6.035  1.00  0.00    -0.744 OA
ENDBRANCH  56  59
ENDBRANCH  28  52
BRANCH  40  63
ATOM     63  C   UNL     1       8.777  -4.534 -11.970  1.00  0.00     0.023 A 
ATOM     64  C   UNL     1       7.964  -4.921 -13.051  1.00  0.00     0.012 A 
ATOM     65  C   UNL     1      10.178  -4.590 -12.086  1.00  0.00     0.148 A 
ATOM     66  C   UNL     1       8.542  -5.379 -14.232  1.00  0.00     0.002 A 
ATOM     67  C   UNL     1      10.746  -4.989 -13.285  1.00  0.00     0.091 A 
ATOM     68  F   UNL     1      10.921  -4.229 -11.030  1.00  0.00    -0.205 F 
ATOM     69  C   UNL     1       9.931  -5.396 -14.354  1.00  0.00     0.022 A 
BRANCH  67  70
ATOM     70  S   UNL     1      12.516  -4.925 -13.570  1.00  0.00     0.127 S 
ATOM     71  O   UNL     1      12.859  -6.345 -13.625  1.00  0.00    -0.237 OA
ATOM     72  O   UNL     1      12.595  -4.225 -14.853  1.00  0.00    -0.237 OA
ATOM     73  O   UNL     1      13.081  -4.191 -12.445  1.00  0.00    -0.744 OA
ENDBRANCH  67  70
ENDBRANCH  40  63
ENDBRANCH  14  15
ENDBRANCH   7   9
ENDBRANCH   6   7
ENDBRANCH   5   6
ENDBRANCH   4   5
ENDBRANCH   3   4
ENDBRANCH   2   3
ENDBRANCH   1   2
BRANCH   1  74
ATOM     74  O   UNL     1       1.909  -1.662   2.889  1.00  0.00    -0.377 OA
BRANCH  74  75
ATOM     75  C   UNL     1       3.326  -1.637   2.841  1.00  0.00     0.188 C 
BRANCH  75  76
ATOM     76  C   UNL     1       4.039  -2.579   1.839  1.00  0.00     0.188 C 
BRANCH  76  77
ATOM     77  O   UNL     1       3.200  -3.057   0.802  1.00  0.00    -0.376 OA
BRANCH  77  78
ATOM     78  C   UNL     1       2.680  -4.383   0.904  1.00  0.00     0.202 C 
BRANCH  78  79
ATOM     79  C   UNL     1       2.176  -4.897   2.265  1.00  0.00     0.261 C 
BRANCH  79  80
ATOM     80  O   UNL     1       3.120  -4.629   3.323  1.00  0.00    -0.462 OA
BRANCH  80  81
ATOM     81  C   UNL     1       3.711  -5.615   4.049  1.00  0.00     0.330 C 
ATOM     82  O   UNL     1       3.434  -6.789   3.953  1.00  0.00    -0.250 OA
BRANCH  81  83
ATOM     83  C   UNL     1       4.727  -5.012   5.079  1.00  0.00     0.214 C 
ATOM     84  C   UNL     1       4.443  -3.499   5.255  1.00  0.00     0.157 C 
ATOM     85  N   UNL     1       6.221  -5.248   5.174  1.00  0.00    -0.325 N 
ATOM     86  N   UNL     1       5.074  -2.880   6.426  1.00  0.00    -0.336 N 
ATOM     87  C   UNL     1       6.781  -4.611   6.408  1.00  0.00     0.142 C 
ATOM     88  C   UNL     1       6.513  -3.086   6.491  1.00  0.00     0.141 C 
BRANCH  85  89
ATOM     89  C   UNL     1       7.156  -5.860   4.355  1.00  0.00     0.226 C 
ATOM     90  O   UNL     1       8.328  -5.952   4.765  1.00  0.00    -0.275 OA
BRANCH  89  91
ATOM     91  C   UNL     1       6.949  -6.404   2.935  1.00  0.00     0.083 C 
ATOM     92  C   UNL     1       6.848  -5.286   1.901  1.00  0.00     0.042 C 
ATOM     93  C   UNL     1       6.035  -7.617   2.790  1.00  0.00     0.042 C 
ATOM     94  C   UNL     1       6.252  -5.771   0.598  1.00  0.00     0.161 C 
ATOM     95  C   UNL     1       5.224  -7.691   1.500  1.00  0.00     0.161 C 
ATOM     96  O   UNL     1       5.032  -6.424   0.902  1.00  0.00    -0.381 OA
ENDBRANCH  89  91
ENDBRANCH  85  89
BRANCH  86  97
ATOM     97  C   UNL     1       4.532  -1.666   6.814  1.00  0.00     0.225 A 
ATOM     98  N   UNL     1       5.326  -0.605   7.037  1.00  0.00    -0.221 NA
ATOM     99  N   UNL     1       3.196  -1.605   6.969  1.00  0.00    -0.221 NA
ATOM    100  C   UNL     1       4.732   0.551   7.413  1.00  0.00     0.117 A 
ATOM    101  C   UNL     1       2.650  -0.441   7.370  1.00  0.00     0.117 A 
ATOM    102  C   UNL     1       3.381   0.691   7.609  1.00  0.00     0.040 A 
ENDBRANCH  86  97
ENDBRANCH  81  83
ENDBRANCH  80  81
ENDBRANCH  79  80
ENDBRANCH  78  79
ENDBRANCH  77  78
ENDBRANCH  76  77
ENDBRANCH  75  76
ENDBRANCH  74  75
ENDBRANCH   1  74
TORSDOF 26
