REMARK SMILES NC(=O)CC[N@@H+]1[C@@H](C(=O)OCCOCCOCCOCCOC(=O)c2ccc(-c3c4nc(c(-c5cccc(S(=O)(=O)[O-])c5F)c5ccc([nH]5)c(-c5cccc(S(=O)(=O)[O-])c5F)c5nc(c(-c6cccc(S(=O)(=O)[O-])c6F)c6ccc3[nH]6)C=C5)C=C4)cc2)CC[C@@H]2CCCC[C@H]21
REMARK SMILES IDX 16 1 15 2 14 3 13 4 12 5 11 6 10 7 8 8 9 9 7 10 6 11 95 12
REMARK SMILES IDX 88 14 90 15 94 16 89 17 91 18 93 19 92 20 5 21 4 22 2 23
REMARK SMILES IDX 1 24 3 27 17 28 18 29 19 30 20 31 21 32 22 33 23 34 24 35
REMARK SMILES IDX 25 36 26 37 87 38 27 39 86 40 28 41 29 42 30 43 80 44 31 45
REMARK SMILES IDX 85 46 79 47 81 48 32 49 84 50 78 51 77 52 33 54 65 55 45 56
REMARK SMILES IDX 64 57 46 58 49 59 63 60 82 61 47 62 48 63 62 65 83 66 50 67
REMARK SMILES IDX 34 68 35 69 43 70 36 71 38 72 44 73 37 74 39 75 40 76 41 77
REMARK SMILES IDX 42 78 66 79 67 80 75 81 68 82 70 83 76 84 69 85 71 86 72 87
REMARK SMILES IDX 73 88 74 89 51 90 52 91 60 92 53 93 55 94 61 95 54 96 56 97
REMARK SMILES IDX 57 98 58 99 59 100
REMARK H PARENT 6 13 1 25 1 26 81 53 49 64
REMARK Flexibility Score: inf
ROOT
ATOM      1  O   UNL     1       1.518  -2.842  -0.260  1.00  0.00    -0.377 OA
ENDROOT
BRANCH   1   2
ATOM      2  C   UNL     1       0.613  -2.625   0.811  1.00  0.00     0.188 C 
BRANCH   2   3
ATOM      3  C   UNL     1      -0.788  -2.112   0.459  1.00  0.00     0.188 C 
BRANCH   3   4
ATOM      4  O   UNL     1      -1.000  -1.879  -0.928  1.00  0.00    -0.376 OA
BRANCH   4   5
ATOM      5  C   UNL     1      -0.771  -0.567  -1.417  1.00  0.00     0.202 C 
BRANCH   5   6
ATOM      6  C   UNL     1       0.683  -0.171  -1.741  1.00  0.00     0.261 C 
BRANCH   6   7
ATOM      7  O   UNL     1       1.657   0.016  -0.694  1.00  0.00    -0.459 OA
BRANCH   7   8
ATOM      8  C   UNL     1       1.297   0.439   0.534  1.00  0.00     0.364 C 
ATOM      9  O   UNL     1       0.147   0.683   0.879  1.00  0.00    -0.245 OA
BRANCH   8  10
ATOM     10  C   UNL     1       2.469   0.610   1.505  1.00  0.00     0.295 C 
ATOM     11  N   UNL     1       2.978   2.022   1.519  1.00  0.00    -0.320 N 
ATOM     12  C   UNL     1       4.114   2.168   2.470  1.00  0.00     0.187 C 
ATOM     13  H   UNL     1       3.326   2.258   0.590  1.00  0.00     0.349 HD
ATOM     14  C   UNL     1       3.569  -0.431   1.269  1.00  0.00     0.078 C 
ATOM     15  C   UNL     1       5.201   1.063   2.332  1.00  0.00     0.048 C 
ATOM     16  C   UNL     1       4.838   3.522   2.276  1.00  0.00     0.065 C 
ATOM     17  C   UNL     1       4.604  -0.335   2.373  1.00  0.00     0.016 C 
ATOM     18  C   UNL     1       6.270   1.218   3.421  1.00  0.00     0.010 C 
ATOM     19  C   UNL     1       5.943   3.717   3.316  1.00  0.00     0.006 C 
ATOM     20  C   UNL     1       6.954   2.575   3.311  1.00  0.00     0.001 C 
BRANCH  11  21
ATOM     21  C   UNL     1       1.859   2.960   1.859  1.00  0.00     0.273 C 
BRANCH  21  22
ATOM     22  C   UNL     1       1.333   3.702   0.623  1.00  0.00     0.161 C 
BRANCH  22  23
ATOM     23  C   UNL     1      -0.132   3.427   0.360  1.00  0.00     0.223 C 
ATOM     24  N   UNL     1      -0.411   2.958  -0.892  1.00  0.00    -0.369 N 
ATOM     25  H   UNL     1      -1.340   2.753  -1.145  1.00  0.00     0.159 HD
ATOM     26  H   UNL     1       0.317   2.824  -1.541  1.00  0.00     0.159 HD
ATOM     27  O   UNL     1      -1.022   3.627   1.179  1.00  0.00    -0.275 OA
ENDBRANCH  22  23
ENDBRANCH  21  22
ENDBRANCH  11  21
ENDBRANCH   8  10
ENDBRANCH   7   8
ENDBRANCH   6   7
ENDBRANCH   5   6
ENDBRANCH   4   5
ENDBRANCH   3   4
ENDBRANCH   2   3
ENDBRANCH   1   2
BRANCH   1  28
ATOM     28  C   UNL     1       1.107  -3.632  -1.377  1.00  0.00     0.188 C 
BRANCH  28  29
ATOM     29  C   UNL     1      -0.068  -4.617  -1.233  1.00  0.00     0.188 C 
BRANCH  29  30
ATOM     30  O   UNL     1      -0.295  -5.058   0.093  1.00  0.00    -0.376 OA
BRANCH  30  31
ATOM     31  C   UNL     1       0.312  -6.270   0.504  1.00  0.00     0.202 C 
BRANCH  31  32
ATOM     32  C   UNL     1       1.839  -6.405   0.389  1.00  0.00     0.261 C 
BRANCH  32  33
ATOM     33  O   UNL     1       2.430  -6.242  -0.911  1.00  0.00    -0.460 OA
BRANCH  33  34
ATOM     34  C   UNL     1       1.973  -6.985  -1.944  1.00  0.00     0.338 C 
ATOM     35  O   UNL     1       1.129  -7.856  -1.902  1.00  0.00    -0.246 OA
BRANCH  34  36
ATOM     36  C   UNL     1       2.530  -6.401  -3.191  1.00  0.00     0.060 A 
ATOM     37  C   UNL     1       1.654  -5.917  -4.174  1.00  0.00     0.016 A 
ATOM     38  C   UNL     1       3.911  -6.325  -3.382  1.00  0.00     0.016 A 
ATOM     39  C   UNL     1       2.157  -5.404  -5.372  1.00  0.00     0.010 A 
ATOM     40  C   UNL     1       4.412  -5.836  -4.592  1.00  0.00     0.010 A 
ATOM     41  C   UNL     1       3.536  -5.417  -5.610  1.00  0.00    -0.014 A 
BRANCH  41  42
ATOM     42  C   UNL     1       4.047  -5.237  -6.992  1.00  0.00     0.031 A 
ATOM     43  C   UNL     1       4.354  -6.475  -7.792  1.00  0.00     0.074 A 
ATOM     44  C   UNL     1       4.240  -4.019  -7.530  1.00  0.00     0.049 A 
ATOM     45  N   UNL     1       4.873  -6.587  -8.986  1.00  0.00    -0.248 NA
ATOM     46  C   UNL     1       4.036  -7.763  -7.152  1.00  0.00     0.031 C 
ATOM     47  C   UNL     1       3.960  -2.747  -6.870  1.00  0.00     0.029 A 
ATOM     48  N   UNL     1       4.749  -3.662  -8.755  1.00  0.00    -0.354 N 
ATOM     49  C   UNL     1       4.976  -7.952  -9.226  1.00  0.00     0.074 A 
ATOM     50  C   UNL     1       4.476  -8.630  -8.050  1.00  0.00     0.031 C 
ATOM     51  C   UNL     1       4.335  -1.744  -7.685  1.00  0.00     0.029 A 
ATOM     52  C   UNL     1       4.910  -2.304  -8.908  1.00  0.00     0.049 A 
ATOM     53  H   UNL     1       4.976  -4.314  -9.456  1.00  0.00     0.167 HD
ATOM     54  C   UNL     1       5.436  -8.589 -10.328  1.00  0.00     0.034 A 
ATOM     55  C   UNL     1       5.484  -1.601  -9.905  1.00  0.00     0.034 A 
ATOM     56  C   UNL     1       5.925  -7.915 -11.499  1.00  0.00     0.049 A 
ATOM     57  C   UNL     1       6.030  -2.334 -11.107  1.00  0.00     0.074 A 
ATOM     58  C   UNL     1       6.379  -8.469 -12.682  1.00  0.00     0.029 A 
ATOM     59  N   UNL     1       6.041  -6.541 -11.629  1.00  0.00    -0.354 N 
ATOM     60  N   UNL     1       6.031  -3.620 -11.362  1.00  0.00    -0.248 NA
ATOM     61  C   UNL     1       6.628  -1.514 -12.172  1.00  0.00     0.031 C 
ATOM     62  C   UNL     1       6.807  -7.430 -13.513  1.00  0.00     0.029 A 
ATOM     63  C   UNL     1       6.574  -6.226 -12.866  1.00  0.00     0.049 A 
ATOM     64  H   UNL     1       5.783  -5.884 -10.942  1.00  0.00     0.167 HD
ATOM     65  C   UNL     1       6.588  -3.760 -12.630  1.00  0.00     0.074 A 
ATOM     66  C   UNL     1       6.899  -2.425 -13.097  1.00  0.00     0.031 C 
ATOM     67  C   UNL     1       6.830  -4.890 -13.340  1.00  0.00     0.034 A 
BRANCH  54  68
ATOM     68  C   UNL     1       5.429 -10.095 -10.318  1.00  0.00     0.023 A 
ATOM     69  C   UNL     1       4.206 -10.793 -10.390  1.00  0.00     0.012 A 
ATOM     70  C   UNL     1       6.637 -10.819 -10.279  1.00  0.00     0.148 A 
ATOM     71  C   UNL     1       4.184 -12.188 -10.389  1.00  0.00     0.002 A 
ATOM     72  C   UNL     1       6.609 -12.207 -10.327  1.00  0.00     0.091 A 
ATOM     73  F   UNL     1       7.787 -10.137 -10.185  1.00  0.00    -0.205 F 
ATOM     74  C   UNL     1       5.384 -12.893 -10.368  1.00  0.00     0.022 A 
BRANCH  72  75
ATOM     75  S   UNL     1       8.101 -13.204 -10.388  1.00  0.00     0.127 S 
ATOM     76  O   UNL     1       8.069 -13.862  -9.082  1.00  0.00    -0.237 OA
ATOM     77  O   UNL     1       7.833 -14.087 -11.523  1.00  0.00    -0.237 OA
ATOM     78  O   UNL     1       9.202 -12.271 -10.588  1.00  0.00    -0.744 OA
ENDBRANCH  72  75
ENDBRANCH  54  68
BRANCH  55  79
ATOM     79  C   UNL     1       5.567  -0.114  -9.823  1.00  0.00     0.023 A 
ATOM     80  C   UNL     1       4.821   0.678 -10.718  1.00  0.00     0.012 A 
ATOM     81  C   UNL     1       6.383   0.517  -8.864  1.00  0.00     0.148 A 
ATOM     82  C   UNL     1       4.912   2.071 -10.681  1.00  0.00     0.002 A 
ATOM     83  C   UNL     1       6.423   1.905  -8.794  1.00  0.00     0.091 A 
ATOM     84  F   UNL     1       7.099  -0.254  -8.034  1.00  0.00    -0.205 F 
ATOM     85  C   UNL     1       5.704   2.684  -9.714  1.00  0.00     0.022 A 
BRANCH  83  86
ATOM     86  S   UNL     1       7.313   2.781  -7.503  1.00  0.00     0.127 S 
ATOM     87  O   UNL     1       8.371   3.441  -8.264  1.00  0.00    -0.237 OA
ATOM     88  O   UNL     1       6.278   3.675  -6.983  1.00  0.00    -0.237 OA
ATOM     89  O   UNL     1       7.754   1.760  -6.564  1.00  0.00    -0.744 OA
ENDBRANCH  83  86
ENDBRANCH  55  79
BRANCH  67  90
ATOM     90  C   UNL     1       7.411  -4.744 -14.724  1.00  0.00     0.023 A 
ATOM     91  C   UNL     1       8.752  -4.345 -14.892  1.00  0.00     0.012 A 
ATOM     92  C   UNL     1       6.643  -5.082 -15.857  1.00  0.00     0.148 A 
ATOM     93  C   UNL     1       9.308  -4.250 -16.168  1.00  0.00     0.002 A 
ATOM     94  C   UNL     1       7.220  -5.037 -17.121  1.00  0.00     0.091 A 
ATOM     95  F   UNL     1       5.365  -5.445 -15.678  1.00  0.00    -0.205 F 
ATOM     96  C   UNL     1       8.547  -4.607 -17.280  1.00  0.00     0.022 A 
BRANCH  94  97
ATOM     97  S   UNL     1       6.350  -5.574 -18.598  1.00  0.00     0.127 S 
ATOM     98  O   UNL     1       6.138  -4.306 -19.296  1.00  0.00    -0.237 OA
ATOM     99  O   UNL     1       7.329  -6.460 -19.228  1.00  0.00    -0.237 OA
ATOM    100  O   UNL     1       5.141  -6.239 -18.135  1.00  0.00    -0.744 OA
ENDBRANCH  94  97
ENDBRANCH  67  90
ENDBRANCH  41  42
ENDBRANCH  34  36
ENDBRANCH  33  34
ENDBRANCH  32  33
ENDBRANCH  31  32
ENDBRANCH  30  31
ENDBRANCH  29  30
ENDBRANCH  28  29
ENDBRANCH   1  28
TORSDOF 26
