REMARK SMILES CS(=O)(=O)c1ccc(-c2cc(Cl)cc3c2O[C@@H](C(F)(F)F)C(C(=O)OCCOCCOCCOCCOC(=O)c2ccc(-c4c5nc(c(-c6cccc(S(=O)(=O)[O-])c6F)c6ccc([nH]6)c(-c6cccc(S(=O)(=O)[O-])c6F)c6nc(c(-c7cccc(S(=O)(=O)[O-])c7F)c7ccc4[nH]7)C=C6)C=C5)cc2)=C3)cc1
REMARK SMILES IDX 32 1 31 2 30 3 29 4 28 5 27 6 26 7 25 8 23 9 24 10 22 11
REMARK SMILES IDX 9 12 10 13 15 14 11 15 14 16 16 17 12 18 13 19 103 20 17 21
REMARK SMILES IDX 8 22 5 23 6 24 105 25 7 26 104 27 2 28 1 29 3 30 4 31 18 32
REMARK SMILES IDX 19 33 20 34 21 35 33 36 34 37 35 38 36 39 37 40 38 41 39 42
REMARK SMILES IDX 40 43 41 44 102 45 42 46 101 47 43 48 44 49 45 50 95 51
REMARK SMILES IDX 46 52 100 53 94 54 96 55 47 56 99 57 93 58 92 59 48 61 80 62
REMARK SMILES IDX 60 63 79 64 61 65 64 66 78 67 97 68 62 69 63 70 77 72 98 73
REMARK SMILES IDX 65 74 49 75 50 76 58 77 51 78 53 79 59 80 52 81 54 82 55 83
REMARK SMILES IDX 56 84 57 85 81 86 82 87 90 88 83 89 85 90 91 91 84 92 86 93
REMARK SMILES IDX 87 94 88 95 89 96 66 97 67 98 75 99 68 100 70 101 76 102
REMARK SMILES IDX 69 103 71 104 72 105 73 106 74 107
REMARK H PARENT 96 60 64 71
REMARK Flexibility Score: inf
ROOT
ATOM      1  C   UNL     1       5.256  -8.011 -11.446  1.00  0.00     0.188 C 
ENDROOT
BRANCH   1   2
ATOM      2  O   UNL     1       5.673  -6.722 -11.011  1.00  0.00    -0.377 OA
BRANCH   2   3
ATOM      3  C   UNL     1       5.311  -6.321  -9.706  1.00  0.00     0.188 C 
BRANCH   3   4
ATOM      4  C   UNL     1       3.897  -5.727  -9.642  1.00  0.00     0.188 C 
BRANCH   4   5
ATOM      5  O   UNL     1       3.119  -5.935 -10.816  1.00  0.00    -0.376 OA
BRANCH   5   6
ATOM      6  C   UNL     1       3.130  -4.923 -11.822  1.00  0.00     0.202 C 
BRANCH   6   7
ATOM      7  C   UNL     1       4.476  -4.306 -12.230  1.00  0.00     0.261 C 
BRANCH   7   8
ATOM      8  O   UNL     1       5.053  -3.562 -11.133  1.00  0.00    -0.460 OA
BRANCH   8   9
ATOM      9  C   UNL     1       4.630  -2.296 -11.001  1.00  0.00     0.338 C 
ATOM     10  O   UNL     1       3.905  -1.714 -11.799  1.00  0.00    -0.246 OA
BRANCH   9  11
ATOM     11  C   UNL     1       4.971  -1.715  -9.677  1.00  0.00     0.087 C 
ATOM     12  C   UNL     1       3.123  -3.530  -6.434  1.00  0.00     0.026 A 
ATOM     13  C   UNL     1       1.950  -4.134  -6.944  1.00  0.00     0.033 A 
ATOM     14  C   UNL     1       3.854  -2.757  -7.358  1.00  0.00     0.135 A 
ATOM     15  C   UNL     1       1.369  -3.680  -8.128  1.00  0.00     0.042 A 
ATOM     16  C   UNL     1       3.167  -2.131  -8.408  1.00  0.00     0.019 A 
ATOM     17  O   UNL     1       5.241  -2.876  -7.438  1.00  0.00    -0.475 OA
ATOM     18  Cl  UNL     1      -0.085  -4.399  -8.692  1.00  0.00    -0.084 Cl
ATOM     19  C   UNL     1       1.919  -2.600  -8.806  1.00  0.00     0.032 A 
ATOM     20  C   UNL     1       3.882  -1.095  -9.183  1.00  0.00     0.027 C 
ATOM     21  C   UNL     1       5.922  -2.244  -8.615  1.00  0.00     0.316 C 
BRANCH  12  22
ATOM     22  C   UNL     1       3.021  -3.189  -4.967  1.00  0.00    -0.015 A 
ATOM     23  C   UNL     1       1.828  -2.395  -2.508  1.00  0.00     0.067 A 
ATOM     24  C   UNL     1       1.981  -3.750  -2.812  1.00  0.00     0.021 A 
ATOM     25  C   UNL     1       2.362  -1.432  -3.361  1.00  0.00     0.021 A 
ATOM     26  C   UNL     1       2.583  -4.140  -4.021  1.00  0.00     0.010 A 
ATOM     27  C   UNL     1       2.960  -1.832  -4.571  1.00  0.00     0.010 A 
BRANCH  23  28
ATOM     28  S   UNL     1       0.855  -1.958  -1.080  1.00  0.00     0.175 S 
ATOM     29  C   UNL     1       1.349  -0.339  -0.564  1.00  0.00     0.163 C 
ATOM     30  O   UNL     1       1.234  -2.870  -0.017  1.00  0.00    -0.224 OA
ATOM     31  O   UNL     1      -0.522  -1.869  -1.529  1.00  0.00    -0.224 OA
ENDBRANCH  23  28
ENDBRANCH  12  22
BRANCH  21  32
ATOM     32  C   UNL     1       7.240  -2.924  -9.068  1.00  0.00     0.430 C 
ATOM     33  F   UNL     1       8.087  -1.979  -9.555  1.00  0.00    -0.167 F 
ATOM     34  F   UNL     1       7.873  -3.498  -8.015  1.00  0.00    -0.167 F 
ATOM     35  F   UNL     1       7.126  -3.861 -10.016  1.00  0.00    -0.167 F 
ENDBRANCH  21  32
ENDBRANCH   9  11
ENDBRANCH   8   9
ENDBRANCH   7   8
ENDBRANCH   6   7
ENDBRANCH   5   6
ENDBRANCH   4   5
ENDBRANCH   3   4
ENDBRANCH   2   3
ENDBRANCH   1   2
BRANCH   1  36
ATOM     36  C   UNL     1       4.015  -8.702 -10.838  1.00  0.00     0.188 C 
BRANCH  36  37
ATOM     37  O   UNL     1       3.941  -8.649  -9.413  1.00  0.00    -0.376 OA
BRANCH  37  38
ATOM     38  C   UNL     1       4.229  -9.847  -8.706  1.00  0.00     0.202 C 
BRANCH  38  39
ATOM     39  C   UNL     1       5.724 -10.163  -8.580  1.00  0.00     0.261 C 
BRANCH  39  40
ATOM     40  O   UNL     1       6.400 -10.404  -9.822  1.00  0.00    -0.460 OA
BRANCH  40  41
ATOM     41  C   UNL     1       5.947 -11.419 -10.589  1.00  0.00     0.338 C 
ATOM     42  O   UNL     1       5.060 -12.210 -10.315  1.00  0.00    -0.246 OA
BRANCH  41  43
ATOM     43  C   UNL     1       6.573 -11.286 -11.919  1.00  0.00     0.060 A 
ATOM     44  C   UNL     1       5.750 -11.212 -13.050  1.00  0.00     0.016 A 
ATOM     45  C   UNL     1       7.962 -11.196 -12.041  1.00  0.00     0.016 A 
ATOM     46  C   UNL     1       6.321 -11.081 -14.317  1.00  0.00     0.010 A 
ATOM     47  C   UNL     1       8.531 -11.084 -13.309  1.00  0.00     0.010 A 
ATOM     48  C   UNL     1       7.715 -11.059 -14.453  1.00  0.00    -0.014 A 
BRANCH  48  49
ATOM     49  C   UNL     1       8.335 -11.219 -15.788  1.00  0.00     0.031 A 
ATOM     50  C   UNL     1       8.733 -12.603 -16.219  1.00  0.00     0.074 A 
ATOM     51  C   UNL     1       8.578 -10.161 -16.581  1.00  0.00     0.049 A 
ATOM     52  N   UNL     1       9.345 -12.989 -17.306  1.00  0.00    -0.248 NA
ATOM     53  C   UNL     1       8.402 -13.699 -15.291  1.00  0.00     0.031 C 
ATOM     54  C   UNL     1       8.242  -8.773 -16.270  1.00  0.00     0.029 A 
ATOM     55  N   UNL     1       9.199 -10.094 -17.803  1.00  0.00    -0.354 N 
ATOM     56  C   UNL     1       9.495 -14.365 -17.184  1.00  0.00     0.074 A 
ATOM     57  C   UNL     1       8.920 -14.746 -15.913  1.00  0.00     0.031 C 
ATOM     58  C   UNL     1       8.693  -7.985 -17.262  1.00  0.00     0.029 A 
ATOM     59  C   UNL     1       9.368  -8.809 -18.264  1.00  0.00     0.049 A 
ATOM     60  H   UNL     1       9.496 -10.889 -18.302  1.00  0.00     0.167 HD
ATOM     61  C   UNL     1      10.049 -15.237 -18.058  1.00  0.00     0.034 A 
ATOM     62  C   UNL     1      10.016  -8.355 -19.356  1.00  0.00     0.034 A 
ATOM     63  C   UNL     1      10.614 -14.858 -19.322  1.00  0.00     0.049 A 
ATOM     64  C   UNL     1      10.655  -9.346 -20.299  1.00  0.00     0.074 A 
ATOM     65  C   UNL     1      11.158 -15.672 -20.299  1.00  0.00     0.029 A 
ATOM     66  N   UNL     1      10.724 -13.554 -19.778  1.00  0.00    -0.354 N 
ATOM     67  N   UNL     1      10.672 -10.656 -20.237  1.00  0.00    -0.248 NA
ATOM     68  C   UNL     1      11.339  -8.795 -21.480  1.00  0.00     0.031 C 
ATOM     69  C   UNL     1      11.623 -14.856 -21.335  1.00  0.00     0.029 A 
ATOM     70  C   UNL     1      11.341 -13.537 -21.016  1.00  0.00     0.049 A 
ATOM     71  H   UNL     1      10.409 -12.757 -19.293  1.00  0.00     0.167 HD
ATOM     72  C   UNL     1      11.332 -11.086 -21.384  1.00  0.00     0.074 A 
ATOM     73  C   UNL     1      11.685  -9.897 -22.132  1.00  0.00     0.031 C 
ATOM     74  C   UNL     1      11.633 -12.349 -21.777  1.00  0.00     0.034 A 
BRANCH  61  75
ATOM     75  C   UNL     1      10.048 -16.692 -17.679  1.00  0.00     0.023 A 
ATOM     76  C   UNL     1       8.841 -17.420 -17.716  1.00  0.00     0.012 A 
ATOM     77  C   UNL     1      11.243 -17.349 -17.328  1.00  0.00     0.148 A 
ATOM     78  C   UNL     1       8.819 -18.773 -17.380  1.00  0.00     0.002 A 
ATOM     79  C   UNL     1      11.220 -18.707 -17.037  1.00  0.00     0.091 A 
ATOM     80  F   UNL     1      12.374 -16.631 -17.272  1.00  0.00    -0.205 F 
ATOM     81  C   UNL     1      10.008 -19.418 -17.052  1.00  0.00     0.022 A 
BRANCH  79  82
ATOM     82  S   UNL     1      12.708 -19.643 -16.673  1.00  0.00     0.127 S 
ATOM     83  O   UNL     1      12.549 -19.906 -15.243  1.00  0.00    -0.237 OA
ATOM     84  O   UNL     1      12.550 -20.819 -17.529  1.00  0.00    -0.237 OA
ATOM     85  O   UNL     1      13.824 -18.778 -17.029  1.00  0.00    -0.744 OA
ENDBRANCH  79  82
ENDBRANCH  61  75
BRANCH  62  86
ATOM     86  C   UNL     1      10.071  -6.893 -19.641  1.00  0.00     0.023 A 
ATOM     87  C   UNL     1       9.365  -6.375 -20.744  1.00  0.00     0.012 A 
ATOM     88  C   UNL     1      10.813  -6.015 -18.827  1.00  0.00     0.148 A 
ATOM     89  C   UNL     1       9.422  -5.015 -21.051  1.00  0.00     0.002 A 
ATOM     90  C   UNL     1      10.823  -4.653 -19.107  1.00  0.00     0.091 A 
ATOM     91  F   UNL     1      11.494  -6.529 -17.794  1.00  0.00    -0.205 F 
ATOM     92  C   UNL     1      10.142  -4.153 -20.228  1.00  0.00     0.022 A 
BRANCH  90  93
ATOM     93  S   UNL     1      11.626  -3.453 -18.038  1.00  0.00     0.127 S 
ATOM     94  O   UNL     1      12.755  -3.027 -18.860  1.00  0.00    -0.237 OA
ATOM     95  O   UNL     1      10.574  -2.450 -17.868  1.00  0.00    -0.237 OA
ATOM     96  O   UNL     1      11.968  -4.177 -16.821  1.00  0.00    -0.744 OA
ENDBRANCH  90  93
ENDBRANCH  62  86
BRANCH  74  97
ATOM     97  C   UNL     1      12.346 -12.529 -23.092  1.00  0.00     0.023 A 
ATOM     98  C   UNL     1      13.710 -12.194 -23.202  1.00  0.00     0.012 A 
ATOM     99  C   UNL     1      11.688 -13.119 -24.190  1.00  0.00     0.148 A 
ATOM    100  C   UNL     1      14.400 -12.418 -24.393  1.00  0.00     0.002 A 
ATOM    101  C   UNL     1      12.395 -13.384 -25.357  1.00  0.00     0.091 A 
ATOM    102  F   UNL     1      10.385 -13.416 -24.071  1.00  0.00    -0.205 F 
ATOM    103  C   UNL     1      13.748 -13.024 -25.464  1.00  0.00     0.022 A 
BRANCH 101 104
ATOM    104  S   UNL     1      11.664 -14.250 -26.752  1.00  0.00     0.127 S 
ATOM    105  O   UNL     1      11.526 -13.174 -27.732  1.00  0.00    -0.237 OA
ATOM    106  O   UNL     1      12.690 -15.242 -27.075  1.00  0.00    -0.237 OA
ATOM    107  O   UNL     1      10.412 -14.814 -26.263  1.00  0.00    -0.744 OA
ENDBRANCH 101 104
ENDBRANCH  74  97
ENDBRANCH  48  49
ENDBRANCH  41  43
ENDBRANCH  40  41
ENDBRANCH  39  40
ENDBRANCH  38  39
ENDBRANCH  37  38
ENDBRANCH  36  37
ENDBRANCH   1  36
TORSDOF 26
