REMARK SMILES Cc1ccccc1N[C@H](C(=O)OCCOCCOCCOCCOC(=O)c1ccc(-c2c3nc(c(-c4cccc(S(=O)(=O)[O-])c4F)c4ccc([nH]4)c(-c4cccc(S(=O)(=O)[O-])c4F)c4nc(c(-c5cccc(S(=O)(=O)[O-])c5F)c5ccc2[nH]5)C=C4)C=C3)cc1)c1ccccc1
REMARK SMILES IDX 19 1 18 2 17 3 16 4 15 5 14 6 13 7 12 8 10 9 11 10 9 11 8 12
REMARK SMILES IDX 7 14 1 15 2 16 3 17 4 18 6 19 5 20 90 21 91 22 95 23 92 24
REMARK SMILES IDX 94 25 93 26 20 27 21 28 22 29 23 30 24 31 25 32 26 33 27 34
REMARK SMILES IDX 28 35 89 36 29 37 88 38 30 39 31 40 32 41 82 42 33 43 87 44
REMARK SMILES IDX 81 45 83 46 34 47 86 48 80 49 79 50 35 52 67 53 47 54 66 55
REMARK SMILES IDX 48 56 51 57 65 58 84 59 49 60 50 61 64 63 85 64 52 65 36 66
REMARK SMILES IDX 37 67 45 68 38 69 40 70 46 71 39 72 41 73 42 74 43 75 44 76
REMARK SMILES IDX 68 77 69 78 77 79 70 80 72 81 78 82 71 83 73 84 74 85 75 86
REMARK SMILES IDX 76 87 53 88 54 89 62 90 55 91 57 92 63 93 56 94 58 95 59 96
REMARK SMILES IDX 60 97 61 98
REMARK H PARENT 8 13 83 51 51 62
REMARK Flexibility Score: inf
ROOT
ATOM      1  C   UNL     1       0.157   1.110   3.597  1.00  0.00     0.188 C 
ENDROOT
BRANCH   1   2
ATOM      2  O   UNL     1      -0.640   0.729   2.459  1.00  0.00    -0.377 OA
BRANCH   2   3
ATOM      3  C   UNL     1      -0.568  -0.449   1.630  1.00  0.00     0.188 C 
BRANCH   3   4
ATOM      4  C   UNL     1       0.382  -1.118   0.384  1.00  0.00     0.188 C 
BRANCH   4   5
ATOM      5  O   UNL     1       2.140  -1.485   0.141  1.00  0.00    -0.376 OA
BRANCH   5   6
ATOM      6  C   UNL     1       3.550  -0.489  -0.295  1.00  0.00     0.202 C 
BRANCH   6   7
ATOM      7  C   UNL     1       3.700   1.305  -0.762  1.00  0.00     0.261 C 
BRANCH   7   8
ATOM      8  O   UNL     1       2.465   2.516  -1.091  1.00  0.00    -0.461 OA
BRANCH   8   9
ATOM      9  C   UNL     1       1.092   2.837  -1.354  1.00  0.00     0.333 C 
ATOM     10  O   UNL     1       0.145   2.051  -1.558  1.00  0.00    -0.249 OA
BRANCH   9  11
ATOM     11  C   UNL     1       0.636   4.328  -1.089  1.00  0.00     0.221 C 
BRANCH  11  12
ATOM     12  N   UNL     1      -0.873   4.300  -0.450  1.00  0.00    -0.368 N 
ATOM     13  H   UNL     1      -1.330   3.441  -0.598  1.00  0.00     0.161 HD
BRANCH  12  14
ATOM     14  C   UNL     1      -1.660   5.209   0.255  1.00  0.00     0.038 A 
ATOM     15  C   UNL     1      -2.461   3.637   2.215  1.00  0.00     0.046 C 
ATOM     16  C   UNL     1      -2.242   4.973   1.543  1.00  0.00    -0.028 A 
ATOM     17  C   UNL     1      -2.628   6.063   2.373  1.00  0.00     0.005 A 
ATOM     18  C   UNL     1      -2.606   7.363   1.904  1.00  0.00     0.000 A 
ATOM     19  C   UNL     1      -1.850   6.503  -0.240  1.00  0.00     0.026 A 
ATOM     20  C   UNL     1      -2.295   7.570   0.570  1.00  0.00     0.002 A 
ENDBRANCH  12  14
ENDBRANCH  11  12
BRANCH  11  21
ATOM     21  C   UNL     1       1.691   5.046  -0.260  1.00  0.00    -0.015 A 
ATOM     22  C   UNL     1       1.235   6.657   0.416  1.00  0.00     0.006 A 
ATOM     23  C   UNL     1       3.497   4.555  -0.159  1.00  0.00     0.006 A 
ATOM     24  C   UNL     1       2.416   7.691   1.226  1.00  0.00     0.000 A 
ATOM     25  C   UNL     1       4.681   5.623   0.698  1.00  0.00     0.000 A 
ATOM     26  C   UNL     1       4.114   7.178   1.413  1.00  0.00     0.000 A 
ENDBRANCH  11  21
ENDBRANCH   9  11
ENDBRANCH   8   9
ENDBRANCH   7   8
ENDBRANCH   6   7
ENDBRANCH   5   6
ENDBRANCH   4   5
ENDBRANCH   3   4
ENDBRANCH   2   3
ENDBRANCH   1   2
BRANCH   1  27
ATOM     27  C   UNL     1       0.141   0.206   4.783  1.00  0.00     0.188 C 
BRANCH  27  28
ATOM     28  O   UNL     1       0.105  -1.063   4.202  1.00  0.00    -0.376 OA
BRANCH  28  29
ATOM     29  C   UNL     1      -0.882  -1.940   4.642  1.00  0.00     0.202 C 
BRANCH  29  30
ATOM     30  C   UNL     1      -0.360  -2.544   5.930  1.00  0.00     0.261 C 
BRANCH  30  31
ATOM     31  O   UNL     1       0.931  -3.189   5.690  1.00  0.00    -0.460 OA
BRANCH  31  32
ATOM     32  C   UNL     1       2.073  -2.421   5.859  1.00  0.00     0.338 C 
ATOM     33  O   UNL     1       2.427  -1.999   6.946  1.00  0.00    -0.246 OA
BRANCH  32  34
ATOM     34  C   UNL     1       2.717  -2.077   4.532  1.00  0.00     0.060 A 
ATOM     35  C   UNL     1       3.490  -0.931   4.271  1.00  0.00     0.016 A 
ATOM     36  C   UNL     1       2.174  -2.672   3.444  1.00  0.00     0.016 A 
ATOM     37  C   UNL     1       3.370  -0.180   3.024  1.00  0.00     0.010 A 
ATOM     38  C   UNL     1       1.924  -1.825   2.365  1.00  0.00     0.010 A 
ATOM     39  C   UNL     1       2.380  -0.455   2.086  1.00  0.00    -0.014 A 
BRANCH  39  40
ATOM     40  C   UNL     1       1.827   0.649   0.713  1.00  0.00     0.031 A 
ATOM     41  C   UNL     1       1.619   0.118  -1.201  1.00  0.00     0.074 A 
ATOM     42  C   UNL     1       1.820   1.956   1.180  1.00  0.00     0.049 A 
ATOM     43  N   UNL     1       2.059   0.748  -2.300  1.00  0.00    -0.248 NA
ATOM     44  C   UNL     1       1.410  -1.366  -1.909  1.00  0.00     0.031 C 
ATOM     45  C   UNL     1       0.605   2.722   1.361  1.00  0.00     0.029 A 
ATOM     46  N   UNL     1       2.765   2.846   1.729  1.00  0.00    -0.354 N 
ATOM     47  C   UNL     1       2.288  -0.008  -3.430  1.00  0.00     0.074 A 
ATOM     48  C   UNL     1       1.989  -1.342  -3.099  1.00  0.00     0.031 C 
ATOM     49  C   UNL     1       0.843   3.900   1.964  1.00  0.00     0.029 A 
ATOM     50  C   UNL     1       2.279   4.172   1.960  1.00  0.00     0.049 A 
ATOM     51  H   UNL     1       3.689   2.576   1.938  1.00  0.00     0.167 HD
ATOM     52  C   UNL     1       2.708   0.517  -4.613  1.00  0.00     0.034 A 
ATOM     53  C   UNL     1       2.712   5.527   1.500  1.00  0.00     0.034 A 
ATOM     54  C   UNL     1       2.605   1.983  -4.604  1.00  0.00     0.049 A 
ATOM     55  C   UNL     1       3.160   6.488  -0.367  1.00  0.00     0.074 A 
ATOM     56  C   UNL     1       1.495   2.797  -4.759  1.00  0.00     0.029 A 
ATOM     57  N   UNL     1       3.610   2.809  -4.104  1.00  0.00    -0.354 N 
ATOM     58  N   UNL     1       2.737   6.136  -1.717  1.00  0.00    -0.248 NA
ATOM     59  C   UNL     1       4.214   7.634  -0.917  1.00  0.00     0.031 C 
ATOM     60  C   UNL     1       1.831   4.113  -4.337  1.00  0.00     0.029 A 
ATOM     61  C   UNL     1       3.156   4.134  -3.931  1.00  0.00     0.049 A 
ATOM     62  H   UNL     1       4.524   2.507  -3.898  1.00  0.00     0.167 HD
ATOM     63  C   UNL     1       3.761   6.195  -2.638  1.00  0.00     0.074 A 
ATOM     64  C   UNL     1       4.491   7.345  -2.196  1.00  0.00     0.031 C 
ATOM     65  C   UNL     1       4.082   5.227  -3.579  1.00  0.00     0.034 A 
BRANCH  52  66
ATOM     66  C   UNL     1       2.706  -0.399  -5.846  1.00  0.00     0.023 A 
ATOM     67  C   UNL     1       1.974   0.045  -6.963  1.00  0.00     0.012 A 
ATOM     68  C   UNL     1       3.237  -1.724  -5.923  1.00  0.00     0.148 A 
ATOM     69  C   UNL     1       1.688  -0.793  -8.048  1.00  0.00     0.002 A 
ATOM     70  C   UNL     1       2.896  -2.583  -6.984  1.00  0.00     0.091 A 
ATOM     71  F   UNL     1       4.051  -2.156  -4.947  1.00  0.00    -0.205 F 
ATOM     72  C   UNL     1       2.114  -2.114  -8.045  1.00  0.00     0.022 A 
BRANCH  70  73
ATOM     73  S   UNL     1       3.275  -4.355  -7.022  1.00  0.00     0.127 S 
ATOM     74  O   UNL     1       1.971  -4.949  -7.334  1.00  0.00    -0.237 OA
ATOM     75  O   UNL     1       4.250  -4.453  -8.105  1.00  0.00    -0.237 OA
ATOM     76  O   UNL     1       3.771  -4.687  -5.693  1.00  0.00    -0.744 OA
ENDBRANCH  70  73
ENDBRANCH  52  66
BRANCH  53  77
ATOM     77  C   UNL     1       3.089   5.806   3.152  1.00  0.00     0.023 A 
ATOM     78  C   UNL     1       1.975   5.997   4.023  1.00  0.00     0.012 A 
ATOM     79  C   UNL     1       4.206   5.091   3.689  1.00  0.00     0.148 A 
ATOM     80  C   UNL     1       1.875   5.271   5.226  1.00  0.00     0.002 A 
ATOM     81  C   UNL     1       4.077   4.362   4.865  1.00  0.00     0.091 A 
ATOM     82  F   UNL     1       5.305   4.913   2.949  1.00  0.00    -0.205 F 
ATOM     83  C   UNL     1       2.899   4.409   5.614  1.00  0.00     0.022 A 
BRANCH  81  84
ATOM     84  S   UNL     1       5.217   3.011   5.168  1.00  0.00     0.127 S 
ATOM     85  O   UNL     1       5.177   2.853   6.618  1.00  0.00    -0.237 OA
ATOM     86  O   UNL     1       4.541   1.966   4.418  1.00  0.00    -0.237 OA
ATOM     87  O   UNL     1       6.501   3.437   4.631  1.00  0.00    -0.744 OA
ENDBRANCH  81  84
ENDBRANCH  53  77
BRANCH  65  88
ATOM     88  C   UNL     1       5.416   5.285  -4.312  1.00  0.00     0.023 A 
ATOM     89  C   UNL     1       6.574   5.766  -3.669  1.00  0.00     0.012 A 
ATOM     90  C   UNL     1       5.570   4.804  -5.635  1.00  0.00     0.148 A 
ATOM     91  C   UNL     1       7.761   5.984  -4.366  1.00  0.00     0.002 A 
ATOM     92  C   UNL     1       6.797   4.904  -6.286  1.00  0.00     0.091 A 
ATOM     93  F   UNL     1       4.522   4.273  -6.280  1.00  0.00    -0.205 F 
ATOM     94  C   UNL     1       7.870   5.563  -5.682  1.00  0.00     0.022 A 
BRANCH  92  95
ATOM     95  S   UNL     1       7.085   4.103  -7.868  1.00  0.00     0.127 S 
ATOM     96  O   UNL     1       6.730   5.160  -8.812  1.00  0.00    -0.237 OA
ATOM     97  O   UNL     1       8.516   3.797  -7.808  1.00  0.00    -0.237 OA
ATOM     98  O   UNL     1       6.224   2.930  -7.852  1.00  0.00    -0.744 OA
ENDBRANCH  92  95
ENDBRANCH  65  88
ENDBRANCH  39  40
ENDBRANCH  32  34
ENDBRANCH  31  32
ENDBRANCH  30  31
ENDBRANCH  29  30
ENDBRANCH  28  29
ENDBRANCH  27  28
ENDBRANCH   1  27
TORSDOF 26
