REMARK SMILES CC(C)C[C@H](NC(=O)[C@H](C)NC(=O)[C@@H](NC(=O)CNC(=O)OCc1ccccc1)C(C)C)C(=O)OCCOCCOCCOCCOC(=O)c1ccc(-c2c3nc(c(-c4cccc(S(=O)(=O)[O-])c4F)c4ccc([nH]4)c(-c4cccc(S(=O)(=O)[O-])c4F)c4nc(c(-c5cccc(S(=O)(=O)[O-])c5F)c5ccc2[nH]5)C=C4)C=C3)cc1
REMARK SMILES IDX 37 1 36 2 35 3 33 4 34 5 5 6 4 7 2 8 1 9 3 10 6 11 7 12 8 14
REMARK SMILES IDX 9 15 10 16 11 17 12 18 13 20 14 21 15 22 16 23 17 25 18 26
REMARK SMILES IDX 19 27 20 28 21 30 22 31 23 32 24 33 25 34 29 35 26 36 28 37
REMARK SMILES IDX 27 38 30 39 31 40 32 41 38 42 39 43 40 44 41 45 42 46 43 47
REMARK SMILES IDX 44 48 45 49 46 50 47 51 48 52 49 53 50 54 51 55 112 56 52 57
REMARK SMILES IDX 111 58 53 59 54 60 55 61 105 62 56 63 110 64 104 65 106 66
REMARK SMILES IDX 57 67 109 68 103 69 102 70 58 72 90 73 70 74 89 75 71 76
REMARK SMILES IDX 74 77 88 78 107 79 72 80 73 81 87 83 108 84 75 85 59 86
REMARK SMILES IDX 60 87 68 88 61 89 63 90 69 91 62 92 64 93 65 94 66 95 67 96
REMARK SMILES IDX 91 97 92 98 100 99 93 100 95 101 101 102 94 103 96 104
REMARK SMILES IDX 97 105 98 106 99 107 76 108 77 109 85 110 78 111 80 112
REMARK SMILES IDX 86 113 79 114 81 115 82 116 83 117 84 118
REMARK H PARENT 6 13 11 19 15 24 19 29 106 71 74 82
REMARK Flexibility Score: inf
ROOT
ATOM      1  C   UNL     1       1.585  -8.600  -0.614  1.00  0.00     0.202 C 
ENDROOT
BRANCH   1   2
ATOM      2  C   UNL     1       2.389  -7.520   0.123  1.00  0.00     0.261 C 
BRANCH   2   3
ATOM      3  O   UNL     1       1.837  -6.210   0.252  1.00  0.00    -0.462 OA
BRANCH   3   4
ATOM      4  C   UNL     1       1.556  -5.497  -0.864  1.00  0.00     0.328 C 
ATOM      5  O   UNL     1       1.614  -5.934  -2.005  1.00  0.00    -0.250 OA
BRANCH   4   6
ATOM      6  C   UNL     1       1.283  -4.032  -0.501  1.00  0.00     0.192 C 
BRANCH   6   7
ATOM      7  C   UNL     1       2.558  -3.214  -0.773  1.00  0.00     0.040 C 
BRANCH   7   8
ATOM      8  C   UNL     1       3.932  -3.893  -1.025  1.00  0.00    -0.015 C 
ATOM      9  C   UNL     1       4.110  -4.482  -2.420  1.00  0.00     0.007 C 
ATOM     10  C   UNL     1       5.049  -2.860  -0.801  1.00  0.00     0.007 C 
ENDBRANCH   7   8
ENDBRANCH   6   7
BRANCH   6  11
ATOM     11  N   UNL     1       0.786  -3.909   0.908  1.00  0.00    -0.341 N 
ATOM     12  C   UNL     1      -0.019  -2.939   1.453  1.00  0.00     0.242 C 
ATOM     13  H   UNL     1       1.077  -4.619   1.526  1.00  0.00     0.164 HD
ATOM     14  O   UNL     1      -1.179  -3.265   1.726  1.00  0.00    -0.273 OA
BRANCH  12  15
ATOM     15  C   UNL     1       0.637  -1.695   2.123  1.00  0.00     0.168 C 
ATOM     16  C   UNL     1      -0.397  -0.618   2.482  1.00  0.00     0.041 C 
BRANCH  15  17
ATOM     17  N   UNL     1       1.743  -1.085   1.416  1.00  0.00    -0.343 N 
ATOM     18  C   UNL     1       3.058  -0.953   1.738  1.00  0.00     0.243 C 
ATOM     19  H   UNL     1       1.500  -0.695   0.545  1.00  0.00     0.164 HD
ATOM     20  O   UNL     1       3.746  -0.366   0.891  1.00  0.00    -0.273 OA
BRANCH  18  21
ATOM     21  C   UNL     1       3.715  -1.440   3.063  1.00  0.00     0.174 C 
BRANCH  21  22
ATOM     22  N   UNL     1       3.025  -0.730   4.174  1.00  0.00    -0.343 N 
ATOM     23  C   UNL     1       2.236  -1.043   5.239  1.00  0.00     0.240 C 
ATOM     24  H   UNL     1       3.184   0.241   4.125  1.00  0.00     0.164 HD
ATOM     25  O   UNL     1       1.675  -0.071   5.766  1.00  0.00    -0.273 OA
BRANCH  23  26
ATOM     26  C   UNL     1       2.027  -2.455   5.850  1.00  0.00     0.219 C 
BRANCH  26  27
ATOM     27  N   UNL     1       1.217  -3.399   5.085  1.00  0.00    -0.312 N 
ATOM     28  C   UNL     1       1.620  -4.636   4.649  1.00  0.00     0.407 C 
ATOM     29  H   UNL     1       0.299  -3.122   4.862  1.00  0.00     0.167 HD
ATOM     30  O   UNL     1       0.974  -5.238   3.799  1.00  0.00    -0.225 OA
BRANCH  28  31
ATOM     31  O   UNL     1       2.818  -5.016   5.171  1.00  0.00    -0.445 OA
BRANCH  31  32
ATOM     32  C   UNL     1       3.288  -6.373   4.964  1.00  0.00     0.270 C 
BRANCH  32  33
ATOM     33  C   UNL     1       2.277  -7.244   5.647  1.00  0.00    -0.011 A 
ATOM     34  C   UNL     1       1.367  -7.928   4.841  1.00  0.00     0.007 A 
ATOM     35  C   UNL     1       1.978  -6.943   6.985  1.00  0.00     0.007 A 
ATOM     36  C   UNL     1       0.056  -7.993   5.274  1.00  0.00     0.000 A 
ATOM     37  C   UNL     1       0.669  -7.058   7.419  1.00  0.00     0.000 A 
ATOM     38  C   UNL     1      -0.299  -7.498   6.528  1.00  0.00     0.000 A 
ENDBRANCH  32  33
ENDBRANCH  31  32
ENDBRANCH  28  31
ENDBRANCH  26  27
ENDBRANCH  23  26
ENDBRANCH  21  22
BRANCH  21  39
ATOM     39  C   UNL     1       4.006  -2.911   3.355  1.00  0.00     0.015 C 
ATOM     40  C   UNL     1       4.170  -3.961   2.278  1.00  0.00     0.010 C 
ATOM     41  C   UNL     1       5.169  -3.060   4.342  1.00  0.00     0.010 C 
ENDBRANCH  21  39
ENDBRANCH  18  21
ENDBRANCH  15  17
ENDBRANCH  12  15
ENDBRANCH   6  11
ENDBRANCH   4   6
ENDBRANCH   3   4
ENDBRANCH   2   3
ENDBRANCH   1   2
BRANCH   1  42
ATOM     42  O   UNL     1       0.173  -8.719  -0.591  1.00  0.00    -0.376 OA
BRANCH  42  43
ATOM     43  C   UNL     1      -0.703  -7.616  -0.428  1.00  0.00     0.188 C 
BRANCH  43  44
ATOM     44  C   UNL     1      -0.830  -7.130   1.023  1.00  0.00     0.188 C 
BRANCH  44  45
ATOM     45  O   UNL     1      -1.396  -8.064   1.924  1.00  0.00    -0.377 OA
BRANCH  45  46
ATOM     46  C   UNL     1      -0.780  -9.337   1.939  1.00  0.00     0.188 C 
BRANCH  46  47
ATOM     47  C   UNL     1      -1.609 -10.424   1.246  1.00  0.00     0.188 C 
BRANCH  47  48
ATOM     48  O   UNL     1      -2.835 -10.120   0.603  1.00  0.00    -0.376 OA
BRANCH  48  49
ATOM     49  C   UNL     1      -3.727  -9.133   1.090  1.00  0.00     0.202 C 
BRANCH  49  50
ATOM     50  C   UNL     1      -4.066  -8.906   2.579  1.00  0.00     0.261 C 
BRANCH  50  51
ATOM     51  O   UNL     1      -3.146  -9.329   3.585  1.00  0.00    -0.460 OA
BRANCH  51  52
ATOM     52  C   UNL     1      -3.276 -10.597   4.042  1.00  0.00     0.338 C 
ATOM     53  O   UNL     1      -4.007 -11.462   3.625  1.00  0.00    -0.246 OA
BRANCH  52  54
ATOM     54  C   UNL     1      -2.295 -10.759   5.140  1.00  0.00     0.060 A 
ATOM     55  C   UNL     1      -1.179 -11.589   4.978  1.00  0.00     0.016 A 
ATOM     56  C   UNL     1      -2.476 -10.050   6.326  1.00  0.00     0.016 A 
ATOM     57  C   UNL     1      -0.239 -11.718   6.011  1.00  0.00     0.010 A 
ATOM     58  C   UNL     1      -1.532 -10.179   7.351  1.00  0.00     0.010 A 
ATOM     59  C   UNL     1      -0.415 -11.030   7.218  1.00  0.00    -0.014 A 
BRANCH  59  60
ATOM     60  C   UNL     1       0.410 -11.339   8.424  1.00  0.00     0.031 A 
ATOM     61  C   UNL     1      -0.274 -12.056   9.559  1.00  0.00     0.074 A 
ATOM     62  C   UNL     1       1.708 -10.992   8.559  1.00  0.00     0.049 A 
ATOM     63  N   UNL     1       0.207 -12.433  10.714  1.00  0.00    -0.248 NA
ATOM     64  C   UNL     1      -1.697 -12.388   9.366  1.00  0.00     0.031 C 
ATOM     65  C   UNL     1       2.515 -10.305   7.558  1.00  0.00     0.029 A 
ATOM     66  N   UNL     1       2.572 -11.147   9.622  1.00  0.00    -0.354 N 
ATOM     67  C   UNL     1      -0.854 -13.030  11.381  1.00  0.00     0.074 A 
ATOM     68  C   UNL     1      -2.021 -12.893  10.543  1.00  0.00     0.031 C 
ATOM     69  C   UNL     1       3.733 -10.042   8.069  1.00  0.00     0.029 A 
ATOM     70  C   UNL     1       3.807 -10.563   9.431  1.00  0.00     0.049 A 
ATOM     71  H   UNL     1       2.330 -11.631  10.444  1.00  0.00     0.167 HD
ATOM     72  C   UNL     1      -0.858 -13.691  12.560  1.00  0.00     0.034 A 
ATOM     73  C   UNL     1       4.874 -10.467  10.253  1.00  0.00     0.034 A 
ATOM     74  C   UNL     1       0.295 -13.854  13.395  1.00  0.00     0.049 A 
ATOM     75  C   UNL     1       4.834 -11.159  11.597  1.00  0.00     0.074 A 
ATOM     76  C   UNL     1       0.403 -14.559  14.579  1.00  0.00     0.029 A 
ATOM     77  N   UNL     1       1.534 -13.287  13.147  1.00  0.00    -0.354 N 
ATOM     78  N   UNL     1       3.869 -11.865  12.134  1.00  0.00    -0.248 NA
ATOM     79  C   UNL     1       6.054 -11.097  12.419  1.00  0.00     0.031 C 
ATOM     80  C   UNL     1       1.699 -14.380  15.072  1.00  0.00     0.029 A 
ATOM     81  C   UNL     1       2.410 -13.607  14.168  1.00  0.00     0.049 A 
ATOM     82  H   UNL     1       1.757 -12.737  12.361  1.00  0.00     0.167 HD
ATOM     83  C   UNL     1       4.386 -12.386  13.317  1.00  0.00     0.074 A 
ATOM     84  C   UNL     1       5.751 -11.915  13.418  1.00  0.00     0.031 C 
ATOM     85  C   UNL     1       3.785 -13.184  14.233  1.00  0.00     0.034 A 
BRANCH  72  86
ATOM     86  C   UNL     1      -2.161 -14.309  12.984  1.00  0.00     0.023 A 
ATOM     87  C   UNL     1      -2.683 -15.406  12.266  1.00  0.00     0.012 A 
ATOM     88  C   UNL     1      -2.873 -13.796  14.082  1.00  0.00     0.148 A 
ATOM     89  C   UNL     1      -3.921 -15.949  12.602  1.00  0.00     0.002 A 
ATOM     90  C   UNL     1      -4.079 -14.379  14.446  1.00  0.00     0.091 A 
ATOM     91  F   UNL     1      -2.372 -12.736  14.731  1.00  0.00    -0.205 F 
ATOM     92  C   UNL     1      -4.614 -15.441  13.697  1.00  0.00     0.022 A 
BRANCH  90  93
ATOM     93  S   UNL     1      -5.007 -13.852  15.888  1.00  0.00     0.127 S 
ATOM     94  O   UNL     1      -6.188 -13.247  15.275  1.00  0.00    -0.237 OA
ATOM     95  O   UNL     1      -5.255 -15.122  16.570  1.00  0.00    -0.237 OA
ATOM     96  O   UNL     1      -4.140 -12.932  16.611  1.00  0.00    -0.744 OA
ENDBRANCH  90  93
ENDBRANCH  72  86
BRANCH  73  97
ATOM     97  C   UNL     1       6.121  -9.767   9.815  1.00  0.00     0.023 A 
ATOM     98  C   UNL     1       7.289 -10.520   9.571  1.00  0.00     0.012 A 
ATOM     99  C   UNL     1       6.173  -8.366   9.677  1.00  0.00     0.148 A 
ATOM    100  C   UNL     1       8.494  -9.890   9.252  1.00  0.00     0.002 A 
ATOM    101  C   UNL     1       7.365  -7.748   9.308  1.00  0.00     0.091 A 
ATOM    102  F   UNL     1       5.058  -7.662   9.917  1.00  0.00    -0.205 F 
ATOM    103  C   UNL     1       8.531  -8.506   9.117  1.00  0.00     0.022 A 
BRANCH 101 104
ATOM    104  S   UNL     1       7.492  -5.982   8.999  1.00  0.00     0.127 S 
ATOM    105  O   UNL     1       8.403  -5.554  10.058  1.00  0.00    -0.237 OA
ATOM    106  O   UNL     1       8.057  -5.955   7.650  1.00  0.00    -0.237 OA
ATOM    107  O   UNL     1       6.133  -5.464   9.090  1.00  0.00    -0.744 OA
ENDBRANCH 101 104
ENDBRANCH  73  97
BRANCH  85 108
ATOM    108  C   UNL     1       4.604 -13.669  15.403  1.00  0.00     0.023 A 
ATOM    109  C   UNL     1       4.995 -12.775  16.418  1.00  0.00     0.012 A 
ATOM    110  C   UNL     1       4.906 -15.040  15.537  1.00  0.00     0.148 A 
ATOM    111  C   UNL     1       5.706 -13.231  17.529  1.00  0.00     0.002 A 
ATOM    112  C   UNL     1       5.564 -15.496  16.672  1.00  0.00     0.091 A 
ATOM    113  F   UNL     1       4.540 -15.875  14.553  1.00  0.00    -0.205 F 
ATOM    114  C   UNL     1       5.978 -14.591  17.662  1.00  0.00     0.022 A 
BRANCH 112 115
ATOM    115  S   UNL     1       5.859 -17.241  16.980  1.00  0.00     0.127 S 
ATOM    116  O   UNL     1       7.308 -17.334  16.800  1.00  0.00    -0.237 OA
ATOM    117  O   UNL     1       5.405 -17.392  18.363  1.00  0.00    -0.237 OA
ATOM    118  O   UNL     1       5.061 -17.964  15.999  1.00  0.00    -0.744 OA
ENDBRANCH 112 115
ENDBRANCH  85 108
ENDBRANCH  59  60
ENDBRANCH  52  54
ENDBRANCH  51  52
ENDBRANCH  50  51
ENDBRANCH  49  50
ENDBRANCH  48  49
ENDBRANCH  47  48
ENDBRANCH  46  47
ENDBRANCH  45  46
ENDBRANCH  44  45
ENDBRANCH  43  44
ENDBRANCH  42  43
ENDBRANCH   1  42
TORSDOF 36
