REMARK SMILES O=C(OCCOCCOCCOCCOC(=O)[C@@H]1CC2(CC[NH2+]CC2)C[N@@H+]1Cc1cccc2nonc12)c1ccc(-c2c3nc(c(-c4cccc(S(=O)(=O)[O-])c4F)c4ccc([nH]4)c(-c4cccc(S(=O)(=O)[O-])c4F)c4nc(c(-c5cccc(S(=O)(=O)[O-])c5F)c5ccc2[nH]5)C=C4)C=C3)cc1
REMARK SMILES IDX 8 1 7 2 6 3 5 4 4 5 3 6 2 7 1 8 38 9 39 10 100 11 40 12
REMARK SMILES IDX 99 13 41 14 42 15 43 16 93 17 44 18 98 19 92 20 94 21 45 22
REMARK SMILES IDX 97 23 91 24 90 25 46 27 78 28 58 29 77 30 59 31 62 32 76 33
REMARK SMILES IDX 95 34 60 35 61 36 75 38 96 39 63 40 47 41 48 42 56 43 49 44
REMARK SMILES IDX 51 45 57 46 50 47 52 48 53 49 54 50 55 51 79 52 80 53 88 54
REMARK SMILES IDX 81 55 83 56 89 57 82 58 84 59 85 60 86 61 87 62 64 63 65 64
REMARK SMILES IDX 73 65 66 66 68 67 74 68 67 69 69 70 70 71 71 72 72 73 9 74
REMARK SMILES IDX 10 75 11 76 12 77 13 78 14 79 15 80 16 81 17 82 18 83 19 84
REMARK SMILES IDX 27 85 20 86 26 87 21 89 25 90 22 91 24 92 23 93 28 96 29 97
REMARK SMILES IDX 30 98 37 99 31 100 33 101 36 102 32 103 34 104 35 105
REMARK H PARENT 94 26 62 37 27 88 23 94 23 95
REMARK Flexibility Score: inf
ROOT
ATOM      1  C   UNL     1       1.332   1.672  -0.702  1.00  0.00     0.188 C 
ENDROOT
BRANCH   1   2
ATOM      2  C   UNL     1       1.653   0.256  -0.238  1.00  0.00     0.188 C 
BRANCH   2   3
ATOM      3  O   UNL     1       2.991   0.160   0.227  1.00  0.00    -0.376 OA
BRANCH   3   4
ATOM      4  C   UNL     1       3.934  -0.461  -0.646  1.00  0.00     0.202 C 
BRANCH   4   5
ATOM      5  C   UNL     1       3.874  -1.980  -0.505  1.00  0.00     0.261 C 
BRANCH   5   6
ATOM      6  O   UNL     1       3.976  -2.311   0.891  1.00  0.00    -0.460 OA
BRANCH   6   7
ATOM      7  C   UNL     1       2.775  -2.313   1.528  1.00  0.00     0.338 C 
ATOM      8  O   UNL     1       1.762  -2.861   1.119  1.00  0.00    -0.246 OA
BRANCH   7   9
ATOM      9  C   UNL     1       2.824  -1.457   2.743  1.00  0.00     0.060 A 
ATOM     10  C   UNL     1       1.745  -1.477   3.632  1.00  0.00     0.016 A 
ATOM     11  C   UNL     1       3.864  -0.540   2.939  1.00  0.00     0.016 A 
ATOM     12  C   UNL     1       1.753  -0.644   4.753  1.00  0.00     0.010 A 
ATOM     13  C   UNL     1       3.842   0.327   4.022  1.00  0.00     0.010 A 
ATOM     14  C   UNL     1       2.823   0.237   4.974  1.00  0.00    -0.014 A 
BRANCH  14  15
ATOM     15  C   UNL     1       2.975   0.881   6.295  1.00  0.00     0.031 A 
ATOM     16  C   UNL     1       4.383   1.202   6.710  1.00  0.00     0.074 A 
ATOM     17  C   UNL     1       1.998   1.644   6.818  1.00  0.00     0.049 A 
ATOM     18  N   UNL     1       4.940   2.375   6.622  1.00  0.00    -0.248 NA
ATOM     19  C   UNL     1       5.330   0.114   6.974  1.00  0.00     0.031 C 
ATOM     20  C   UNL     1       1.430   2.811   6.139  1.00  0.00     0.029 A 
ATOM     21  N   UNL     1       1.631   1.785   8.135  1.00  0.00    -0.354 N 
ATOM     22  C   UNL     1       6.312   2.183   6.745  1.00  0.00     0.074 A 
ATOM     23  C   UNL     1       6.502   0.762   6.952  1.00  0.00     0.031 C 
ATOM     24  C   UNL     1       0.907   3.630   7.075  1.00  0.00     0.029 A 
ATOM     25  C   UNL     1       1.007   2.996   8.384  1.00  0.00     0.049 A 
ATOM     26  H   UNL     1       1.793   1.101   8.824  1.00  0.00     0.167 HD
ATOM     27  C   UNL     1       7.241   3.176   6.673  1.00  0.00     0.034 A 
ATOM     28  C   UNL     1       0.928   3.586   9.606  1.00  0.00     0.034 A 
ATOM     29  C   UNL     1       6.812   4.561   6.614  1.00  0.00     0.049 A 
ATOM     30  C   UNL     1       2.116   4.504   9.576  1.00  0.00     0.074 A 
ATOM     31  C   UNL     1       7.454   5.787   6.518  1.00  0.00     0.029 A 
ATOM     32  N   UNL     1       5.476   4.866   6.724  1.00  0.00    -0.354 N 
ATOM     33  N   UNL     1       2.181   5.666   8.978  1.00  0.00    -0.248 NA
ATOM     34  C   UNL     1       3.422   3.944   9.970  1.00  0.00     0.031 C 
ATOM     35  C   UNL     1       6.495   6.809   6.807  1.00  0.00     0.029 A 
ATOM     36  C   UNL     1       5.307   6.177   7.107  1.00  0.00     0.049 A 
ATOM     37  H   UNL     1       4.741   4.234   6.551  1.00  0.00     0.167 HD
ATOM     38  C   UNL     1       3.522   5.806   8.657  1.00  0.00     0.074 A 
ATOM     39  C   UNL     1       4.255   4.812   9.411  1.00  0.00     0.031 C 
ATOM     40  C   UNL     1       4.011   6.521   7.611  1.00  0.00     0.034 A 
BRANCH  27  41
ATOM     41  C   UNL     1       8.691   2.900   6.906  1.00  0.00     0.023 A 
ATOM     42  C   UNL     1       9.175   3.190   8.198  1.00  0.00     0.012 A 
ATOM     43  C   UNL     1       9.602   2.538   5.895  1.00  0.00     0.148 A 
ATOM     44  C   UNL     1      10.537   3.146   8.483  1.00  0.00     0.002 A 
ATOM     45  C   UNL     1      10.967   2.495   6.187  1.00  0.00     0.091 A 
ATOM     46  F   UNL     1       9.131   2.288   4.665  1.00  0.00    -0.205 F 
ATOM     47  C   UNL     1      11.433   2.803   7.478  1.00  0.00     0.022 A 
BRANCH  45  48
ATOM     48  S   UNL     1      12.232   2.094   4.971  1.00  0.00     0.127 S 
ATOM     49  O   UNL     1      12.942   3.366   4.841  1.00  0.00    -0.237 OA
ATOM     50  O   UNL     1      12.987   1.041   5.651  1.00  0.00    -0.237 OA
ATOM     51  O   UNL     1      11.517   1.657   3.780  1.00  0.00    -0.744 OA
ENDBRANCH  45  48
ENDBRANCH  27  41
BRANCH  28  52
ATOM     52  C   UNL     1       0.557   2.677  10.738  1.00  0.00     0.023 A 
ATOM     53  C   UNL     1      -0.591   1.866  10.537  1.00  0.00     0.012 A 
ATOM     54  C   UNL     1       1.246   2.530  11.952  1.00  0.00     0.148 A 
ATOM     55  C   UNL     1      -0.961   0.870  11.441  1.00  0.00     0.002 A 
ATOM     56  C   UNL     1       0.908   1.498  12.828  1.00  0.00     0.091 A 
ATOM     57  F   UNL     1       2.238   3.376  12.249  1.00  0.00    -0.205 F 
ATOM     58  C   UNL     1      -0.190   0.664  12.574  1.00  0.00     0.022 A 
BRANCH  56  59
ATOM     59  S   UNL     1       1.902   1.115  14.276  1.00  0.00     0.127 S 
ATOM     60  O   UNL     1       0.885   0.831  15.288  1.00  0.00    -0.237 OA
ATOM     61  O   UNL     1       2.649  -0.052  13.809  1.00  0.00    -0.237 OA
ATOM     62  O   UNL     1       2.696   2.308  14.534  1.00  0.00    -0.744 OA
ENDBRANCH  56  59
ENDBRANCH  28  52
BRANCH  40  63
ATOM     63  C   UNL     1       3.134   7.521   6.966  1.00  0.00     0.023 A 
ATOM     64  C   UNL     1       3.179   8.834   7.465  1.00  0.00     0.012 A 
ATOM     65  C   UNL     1       2.269   7.205   5.902  1.00  0.00     0.148 A 
ATOM     66  C   UNL     1       2.376   9.828   6.913  1.00  0.00     0.002 A 
ATOM     67  C   UNL     1       1.464   8.202   5.357  1.00  0.00     0.091 A 
ATOM     68  F   UNL     1       2.255   5.949   5.432  1.00  0.00    -0.205 F 
ATOM     69  C   UNL     1       1.521   9.514   5.859  1.00  0.00     0.022 A 
BRANCH  67  70
ATOM     70  S   UNL     1       0.352   7.912   3.975  1.00  0.00     0.127 S 
ATOM     71  O   UNL     1      -0.960   8.019   4.612  1.00  0.00    -0.237 OA
ATOM     72  O   UNL     1       0.674   9.018   3.071  1.00  0.00    -0.237 OA
ATOM     73  O   UNL     1       0.680   6.594   3.446  1.00  0.00    -0.744 OA
ENDBRANCH  67  70
ENDBRANCH  40  63
ENDBRANCH  14  15
ENDBRANCH   7   9
ENDBRANCH   6   7
ENDBRANCH   5   6
ENDBRANCH   4   5
ENDBRANCH   3   4
ENDBRANCH   2   3
ENDBRANCH   1   2
BRANCH   1  74
ATOM     74  O   UNL     1       2.290   2.065  -1.674  1.00  0.00    -0.377 OA
BRANCH  74  75
ATOM     75  C   UNL     1       3.330   2.944  -1.235  1.00  0.00     0.188 C 
BRANCH  75  76
ATOM     76  C   UNL     1       3.874   2.925   0.209  1.00  0.00     0.188 C 
BRANCH  76  77
ATOM     77  O   UNL     1       2.899   3.300   1.168  1.00  0.00    -0.376 OA
BRANCH  77  78
ATOM     78  C   UNL     1       3.011   4.614   1.720  1.00  0.00     0.202 C 
BRANCH  78  79
ATOM     79  C   UNL     1       2.583   5.744   0.763  1.00  0.00     0.261 C 
BRANCH  79  80
ATOM     80  O   UNL     1       3.385   6.034  -0.423  1.00  0.00    -0.459 OA
BRANCH  80  81
ATOM     81  C   UNL     1       4.742   6.040  -0.318  1.00  0.00     0.365 C 
ATOM     82  O   UNL     1       5.340   5.625   0.644  1.00  0.00    -0.245 OA
BRANCH  81  83
ATOM     83  C   UNL     1       5.423   6.509  -1.610  1.00  0.00     0.296 C 
ATOM     84  C   UNL     1       5.939   5.293  -2.400  1.00  0.00     0.091 C 
ATOM     85  N   UNL     1       6.638   7.325  -1.442  1.00  0.00    -0.319 N 
ATOM     86  C   UNL     1       7.446   5.156  -2.083  1.00  0.00     0.036 C 
ATOM     87  C   UNL     1       7.846   6.615  -1.817  1.00  0.00     0.270 C 
ATOM     88  H   UNL     1       6.465   8.046  -2.142  1.00  0.00     0.349 HD
ATOM     89  C   UNL     1       8.247   4.588  -3.272  1.00  0.00     0.074 C 
ATOM     90  C   UNL     1       7.749   4.251  -0.858  1.00  0.00     0.074 C 
ATOM     91  C   UNL     1       8.029   3.089  -3.475  1.00  0.00     0.261 C 
ATOM     92  C   UNL     1       7.559   2.758  -1.137  1.00  0.00     0.261 C 
ATOM     93  N   UNL     1       8.357   2.315  -2.282  1.00  0.00    -0.346 N 
ATOM     94  H   UNL     1       9.346   2.436  -2.067  1.00  0.00     0.346 HD
ATOM     95  H   UNL     1       8.149   1.333  -2.463  1.00  0.00     0.346 HD
BRANCH  85  96
ATOM     96  C   UNL     1       6.727   8.430  -0.492  1.00  0.00     0.302 C 
BRANCH  96  97
ATOM     97  C   UNL     1       6.704   8.030   0.955  1.00  0.00     0.038 A 
ATOM     98  C   UNL     1       7.666   7.155   1.532  1.00  0.00     0.012 A 
ATOM     99  C   UNL     1       5.592   8.275   1.797  1.00  0.00     0.144 A 
ATOM    100  C   UNL     1       7.436   6.412   2.716  1.00  0.00     0.003 A 
ATOM    101  C   UNL     1       5.372   7.530   3.021  1.00  0.00     0.135 A 
ATOM    102  N   UNL     1       4.545   9.091   1.605  1.00  0.00    -0.049 NA
ATOM    103  C   UNL     1       6.253   6.530   3.456  1.00  0.00     0.034 A 
ATOM    104  N   UNL     1       4.215   7.929   3.549  1.00  0.00    -0.050 NA
ATOM    105  O   UNL     1       3.699   8.872   2.682  1.00  0.00    -0.243 OA
ENDBRANCH  96  97
ENDBRANCH  85  96
ENDBRANCH  81  83
ENDBRANCH  80  81
ENDBRANCH  79  80
ENDBRANCH  78  79
ENDBRANCH  77  78
ENDBRANCH  76  77
ENDBRANCH  75  76
ENDBRANCH  74  75
ENDBRANCH   1  74
TORSDOF 25
