REMARK SMILES CN1C(=O)C[C@H](C(=O)OCCOCCOCCOCCOC(=O)c2ccc(-c3c4nc(c(-c5cccc(S(=O)(=O)[O-])c5F)c5ccc([nH]5)c(-c5cccc(S(=O)(=O)[O-])c5F)c5nc(c(-c6cccc(S(=O)(=O)[O-])c6F)c6ccc3[nH]6)C=C5)C=C4)cc2)C12CC[NH+](Cc1ccc(Cl)c(F)c1)CC2
REMARK SMILES IDX 16 1 15 2 14 3 13 4 12 5 11 6 10 7 9 8 7 9 8 10 6 11 1 12
REMARK SMILES IDX 2 13 3 14 87 15 4 16 5 17 88 18 101 19 89 20 100 21 90 22
REMARK SMILES IDX 91 24 92 25 93 26 99 27 94 28 97 29 95 30 98 31 96 32 17 33
REMARK SMILES IDX 18 34 19 35 20 36 21 37 22 38 23 39 24 40 25 41 86 42 26 43
REMARK SMILES IDX 85 44 27 45 28 46 29 47 79 48 30 49 84 50 78 51 80 52 31 53
REMARK SMILES IDX 83 54 77 55 76 56 32 58 64 59 44 60 63 61 45 62 48 63 62 64
REMARK SMILES IDX 81 65 46 66 47 67 61 69 82 70 49 71 33 72 34 73 42 74 35 75
REMARK SMILES IDX 37 76 43 77 36 78 38 79 39 80 40 81 41 82 65 83 66 84 74 85
REMARK SMILES IDX 67 86 69 87 75 88 68 89 70 90 71 91 72 92 73 93 50 94 51 95
REMARK SMILES IDX 59 96 52 97 54 98 60 99 53 100 55 101 56 102 57 103 58 104
REMARK H PARENT 90 23 80 57 48 68
REMARK Flexibility Score: inf
ROOT
ATOM      1  C   UNL     1      -3.928  -2.713  -1.432  1.00  0.00     0.188 C 
ENDROOT
BRANCH   1   2
ATOM      2  O   UNL     1      -3.282  -2.296  -2.630  1.00  0.00    -0.377 OA
BRANCH   2   3
ATOM      3  C   UNL     1      -3.641  -1.060  -3.226  1.00  0.00     0.188 C 
BRANCH   3   4
ATOM      4  C   UNL     1      -3.641  -1.137  -4.758  1.00  0.00     0.188 C 
BRANCH   4   5
ATOM      5  O   UNL     1      -4.203  -2.315  -5.332  1.00  0.00    -0.376 OA
BRANCH   5   6
ATOM      6  C   UNL     1      -3.556  -3.557  -5.025  1.00  0.00     0.202 C 
BRANCH   6   7
ATOM      7  C   UNL     1      -2.031  -3.633  -5.234  1.00  0.00     0.261 C 
BRANCH   7   8
ATOM      8  O   UNL     1      -1.273  -2.708  -4.412  1.00  0.00    -0.463 OA
BRANCH   8   9
ATOM      9  C   UNL     1      -0.291  -2.000  -5.004  1.00  0.00     0.311 C 
ATOM     10  O   UNL     1      -0.075  -2.013  -6.213  1.00  0.00    -0.252 OA
BRANCH   9  11
ATOM     11  C   UNL     1       0.461  -1.043  -4.095  1.00  0.00     0.134 C 
ATOM     12  C   UNL     1       1.373   0.480  -0.770  1.00  0.00     0.147 C 
ATOM     13  N   UNL     1       0.910   0.104  -2.098  1.00  0.00    -0.339 N 
ATOM     14  C   UNL     1       0.281   1.031  -2.911  1.00  0.00     0.223 C 
ATOM     15  C   UNL     1       0.817  -1.303  -2.599  1.00  0.00     0.067 C 
ATOM     16  O   UNL     1       0.096   2.214  -2.671  1.00  0.00    -0.275 OA
ATOM     17  C   UNL     1      -0.192   0.340  -4.148  1.00  0.00     0.118 C 
ATOM     18  C   UNL     1       2.187  -2.010  -2.497  1.00  0.00     0.091 C 
ATOM     19  C   UNL     1      -0.197  -2.058  -1.720  1.00  0.00     0.091 C 
ATOM     20  C   UNL     1       2.089  -3.518  -2.709  1.00  0.00     0.265 C 
ATOM     21  C   UNL     1      -0.183  -3.589  -1.805  1.00  0.00     0.265 C 
ATOM     22  N   UNL     1       1.145  -4.178  -1.823  1.00  0.00    -0.331 N 
ATOM     23  H   UNL     1       0.996  -5.065  -2.304  1.00  0.00     0.348 HD
BRANCH  22  24
ATOM     24  C   UNL     1       1.654  -4.718  -0.556  1.00  0.00     0.299 C 
BRANCH  24  25
ATOM     25  C   UNL     1       1.796  -3.712   0.568  1.00  0.00     0.009 A 
ATOM     26  C   UNL     1       3.016  -3.059   0.796  1.00  0.00     0.011 A 
ATOM     27  C   UNL     1       0.684  -3.358   1.350  1.00  0.00     0.050 A 
ATOM     28  C   UNL     1       3.096  -2.002   1.708  1.00  0.00     0.024 A 
ATOM     29  C   UNL     1       0.760  -2.287   2.233  1.00  0.00     0.142 A 
ATOM     30  C   UNL     1       1.956  -1.595   2.401  1.00  0.00     0.076 A 
ATOM     31  F   UNL     1      -0.356  -1.894   2.865  1.00  0.00    -0.205 F 
ATOM     32  Cl  UNL     1       2.030  -0.201   3.408  1.00  0.00    -0.081 Cl
ENDBRANCH  24  25
ENDBRANCH  22  24
ENDBRANCH   9  11
ENDBRANCH   8   9
ENDBRANCH   7   8
ENDBRANCH   6   7
ENDBRANCH   5   6
ENDBRANCH   4   5
ENDBRANCH   3   4
ENDBRANCH   2   3
ENDBRANCH   1   2
BRANCH   1  33
ATOM     33  C   UNL     1      -5.335  -2.159  -1.211  1.00  0.00     0.188 C 
BRANCH  33  34
ATOM     34  O   UNL     1      -5.441  -0.777  -0.842  1.00  0.00    -0.376 OA
BRANCH  34  35
ATOM     35  C   UNL     1      -4.383  -0.171  -0.099  1.00  0.00     0.202 C 
BRANCH  35  36
ATOM     36  C   UNL     1      -4.470  -0.369   1.411  1.00  0.00     0.261 C 
BRANCH  36  37
ATOM     37  O   UNL     1      -4.160  -1.722   1.769  1.00  0.00    -0.460 OA
BRANCH  37  38
ATOM     38  C   UNL     1      -5.230  -2.525   1.953  1.00  0.00     0.338 C 
ATOM     39  O   UNL     1      -6.413  -2.222   1.882  1.00  0.00    -0.246 OA
BRANCH  38  40
ATOM     40  C   UNL     1      -4.758  -3.908   2.096  1.00  0.00     0.060 A 
ATOM     41  C   UNL     1      -5.364  -4.909   1.324  1.00  0.00     0.016 A 
ATOM     42  C   UNL     1      -3.784  -4.220   3.045  1.00  0.00     0.016 A 
ATOM     43  C   UNL     1      -5.045  -6.241   1.549  1.00  0.00     0.010 A 
ATOM     44  C   UNL     1      -3.478  -5.556   3.282  1.00  0.00     0.010 A 
ATOM     45  C   UNL     1      -4.149  -6.566   2.572  1.00  0.00    -0.014 A 
BRANCH  45  46
ATOM     46  C   UNL     1      -4.085  -7.956   3.062  1.00  0.00     0.031 A 
ATOM     47  C   UNL     1      -4.856  -8.303   4.304  1.00  0.00     0.074 A 
ATOM     48  C   UNL     1      -3.354  -8.876   2.414  1.00  0.00     0.049 A 
ATOM     49  N   UNL     1      -4.889  -9.424   4.971  1.00  0.00    -0.248 NA
ATOM     50  C   UNL     1      -5.695  -7.235   4.878  1.00  0.00     0.031 C 
ATOM     51  C   UNL     1      -2.597  -8.642   1.186  1.00  0.00     0.029 A 
ATOM     52  N   UNL     1      -3.108 -10.187   2.723  1.00  0.00    -0.354 N 
ATOM     53  C   UNL     1      -5.720  -9.188   6.061  1.00  0.00     0.074 A 
ATOM     54  C   UNL     1      -6.159  -7.814   5.974  1.00  0.00     0.031 C 
ATOM     55  C   UNL     1      -1.941  -9.769   0.861  1.00  0.00     0.029 A 
ATOM     56  C   UNL     1      -2.208 -10.785   1.877  1.00  0.00     0.049 A 
ATOM     57  H   UNL     1      -3.534 -10.654   3.478  1.00  0.00     0.167 HD
ATOM     58  C   UNL     1      -6.091 -10.046   7.039  1.00  0.00     0.034 A 
ATOM     59  C   UNL     1      -1.643 -12.006   1.941  1.00  0.00     0.034 A 
ATOM     60  C   UNL     1      -5.649 -11.412   7.105  1.00  0.00     0.049 A 
ATOM     61  C   UNL     1      -2.038 -12.928   3.065  1.00  0.00     0.074 A 
ATOM     62  C   UNL     1      -5.984 -12.382   8.031  1.00  0.00     0.029 A 
ATOM     63  N   UNL     1      -4.762 -11.996   6.213  1.00  0.00    -0.354 N 
ATOM     64  N   UNL     1      -2.890 -12.725   4.042  1.00  0.00    -0.248 NA
ATOM     65  C   UNL     1      -1.417 -14.260   3.078  1.00  0.00     0.031 C 
ATOM     66  C   UNL     1      -5.268 -13.542   7.721  1.00  0.00     0.029 A 
ATOM     67  C   UNL     1      -4.526 -13.310   6.573  1.00  0.00     0.049 A 
ATOM     68  H   UNL     1      -4.360 -11.542   5.438  1.00  0.00     0.167 HD
ATOM     69  C   UNL     1      -2.944 -13.917   4.757  1.00  0.00     0.074 A 
ATOM     70  C   UNL     1      -2.045 -14.839   4.091  1.00  0.00     0.031 C 
ATOM     71  C   UNL     1      -3.664 -14.223   5.865  1.00  0.00     0.034 A 
BRANCH  58  72
ATOM     72  C   UNL     1      -7.016  -9.527   8.109  1.00  0.00     0.023 A 
ATOM     73  C   UNL     1      -8.357  -9.226   7.797  1.00  0.00     0.012 A 
ATOM     74  C   UNL     1      -6.564  -9.367   9.434  1.00  0.00     0.148 A 
ATOM     75  C   UNL     1      -9.222  -8.735   8.775  1.00  0.00     0.002 A 
ATOM     76  C   UNL     1      -7.445  -8.927  10.414  1.00  0.00     0.091 A 
ATOM     77  F   UNL     1      -5.279  -9.635   9.707  1.00  0.00    -0.205 F 
ATOM     78  C   UNL     1      -8.769  -8.596  10.084  1.00  0.00     0.022 A 
BRANCH  76  79
ATOM     79  S   UNL     1      -6.981  -8.791  12.143  1.00  0.00     0.127 S 
ATOM     80  O   UNL     1      -6.996  -7.343  12.340  1.00  0.00    -0.237 OA
ATOM     81  O   UNL     1      -8.069  -9.509  12.808  1.00  0.00    -0.237 OA
ATOM     82  O   UNL     1      -5.674  -9.422  12.261  1.00  0.00    -0.744 OA
ENDBRANCH  76  79
ENDBRANCH  58  72
BRANCH  59  83
ATOM     83  C   UNL     1      -0.672 -12.434   0.898  1.00  0.00     0.023 A 
ATOM     84  C   UNL     1      -1.026 -13.457  -0.002  1.00  0.00     0.012 A 
ATOM     85  C   UNL     1       0.590 -11.820   0.779  1.00  0.00     0.148 A 
ATOM     86  C   UNL     1      -0.127 -13.887  -0.978  1.00  0.00     0.002 A 
ATOM     87  C   UNL     1       1.459 -12.213  -0.232  1.00  0.00     0.091 A 
ATOM     88  F   UNL     1       0.910 -10.852   1.650  1.00  0.00    -0.205 F 
ATOM     89  C   UNL     1       1.110 -13.259  -1.099  1.00  0.00     0.022 A 
BRANCH  87  90
ATOM     90  S   UNL     1       3.016 -11.374  -0.544  1.00  0.00     0.127 S 
ATOM     91  O   UNL     1       3.988 -12.402  -0.179  1.00  0.00    -0.237 OA
ATOM     92  O   UNL     1       2.923 -11.093  -1.977  1.00  0.00    -0.237 OA
ATOM     93  O   UNL     1       3.005 -10.188   0.301  1.00  0.00    -0.744 OA
ENDBRANCH  87  90
ENDBRANCH  59  83
BRANCH  71  94
ATOM     94  C   UNL     1      -3.561 -15.628   6.397  1.00  0.00     0.023 A 
ATOM     95  C   UNL     1      -2.382 -16.064   7.032  1.00  0.00     0.012 A 
ATOM     96  C   UNL     1      -4.672 -16.494   6.330  1.00  0.00     0.148 A 
ATOM     97  C   UNL     1      -2.296 -17.353   7.557  1.00  0.00     0.002 A 
ATOM     98  C   UNL     1      -4.598 -17.755   6.906  1.00  0.00     0.091 A 
ATOM     99  F   UNL     1      -5.780 -16.065   5.708  1.00  0.00    -0.205 F 
ATOM    100  C   UNL     1      -3.406 -18.192   7.505  1.00  0.00     0.022 A 
BRANCH  98 101
ATOM    101  S   UNL     1      -6.008 -18.864   6.979  1.00  0.00     0.127 S 
ATOM    102  O   UNL     1      -5.609 -19.915   6.044  1.00  0.00    -0.237 OA
ATOM    103  O   UNL     1      -6.011 -19.267   8.386  1.00  0.00    -0.237 OA
ATOM    104  O   UNL     1      -7.164 -18.076   6.572  1.00  0.00    -0.744 OA
ENDBRANCH  98 101
ENDBRANCH  71  94
ENDBRANCH  45  46
ENDBRANCH  38  40
ENDBRANCH  37  38
ENDBRANCH  36  37
ENDBRANCH  35  36
ENDBRANCH  34  35
ENDBRANCH  33  34
ENDBRANCH   1  33
TORSDOF 25
