REMARK SMILES CS(=O)(=O)c1ccc(-n2nc(C(F)(F)F)cc2-c2ccc(CC(=O)OCCOCCOCCOCCOC(=O)c3ccc(-c4c5nc(c(-c6cccc(S(=O)(=O)[O-])c6F)c6ccc([nH]6)c(-c6cccc(S(=O)(=O)[O-])c6F)c6nc(c(-c7cccc(S(=O)(=O)[O-])c7F)c7ccc4[nH]7)C=C6)C=C5)cc3)cc2)cc1
REMARK SMILES IDX 30 1 29 2 28 3 27 4 26 5 25 6 23 7 24 8 22 9 21 10 18 11
REMARK SMILES IDX 19 12 104 13 20 14 103 15 17 16 9 17 10 18 11 19 16 20 8 21
REMARK SMILES IDX 5 22 6 23 106 24 7 25 105 26 2 27 1 28 3 29 4 30 12 31 13 32
REMARK SMILES IDX 14 33 15 34 31 35 32 36 33 37 34 38 35 39 36 40 37 41 38 42
REMARK SMILES IDX 39 43 40 44 41 45 102 46 42 47 101 48 43 49 44 50 45 51
REMARK SMILES IDX 95 52 46 53 100 54 94 55 96 56 47 57 99 58 93 59 92 60 48 62
REMARK SMILES IDX 80 63 60 64 79 65 61 66 64 67 78 68 97 69 62 70 63 71 77 73
REMARK SMILES IDX 98 74 65 75 49 76 50 77 58 78 51 79 53 80 59 81 52 82 54 83
REMARK SMILES IDX 55 84 56 85 57 86 81 87 82 88 90 89 83 90 85 91 91 92 84 93
REMARK SMILES IDX 86 94 87 95 88 96 89 97 66 98 67 99 75 100 68 101 70 102
REMARK SMILES IDX 76 103 69 104 71 105 72 106 73 107 74 108
REMARK H PARENT 96 61 64 72
REMARK Flexibility Score: inf
ROOT
ATOM      1  C   UNL     1       1.190   0.724  -7.456  1.00  0.00     0.188 C 
ENDROOT
BRANCH   1   2
ATOM      2  C   UNL     1       0.388   0.821  -8.777  1.00  0.00     0.188 C 
BRANCH   2   3
ATOM      3  O   UNL     1       0.853   0.217  -9.988  1.00  0.00    -0.376 OA
BRANCH   3   4
ATOM      4  C   UNL     1       1.952  -0.677  -9.931  1.00  0.00     0.202 C 
BRANCH   4   5
ATOM      5  C   UNL     1       3.320   0.013  -9.761  1.00  0.00     0.261 C 
BRANCH   5   6
ATOM      6  O   UNL     1       3.240   1.411  -9.405  1.00  0.00    -0.463 OA
BRANCH   6   7
ATOM      7  C   UNL     1       2.903   2.247 -10.414  1.00  0.00     0.310 C 
ATOM      8  O   UNL     1       2.872   1.909 -11.597  1.00  0.00    -0.252 OA
BRANCH   7   9
ATOM      9  C   UNL     1       2.585   3.666  -9.997  1.00  0.00     0.158 C 
BRANCH   9  10
ATOM     10  C   UNL     1       2.461   4.091  -8.540  1.00  0.00    -0.037 A 
ATOM     11  C   UNL     1       2.229   5.420  -6.010  1.00  0.00     0.000 A 
ATOM     12  C   UNL     1       1.092   5.064  -6.740  1.00  0.00     0.010 A 
ATOM     13  C   UNL     1       3.479   5.038  -6.534  1.00  0.00     0.010 A 
ATOM     14  C   UNL     1       1.207   4.411  -7.985  1.00  0.00     0.005 A 
ATOM     15  C   UNL     1       3.595   4.377  -7.773  1.00  0.00     0.005 A 
BRANCH  11  16
ATOM     16  C   UNL     1       2.162   6.372  -4.880  1.00  0.00     0.075 A 
ATOM     17  N   UNL     1       1.314   6.410  -3.753  1.00  0.00    -0.233 N 
ATOM     18  N   UNL     1       1.387   7.613  -3.134  1.00  0.00    -0.163 NA
ATOM     19  C   UNL     1       2.371   8.299  -3.724  1.00  0.00     0.167 A 
ATOM     20  C   UNL     1       2.870   7.568  -4.822  1.00  0.00     0.064 A 
BRANCH  17  21
ATOM     21  C   UNL     1       0.444   5.423  -3.180  1.00  0.00     0.065 A 
ATOM     22  C   UNL     1      -1.308   3.506  -2.005  1.00  0.00     0.067 A 
ATOM     23  C   UNL     1      -0.323   3.154  -2.931  1.00  0.00     0.022 A 
ATOM     24  C   UNL     1      -1.424   4.848  -1.662  1.00  0.00     0.022 A 
ATOM     25  C   UNL     1       0.551   4.083  -3.515  1.00  0.00     0.030 A 
ATOM     26  C   UNL     1      -0.529   5.792  -2.220  1.00  0.00     0.030 A 
BRANCH  22  27
ATOM     27  S   UNL     1      -2.431   2.250  -1.378  1.00  0.00     0.175 S 
ATOM     28  C   UNL     1      -2.190   1.938   0.338  1.00  0.00     0.163 C 
ATOM     29  O   UNL     1      -2.058   0.991  -2.006  1.00  0.00    -0.224 OA
ATOM     30  O   UNL     1      -3.771   2.761  -1.569  1.00  0.00    -0.224 OA
ENDBRANCH  22  27
ENDBRANCH  17  21
BRANCH  19  31
ATOM     31  C   UNL     1       2.812   9.676  -3.291  1.00  0.00     0.435 C 
ATOM     32  F   UNL     1       1.807  10.480  -2.875  1.00  0.00    -0.164 F 
ATOM     33  F   UNL     1       3.770   9.639  -2.330  1.00  0.00    -0.164 F 
ATOM     34  F   UNL     1       3.388  10.334  -4.349  1.00  0.00    -0.164 F 
ENDBRANCH  19  31
ENDBRANCH  11  16
ENDBRANCH   9  10
ENDBRANCH   7   9
ENDBRANCH   6   7
ENDBRANCH   5   6
ENDBRANCH   4   5
ENDBRANCH   3   4
ENDBRANCH   2   3
ENDBRANCH   1   2
BRANCH   1  35
ATOM     35  O   UNL     1       1.826  -0.532  -7.277  1.00  0.00    -0.377 OA
BRANCH  35  36
ATOM     36  C   UNL     1       1.269  -1.453  -6.357  1.00  0.00     0.188 C 
BRANCH  36  37
ATOM     37  C   UNL     1      -0.208  -1.857  -6.508  1.00  0.00     0.188 C 
BRANCH  37  38
ATOM     38  O   UNL     1      -1.094  -0.844  -6.925  1.00  0.00    -0.376 OA
BRANCH  38  39
ATOM     39  C   UNL     1      -1.738   0.001  -5.998  1.00  0.00     0.202 C 
BRANCH  39  40
ATOM     40  C   UNL     1      -1.342   0.058  -4.535  1.00  0.00     0.261 C 
BRANCH  40  41
ATOM     41  O   UNL     1       0.050   0.132  -4.207  1.00  0.00    -0.460 OA
BRANCH  41  42
ATOM     42  C   UNL     1       0.438  -0.800  -3.287  1.00  0.00     0.338 C 
ATOM     43  O   UNL     1       0.083  -1.967  -3.272  1.00  0.00    -0.246 OA
BRANCH  42  44
ATOM     44  C   UNL     1       1.181  -0.155  -2.181  1.00  0.00     0.060 A 
ATOM     45  C   UNL     1       0.893  -0.629  -0.899  1.00  0.00     0.016 A 
ATOM     46  C   UNL     1       1.959   0.996  -2.352  1.00  0.00     0.016 A 
ATOM     47  C   UNL     1       1.235   0.137   0.205  1.00  0.00     0.010 A 
ATOM     48  C   UNL     1       2.265   1.786  -1.241  1.00  0.00     0.010 A 
ATOM     49  C   UNL     1       1.851   1.382   0.031  1.00  0.00    -0.014 A 
BRANCH  49  50
ATOM     50  C   UNL     1       2.133   2.163   1.240  1.00  0.00     0.031 A 
ATOM     51  C   UNL     1       3.401   1.836   1.894  1.00  0.00     0.074 A 
ATOM     52  C   UNL     1       1.353   3.132   1.763  1.00  0.00     0.049 A 
ATOM     53  N   UNL     1       3.563   1.229   3.022  1.00  0.00    -0.248 NA
ATOM     54  C   UNL     1       4.634   2.150   1.163  1.00  0.00     0.031 C 
ATOM     55  C   UNL     1       0.265   3.768   1.056  1.00  0.00     0.029 A 
ATOM     56  N   UNL     1       1.390   3.823   2.950  1.00  0.00    -0.354 N 
ATOM     57  C   UNL     1       4.918   1.360   3.274  1.00  0.00     0.074 A 
ATOM     58  C   UNL     1       5.551   1.730   2.031  1.00  0.00     0.031 C 
ATOM     59  C   UNL     1      -0.220   4.808   1.753  1.00  0.00     0.029 A 
ATOM     60  C   UNL     1       0.550   4.940   2.971  1.00  0.00     0.049 A 
ATOM     61  H   UNL     1       1.955   3.557   3.711  1.00  0.00     0.167 HD
ATOM     62  C   UNL     1       5.379   1.522   4.539  1.00  0.00     0.034 A 
ATOM     63  C   UNL     1       0.515   5.968   3.853  1.00  0.00     0.034 A 
ATOM     64  C   UNL     1       4.466   1.085   5.555  1.00  0.00     0.049 A 
ATOM     65  C   UNL     1       1.174   5.523   5.096  1.00  0.00     0.074 A 
ATOM     66  C   UNL     1       3.744  -0.068   5.789  1.00  0.00     0.029 A 
ATOM     67  N   UNL     1       3.952   2.039   6.397  1.00  0.00    -0.354 N 
ATOM     68  N   UNL     1       0.641   4.714   5.968  1.00  0.00    -0.248 NA
ATOM     69  C   UNL     1       2.600   5.761   5.249  1.00  0.00     0.031 C 
ATOM     70  C   UNL     1       2.580   0.341   6.495  1.00  0.00     0.029 A 
ATOM     71  C   UNL     1       2.644   1.725   6.661  1.00  0.00     0.049 A 
ATOM     72  H   UNL     1       4.441   2.816   6.751  1.00  0.00     0.167 HD
ATOM     73  C   UNL     1       1.720   4.015   6.490  1.00  0.00     0.074 A 
ATOM     74  C   UNL     1       2.889   4.808   6.136  1.00  0.00     0.031 C 
ATOM     75  C   UNL     1       1.598   2.709   6.871  1.00  0.00     0.034 A 
BRANCH  62  76
ATOM     76  C   UNL     1       6.531   2.439   4.811  1.00  0.00     0.023 A 
ATOM     77  C   UNL     1       7.328   2.221   5.944  1.00  0.00     0.012 A 
ATOM     78  C   UNL     1       6.748   3.625   4.072  1.00  0.00     0.148 A 
ATOM     79  C   UNL     1       8.338   3.124   6.292  1.00  0.00     0.002 A 
ATOM     80  C   UNL     1       7.825   4.449   4.348  1.00  0.00     0.091 A 
ATOM     81  F   UNL     1       5.849   4.019   3.158  1.00  0.00    -0.205 F 
ATOM     82  C   UNL     1       8.614   4.218   5.473  1.00  0.00     0.022 A 
BRANCH  80  83
ATOM     83  S   UNL     1       8.265   5.746   3.189  1.00  0.00     0.127 S 
ATOM     84  O   UNL     1       7.465   6.865   3.671  1.00  0.00    -0.237 OA
ATOM     85  O   UNL     1       9.708   5.876   3.395  1.00  0.00    -0.237 OA
ATOM     86  O   UNL     1       7.903   5.190   1.888  1.00  0.00    -0.744 OA
ENDBRANCH  80  83
ENDBRANCH  62  76
BRANCH  63  87
ATOM     87  C   UNL     1       0.040   7.368   3.664  1.00  0.00     0.023 A 
ATOM     88  C   UNL     1      -0.211   8.185   4.786  1.00  0.00     0.012 A 
ATOM     89  C   UNL     1       0.018   7.993   2.397  1.00  0.00     0.148 A 
ATOM     90  C   UNL     1      -0.450   9.561   4.650  1.00  0.00     0.002 A 
ATOM     91  C   UNL     1      -0.270   9.349   2.263  1.00  0.00     0.091 A 
ATOM     92  F   UNL     1       0.368   7.298   1.306  1.00  0.00    -0.205 F 
ATOM     93  C   UNL     1      -0.486  10.145   3.387  1.00  0.00     0.022 A 
BRANCH  91  94
ATOM     94  S   UNL     1      -0.384  10.072   0.621  1.00  0.00     0.127 S 
ATOM     95  O   UNL     1      -1.186  11.276   0.851  1.00  0.00    -0.237 OA
ATOM     96  O   UNL     1       1.015  10.321   0.296  1.00  0.00    -0.237 OA
ATOM     97  O   UNL     1      -1.072   9.047  -0.161  1.00  0.00    -0.744 OA
ENDBRANCH  91  94
ENDBRANCH  63  87
BRANCH  75  98
ATOM     98  C   UNL     1       0.226   2.169   7.199  1.00  0.00     0.023 A 
ATOM     99  C   UNL     1      -0.832   2.175   6.268  1.00  0.00     0.012 A 
ATOM    100  C   UNL     1       0.049   1.486   8.418  1.00  0.00     0.148 A 
ATOM    101  C   UNL     1      -2.045   1.544   6.557  1.00  0.00     0.002 A 
ATOM    102  C   UNL     1      -1.141   0.813   8.679  1.00  0.00     0.091 A 
ATOM    103  F   UNL     1       1.058   1.486   9.304  1.00  0.00    -0.205 F 
ATOM    104  C   UNL     1      -2.195   0.850   7.755  1.00  0.00     0.022 A 
BRANCH 102 105
ATOM    105  S   UNL     1      -1.324  -0.217  10.139  1.00  0.00     0.127 S 
ATOM    106  O   UNL     1      -1.990   0.687  11.074  1.00  0.00    -0.237 OA
ATOM    107  O   UNL     1      -2.160  -1.317   9.654  1.00  0.00    -0.237 OA
ATOM    108  O   UNL     1       0.030  -0.622  10.499  1.00  0.00    -0.744 OA
ENDBRANCH 102 105
ENDBRANCH  75  98
ENDBRANCH  49  50
ENDBRANCH  42  44
ENDBRANCH  41  42
ENDBRANCH  40  41
ENDBRANCH  39  40
ENDBRANCH  38  39
ENDBRANCH  37  38
ENDBRANCH  36  37
ENDBRANCH  35  36
ENDBRANCH   1  35
TORSDOF 28
