REMARK SMILES O=C(OCCOCCOCCOCCOC(=O)c1csc(C[NH2+][C@H]2CCSc3ccc(F)cc32)c1)c1ccc(-c2c3nc(c(-c4cccc(S(=O)(=O)[O-])c4F)c4ccc([nH]4)c(-c4cccc(S(=O)(=O)[O-])c4F)c4nc(c(-c5cccc(S(=O)(=O)[O-])c5F)c5ccc2[nH]5)C=C4)C=C3)cc1
REMARK SMILES IDX 9 1 8 2 7 3 6 4 5 5 4 6 3 7 2 8 1 9 36 10 37 11 98 12 38 13
REMARK SMILES IDX 97 14 39 15 40 16 41 17 91 18 42 19 96 20 90 21 92 22 43 23
REMARK SMILES IDX 95 24 89 25 88 26 44 28 76 29 56 30 75 31 57 32 60 33 74 34
REMARK SMILES IDX 93 35 58 36 59 37 73 39 94 40 61 41 45 42 46 43 54 44 47 45
REMARK SMILES IDX 49 46 55 47 48 48 50 49 51 50 52 51 53 52 77 53 78 54 86 55
REMARK SMILES IDX 79 56 81 57 87 58 80 59 82 60 83 61 84 62 85 63 62 64 63 65
REMARK SMILES IDX 71 66 64 67 66 68 72 69 65 70 67 71 68 72 69 73 70 74 10 75
REMARK SMILES IDX 11 76 12 77 13 78 14 79 15 80 16 81 17 82 18 83 19 84 35 85
REMARK SMILES IDX 20 86 21 87 22 88 23 89 24 92 25 93 34 94 26 95 28 96 33 97
REMARK SMILES IDX 27 98 29 99 31 100 30 101 32 102
REMARK H PARENT 92 27 60 38 23 90 23 91
REMARK Flexibility Score: inf
ROOT
ATOM      1  O   UNL     1      13.080  -0.295 -13.143  1.00  0.00    -0.377 OA
ENDROOT
BRANCH   1   2
ATOM      2  C   UNL     1      14.140   0.136 -13.970  1.00  0.00     0.188 C 
BRANCH   2   3
ATOM      3  C   UNL     1      15.530  -0.336 -13.537  1.00  0.00     0.188 C 
BRANCH   3   4
ATOM      4  O   UNL     1      15.676  -0.990 -12.279  1.00  0.00    -0.376 OA
BRANCH   4   5
ATOM      5  C   UNL     1      15.130  -0.399 -11.110  1.00  0.00     0.202 C 
BRANCH   5   6
ATOM      6  C   UNL     1      15.862   0.805 -10.523  1.00  0.00     0.261 C 
BRANCH   6   7
ATOM      7  O   UNL     1      16.447   1.662 -11.506  1.00  0.00    -0.460 OA
BRANCH   7   8
ATOM      8  C   UNL     1      17.800   1.699 -11.637  1.00  0.00     0.338 C 
ATOM      9  O   UNL     1      18.405   2.762 -11.695  1.00  0.00    -0.246 OA
BRANCH   8  10
ATOM     10  C   UNL     1      18.454   0.435 -12.078  1.00  0.00     0.060 A 
ATOM     11  C   UNL     1      19.120   0.461 -13.313  1.00  0.00     0.016 A 
ATOM     12  C   UNL     1      18.460  -0.739 -11.318  1.00  0.00     0.016 A 
ATOM     13  C   UNL     1      19.783  -0.676 -13.781  1.00  0.00     0.010 A 
ATOM     14  C   UNL     1      19.082  -1.888 -11.803  1.00  0.00     0.010 A 
ATOM     15  C   UNL     1      19.781  -1.851 -13.016  1.00  0.00    -0.014 A 
BRANCH  15  16
ATOM     16  C   UNL     1      20.754  -2.926 -13.298  1.00  0.00     0.031 A 
ATOM     17  C   UNL     1      20.421  -4.121 -14.129  1.00  0.00     0.074 A 
ATOM     18  C   UNL     1      21.952  -2.815 -12.693  1.00  0.00     0.049 A 
ATOM     19  N   UNL     1      21.225  -5.067 -14.538  1.00  0.00    -0.248 NA
ATOM     20  C   UNL     1      19.023  -4.291 -14.549  1.00  0.00     0.031 C 
ATOM     21  C   UNL     1      22.332  -1.720 -11.793  1.00  0.00     0.029 A 
ATOM     22  N   UNL     1      23.052  -3.628 -12.711  1.00  0.00    -0.354 N 
ATOM     23  C   UNL     1      20.440  -5.948 -15.268  1.00  0.00     0.074 A 
ATOM     24  C   UNL     1      19.086  -5.431 -15.232  1.00  0.00     0.031 C 
ATOM     25  C   UNL     1      23.569  -1.941 -11.330  1.00  0.00     0.029 A 
ATOM     26  C   UNL     1      24.079  -3.172 -11.920  1.00  0.00     0.049 A 
ATOM     27  H   UNL     1      23.103  -4.457 -13.239  1.00  0.00     0.167 HD
ATOM     28  C   UNL     1      20.834  -7.067 -15.920  1.00  0.00     0.034 A 
ATOM     29  C   UNL     1      25.312  -3.670 -11.714  1.00  0.00     0.034 A 
ATOM     30  C   UNL     1      22.192  -7.545 -15.943  1.00  0.00     0.049 A 
ATOM     31  C   UNL     1      25.732  -4.884 -12.482  1.00  0.00     0.074 A 
ATOM     32  C   UNL     1      22.725  -8.586 -16.683  1.00  0.00     0.029 A 
ATOM     33  N   UNL     1      23.226  -7.034 -15.171  1.00  0.00    -0.354 N 
ATOM     34  N   UNL     1      25.038  -5.577 -13.351  1.00  0.00    -0.248 NA
ATOM     35  C   UNL     1      27.105  -5.360 -12.283  1.00  0.00     0.031 C 
ATOM     36  C   UNL     1      24.075  -8.716 -16.345  1.00  0.00     0.029 A 
ATOM     37  C   UNL     1      24.386  -7.753 -15.397  1.00  0.00     0.049 A 
ATOM     38  H   UNL     1      23.145  -6.271 -14.553  1.00  0.00     0.167 HD
ATOM     39  C   UNL     1      25.895  -6.559 -13.825  1.00  0.00     0.074 A 
ATOM     40  C   UNL     1      27.163  -6.367 -13.147  1.00  0.00     0.031 C 
ATOM     41  C   UNL     1      25.647  -7.531 -14.735  1.00  0.00     0.034 A 
BRANCH  28  42
ATOM     42  C   UNL     1      19.820  -7.817 -16.740  1.00  0.00     0.023 A 
ATOM     43  C   UNL     1      19.479  -7.322 -18.014  1.00  0.00     0.012 A 
ATOM     44  C   UNL     1      19.318  -9.067 -16.325  1.00  0.00     0.148 A 
ATOM     45  C   UNL     1      18.649  -8.054 -18.863  1.00  0.00     0.002 A 
ATOM     46  C   UNL     1      18.509  -9.802 -17.186  1.00  0.00     0.091 A 
ATOM     47  F   UNL     1      19.652  -9.516 -15.107  1.00  0.00    -0.205 F 
ATOM     48  C   UNL     1      18.173  -9.296 -18.453  1.00  0.00     0.022 A 
BRANCH  46  49
ATOM     49  S   UNL     1      17.884 -11.438 -16.783  1.00  0.00     0.127 S 
ATOM     50  O   UNL     1      16.446 -11.187 -16.687  1.00  0.00    -0.237 OA
ATOM     51  O   UNL     1      18.289 -12.219 -17.952  1.00  0.00    -0.237 OA
ATOM     52  O   UNL     1      18.530 -11.822 -15.536  1.00  0.00    -0.744 OA
ENDBRANCH  46  49
ENDBRANCH  28  42
BRANCH  29  53
ATOM     53  C   UNL     1      26.245  -2.899 -10.853  1.00  0.00     0.023 A 
ATOM     54  C   UNL     1      27.171  -2.035 -11.468  1.00  0.00     0.012 A 
ATOM     55  C   UNL     1      26.104  -2.884  -9.452  1.00  0.00     0.148 A 
ATOM     56  C   UNL     1      27.939  -1.161 -10.701  1.00  0.00     0.002 A 
ATOM     57  C   UNL     1      26.850  -1.987  -8.696  1.00  0.00     0.091 A 
ATOM     58  F   UNL     1      25.206  -3.710  -8.897  1.00  0.00    -0.205 F 
ATOM     59  C   UNL     1      27.771  -1.128  -9.319  1.00  0.00     0.022 A 
BRANCH  57  60
ATOM     60  S   UNL     1      26.621  -1.783  -6.926  1.00  0.00     0.127 S 
ATOM     61  O   UNL     1      27.906  -2.244  -6.405  1.00  0.00    -0.237 OA
ATOM     62  O   UNL     1      26.394  -0.342  -6.816  1.00  0.00    -0.237 OA
ATOM     63  O   UNL     1      25.471  -2.605  -6.576  1.00  0.00    -0.744 OA
ENDBRANCH  57  60
ENDBRANCH  29  53
BRANCH  41  64
ATOM     64  C   UNL     1      26.757  -8.490 -15.053  1.00  0.00     0.023 A 
ATOM     65  C   UNL     1      26.986  -9.577 -14.189  1.00  0.00     0.012 A 
ATOM     66  C   UNL     1      27.467  -8.396 -16.265  1.00  0.00     0.148 A 
ATOM     67  C   UNL     1      27.910 -10.563 -14.528  1.00  0.00     0.002 A 
ATOM     68  C   UNL     1      28.364  -9.399 -16.610  1.00  0.00     0.091 A 
ATOM     69  F   UNL     1      27.227  -7.348 -17.065  1.00  0.00    -0.205 F 
ATOM     70  C   UNL     1      28.589 -10.481 -15.742  1.00  0.00     0.022 A 
BRANCH  68  71
ATOM     71  S   UNL     1      29.236  -9.425 -18.180  1.00  0.00     0.127 S 
ATOM     72  O   UNL     1      30.632  -9.373 -17.747  1.00  0.00    -0.237 OA
ATOM     73  O   UNL     1      28.818 -10.709 -18.741  1.00  0.00    -0.237 OA
ATOM     74  O   UNL     1      28.779  -8.255 -18.918  1.00  0.00    -0.744 OA
ENDBRANCH  68  71
ENDBRANCH  41  64
ENDBRANCH  15  16
ENDBRANCH   8  10
ENDBRANCH   7   8
ENDBRANCH   6   7
ENDBRANCH   5   6
ENDBRANCH   4   5
ENDBRANCH   3   4
ENDBRANCH   2   3
ENDBRANCH   1   2
BRANCH   1  75
ATOM     75  C   UNL     1      12.501  -1.548 -13.465  1.00  0.00     0.188 C 
BRANCH  75  76
ATOM     76  C   UNL     1      13.389  -2.799 -13.366  1.00  0.00     0.188 C 
BRANCH  76  77
ATOM     77  O   UNL     1      14.251  -3.052 -14.472  1.00  0.00    -0.376 OA
BRANCH  77  78
ATOM     78  C   UNL     1      13.694  -3.079 -15.785  1.00  0.00     0.202 C 
BRANCH  78  79
ATOM     79  C   UNL     1      12.530  -4.051 -16.035  1.00  0.00     0.261 C 
BRANCH  79  80
ATOM     80  O   UNL     1      11.319  -3.542 -15.435  1.00  0.00    -0.460 OA
BRANCH  80  81
ATOM     81  C   UNL     1      10.669  -4.394 -14.585  1.00  0.00     0.339 C 
ATOM     82  O   UNL     1      10.840  -5.597 -14.538  1.00  0.00    -0.246 OA
BRANCH  81  83
ATOM     83  C   UNL     1       9.919  -3.661 -13.564  1.00  0.00     0.071 A 
ATOM     84  C   UNL     1       9.174  -2.516 -13.763  1.00  0.00     0.081 A 
ATOM     85  C   UNL     1       9.962  -3.993 -12.169  1.00  0.00     0.037 A 
ATOM     86  S   UNL     1       8.582  -1.853 -12.293  1.00  0.00    -0.142 S 
ATOM     87  C   UNL     1       9.341  -3.064 -11.352  1.00  0.00     0.060 A 
BRANCH  87  88
ATOM     88  C   UNL     1       9.300  -3.137  -9.841  1.00  0.00     0.308 C 
BRANCH  88  89
ATOM     89  N   UNL     1       8.505  -2.101  -9.187  1.00  0.00    -0.336 N 
ATOM     90  H   UNL     1       7.629  -2.016  -9.702  1.00  0.00     0.347 HD
ATOM     91  H   UNL     1       9.095  -1.269  -9.200  1.00  0.00     0.347 HD
BRANCH  89  92
ATOM     92  C   UNL     1       8.167  -2.310  -7.760  1.00  0.00     0.215 C 
ATOM     93  C   UNL     1       7.813  -3.782  -7.464  1.00  0.00     0.081 C 
ATOM     94  C   UNL     1       9.107  -1.655  -6.744  1.00  0.00     0.026 A 
ATOM     95  C   UNL     1       7.404  -4.006  -6.026  1.00  0.00     0.081 C 
ATOM     96  C   UNL     1       9.457  -2.265  -5.518  1.00  0.00     0.017 A 
ATOM     97  C   UNL     1       9.508  -0.313  -6.931  1.00  0.00     0.050 A 
ATOM     98  S   UNL     1       8.879  -3.871  -4.991  1.00  0.00    -0.125 SA
ATOM     99  C   UNL     1      10.251  -1.583  -4.575  1.00  0.00     0.018 A 
ATOM    100  C   UNL     1      10.263   0.358  -5.968  1.00  0.00     0.123 A 
ATOM    101  C   UNL     1      10.651  -0.270  -4.798  1.00  0.00     0.040 A 
ATOM    102  F   UNL     1      10.590   1.642  -6.164  1.00  0.00    -0.207 F 
ENDBRANCH  89  92
ENDBRANCH  88  89
ENDBRANCH  87  88
ENDBRANCH  81  83
ENDBRANCH  80  81
ENDBRANCH  79  80
ENDBRANCH  78  79
ENDBRANCH  77  78
ENDBRANCH  76  77
ENDBRANCH  75  76
ENDBRANCH   1  75
TORSDOF 26
