REMARK SMILES CCCN(C(=O)NCC(=O)OCCOCCOCCOCCOC(=O)c1ccc(-c2c3nc(c(-c4cccc(S(=O)(=O)[O-])c4F)c4ccc([nH]4)c(-c4cccc(S(=O)(=O)[O-])c4F)c4nc(c(-c5cccc(S(=O)(=O)[O-])c5F)c5ccc2[nH]5)C=C4)C=C3)cc1)C(C)C
REMARK SMILES IDX 16 1 15 2 14 3 13 4 12 5 11 6 9 7 10 8 8 9 7 10 5 11 6 12
REMARK SMILES IDX 4 14 3 15 2 16 1 17 89 18 90 19 91 20 17 21 18 22 19 23
REMARK SMILES IDX 20 24 21 25 22 26 23 27 24 28 25 29 26 30 27 31 88 32 28 33
REMARK SMILES IDX 87 34 29 35 30 36 31 37 81 38 32 39 86 40 80 41 82 42 33 43
REMARK SMILES IDX 85 44 79 45 78 46 34 48 66 49 46 50 65 51 47 52 50 53 64 54
REMARK SMILES IDX 83 55 48 56 49 57 63 59 84 60 51 61 35 62 36 63 44 64 37 65
REMARK SMILES IDX 39 66 45 67 38 68 40 69 41 70 42 71 43 72 67 73 68 74 76 75
REMARK SMILES IDX 69 76 71 77 77 78 70 79 72 80 73 81 74 82 75 83 52 84 53 85
REMARK SMILES IDX 61 86 54 87 56 88 62 89 55 90 57 91 58 92 59 93 60 94
REMARK H PARENT 7 13 82 47 50 58
REMARK Flexibility Score: inf
ROOT
ATOM      1  C   UNL     1      -0.350  -0.652   7.430  1.00  0.00     0.188 C 
ENDROOT
BRANCH   1   2
ATOM      2  C   UNL     1      -0.271  -2.179   7.616  1.00  0.00     0.188 C 
BRANCH   2   3
ATOM      3  O   UNL     1       0.878  -2.806   8.174  1.00  0.00    -0.376 OA
BRANCH   3   4
ATOM      4  C   UNL     1       2.188  -2.340   7.876  1.00  0.00     0.202 C 
BRANCH   4   5
ATOM      5  C   UNL     1       2.644  -2.084   6.427  1.00  0.00     0.261 C 
BRANCH   5   6
ATOM      6  O   UNL     1       1.677  -1.461   5.566  1.00  0.00    -0.462 OA
BRANCH   6   7
ATOM      7  C   UNL     1       1.085  -2.259   4.648  1.00  0.00     0.325 C 
ATOM      8  O   UNL     1       1.367  -3.440   4.462  1.00  0.00    -0.250 OA
BRANCH   7   9
ATOM      9  C   UNL     1      -0.128  -1.611   3.972  1.00  0.00     0.240 C 
BRANCH   9  10
ATOM     10  N   UNL     1      -0.380  -0.175   3.980  1.00  0.00    -0.327 N 
ATOM     11  C   UNL     1      -0.030   0.913   3.283  1.00  0.00     0.318 C 
ATOM     12  O   UNL     1      -0.679   1.921   3.587  1.00  0.00    -0.249 OA
ATOM     13  H   UNL     1      -0.987   0.066   4.717  1.00  0.00     0.166 HD
BRANCH  11  14
ATOM     14  N   UNL     1       0.935   0.920   2.312  1.00  0.00    -0.322 N 
BRANCH  14  15
ATOM     15  C   UNL     1       1.678  -0.251   1.849  1.00  0.00     0.121 C 
BRANCH  15  16
ATOM     16  C   UNL     1       0.889  -1.171   0.908  1.00  0.00     0.018 C 
ATOM     17  C   UNL     1       1.046  -0.860  -0.567  1.00  0.00     0.006 C 
ENDBRANCH  15  16
ENDBRANCH  14  15
BRANCH  14  18
ATOM     18  C   UNL     1       1.243   2.247   1.709  1.00  0.00     0.080 C 
ATOM     19  C   UNL     1       2.735   2.578   1.630  1.00  0.00     0.031 C 
ATOM     20  C   UNL     1       0.563   2.429   0.354  1.00  0.00     0.031 C 
ENDBRANCH  14  18
ENDBRANCH  11  14
ENDBRANCH   9  10
ENDBRANCH   7   9
ENDBRANCH   6   7
ENDBRANCH   5   6
ENDBRANCH   4   5
ENDBRANCH   3   4
ENDBRANCH   2   3
ENDBRANCH   1   2
BRANCH   1  21
ATOM     21  O   UNL     1       0.858   0.033   7.673  1.00  0.00    -0.377 OA
BRANCH  21  22
ATOM     22  C   UNL     1       0.983   0.668   8.937  1.00  0.00     0.188 C 
BRANCH  22  23
ATOM     23  C   UNL     1       0.440  -0.099  10.159  1.00  0.00     0.188 C 
BRANCH  23  24
ATOM     24  O   UNL     1      -0.915  -0.520  10.028  1.00  0.00    -0.376 OA
BRANCH  24  25
ATOM     25  C   UNL     1      -1.941   0.295  10.578  1.00  0.00     0.202 C 
BRANCH  25  26
ATOM     26  C   UNL     1      -2.157   1.695   9.976  1.00  0.00     0.261 C 
BRANCH  26  27
ATOM     27  O   UNL     1      -1.044   2.599  10.032  1.00  0.00    -0.460 OA
BRANCH  27  28
ATOM     28  C   UNL     1      -0.494   2.859  11.234  1.00  0.00     0.338 C 
ATOM     29  O   UNL     1      -0.889   2.468  12.321  1.00  0.00    -0.246 OA
BRANCH  28  30
ATOM     30  C   UNL     1       0.806   3.521  11.001  1.00  0.00     0.060 A 
ATOM     31  C   UNL     1       1.966   2.931  11.522  1.00  0.00     0.016 A 
ATOM     32  C   UNL     1       0.884   4.708  10.269  1.00  0.00     0.016 A 
ATOM     33  C   UNL     1       3.203   3.552  11.352  1.00  0.00     0.010 A 
ATOM     34  C   UNL     1       2.120   5.341  10.120  1.00  0.00     0.010 A 
ATOM     35  C   UNL     1       3.277   4.786  10.697  1.00  0.00    -0.014 A 
BRANCH  35  36
ATOM     36  C   UNL     1       4.512   5.598  10.805  1.00  0.00     0.031 A 
ATOM     37  C   UNL     1       4.558   6.686  11.843  1.00  0.00     0.074 A 
ATOM     38  C   UNL     1       5.573   5.375  10.011  1.00  0.00     0.049 A 
ATOM     39  N   UNL     1       5.509   7.541  12.110  1.00  0.00    -0.248 NA
ATOM     40  C   UNL     1       3.363   6.829  12.691  1.00  0.00     0.031 C 
ATOM     41  C   UNL     1       5.660   4.337   8.987  1.00  0.00     0.029 A 
ATOM     42  N   UNL     1       6.777   6.029   9.934  1.00  0.00    -0.354 N 
ATOM     43  C   UNL     1       5.017   8.344  13.133  1.00  0.00     0.074 A 
ATOM     44  C   UNL     1       3.677   7.884  13.425  1.00  0.00     0.031 C 
ATOM     45  C   UNL     1       6.849   4.437   8.368  1.00  0.00     0.029 A 
ATOM     46  C   UNL     1       7.592   5.563   8.931  1.00  0.00     0.049 A 
ATOM     47  H   UNL     1       7.032   6.763  10.540  1.00  0.00     0.167 HD
ATOM     48  C   UNL     1       5.627   9.364  13.781  1.00  0.00     0.034 A 
ATOM     49  C   UNL     1       8.790   6.011   8.505  1.00  0.00     0.034 A 
ATOM     50  C   UNL     1       6.959   9.818  13.487  1.00  0.00     0.049 A 
ATOM     51  C   UNL     1       9.429   7.185   9.203  1.00  0.00     0.074 A 
ATOM     52  C   UNL     1       7.684  10.819  14.108  1.00  0.00     0.029 A 
ATOM     53  N   UNL     1       7.758   9.318  12.469  1.00  0.00    -0.354 N 
ATOM     54  N   UNL     1       8.998   7.870  10.236  1.00  0.00    -0.248 NA
ATOM     55  C   UNL     1      10.735   7.629   8.693  1.00  0.00     0.031 C 
ATOM     56  C   UNL     1       8.905  10.953  13.436  1.00  0.00     0.029 A 
ATOM     57  C   UNL     1       8.960  10.002  12.429  1.00  0.00     0.049 A 
ATOM     58  H   UNL     1       7.506   8.583  11.864  1.00  0.00     0.167 HD
ATOM     59  C   UNL     1       9.996   8.796  10.525  1.00  0.00     0.074 A 
ATOM     60  C   UNL     1      11.058   8.575   9.566  1.00  0.00     0.031 C 
ATOM     61  C   UNL     1      10.028   9.746  11.495  1.00  0.00     0.034 A 
BRANCH  48  62
ATOM     62  C   UNL     1       4.846  10.054  14.870  1.00  0.00     0.023 A 
ATOM     63  C   UNL     1       4.553   9.372  16.070  1.00  0.00     0.012 A 
ATOM     64  C   UNL     1       4.403  11.381  14.707  1.00  0.00     0.148 A 
ATOM     65  C   UNL     1       3.788   9.978  17.065  1.00  0.00     0.002 A 
ATOM     66  C   UNL     1       3.685  11.997  15.726  1.00  0.00     0.091 A 
ATOM     67  F   UNL     1       4.668  12.008  13.553  1.00  0.00    -0.205 F 
ATOM     68  C   UNL     1       3.361  11.293  16.896  1.00  0.00     0.022 A 
BRANCH  66  69
ATOM     69  S   UNL     1       3.163  13.713  15.637  1.00  0.00     0.127 S 
ATOM     70  O   UNL     1       1.722  13.573  15.438  1.00  0.00    -0.237 OA
ATOM     71  O   UNL     1       3.550  14.221  16.954  1.00  0.00    -0.237 OA
ATOM     72  O   UNL     1       3.897  14.298  14.523  1.00  0.00    -0.744 OA
ENDBRANCH  66  69
ENDBRANCH  48  62
BRANCH  49  73
ATOM     73  C   UNL     1       9.487   5.316   7.386  1.00  0.00     0.023 A 
ATOM     74  C   UNL     1      10.658   4.580   7.652  1.00  0.00     0.012 A 
ATOM     75  C   UNL     1       8.984   5.358   6.070  1.00  0.00     0.148 A 
ATOM     76  C   UNL     1      11.329   3.917   6.624  1.00  0.00     0.002 A 
ATOM     77  C   UNL     1       9.628   4.651   5.061  1.00  0.00     0.091 A 
ATOM     78  F   UNL     1       7.875   6.073   5.838  1.00  0.00    -0.205 F 
ATOM     79  C   UNL     1      10.809   3.943   5.333  1.00  0.00     0.022 A 
BRANCH  77  80
ATOM     80  S   UNL     1       8.973   4.527   3.393  1.00  0.00     0.127 S 
ATOM     81  O   UNL     1      10.022   5.175   2.610  1.00  0.00    -0.237 OA
ATOM     82  O   UNL     1       8.880   3.077   3.218  1.00  0.00    -0.237 OA
ATOM     83  O   UNL     1       7.692   5.218   3.415  1.00  0.00    -0.744 OA
ENDBRANCH  77  80
ENDBRANCH  49  73
BRANCH  61  84
ATOM     84  C   UNL     1      11.270  10.596  11.606  1.00  0.00     0.023 A 
ATOM     85  C   UNL     1      11.555  11.567  10.626  1.00  0.00     0.012 A 
ATOM     86  C   UNL     1      12.115  10.480  12.729  1.00  0.00     0.148 A 
ATOM     87  C   UNL     1      12.680  12.384  10.743  1.00  0.00     0.002 A 
ATOM     88  C   UNL     1      13.203  11.334  12.866  1.00  0.00     0.091 A 
ATOM     89  F   UNL     1      11.837   9.541  13.644  1.00  0.00    -0.205 F 
ATOM     90  C   UNL     1      13.496  12.276  11.867  1.00  0.00     0.022 A 
BRANCH  88  91
ATOM     91  S   UNL     1      14.251  11.337  14.325  1.00  0.00     0.127 S 
ATOM     92  O   UNL     1      15.500  10.793  13.796  1.00  0.00    -0.237 OA
ATOM     93  O   UNL     1      14.300  12.759  14.667  1.00  0.00    -0.237 OA
ATOM     94  O   UNL     1      13.575  10.501  15.309  1.00  0.00    -0.744 OA
ENDBRANCH  88  91
ENDBRANCH  61  84
ENDBRANCH  35  36
ENDBRANCH  28  30
ENDBRANCH  27  28
ENDBRANCH  26  27
ENDBRANCH  25  26
ENDBRANCH  24  25
ENDBRANCH  23  24
ENDBRANCH  22  23
ENDBRANCH  21  22
ENDBRANCH   1  21
TORSDOF 28
