REMARK SMILES CC(C)[NH2+][C@@]1(C(=O)OCCOCCOCCOCCOC(=O)c2ccc(-c3c4nc(c(-c5cccc(S(=O)(=O)[O-])c5F)c5ccc([nH]5)c(-c5cccc(S(=O)(=O)[O-])c5F)c5nc(c(-c6cccc(S(=O)(=O)[O-])c6F)c6ccc3[nH]6)C=C5)C=C4)cc2)CCC[C@@H]1CCOC1CCOCC1
REMARK SMILES IDX 13 1 12 2 11 3 10 4 9 5 8 6 6 7 7 8 5 9 86 10 89 11 87 12
REMARK SMILES IDX 88 13 4 14 2 17 1 18 3 19 90 20 91 21 92 22 93 23 94 24
REMARK SMILES IDX 98 25 95 26 97 27 96 28 14 29 15 30 16 31 17 32 18 33 19 34
REMARK SMILES IDX 20 35 21 36 22 37 23 38 24 39 85 40 25 41 84 42 26 43 27 44
REMARK SMILES IDX 28 45 78 46 29 47 83 48 77 49 79 50 30 51 82 52 76 53 75 54
REMARK SMILES IDX 31 56 63 57 43 58 62 59 44 60 47 61 61 62 80 63 45 64 46 65
REMARK SMILES IDX 60 67 81 68 48 69 32 70 33 71 41 72 34 73 36 74 42 75 35 76
REMARK SMILES IDX 37 77 38 78 39 79 40 80 64 81 65 82 73 83 66 84 68 85 74 86
REMARK SMILES IDX 67 87 69 88 70 89 71 90 72 91 49 92 50 93 58 94 51 95 53 96
REMARK SMILES IDX 59 97 52 98 54 99 55 100 56 101 57 102
REMARK H PARENT 4 15 4 16 79 55 47 66
REMARK Flexibility Score: inf
ROOT
ATOM      1  C   UNL     1      -4.612  -2.273  -0.557  1.00  0.00     0.188 C 
ENDROOT
BRANCH   1   2
ATOM      2  C   UNL     1      -4.881  -0.767  -0.549  1.00  0.00     0.188 C 
BRANCH   2   3
ATOM      3  O   UNL     1      -5.185  -0.080  -1.764  1.00  0.00    -0.376 OA
BRANCH   3   4
ATOM      4  C   UNL     1      -5.593  -0.827  -2.899  1.00  0.00     0.202 C 
BRANCH   4   5
ATOM      5  C   UNL     1      -4.441  -1.358  -3.779  1.00  0.00     0.261 C 
BRANCH   5   6
ATOM      6  O   UNL     1      -3.361  -2.071  -3.132  1.00  0.00    -0.459 OA
BRANCH   6   7
ATOM      7  C   UNL     1      -2.332  -1.332  -2.638  1.00  0.00     0.368 C 
ATOM      8  O   UNL     1      -2.318  -0.103  -2.654  1.00  0.00    -0.245 OA
BRANCH   7   9
ATOM      9  C   UNL     1      -1.106  -2.189  -2.115  1.00  0.00     0.197 C 
ATOM     10  C   UNL     1      -0.251  -2.365  -3.392  1.00  0.00     0.081 C 
ATOM     11  C   UNL     1      -1.265  -3.722  -1.732  1.00  0.00     0.065 C 
ATOM     12  C   UNL     1      -0.843  -3.603  -4.104  1.00  0.00     0.008 C 
ATOM     13  C   UNL     1      -1.590  -4.425  -3.047  1.00  0.00     0.011 C 
BRANCH   9  14
ATOM     14  N   UNL     1      -0.509  -1.488  -0.923  1.00  0.00    -0.330 N 
ATOM     15  H   UNL     1      -1.292  -1.062  -0.427  1.00  0.00     0.347 HD
ATOM     16  H   UNL     1       0.019  -2.243  -0.485  1.00  0.00     0.347 HD
BRANCH  14  17
ATOM     17  C   UNL     1       0.515  -0.441  -1.041  1.00  0.00     0.176 C 
ATOM     18  C   UNL     1      -0.035   0.944  -0.674  1.00  0.00     0.075 C 
ATOM     19  C   UNL     1       1.637  -0.672  -0.000  1.00  0.00     0.075 C 
ENDBRANCH  14  17
ENDBRANCH   9  14
BRANCH  11  20
ATOM     20  C   UNL     1      -2.114  -4.156  -0.520  1.00  0.00     0.039 C 
BRANCH  20  21
ATOM     21  C   UNL     1      -1.727  -5.436   0.242  1.00  0.00     0.161 C 
BRANCH  21  22
ATOM     22  O   UNL     1      -0.756  -5.285   1.282  1.00  0.00    -0.378 OA
BRANCH  22  23
ATOM     23  C   UNL     1       0.642  -5.333   0.966  1.00  0.00     0.122 C 
ATOM     24  C   UNL     1       1.158  -3.968   0.534  1.00  0.00     0.060 C 
ATOM     25  C   UNL     1       1.073  -6.532   0.124  1.00  0.00     0.060 C 
ATOM     26  C   UNL     1       2.107  -3.939  -0.664  1.00  0.00     0.163 C 
ATOM     27  C   UNL     1       2.355  -6.260  -0.627  1.00  0.00     0.163 C 
ATOM     28  O   UNL     1       2.143  -5.121  -1.441  1.00  0.00    -0.381 OA
ENDBRANCH  22  23
ENDBRANCH  21  22
ENDBRANCH  20  21
ENDBRANCH  11  20
ENDBRANCH   7   9
ENDBRANCH   6   7
ENDBRANCH   5   6
ENDBRANCH   4   5
ENDBRANCH   3   4
ENDBRANCH   2   3
ENDBRANCH   1   2
BRANCH   1  29
ATOM     29  O   UNL     1      -5.414  -3.035  -1.441  1.00  0.00    -0.377 OA
BRANCH  29  30
ATOM     30  C   UNL     1      -6.421  -3.847  -0.867  1.00  0.00     0.188 C 
BRANCH  30  31
ATOM     31  C   UNL     1      -7.335  -3.125   0.130  1.00  0.00     0.188 C 
BRANCH  31  32
ATOM     32  O   UNL     1      -6.603  -2.504   1.177  1.00  0.00    -0.376 OA
BRANCH  32  33
ATOM     33  C   UNL     1      -6.456  -3.160   2.424  1.00  0.00     0.202 C 
BRANCH  33  34
ATOM     34  C   UNL     1      -5.768  -4.534   2.525  1.00  0.00     0.261 C 
BRANCH  34  35
ATOM     35  O   UNL     1      -6.126  -5.541   1.575  1.00  0.00    -0.460 OA
BRANCH  35  36
ATOM     36  C   UNL     1      -7.388  -6.027   1.605  1.00  0.00     0.338 C 
ATOM     37  O   UNL     1      -8.280  -5.691   2.349  1.00  0.00    -0.246 OA
BRANCH  36  38
ATOM     38  C   UNL     1      -7.536  -6.913   0.426  1.00  0.00     0.060 A 
ATOM     39  C   UNL     1      -8.446  -6.563  -0.581  1.00  0.00     0.016 A 
ATOM     40  C   UNL     1      -6.773  -8.077   0.317  1.00  0.00     0.016 A 
ATOM     41  C   UNL     1      -8.620  -7.393  -1.689  1.00  0.00     0.010 A 
ATOM     42  C   UNL     1      -6.972  -8.925  -0.775  1.00  0.00     0.010 A 
ATOM     43  C   UNL     1      -7.922  -8.603  -1.762  1.00  0.00    -0.014 A 
BRANCH  43  44
ATOM     44  C   UNL     1      -8.346  -9.653  -2.718  1.00  0.00     0.031 A 
ATOM     45  C   UNL     1      -9.280 -10.716  -2.212  1.00  0.00     0.074 A 
ATOM     46  C   UNL     1      -7.875  -9.699  -3.975  1.00  0.00     0.049 A 
ATOM     47  N   UNL     1      -9.669 -11.822  -2.785  1.00  0.00    -0.248 NA
ATOM     48  C   UNL     1      -9.842 -10.502  -0.867  1.00  0.00     0.031 C 
ATOM     49  C   UNL     1      -6.993  -8.707  -4.585  1.00  0.00     0.029 A 
ATOM     50  N   UNL     1      -8.042 -10.652  -4.949  1.00  0.00    -0.354 N 
ATOM     51  C   UNL     1     -10.477 -12.461  -1.853  1.00  0.00     0.074 A 
ATOM     52  C   UNL     1     -10.531 -11.617  -0.681  1.00  0.00     0.031 C 
ATOM     53  C   UNL     1      -6.652  -9.130  -5.815  1.00  0.00     0.029 A 
ATOM     54  C   UNL     1      -7.257 -10.439  -6.058  1.00  0.00     0.049 A 
ATOM     55  H   UNL     1      -8.662 -11.412  -4.862  1.00  0.00     0.167 HD
ATOM     56  C   UNL     1     -11.113 -13.650  -1.962  1.00  0.00     0.034 A 
ATOM     57  C   UNL     1      -7.019 -11.235  -7.121  1.00  0.00     0.034 A 
ATOM     58  C   UNL     1     -11.052 -14.483  -3.130  1.00  0.00     0.049 A 
ATOM     59  C   UNL     1      -7.703 -12.576  -7.206  1.00  0.00     0.074 A 
ATOM     60  C   UNL     1     -11.691 -15.687  -3.361  1.00  0.00     0.029 A 
ATOM     61  N   UNL     1     -10.287 -14.210  -4.253  1.00  0.00    -0.354 N 
ATOM     62  N   UNL     1      -8.533 -13.134  -6.358  1.00  0.00    -0.248 NA
ATOM     63  C   UNL     1      -7.440 -13.386  -8.405  1.00  0.00     0.031 C 
ATOM     64  C   UNL     1     -11.275 -16.165  -4.606  1.00  0.00     0.029 A 
ATOM     65  C   UNL     1     -10.424 -15.230  -5.176  1.00  0.00     0.049 A 
ATOM     66  H   UNL     1      -9.729 -13.408  -4.376  1.00  0.00     0.167 HD
ATOM     67  C   UNL     1      -8.930 -14.333  -6.941  1.00  0.00     0.074 A 
ATOM     68  C   UNL     1      -8.246 -14.423  -8.215  1.00  0.00     0.031 C 
ATOM     69  C   UNL     1      -9.783 -15.274  -6.465  1.00  0.00     0.034 A 
BRANCH  56  70
ATOM     70  C   UNL     1     -11.909 -14.127  -0.776  1.00  0.00     0.023 A 
ATOM     71  C   UNL     1     -13.105 -13.475  -0.416  1.00  0.00     0.012 A 
ATOM     72  C   UNL     1     -11.479 -15.243  -0.032  1.00  0.00     0.148 A 
ATOM     73  C   UNL     1     -13.839 -13.900   0.691  1.00  0.00     0.002 A 
ATOM     74  C   UNL     1     -12.242 -15.693   1.037  1.00  0.00     0.091 A 
ATOM     75  F   UNL     1     -10.325 -15.834  -0.373  1.00  0.00    -0.205 F 
ATOM     76  C   UNL     1     -13.413 -15.014   1.410  1.00  0.00     0.022 A 
BRANCH  74  77
ATOM     77  S   UNL     1     -11.821 -17.167   1.971  1.00  0.00     0.127 S 
ATOM     78  O   UNL     1     -11.414 -16.597   3.255  1.00  0.00    -0.237 OA
ATOM     79  O   UNL     1     -13.095 -17.886   2.000  1.00  0.00    -0.237 OA
ATOM     80  O   UNL     1     -10.765 -17.832   1.220  1.00  0.00    -0.744 OA
ENDBRANCH  74  77
ENDBRANCH  56  70
BRANCH  57  81
ATOM     81  C   UNL     1      -6.089 -10.781  -8.193  1.00  0.00     0.023 A 
ATOM     82  C   UNL     1      -6.596 -10.457  -9.466  1.00  0.00     0.012 A 
ATOM     83  C   UNL     1      -4.708 -10.644  -7.948  1.00  0.00     0.148 A 
ATOM     84  C   UNL     1      -5.742 -10.030 -10.484  1.00  0.00     0.002 A 
ATOM     85  C   UNL     1      -3.871 -10.165  -8.949  1.00  0.00     0.091 A 
ATOM     86  F   UNL     1      -4.245 -10.969  -6.733  1.00  0.00    -0.205 F 
ATOM     87  C   UNL     1      -4.383  -9.874 -10.223  1.00  0.00     0.022 A 
BRANCH  85  88
ATOM     88  S   UNL     1      -2.132  -9.816  -8.672  1.00  0.00     0.127 S 
ATOM     89  O   UNL     1      -1.487 -10.783  -9.556  1.00  0.00    -0.237 OA
ATOM     90  O   UNL     1      -2.036  -8.422  -9.107  1.00  0.00    -0.237 OA
ATOM     91  O   UNL     1      -1.908 -10.022  -7.247  1.00  0.00    -0.744 OA
ENDBRANCH  85  88
ENDBRANCH  57  81
BRANCH  69  92
ATOM     92  C   UNL     1     -10.109 -16.453  -7.345  1.00  0.00     0.023 A 
ATOM     93  C   UNL     1      -9.170 -17.483  -7.537  1.00  0.00     0.012 A 
ATOM     94  C   UNL     1     -11.409 -16.590  -7.875  1.00  0.00     0.148 A 
ATOM     95  C   UNL     1      -9.515 -18.626  -8.259  1.00  0.00     0.002 A 
ATOM     96  C   UNL     1     -11.761 -17.753  -8.546  1.00  0.00     0.091 A 
ATOM     97  F   UNL     1     -12.281 -15.588  -7.692  1.00  0.00    -0.205 F 
ATOM     98  C   UNL     1     -10.812 -18.768  -8.749  1.00  0.00     0.022 A 
BRANCH  96  99
ATOM     99  S   UNL     1     -13.436 -18.069  -9.113  1.00  0.00     0.127 S 
ATOM    100  O   UNL     1     -13.265 -18.053 -10.565  1.00  0.00    -0.237 OA
ATOM    101  O   UNL     1     -13.709 -19.389  -8.545  1.00  0.00    -0.237 OA
ATOM    102  O   UNL     1     -14.257 -16.994  -8.574  1.00  0.00    -0.744 OA
ENDBRANCH  96  99
ENDBRANCH  69  92
ENDBRANCH  43  44
ENDBRANCH  36  38
ENDBRANCH  35  36
ENDBRANCH  34  35
ENDBRANCH  33  34
ENDBRANCH  32  33
ENDBRANCH  31  32
ENDBRANCH  30  31
ENDBRANCH  29  30
ENDBRANCH   1  29
TORSDOF 29
