REMARK SMILES CC(C)C[C@H](CNC(=O)N[C@@H](C)C1CCCCC1)C(=O)OCCOCCOCCOCCOC(=O)c1ccc(-c2c3nc(c(-c4cccc(S(=O)(=O)[O-])c4F)c4ccc([nH]4)c(-c4cccc(S(=O)(=O)[O-])c4F)c4nc(c(-c5cccc(S(=O)(=O)[O-])c5F)c5ccc2[nH]5)C=C4)C=C3)cc1
REMARK SMILES IDX 26 1 25 2 24 3 23 4 22 5 21 6 19 7 20 8 5 9 4 10 2 11 1 12
REMARK SMILES IDX 3 13 6 14 7 15 8 16 9 18 10 19 11 21 12 22 13 23 14 24 18 25
REMARK SMILES IDX 15 26 17 27 16 28 27 29 28 30 29 31 30 32 31 33 32 34 33 35
REMARK SMILES IDX 34 36 35 37 36 38 37 39 98 40 38 41 97 42 39 43 40 44 41 45
REMARK SMILES IDX 91 46 42 47 96 48 90 49 92 50 43 51 95 52 89 53 88 54 44 56
REMARK SMILES IDX 76 57 56 58 75 59 57 60 60 61 74 62 93 63 58 64 59 65 73 67
REMARK SMILES IDX 94 68 61 69 45 70 46 71 54 72 47 73 49 74 55 75 48 76 50 77
REMARK SMILES IDX 51 78 52 79 53 80 77 81 78 82 86 83 79 84 81 85 87 86 80 87
REMARK SMILES IDX 82 88 83 89 84 90 85 91 62 92 63 93 71 94 64 95 66 96 72 97
REMARK SMILES IDX 65 98 67 99 68 100 69 101 70 102
REMARK H PARENT 7 17 10 20 92 55 60 66
REMARK Flexibility Score: inf
ROOT
ATOM      1  C   UNL     1      -3.554  -0.437   0.918  1.00  0.00     0.188 C 
ENDROOT
BRANCH   1   2
ATOM      2  C   UNL     1      -4.287   0.706   0.202  1.00  0.00     0.188 C 
BRANCH   2   3
ATOM      3  O   UNL     1      -5.476   0.533  -0.559  1.00  0.00    -0.376 OA
BRANCH   3   4
ATOM      4  C   UNL     1      -5.952  -0.717  -1.029  1.00  0.00     0.202 C 
BRANCH   4   5
ATOM      5  C   UNL     1      -5.182  -1.552  -2.068  1.00  0.00     0.261 C 
BRANCH   5   6
ATOM      6  O   UNL     1      -3.812  -1.874  -1.792  1.00  0.00    -0.463 OA
BRANCH   6   7
ATOM      7  C   UNL     1      -2.932  -0.904  -2.117  1.00  0.00     0.310 C 
ATOM      8  O   UNL     1      -3.266   0.195  -2.550  1.00  0.00    -0.252 OA
BRANCH   7   9
ATOM      9  C   UNL     1      -1.468  -1.315  -2.002  1.00  0.00     0.119 C 
BRANCH   9  10
ATOM     10  C   UNL     1      -0.953  -1.832  -3.365  1.00  0.00     0.020 C 
BRANCH  10  11
ATOM     11  C   UNL     1      -1.697  -1.361  -4.635  1.00  0.00    -0.017 C 
ATOM     12  C   UNL     1      -1.565   0.138  -4.924  1.00  0.00     0.007 C 
ATOM     13  C   UNL     1      -1.199  -2.154  -5.843  1.00  0.00     0.007 C 
ENDBRANCH  10  11
ENDBRANCH   9  10
BRANCH   9  14
ATOM     14  C   UNL     1      -1.162  -2.271  -0.818  1.00  0.00     0.133 C 
BRANCH  14  15
ATOM     15  N   UNL     1       0.026  -3.102  -0.968  1.00  0.00    -0.337 N 
ATOM     16  C   UNL     1       1.213  -3.216  -0.374  1.00  0.00     0.315 C 
ATOM     17  H   UNL     1      -0.075  -3.749  -1.703  1.00  0.00     0.165 HD
ATOM     18  O   UNL     1       1.873  -4.232  -0.608  1.00  0.00    -0.249 OA
ATOM     19  N   UNL     1       1.769  -2.320   0.443  1.00  0.00    -0.335 N 
ATOM     20  H   UNL     1       2.562  -2.684   0.899  1.00  0.00     0.165 HD
BRANCH  19  21
ATOM     21  C   UNL     1       1.504  -0.941   0.835  1.00  0.00     0.083 C 
ATOM     22  C   UNL     1       1.832  -0.811   2.330  1.00  0.00     0.031 C 
BRANCH  21  23
ATOM     23  C   UNL     1       2.334   0.077  -0.007  1.00  0.00     0.011 C 
ATOM     24  C   UNL     1       2.337  -0.273  -1.507  1.00  0.00     0.006 C 
ATOM     25  C   UNL     1       1.799   1.509   0.210  1.00  0.00     0.006 C 
ATOM     26  C   UNL     1       3.025   0.780  -2.368  1.00  0.00     0.000 C 
ATOM     27  C   UNL     1       2.484   2.546  -0.676  1.00  0.00     0.000 C 
ATOM     28  C   UNL     1       2.420   2.158  -2.147  1.00  0.00     0.000 C 
ENDBRANCH  21  23
ENDBRANCH  19  21
ENDBRANCH  14  15
ENDBRANCH   9  14
ENDBRANCH   7   9
ENDBRANCH   6   7
ENDBRANCH   5   6
ENDBRANCH   4   5
ENDBRANCH   3   4
ENDBRANCH   2   3
ENDBRANCH   1   2
BRANCH   1  29
ATOM     29  O   UNL     1      -4.161  -1.704   0.820  1.00  0.00    -0.377 OA
BRANCH  29  30
ATOM     30  C   UNL     1      -5.054  -2.086   1.860  1.00  0.00     0.188 C 
BRANCH  30  31
ATOM     31  C   UNL     1      -5.889  -0.979   2.536  1.00  0.00     0.188 C 
BRANCH  31  32
ATOM     32  O   UNL     1      -5.115   0.124   2.990  1.00  0.00    -0.376 OA
BRANCH  32  33
ATOM     33  C   UNL     1      -4.697   0.153   4.346  1.00  0.00     0.202 C 
BRANCH  33  34
ATOM     34  C   UNL     1      -3.728  -0.937   4.831  1.00  0.00     0.261 C 
BRANCH  34  35
ATOM     35  O   UNL     1      -4.161  -2.301   4.710  1.00  0.00    -0.460 OA
BRANCH  35  36
ATOM     36  C   UNL     1      -5.337  -2.654   5.276  1.00  0.00     0.338 C 
ATOM     37  O   UNL     1      -6.058  -1.955   5.954  1.00  0.00    -0.246 OA
BRANCH  36  38
ATOM     38  C   UNL     1      -5.710  -3.985   4.738  1.00  0.00     0.060 A 
ATOM     39  C   UNL     1      -6.928  -4.121   4.057  1.00  0.00     0.016 A 
ATOM     40  C   UNL     1      -4.865  -5.085   4.899  1.00  0.00     0.016 A 
ATOM     41  C   UNL     1      -7.326  -5.369   3.576  1.00  0.00     0.010 A 
ATOM     42  C   UNL     1      -5.278  -6.340   4.441  1.00  0.00     0.010 A 
ATOM     43  C   UNL     1      -6.528  -6.494   3.815  1.00  0.00    -0.014 A 
BRANCH  43  44
ATOM     44  C   UNL     1      -7.098  -7.849   3.616  1.00  0.00     0.031 A 
ATOM     45  C   UNL     1      -7.652  -8.568   4.818  1.00  0.00     0.074 A 
ATOM     46  C   UNL     1      -7.133  -8.431   2.405  1.00  0.00     0.049 A 
ATOM     47  N   UNL     1      -8.158  -9.768   4.907  1.00  0.00    -0.248 NA
ATOM     48  C   UNL     1      -7.627  -7.828   6.092  1.00  0.00     0.031 C 
ATOM     49  C   UNL     1      -6.649  -7.833   1.163  1.00  0.00     0.029 A 
ATOM     50  N   UNL     1      -7.578  -9.675   2.030  1.00  0.00    -0.354 N 
ATOM     51  C   UNL     1      -8.480  -9.943   6.248  1.00  0.00     0.074 A 
ATOM     52  C   UNL     1      -8.104  -8.729   6.938  1.00  0.00     0.031 C 
ATOM     53  C   UNL     1      -6.793  -8.725   0.166  1.00  0.00     0.029 A 
ATOM     54  C   UNL     1      -7.350  -9.965   0.706  1.00  0.00     0.049 A 
ATOM     55  H   UNL     1      -8.019 -10.300   2.651  1.00  0.00     0.167 HD
ATOM     56  C   UNL     1      -9.046 -11.013   6.853  1.00  0.00     0.034 A 
ATOM     57  C   UNL     1      -7.540 -11.110   0.019  1.00  0.00     0.034 A 
ATOM     58  C   UNL     1      -9.427 -12.216   6.166  1.00  0.00     0.049 A 
ATOM     59  C   UNL     1      -8.132 -12.305   0.724  1.00  0.00     0.074 A 
ATOM     60  C   UNL     1     -10.047 -13.340   6.681  1.00  0.00     0.029 A 
ATOM     61  N   UNL     1      -9.204 -12.463   4.820  1.00  0.00    -0.354 N 
ATOM     62  N   UNL     1      -8.532 -12.418   1.968  1.00  0.00    -0.248 NA
ATOM     63  C   UNL     1      -8.326 -13.522  -0.078  1.00  0.00     0.031 C 
ATOM     64  C   UNL     1     -10.160 -14.284   5.655  1.00  0.00     0.029 A 
ATOM     65  C   UNL     1      -9.656 -13.729   4.490  1.00  0.00     0.049 A 
ATOM     66  H   UNL     1      -8.786 -11.831   4.192  1.00  0.00     0.167 HD
ATOM     67  C   UNL     1      -9.059 -13.701   2.086  1.00  0.00     0.074 A 
ATOM     68  C   UNL     1      -8.946 -14.319   0.782  1.00  0.00     0.031 C 
ATOM     69  C   UNL     1      -9.582 -14.315   3.177  1.00  0.00     0.034 A 
BRANCH  56  70
ATOM     70  C   UNL     1      -9.290 -10.929   8.337  1.00  0.00     0.023 A 
ATOM     71  C   UNL     1     -10.296 -10.079   8.839  1.00  0.00     0.012 A 
ATOM     72  C   UNL     1      -8.550 -11.728   9.230  1.00  0.00     0.148 A 
ATOM     73  C   UNL     1     -10.539 -10.000  10.210  1.00  0.00     0.002 A 
ATOM     74  C   UNL     1      -8.831 -11.680  10.590  1.00  0.00     0.091 A 
ATOM     75  F   UNL     1      -7.581 -12.511   8.735  1.00  0.00    -0.205 F 
ATOM     76  C   UNL     1      -9.815 -10.807  11.083  1.00  0.00     0.022 A 
BRANCH  74  77
ATOM     77  S   UNL     1      -8.011 -12.739  11.786  1.00  0.00     0.127 S 
ATOM     78  O   UNL     1      -7.221 -11.769  12.545  1.00  0.00    -0.237 OA
ATOM     79  O   UNL     1      -9.143 -13.308  12.517  1.00  0.00    -0.237 OA
ATOM     80  O   UNL     1      -7.239 -13.700  11.012  1.00  0.00    -0.744 OA
ENDBRANCH  74  77
ENDBRANCH  56  70
BRANCH  57  81
ATOM     81  C   UNL     1      -7.180 -11.185  -1.426  1.00  0.00     0.023 A 
ATOM     82  C   UNL     1      -8.193 -11.331  -2.393  1.00  0.00     0.012 A 
ATOM     83  C   UNL     1      -5.837 -11.119  -1.845  1.00  0.00     0.148 A 
ATOM     84  C   UNL     1      -7.874 -11.444  -3.747  1.00  0.00     0.002 A 
ATOM     85  C   UNL     1      -5.530 -11.174  -3.199  1.00  0.00     0.091 A 
ATOM     86  F   UNL     1      -4.886 -10.997  -0.908  1.00  0.00    -0.205 F 
ATOM     87  C   UNL     1      -6.545 -11.356  -4.151  1.00  0.00     0.022 A 
BRANCH  85  88
ATOM     88  S   UNL     1      -3.861 -10.944  -3.821  1.00  0.00     0.127 S 
ATOM     89  O   UNL     1      -3.564 -12.264  -4.373  1.00  0.00    -0.237 OA
ATOM     90  O   UNL     1      -4.057  -9.889  -4.816  1.00  0.00    -0.237 OA
ATOM     91  O   UNL     1      -3.062 -10.548  -2.671  1.00  0.00    -0.744 OA
ENDBRANCH  85  88
ENDBRANCH  57  81
BRANCH  69  92
ATOM     92  C   UNL     1     -10.122 -15.713   3.007  1.00  0.00     0.023 A 
ATOM     93  C   UNL     1      -9.241 -16.794   2.803  1.00  0.00     0.012 A 
ATOM     94  C   UNL     1     -11.505 -15.963   3.127  1.00  0.00     0.148 A 
ATOM     95  C   UNL     1      -9.731 -18.095   2.683  1.00  0.00     0.002 A 
ATOM     96  C   UNL     1     -11.979 -17.267   3.061  1.00  0.00     0.091 A 
ATOM     97  F   UNL     1     -12.329 -14.921   3.308  1.00  0.00    -0.205 F 
ATOM     98  C   UNL     1     -11.096 -18.333   2.824  1.00  0.00     0.022 A 
BRANCH  96  99
ATOM     99  S   UNL     1     -13.707 -17.681   3.332  1.00  0.00     0.127 S 
ATOM    100  O   UNL     1     -14.127 -18.093   1.993  1.00  0.00    -0.237 OA
ATOM    101  O   UNL     1     -13.615 -18.770   4.304  1.00  0.00    -0.237 OA
ATOM    102  O   UNL     1     -14.338 -16.469   3.837  1.00  0.00    -0.744 OA
ENDBRANCH  96  99
ENDBRANCH  69  92
ENDBRANCH  43  44
ENDBRANCH  36  38
ENDBRANCH  35  36
ENDBRANCH  34  35
ENDBRANCH  33  34
ENDBRANCH  32  33
ENDBRANCH  31  32
ENDBRANCH  30  31
ENDBRANCH  29  30
ENDBRANCH   1  29
TORSDOF 29
