REMARK SMILES CSc1ccc(/C=C2\C(C)=C(CC(=O)OCCOCCOCCOCCOC(=O)c3ccc(-c4c5nc(c(-c6cccc(S(=O)(=O)[O-])c6F)c6ccc([nH]6)c(-c6cccc(S(=O)(=O)[O-])c6F)c6nc(c(-c7cccc(S(=O)(=O)[O-])c7F)c7ccc4[nH]7)C=C6)C=C5)cc3)c3cc(F)ccc32)cc1
REMARK SMILES IDX 21 1 20 2 19 3 18 4 17 5 16 6 15 7 13 8 14 9 12 10 11 11
REMARK SMILES IDX 7 12 8 13 9 14 99 15 10 16 93 17 98 18 94 19 97 20 95 21
REMARK SMILES IDX 96 22 6 23 3 24 4 25 101 26 5 27 100 28 2 29 1 30 22 31
REMARK SMILES IDX 23 32 24 33 25 34 26 35 27 36 28 37 29 38 30 39 31 40 92 41
REMARK SMILES IDX 32 42 91 43 33 44 34 45 35 46 85 47 36 48 90 49 84 50 86 51
REMARK SMILES IDX 37 52 89 53 83 54 82 55 38 57 70 58 50 59 69 60 51 61 54 62
REMARK SMILES IDX 68 63 87 64 52 65 53 66 67 68 88 69 55 70 39 71 40 72 48 73
REMARK SMILES IDX 41 74 43 75 49 76 42 77 44 78 45 79 46 80 47 81 71 82 72 83
REMARK SMILES IDX 80 84 73 85 75 86 81 87 74 88 76 89 77 90 78 91 79 92 56 93
REMARK SMILES IDX 57 94 65 95 58 96 60 97 66 98 59 99 61 100 62 101 63 102
REMARK SMILES IDX 64 103
REMARK H PARENT 86 56 54 67
REMARK Flexibility Score: inf
ROOT
ATOM      1  O   UNL     1       0.536 -11.424   0.061  1.00  0.00    -0.377 OA
ENDROOT
BRANCH   1   2
ATOM      2  C   UNL     1      -0.220 -12.523  -0.407  1.00  0.00     0.188 C 
BRANCH   2   3
ATOM      3  C   UNL     1       0.541 -13.508  -1.286  1.00  0.00     0.188 C 
BRANCH   3   4
ATOM      4  O   UNL     1       1.677 -14.124  -0.708  1.00  0.00    -0.376 OA
BRANCH   4   5
ATOM      5  C   UNL     1       2.858 -13.337  -0.536  1.00  0.00     0.202 C 
BRANCH   5   6
ATOM      6  C   UNL     1       3.263 -12.322  -1.622  1.00  0.00     0.261 C 
BRANCH   6   7
ATOM      7  O   UNL     1       2.520 -11.077  -1.567  1.00  0.00    -0.463 OA
BRANCH   7   8
ATOM      8  C   UNL     1       1.837 -10.729  -2.684  1.00  0.00     0.310 C 
ATOM      9  O   UNL     1       1.854 -11.385  -3.727  1.00  0.00    -0.252 OA
BRANCH   8  10
ATOM     10  C   UNL     1       1.080  -9.405  -2.628  1.00  0.00     0.159 C 
BRANCH  10  11
ATOM     11  C   UNL     1       0.437  -8.859  -1.347  1.00  0.00    -0.025 C 
ATOM     12  C   UNL     1       0.271  -5.638  -2.538  1.00  0.00     0.017 C 
ATOM     13  C   UNL     1      -0.087  -6.754  -1.882  1.00  0.00    -0.014 C 
ATOM     14  C   UNL     1       0.718  -7.584  -0.942  1.00  0.00    -0.039 C 
ATOM     15  C   UNL     1      -1.390  -7.457  -1.943  1.00  0.00    -0.010 A 
ATOM     16  C   UNL     1       0.412  -7.173   0.514  1.00  0.00     0.045 C 
ATOM     17  C   UNL     1      -1.062  -8.741  -1.466  1.00  0.00    -0.011 A 
ATOM     18  C   UNL     1      -2.656  -6.911  -1.728  1.00  0.00     0.012 A 
ATOM     19  C   UNL     1      -1.980  -9.456  -0.715  1.00  0.00     0.048 A 
ATOM     20  C   UNL     1      -3.575  -7.647  -0.965  1.00  0.00     0.040 A 
ATOM     21  C   UNL     1      -3.220  -8.896  -0.450  1.00  0.00     0.123 A 
ATOM     22  F   UNL     1      -4.032  -9.508   0.425  1.00  0.00    -0.207 F 
BRANCH  12  23
ATOM     23  C   UNL     1       1.345  -4.670  -2.153  1.00  0.00    -0.025 A 
ATOM     24  C   UNL     1       1.316  -2.339  -0.648  1.00  0.00     0.007 A 
ATOM     25  C   UNL     1       1.692  -3.542  -0.063  1.00  0.00     0.015 A 
ATOM     26  C   UNL     1       1.278  -2.261  -2.043  1.00  0.00     0.015 A 
ATOM     27  C   UNL     1       1.828  -4.681  -0.847  1.00  0.00     0.009 A 
ATOM     28  C   UNL     1       1.304  -3.436  -2.805  1.00  0.00     0.009 A 
BRANCH  24  29
ATOM     29  S   UNL     1       0.689  -1.081   0.449  1.00  0.00    -0.130 SA
ATOM     30  C   UNL     1       1.304   0.427  -0.312  1.00  0.00     0.091 C 
ENDBRANCH  24  29
ENDBRANCH  12  23
ENDBRANCH  10  11
ENDBRANCH   8  10
ENDBRANCH   7   8
ENDBRANCH   6   7
ENDBRANCH   5   6
ENDBRANCH   4   5
ENDBRANCH   3   4
ENDBRANCH   2   3
ENDBRANCH   1   2
BRANCH   1  31
ATOM     31  C   UNL     1       0.973 -11.331   1.414  1.00  0.00     0.188 C 
BRANCH  31  32
ATOM     32  C   UNL     1       0.610 -12.459   2.386  1.00  0.00     0.188 C 
BRANCH  32  33
ATOM     33  O   UNL     1      -0.765 -12.656   2.732  1.00  0.00    -0.376 OA
BRANCH  33  34
ATOM     34  C   UNL     1      -1.669 -11.568   2.582  1.00  0.00     0.202 C 
BRANCH  34  35
ATOM     35  C   UNL     1      -1.770 -10.592   3.751  1.00  0.00     0.261 C 
BRANCH  35  36
ATOM     36  O   UNL     1      -0.512  -9.973   4.043  1.00  0.00    -0.460 OA
BRANCH  36  37
ATOM     37  C   UNL     1       0.157 -10.547   5.063  1.00  0.00     0.338 C 
ATOM     38  O   UNL     1      -0.217 -11.483   5.765  1.00  0.00    -0.246 OA
BRANCH  37  39
ATOM     39  C   UNL     1       1.509  -9.987   5.150  1.00  0.00     0.060 A 
ATOM     40  C   UNL     1       2.572 -10.894   5.240  1.00  0.00     0.016 A 
ATOM     41  C   UNL     1       1.726  -8.610   5.246  1.00  0.00     0.016 A 
ATOM     42  C   UNL     1       3.853 -10.431   5.494  1.00  0.00     0.010 A 
ATOM     43  C   UNL     1       3.013  -8.146   5.517  1.00  0.00     0.010 A 
ATOM     44  C   UNL     1       4.064  -9.063   5.694  1.00  0.00    -0.014 A 
BRANCH  44  45
ATOM     45  C   UNL     1       5.341  -8.639   6.300  1.00  0.00     0.031 A 
ATOM     46  C   UNL     1       5.376  -8.368   7.777  1.00  0.00     0.074 A 
ATOM     47  C   UNL     1       6.454  -8.571   5.551  1.00  0.00     0.049 A 
ATOM     48  N   UNL     1       6.379  -8.001   8.527  1.00  0.00    -0.248 NA
ATOM     49  C   UNL     1       4.107  -8.535   8.510  1.00  0.00     0.031 C 
ATOM     50  C   UNL     1       6.523  -8.852   4.118  1.00  0.00     0.029 A 
ATOM     51  N   UNL     1       7.735  -8.233   5.895  1.00  0.00    -0.354 N 
ATOM     52  C   UNL     1       5.860  -7.860   9.809  1.00  0.00     0.074 A 
ATOM     53  C   UNL     1       4.451  -8.171   9.736  1.00  0.00     0.031 C 
ATOM     54  C   UNL     1       7.783  -8.651   3.697  1.00  0.00     0.029 A 
ATOM     55  C   UNL     1       8.594  -8.196   4.824  1.00  0.00     0.049 A 
ATOM     56  H   UNL     1       8.014  -8.035   6.818  1.00  0.00     0.167 HD
ATOM     57  C   UNL     1       6.506  -7.510  10.944  1.00  0.00     0.034 A 
ATOM     58  C   UNL     1       9.882  -7.808   4.763  1.00  0.00     0.034 A 
ATOM     59  C   UNL     1       7.911  -7.213  10.997  1.00  0.00     0.049 A 
ATOM     60  C   UNL     1      10.568  -7.385   6.035  1.00  0.00     0.074 A 
ATOM     61  C   UNL     1       8.680  -6.879  12.096  1.00  0.00     0.029 A 
ATOM     62  N   UNL     1       8.755  -7.198   9.896  1.00  0.00    -0.354 N 
ATOM     63  N   UNL     1      10.088  -7.335   7.255  1.00  0.00    -0.248 NA
ATOM     64  C   UNL     1      11.980  -6.997   5.928  1.00  0.00     0.031 C 
ATOM     65  C   UNL     1       9.979  -6.614  11.652  1.00  0.00     0.029 A 
ATOM     66  C   UNL     1      10.034  -6.841  10.285  1.00  0.00     0.049 A 
ATOM     67  H   UNL     1       8.484  -7.411   8.974  1.00  0.00     0.167 HD
ATOM     68  C   UNL     1      11.148  -6.950   8.067  1.00  0.00     0.074 A 
ATOM     69  C   UNL     1      12.299  -6.797   7.199  1.00  0.00     0.031 C 
ATOM     70  C   UNL     1      11.171  -6.736   9.406  1.00  0.00     0.034 A 
BRANCH  57  71
ATOM     71  C   UNL     1       5.698  -7.417  12.213  1.00  0.00     0.023 A 
ATOM     72  C   UNL     1       5.192  -8.584  12.820  1.00  0.00     0.012 A 
ATOM     73  C   UNL     1       5.473  -6.168  12.825  1.00  0.00     0.148 A 
ATOM     74  C   UNL     1       4.444  -8.507  13.996  1.00  0.00     0.002 A 
ATOM     75  C   UNL     1       4.771  -6.103  14.022  1.00  0.00     0.091 A 
ATOM     76  F   UNL     1       5.940  -5.067  12.219  1.00  0.00    -0.205 F 
ATOM     77  C   UNL     1       4.244  -7.269  14.601  1.00  0.00     0.022 A 
BRANCH  75  78
ATOM     78  S   UNL     1       4.528  -4.568  14.921  1.00  0.00     0.127 S 
ATOM     79  O   UNL     1       3.083  -4.382  14.803  1.00  0.00    -0.237 OA
ATOM     80  O   UNL     1       4.990  -4.924  16.263  1.00  0.00    -0.237 OA
ATOM     81  O   UNL     1       5.341  -3.568  14.241  1.00  0.00    -0.744 OA
ENDBRANCH  75  78
ENDBRANCH  57  71
BRANCH  58  82
ATOM     82  C   UNL     1      10.601  -7.814   3.459  1.00  0.00     0.023 A 
ATOM     83  C   UNL     1      11.655  -8.721   3.241  1.00  0.00     0.012 A 
ATOM     84  C   UNL     1      10.229  -6.931   2.426  1.00  0.00     0.148 A 
ATOM     85  C   UNL     1      12.348  -8.726   2.030  1.00  0.00     0.002 A 
ATOM     86  C   UNL     1      10.883  -6.981   1.203  1.00  0.00     0.091 A 
ATOM     87  F   UNL     1       9.229  -6.069   2.659  1.00  0.00    -0.205 F 
ATOM     88  C   UNL     1      11.956  -7.864   1.008  1.00  0.00     0.022 A 
BRANCH  86  89
ATOM     89  S   UNL     1      10.365  -5.999  -0.208  1.00  0.00     0.127 S 
ATOM     90  O   UNL     1      11.495  -5.088  -0.370  1.00  0.00    -0.237 OA
ATOM     91  O   UNL     1      10.239  -7.018  -1.251  1.00  0.00    -0.237 OA
ATOM     92  O   UNL     1       9.107  -5.379   0.182  1.00  0.00    -0.744 OA
ENDBRANCH  86  89
ENDBRANCH  58  82
BRANCH  70  93
ATOM     93  C   UNL     1      12.492  -6.368  10.028  1.00  0.00     0.023 A 
ATOM     94  C   UNL     1      13.060  -5.101   9.794  1.00  0.00     0.012 A 
ATOM     95  C   UNL     1      13.136  -7.266  10.903  1.00  0.00     0.148 A 
ATOM     96  C   UNL     1      14.271  -4.748  10.389  1.00  0.00     0.002 A 
ATOM     97  C   UNL     1      14.311  -6.886  11.538  1.00  0.00     0.091 A 
ATOM     98  F   UNL     1      12.586  -8.473  11.100  1.00  0.00    -0.205 F 
ATOM     99  C   UNL     1      14.889  -5.635  11.269  1.00  0.00     0.022 A 
BRANCH  97 100
ATOM    100  S   UNL     1      15.119  -7.917  12.765  1.00  0.00     0.127 S 
ATOM    101  O   UNL     1      16.333  -8.323  12.058  1.00  0.00    -0.237 OA
ATOM    102  O   UNL     1      15.338  -6.976  13.863  1.00  0.00    -0.237 OA
ATOM    103  O   UNL     1      14.185  -8.994  13.066  1.00  0.00    -0.744 OA
ENDBRANCH  97 100
ENDBRANCH  70  93
ENDBRANCH  44  45
ENDBRANCH  37  39
ENDBRANCH  36  37
ENDBRANCH  35  36
ENDBRANCH  34  35
ENDBRANCH  33  34
ENDBRANCH  32  33
ENDBRANCH  31  32
ENDBRANCH   1  31
TORSDOF 26
