REMARK SMILES CC1=C[C@@H]([C@@H]2N=N[C@H](S)N2/N=C/c2ccc(C(=O)OCCOCCOCCOCCOC(=O)c3ccc(-c4c5nc(c(-c6cccc(S(=O)(=O)[O-])c6F)c6ccc([nH]6)c(-c6cccc(S(=O)(=O)[O-])c6F)c6nc(c(-c7cccc(S(=O)(=O)[O-])c7F)c7ccc4[nH]7)C=C6)C=C5)cc3)cc2)N=N1
REMARK SMILES IDX 25 1 24 2 23 3 22 4 21 5 20 6 19 7 17 8 18 9 16 10 13 11
REMARK SMILES IDX 14 12 98 13 15 14 97 15 12 16 11 17 10 18 5 19 6 20 7 21
REMARK SMILES IDX 8 22 4 23 1 24 2 25 3 26 100 27 99 28 9 29 26 31 27 32 28 33
REMARK SMILES IDX 29 34 30 35 31 36 32 37 33 38 34 39 35 40 96 41 36 42 95 43
REMARK SMILES IDX 37 44 38 45 39 46 89 47 40 48 94 49 88 50 90 51 41 52 93 53
REMARK SMILES IDX 87 54 86 55 42 57 74 58 54 59 73 60 55 61 58 62 72 63 91 64
REMARK SMILES IDX 56 65 57 66 71 68 92 69 59 70 43 71 44 72 52 73 45 74 47 75
REMARK SMILES IDX 53 76 46 77 48 78 49 79 50 80 51 81 75 82 76 83 84 84 77 85
REMARK SMILES IDX 79 86 85 87 78 88 80 89 81 90 82 91 83 92 60 93 61 94 69 95
REMARK SMILES IDX 62 96 64 97 70 98 63 99 65 100 66 101 67 102 68 103
REMARK H PARENT 9 30 90 56 58 67
REMARK Flexibility Score: inf
ROOT
ATOM      1  O   UNL     1      -6.716   6.903  -9.429  1.00  0.00    -0.377 OA
ENDROOT
BRANCH   1   2
ATOM      2  C   UNL     1      -5.637   6.066  -9.815  1.00  0.00     0.188 C 
BRANCH   2   3
ATOM      3  C   UNL     1      -6.035   4.734 -10.494  1.00  0.00     0.188 C 
BRANCH   3   4
ATOM      4  O   UNL     1      -7.367   4.225 -10.514  1.00  0.00    -0.376 OA
BRANCH   4   5
ATOM      5  C   UNL     1      -8.355   4.718  -9.627  1.00  0.00     0.202 C 
BRANCH   5   6
ATOM      6  C   UNL     1      -8.204   4.406  -8.134  1.00  0.00     0.261 C 
BRANCH   6   7
ATOM      7  O   UNL     1      -6.856   4.390  -7.654  1.00  0.00    -0.460 OA
BRANCH   7   8
ATOM      8  C   UNL     1      -6.254   3.178  -7.683  1.00  0.00     0.338 C 
ATOM      9  O   UNL     1      -6.752   2.110  -7.990  1.00  0.00    -0.246 OA
BRANCH   8  10
ATOM     10  C   UNL     1      -4.807   3.350  -7.423  1.00  0.00     0.060 A 
ATOM     11  C   UNL     1      -2.071   3.573  -7.007  1.00  0.00    -0.005 A 
ATOM     12  C   UNL     1      -2.540   2.753  -8.034  1.00  0.00     0.010 A 
ATOM     13  C   UNL     1      -2.952   4.311  -6.210  1.00  0.00     0.010 A 
ATOM     14  C   UNL     1      -3.913   2.621  -8.223  1.00  0.00     0.016 A 
ATOM     15  C   UNL     1      -4.327   4.218  -6.435  1.00  0.00     0.016 A 
BRANCH  11  16
ATOM     16  C   UNL     1      -0.628   3.565  -6.729  1.00  0.00     0.141 C 
ATOM     17  N   UNL     1      -0.209   3.473  -5.509  1.00  0.00    -0.180 NA
BRANCH  17  18
ATOM     18  N   UNL     1       1.136   3.360  -5.304  1.00  0.00    -0.233 NA
ATOM     19  C   UNL     1       1.532   2.883  -3.964  1.00  0.00     0.274 C 
ATOM     20  N   UNL     1       2.667   1.937  -4.107  1.00  0.00    -0.161 NA
ATOM     21  N   UNL     1       2.926   1.750  -5.316  1.00  0.00    -0.153 NA
ATOM     22  C   UNL     1       2.040   2.573  -6.163  1.00  0.00     0.298 C 
BRANCH  19  23
ATOM     23  C   UNL     1       1.897   4.046  -3.011  1.00  0.00     0.201 C 
ATOM     24  C   UNL     1       5.341   5.402  -2.919  1.00  0.00     0.068 C 
ATOM     25  C   UNL     1       4.002   4.786  -2.752  1.00  0.00     0.058 C 
ATOM     26  C   UNL     1       2.941   4.971  -3.534  1.00  0.00     0.031 C 
ATOM     27  N   UNL     1       3.748   3.921  -1.717  1.00  0.00    -0.160 NA
ATOM     28  N   UNL     1       2.555   3.504  -1.781  1.00  0.00    -0.177 NA
ENDBRANCH  19  23
BRANCH  22  29
ATOM     29  S   UNL     1       2.953   3.678  -7.301  1.00  0.00    -0.128 SA
ATOM     30  H   UNL     1       3.692   4.562  -6.578  1.00  0.00     0.106 HD
ENDBRANCH  22  29
ENDBRANCH  17  18
ENDBRANCH  11  16
ENDBRANCH   8  10
ENDBRANCH   7   8
ENDBRANCH   6   7
ENDBRANCH   5   6
ENDBRANCH   4   5
ENDBRANCH   3   4
ENDBRANCH   2   3
ENDBRANCH   1   2
BRANCH   1  31
ATOM     31  C   UNL     1      -7.004   7.961 -10.340  1.00  0.00     0.188 C 
BRANCH  31  32
ATOM     32  C   UNL     1      -7.403   7.520 -11.764  1.00  0.00     0.188 C 
BRANCH  32  33
ATOM     33  O   UNL     1      -6.414   6.715 -12.408  1.00  0.00    -0.376 OA
BRANCH  33  34
ATOM     34  C   UNL     1      -5.704   7.269 -13.508  1.00  0.00     0.202 C 
BRANCH  34  35
ATOM     35  C   UNL     1      -4.508   8.110 -13.075  1.00  0.00     0.261 C 
BRANCH  35  36
ATOM     36  O   UNL     1      -4.866   9.161 -12.192  1.00  0.00    -0.460 OA
BRANCH  36  37
ATOM     37  C   UNL     1      -5.772  10.046 -12.655  1.00  0.00     0.338 C 
ATOM     38  O   UNL     1      -6.374  10.011 -13.710  1.00  0.00    -0.246 OA
BRANCH  37  39
ATOM     39  C   UNL     1      -5.855  11.154 -11.704  1.00  0.00     0.060 A 
ATOM     40  C   UNL     1      -6.738  12.176 -12.055  1.00  0.00     0.016 A 
ATOM     41  C   UNL     1      -4.797  11.333 -10.803  1.00  0.00     0.016 A 
ATOM     42  C   UNL     1      -6.362  13.460 -11.761  1.00  0.00     0.010 A 
ATOM     43  C   UNL     1      -4.398  12.614 -10.552  1.00  0.00     0.010 A 
ATOM     44  C   UNL     1      -5.135  13.649 -11.123  1.00  0.00    -0.014 A 
BRANCH  44  45
ATOM     45  C   UNL     1      -4.604  14.987 -11.081  1.00  0.00     0.031 A 
ATOM     46  C   UNL     1      -5.089  15.771  -9.935  1.00  0.00     0.074 A 
ATOM     47  C   UNL     1      -3.656  15.381 -11.949  1.00  0.00     0.049 A 
ATOM     48  N   UNL     1      -5.809  16.843  -9.953  1.00  0.00    -0.248 NA
ATOM     49  C   UNL     1      -4.888  15.191  -8.598  1.00  0.00     0.031 C 
ATOM     50  C   UNL     1      -2.887  14.538 -12.872  1.00  0.00     0.029 A 
ATOM     51  N   UNL     1      -3.061  16.597 -12.060  1.00  0.00    -0.354 N 
ATOM     52  C   UNL     1      -5.944  17.192  -8.613  1.00  0.00     0.074 A 
ATOM     53  C   UNL     1      -5.584  16.036  -7.844  1.00  0.00     0.031 C 
ATOM     54  C   UNL     1      -1.774  15.208 -13.246  1.00  0.00     0.029 A 
ATOM     55  C   UNL     1      -1.818  16.545 -12.676  1.00  0.00     0.049 A 
ATOM     56  H   UNL     1      -3.470  17.432 -11.736  1.00  0.00     0.167 HD
ATOM     57  C   UNL     1      -6.042  18.492  -8.234  1.00  0.00     0.034 A 
ATOM     58  C   UNL     1      -0.859  17.498 -12.612  1.00  0.00     0.034 A 
ATOM     59  C   UNL     1      -6.444  19.335  -9.331  1.00  0.00     0.049 A 
ATOM     60  C   UNL     1      -1.501  18.747 -12.131  1.00  0.00     0.074 A 
ATOM     61  C   UNL     1      -7.521  19.364 -10.194  1.00  0.00     0.029 A 
ATOM     62  N   UNL     1      -5.481  20.138  -9.891  1.00  0.00    -0.354 N 
ATOM     63  N   UNL     1      -2.349  19.456 -12.822  1.00  0.00    -0.248 NA
ATOM     64  C   UNL     1      -1.473  19.026 -10.703  1.00  0.00     0.031 C 
ATOM     65  C   UNL     1      -7.003  19.853 -11.427  1.00  0.00     0.029 A 
ATOM     66  C   UNL     1      -5.642  20.112 -11.249  1.00  0.00     0.049 A 
ATOM     67  H   UNL     1      -4.795  20.645  -9.400  1.00  0.00     0.167 HD
ATOM     68  C   UNL     1      -3.240  19.957 -11.880  1.00  0.00     0.074 A 
ATOM     69  C   UNL     1      -2.572  19.776 -10.596  1.00  0.00     0.031 C 
ATOM     70  C   UNL     1      -4.548  20.197 -12.198  1.00  0.00     0.034 A 
BRANCH  57  71
ATOM     71  C   UNL     1      -5.405  19.052  -6.980  1.00  0.00     0.023 A 
ATOM     72  C   UNL     1      -5.685  20.400  -6.674  1.00  0.00     0.012 A 
ATOM     73  C   UNL     1      -4.360  18.438  -6.246  1.00  0.00     0.148 A 
ATOM     74  C   UNL     1      -4.924  21.117  -5.745  1.00  0.00     0.002 A 
ATOM     75  C   UNL     1      -3.667  19.128  -5.258  1.00  0.00     0.091 A 
ATOM     76  F   UNL     1      -3.913  17.224  -6.575  1.00  0.00    -0.205 F 
ATOM     77  C   UNL     1      -3.919  20.479  -5.029  1.00  0.00     0.022 A 
BRANCH  75  78
ATOM     78  S   UNL     1      -2.408  18.311  -4.269  1.00  0.00     0.127 S 
ATOM     79  O   UNL     1      -1.184  18.752  -4.930  1.00  0.00    -0.237 OA
ATOM     80  O   UNL     1      -2.641  18.887  -2.944  1.00  0.00    -0.237 OA
ATOM     81  O   UNL     1      -2.713  16.887  -4.357  1.00  0.00    -0.744 OA
ENDBRANCH  75  78
ENDBRANCH  57  71
BRANCH  58  82
ATOM     82  C   UNL     1       0.613  17.366 -12.718  1.00  0.00     0.023 A 
ATOM     83  C   UNL     1       1.380  18.506 -13.026  1.00  0.00     0.012 A 
ATOM     84  C   UNL     1       1.295  16.202 -12.298  1.00  0.00     0.148 A 
ATOM     85  C   UNL     1       2.773  18.497 -12.899  1.00  0.00     0.002 A 
ATOM     86  C   UNL     1       2.684  16.189 -12.200  1.00  0.00     0.091 A 
ATOM     87  F   UNL     1       0.587  15.137 -11.899  1.00  0.00    -0.205 F 
ATOM     88  C   UNL     1       3.426  17.339 -12.487  1.00  0.00     0.022 A 
BRANCH  86  89
ATOM     89  S   UNL     1       3.578  14.712 -11.695  1.00  0.00     0.127 S 
ATOM     90  O   UNL     1       4.774  14.766 -12.536  1.00  0.00    -0.237 OA
ATOM     91  O   UNL     1       3.814  14.967 -10.278  1.00  0.00    -0.237 OA
ATOM     92  O   UNL     1       2.687  13.599 -12.007  1.00  0.00    -0.744 OA
ENDBRANCH  86  89
ENDBRANCH  58  82
BRANCH  70  93
ATOM     93  C   UNL     1      -4.941  20.233 -13.655  1.00  0.00     0.023 A 
ATOM     94  C   UNL     1      -4.786  19.113 -14.496  1.00  0.00     0.012 A 
ATOM     95  C   UNL     1      -5.658  21.346 -14.134  1.00  0.00     0.148 A 
ATOM     96  C   UNL     1      -5.309  19.110 -15.791  1.00  0.00     0.002 A 
ATOM     97  C   UNL     1      -6.222  21.318 -15.405  1.00  0.00     0.091 A 
ATOM     98  F   UNL     1      -5.804  22.408 -13.327  1.00  0.00    -0.205 F 
ATOM     99  C   UNL     1      -6.041  20.206 -16.241  1.00  0.00     0.022 A 
BRANCH  97 100
ATOM    100  S   UNL     1      -7.301  22.637 -15.975  1.00  0.00     0.127 S 
ATOM    101  O   UNL     1      -6.393  23.453 -16.776  1.00  0.00    -0.237 OA
ATOM    102  O   UNL     1      -8.314  21.913 -16.745  1.00  0.00    -0.237 OA
ATOM    103  O   UNL     1      -7.819  23.266 -14.765  1.00  0.00    -0.744 OA
ENDBRANCH  97 100
ENDBRANCH  70  93
ENDBRANCH  44  45
ENDBRANCH  37  39
ENDBRANCH  36  37
ENDBRANCH  35  36
ENDBRANCH  34  35
ENDBRANCH  33  34
ENDBRANCH  32  33
ENDBRANCH  31  32
ENDBRANCH   1  31
TORSDOF 27
