REMARK SMILES C[C@@H](C(=O)OCCOCCOCCOCCOC(=O)c1ccc(-c2c3nc(c(-c4cccc(S(=O)(=O)[O-])c4F)c4ccc([nH]4)c(-c4cccc(S(=O)(=O)[O-])c4F)c4nc(c(-c5cccc(S(=O)(=O)[O-])c5F)c5ccc2[nH]5)C=C4)C=C3)cc1)c1ccc(-c2cccc(OC(=O)NCCC3CCCCC3)c2)c(F)c1
REMARK SMILES IDX 9 1 8 2 7 3 6 4 5 5 3 6 4 7 2 8 1 9 83 10 84 11 107 12 85 13
REMARK SMILES IDX 105 14 86 15 106 16 87 17 88 18 104 19 89 20 91 21 90 22
REMARK SMILES IDX 92 23 93 24 94 25 95 26 96 28 97 29 98 30 99 31 103 32
REMARK SMILES IDX 100 33 102 34 101 35 10 36 11 37 12 38 13 39 14 40 15 41
REMARK SMILES IDX 16 42 17 43 18 44 19 45 20 46 21 47 82 48 22 49 81 50 23 51
REMARK SMILES IDX 24 52 25 53 75 54 26 55 80 56 74 57 76 58 27 59 79 60 73 61
REMARK SMILES IDX 72 62 28 64 60 65 40 66 59 67 41 68 44 69 58 70 77 71 42 72
REMARK SMILES IDX 43 73 57 75 78 76 45 77 29 78 30 79 38 80 31 81 33 82 39 83
REMARK SMILES IDX 32 84 34 85 35 86 36 87 37 88 61 89 62 90 70 91 63 92 65 93
REMARK SMILES IDX 71 94 64 95 66 96 67 97 68 98 69 99 46 100 47 101 55 102
REMARK SMILES IDX 48 103 50 104 56 105 49 106 51 107 52 108 53 109 54 110
REMARK H PARENT 95 27 76 63 44 74
REMARK Flexibility Score: inf
ROOT
ATOM      1  C   UNL     1       0.226   2.296   2.849  1.00  0.00     0.188 C 
ENDROOT
BRANCH   1   2
ATOM      2  O   UNL     1       0.817   2.488   4.125  1.00  0.00    -0.376 OA
BRANCH   2   3
ATOM      3  C   UNL     1       2.056   1.862   4.429  1.00  0.00     0.202 C 
BRANCH   3   4
ATOM      4  C   UNL     1       2.352   0.395   4.047  1.00  0.00     0.261 C 
BRANCH   4   5
ATOM      5  O   UNL     1       1.922  -0.058   2.747  1.00  0.00    -0.463 OA
BRANCH   5   6
ATOM      6  C   UNL     1       0.866  -0.909   2.709  1.00  0.00     0.313 C 
ATOM      7  O   UNL     1       0.279  -1.306   3.713  1.00  0.00    -0.252 OA
BRANCH   6   8
ATOM      8  C   UNL     1       0.442  -1.336   1.286  1.00  0.00     0.126 C 
ATOM      9  C   UNL     1       1.256  -0.851   0.081  1.00  0.00     0.025 C 
BRANCH   8  10
ATOM     10  C   UNL     1      -1.065  -1.148   1.090  1.00  0.00    -0.031 A 
ATOM     11  C   UNL     1      -1.670   0.099   0.855  1.00  0.00     0.005 A 
ATOM     12  C   UNL     1      -1.903  -2.251   1.258  1.00  0.00     0.044 A 
ATOM     13  C   UNL     1      -3.063   0.258   0.894  1.00  0.00     0.012 A 
ATOM     14  C   UNL     1      -3.286  -2.096   1.257  1.00  0.00     0.131 A 
ATOM     15  C   UNL     1      -3.900  -0.839   1.124  1.00  0.00     0.018 A 
ATOM     16  F   UNL     1      -4.033  -3.198   1.429  1.00  0.00    -0.206 F 
BRANCH  15  17
ATOM     17  C   UNL     1      -5.350  -0.677   1.325  1.00  0.00    -0.012 A 
ATOM     18  C   UNL     1      -6.164   0.070   0.462  1.00  0.00     0.009 A 
ATOM     19  C   UNL     1      -5.951  -1.279   2.445  1.00  0.00     0.056 A 
ATOM     20  C   UNL     1      -7.540   0.183   0.699  1.00  0.00     0.004 A 
ATOM     21  C   UNL     1      -7.313  -1.153   2.694  1.00  0.00     0.133 A 
ATOM     22  C   UNL     1      -8.116  -0.433   1.812  1.00  0.00     0.047 A 
BRANCH  21  23
ATOM     23  O   UNL     1      -7.968  -1.741   3.805  1.00  0.00    -0.410 OA
BRANCH  23  24
ATOM     24  C   UNL     1      -7.310  -2.242   4.926  1.00  0.00     0.412 C 
ATOM     25  O   UNL     1      -6.097  -2.280   5.117  1.00  0.00    -0.224 OA
ATOM     26  N   UNL     1      -8.141  -2.707   5.898  1.00  0.00    -0.321 N 
ATOM     27  H   UNL     1      -7.705  -3.039   6.716  1.00  0.00     0.167 HD
BRANCH  26  28
ATOM     28  C   UNL     1      -9.584  -2.773   5.880  1.00  0.00     0.119 C 
BRANCH  28  29
ATOM     29  C   UNL     1     -10.072  -4.223   5.902  1.00  0.00     0.025 C 
BRANCH  29  30
ATOM     30  C   UNL     1      -9.633  -5.029   7.145  1.00  0.00    -0.009 C 
ATOM     31  C   UNL     1     -10.276  -4.493   8.435  1.00  0.00     0.003 C 
ATOM     32  C   UNL     1      -9.966  -6.517   6.947  1.00  0.00     0.003 C 
ATOM     33  C   UNL     1      -9.922  -5.345   9.653  1.00  0.00     0.000 C 
ATOM     34  C   UNL     1      -9.591  -7.350   8.169  1.00  0.00     0.000 C 
ATOM     35  C   UNL     1     -10.257  -6.816   9.431  1.00  0.00     0.000 C 
ENDBRANCH  29  30
ENDBRANCH  28  29
ENDBRANCH  26  28
ENDBRANCH  23  24
ENDBRANCH  21  23
ENDBRANCH  15  17
ENDBRANCH   8  10
ENDBRANCH   6   8
ENDBRANCH   5   6
ENDBRANCH   4   5
ENDBRANCH   3   4
ENDBRANCH   2   3
ENDBRANCH   1   2
BRANCH   1  36
ATOM     36  C   UNL     1       1.097   2.347   1.578  1.00  0.00     0.188 C 
BRANCH  36  37
ATOM     37  O   UNL     1       2.480   2.487   1.812  1.00  0.00    -0.377 OA
BRANCH  37  38
ATOM     38  C   UNL     1       2.999   3.804   1.758  1.00  0.00     0.188 C 
BRANCH  38  39
ATOM     39  C   UNL     1       2.112   4.946   2.291  1.00  0.00     0.188 C 
BRANCH  39  40
ATOM     40  O   UNL     1       0.796   4.969   1.744  1.00  0.00    -0.376 OA
BRANCH  40  41
ATOM     41  C   UNL     1       0.520   5.839   0.657  1.00  0.00     0.202 C 
BRANCH  41  42
ATOM     42  C   UNL     1       1.168   5.519  -0.701  1.00  0.00     0.261 C 
BRANCH  42  43
ATOM     43  O   UNL     1       2.600   5.465  -0.733  1.00  0.00    -0.460 OA
BRANCH  43  44
ATOM     44  C   UNL     1       3.285   6.558  -0.330  1.00  0.00     0.338 C 
ATOM     45  O   UNL     1       2.818   7.632  -0.002  1.00  0.00    -0.246 OA
BRANCH  44  46
ATOM     46  C   UNL     1       4.697   6.157  -0.143  1.00  0.00     0.060 A 
ATOM     47  C   UNL     1       5.278   6.308   1.124  1.00  0.00     0.016 A 
ATOM     48  C   UNL     1       5.431   5.608  -1.197  1.00  0.00     0.016 A 
ATOM     49  C   UNL     1       6.608   5.944   1.331  1.00  0.00     0.010 A 
ATOM     50  C   UNL     1       6.772   5.271  -0.995  1.00  0.00     0.010 A 
ATOM     51  C   UNL     1       7.375   5.473   0.260  1.00  0.00    -0.014 A 
BRANCH  51  52
ATOM     52  C   UNL     1       8.850   5.403   0.394  1.00  0.00     0.031 A 
ATOM     53  C   UNL     1       9.663   6.552  -0.139  1.00  0.00     0.074 A 
ATOM     54  C   UNL     1       9.457   4.356   0.979  1.00  0.00     0.049 A 
ATOM     55  N   UNL     1      10.959   6.706  -0.174  1.00  0.00    -0.248 NA
ATOM     56  C   UNL     1       8.907   7.680  -0.712  1.00  0.00     0.031 C 
ATOM     57  C   UNL     1       8.778   3.195   1.553  1.00  0.00     0.029 A 
ATOM     58  N   UNL     1      10.792   4.093   1.163  1.00  0.00    -0.354 N 
ATOM     59  C   UNL     1      11.177   7.925  -0.804  1.00  0.00     0.074 A 
ATOM     60  C   UNL     1       9.880   8.469  -1.141  1.00  0.00     0.031 C 
ATOM     61  C   UNL     1       9.704   2.328   2.001  1.00  0.00     0.029 A 
ATOM     62  C   UNL     1      11.037   2.858   1.717  1.00  0.00     0.049 A 
ATOM     63  H   UNL     1      11.505   4.727   0.922  1.00  0.00     0.167 HD
ATOM     64  C   UNL     1      12.351   8.541  -1.073  1.00  0.00     0.034 A 
ATOM     65  C   UNL     1      12.205   2.222   1.941  1.00  0.00     0.034 A 
ATOM     66  C   UNL     1      13.638   8.004  -0.728  1.00  0.00     0.049 A 
ATOM     67  C   UNL     1      13.500   2.914   1.594  1.00  0.00     0.074 A 
ATOM     68  C   UNL     1      14.884   8.574  -0.914  1.00  0.00     0.029 A 
ATOM     69  N   UNL     1      13.847   6.763  -0.146  1.00  0.00    -0.354 N 
ATOM     70  N   UNL     1      13.691   4.113   1.098  1.00  0.00    -0.248 NA
ATOM     71  C   UNL     1      14.743   2.175   1.866  1.00  0.00     0.031 C 
ATOM     72  C   UNL     1      15.850   7.657  -0.488  1.00  0.00     0.029 A 
ATOM     73  C   UNL     1      15.203   6.539   0.014  1.00  0.00     0.049 A 
ATOM     74  H   UNL     1      13.136   6.135   0.114  1.00  0.00     0.167 HD
ATOM     75  C   UNL     1      15.071   4.288   1.040  1.00  0.00     0.074 A 
ATOM     76  C   UNL     1      15.667   3.078   1.567  1.00  0.00     0.031 C 
ATOM     77  C   UNL     1      15.781   5.351   0.586  1.00  0.00     0.034 A 
BRANCH  64  78
ATOM     78  C   UNL     1      12.298   9.869  -1.782  1.00  0.00     0.023 A 
ATOM     79  C   UNL     1      11.829  11.013  -1.105  1.00  0.00     0.012 A 
ATOM     80  C   UNL     1      12.762   9.990  -3.106  1.00  0.00     0.148 A 
ATOM     81  C   UNL     1      11.791  12.251  -1.748  1.00  0.00     0.002 A 
ATOM     82  C   UNL     1      12.769  11.235  -3.722  1.00  0.00     0.091 A 
ATOM     83  F   UNL     1      13.181   8.885  -3.739  1.00  0.00    -0.205 F 
ATOM     84  C   UNL     1      12.271  12.363  -3.050  1.00  0.00     0.022 A 
BRANCH  82  85
ATOM     85  S   UNL     1      13.443  11.498  -5.365  1.00  0.00     0.127 S 
ATOM     86  O   UNL     1      12.238  11.818  -6.130  1.00  0.00    -0.237 OA
ATOM     87  O   UNL     1      14.346  12.628  -5.148  1.00  0.00    -0.237 OA
ATOM     88  O   UNL     1      14.101  10.253  -5.736  1.00  0.00    -0.744 OA
ENDBRANCH  82  85
ENDBRANCH  64  78
BRANCH  65  89
ATOM     89  C   UNL     1      12.214   0.856   2.540  1.00  0.00     0.023 A 
ATOM     90  C   UNL     1      12.742   0.664   3.832  1.00  0.00     0.012 A 
ATOM     91  C   UNL     1      11.710  -0.253   1.834  1.00  0.00     0.148 A 
ATOM     92  C   UNL     1      12.802  -0.612   4.394  1.00  0.00     0.002 A 
ATOM     93  C   UNL     1      11.719  -1.512   2.422  1.00  0.00     0.091 A 
ATOM     94  F   UNL     1      11.226  -0.053   0.600  1.00  0.00    -0.205 F 
ATOM     95  C   UNL     1      12.283  -1.698   3.694  1.00  0.00     0.022 A 
BRANCH  93  96
ATOM     96  S   UNL     1      10.965  -2.946   1.647  1.00  0.00     0.127 S 
ATOM     97  O   UNL     1      12.130  -3.782   1.367  1.00  0.00    -0.237 OA
ATOM     98  O   UNL     1      10.094  -3.438   2.715  1.00  0.00    -0.237 OA
ATOM     99  O   UNL     1      10.259  -2.438   0.479  1.00  0.00    -0.744 OA
ENDBRANCH  93  96
ENDBRANCH  65  89
BRANCH  77 100
ATOM    100  C   UNL     1      17.285   5.289   0.686  1.00  0.00     0.023 A 
ATOM    101  C   UNL     1      18.018   4.426  -0.152  1.00  0.00     0.012 A 
ATOM    102  C   UNL     1      17.975   6.151   1.563  1.00  0.00     0.148 A 
ATOM    103  C   UNL     1      19.411   4.394  -0.091  1.00  0.00     0.002 A 
ATOM    104  C   UNL     1      19.364   6.154   1.578  1.00  0.00     0.091 A 
ATOM    105  F   UNL     1      17.259   6.956   2.362  1.00  0.00    -0.205 F 
ATOM    106  C   UNL     1      20.084   5.265   0.763  1.00  0.00     0.022 A 
BRANCH 104 107
ATOM    107  S   UNL     1      20.316   7.311   2.569  1.00  0.00     0.127 S 
ATOM    108  O   UNL     1      20.901   6.428   3.577  1.00  0.00    -0.237 OA
ATOM    109  O   UNL     1      21.270   7.840   1.594  1.00  0.00    -0.237 OA
ATOM    110  O   UNL     1      19.362   8.289   3.075  1.00  0.00    -0.744 OA
ENDBRANCH 104 107
ENDBRANCH  77 100
ENDBRANCH  51  52
ENDBRANCH  44  46
ENDBRANCH  43  44
ENDBRANCH  42  43
ENDBRANCH  41  42
ENDBRANCH  40  41
ENDBRANCH  39  40
ENDBRANCH  38  39
ENDBRANCH  37  38
ENDBRANCH  36  37
ENDBRANCH   1  36
TORSDOF 30
