REMARK SMILES C[N@@H+]1CCC[C@@H](C[NH2+]CC(=O)OCCOCCOCCOCCOC(=O)c2ccc(-c3c4nc(c(-c5cccc(S(=O)(=O)[O-])c5F)c5ccc([nH]5)c(-c5cccc(S(=O)(=O)[O-])c5F)c5nc(c(-c6cccc(S(=O)(=O)[O-])c6F)c6ccc3[nH]6)C=C5)C=C4)cc2)C1
REMARK SMILES IDX 18 1 17 2 16 3 15 4 14 5 13 6 12 7 10 8 11 9 9 10 8 11 7 14
REMARK SMILES IDX 6 15 1 16 2 17 3 18 90 19 4 21 5 22 19 23 20 24 21 25 22 26
REMARK SMILES IDX 23 27 24 28 25 29 26 30 27 31 28 32 89 33 29 34 88 35 30 36
REMARK SMILES IDX 31 37 32 38 82 39 33 40 87 41 81 42 83 43 34 44 86 45 80 46
REMARK SMILES IDX 79 47 35 49 67 50 47 51 66 52 48 53 51 54 65 55 84 56 49 57
REMARK SMILES IDX 50 58 64 60 85 61 52 62 36 63 37 64 45 65 38 66 40 67 46 68
REMARK SMILES IDX 39 69 41 70 42 71 43 72 44 73 68 74 69 75 77 76 70 77 72 78
REMARK SMILES IDX 78 79 71 80 73 81 74 82 75 83 76 84 53 85 54 86 62 87 55 88
REMARK SMILES IDX 57 89 63 90 56 91 58 92 59 93 60 94 61 95
REMARK H PARENT 8 12 8 13 2 20 83 48 51 59
REMARK Flexibility Score: inf
ROOT
ATOM      1  O   UNL     1      -0.994   0.116   2.726  1.00  0.00    -0.377 OA
ENDROOT
BRANCH   1   2
ATOM      2  C   UNL     1      -1.741  -1.057   2.971  1.00  0.00     0.188 C 
BRANCH   2   3
ATOM      3  C   UNL     1      -1.963  -1.464   4.432  1.00  0.00     0.188 C 
BRANCH   3   4
ATOM      4  O   UNL     1      -2.195  -0.489   5.426  1.00  0.00    -0.376 OA
BRANCH   4   5
ATOM      5  C   UNL     1      -1.210   0.472   5.761  1.00  0.00     0.202 C 
BRANCH   5   6
ATOM      6  C   UNL     1       0.310   0.318   5.542  1.00  0.00     0.261 C 
BRANCH   6   7
ATOM      7  O   UNL     1       0.772  -0.613   4.555  1.00  0.00    -0.459 OA
BRANCH   7   8
ATOM      8  C   UNL     1       1.320  -1.762   5.006  1.00  0.00     0.361 C 
ATOM      9  O   UNL     1       1.347  -2.081   6.194  1.00  0.00    -0.245 OA
BRANCH   8  10
ATOM     10  C   UNL     1       1.940  -2.656   3.929  1.00  0.00     0.384 C 
BRANCH  10  11
ATOM     11  N   UNL     1       1.556  -2.490   2.511  1.00  0.00    -0.337 N 
ATOM     12  H   UNL     1       1.942  -3.273   1.984  1.00  0.00     0.346 HD
ATOM     13  H   UNL     1       0.537  -2.456   2.491  1.00  0.00     0.346 HD
BRANCH  11  14
ATOM     14  C   UNL     1       2.023  -1.248   1.889  1.00  0.00     0.270 C 
BRANCH  14  15
ATOM     15  C   UNL     1       2.018  -1.318   0.339  1.00  0.00     0.099 C 
ATOM     16  C   UNL     1      -1.446  -0.554  -1.079  1.00  0.00     0.332 C 
ATOM     17  N   UNL     1      -0.230  -0.312  -0.302  1.00  0.00    -0.337 N 
ATOM     18  C   UNL     1       0.441   0.898  -0.800  1.00  0.00     0.262 C 
ATOM     19  C   UNL     1       0.639  -1.497  -0.334  1.00  0.00     0.271 C 
ATOM     20  H   UNL     1      -0.468  -0.148   0.676  1.00  0.00     0.347 HD
ATOM     21  C   UNL     1       1.788   1.154  -0.132  1.00  0.00     0.062 C 
ATOM     22  C   UNL     1       2.692  -0.068  -0.250  1.00  0.00     0.021 C 
ENDBRANCH  14  15
ENDBRANCH  11  14
ENDBRANCH  10  11
ENDBRANCH   8  10
ENDBRANCH   7   8
ENDBRANCH   6   7
ENDBRANCH   5   6
ENDBRANCH   4   5
ENDBRANCH   3   4
ENDBRANCH   2   3
ENDBRANCH   1   2
BRANCH   1  23
ATOM     23  C   UNL     1      -1.672   1.357   2.627  1.00  0.00     0.188 C 
BRANCH  23  24
ATOM     24  C   UNL     1      -3.052   1.352   2.002  1.00  0.00     0.188 C 
BRANCH  24  25
ATOM     25  O   UNL     1      -3.993   0.469   2.596  1.00  0.00    -0.376 OA
BRANCH  25  26
ATOM     26  C   UNL     1      -5.215   0.299   1.870  1.00  0.00     0.202 C 
BRANCH  26  27
ATOM     27  C   UNL     1      -5.123   0.068   0.343  1.00  0.00     0.261 C 
BRANCH  27  28
ATOM     28  O   UNL     1      -4.538   1.122  -0.462  1.00  0.00    -0.460 OA
BRANCH  28  29
ATOM     29  C   UNL     1      -4.841   2.419  -0.188  1.00  0.00     0.338 C 
ATOM     30  O   UNL     1      -5.776   2.813   0.467  1.00  0.00    -0.246 OA
BRANCH  29  31
ATOM     31  C   UNL     1      -3.672   3.267  -0.590  1.00  0.00     0.060 A 
ATOM     32  C   UNL     1      -3.318   4.346   0.236  1.00  0.00     0.016 A 
ATOM     33  C   UNL     1      -2.887   2.978  -1.709  1.00  0.00     0.016 A 
ATOM     34  C   UNL     1      -2.228   5.165  -0.084  1.00  0.00     0.010 A 
ATOM     35  C   UNL     1      -1.794   3.796  -2.029  1.00  0.00     0.010 A 
ATOM     36  C   UNL     1      -1.490   4.929  -1.251  1.00  0.00    -0.014 A 
BRANCH  36  37
ATOM     37  C   UNL     1      -0.638   6.012  -1.820  1.00  0.00     0.031 A 
ATOM     38  C   UNL     1      -1.224   6.828  -2.948  1.00  0.00     0.074 A 
ATOM     39  C   UNL     1       0.598   6.307  -1.372  1.00  0.00     0.049 A 
ATOM     40  N   UNL     1      -0.693   7.805  -3.635  1.00  0.00    -0.248 NA
ATOM     41  C   UNL     1      -2.596   6.482  -3.363  1.00  0.00     0.031 C 
ATOM     42  C   UNL     1       1.304   5.624  -0.290  1.00  0.00     0.029 A 
ATOM     43  N   UNL     1       1.488   7.268  -1.798  1.00  0.00    -0.354 N 
ATOM     44  C   UNL     1      -1.646   8.160  -4.583  1.00  0.00     0.074 A 
ATOM     45  C   UNL     1      -2.775   7.276  -4.405  1.00  0.00     0.031 C 
ATOM     46  C   UNL     1       2.524   6.178  -0.148  1.00  0.00     0.029 A 
ATOM     47  C   UNL     1       2.696   7.245  -1.137  1.00  0.00     0.049 A 
ATOM     48  H   UNL     1       1.280   7.913  -2.511  1.00  0.00     0.167 HD
ATOM     49  C   UNL     1      -1.613   9.150  -5.503  1.00  0.00     0.034 A 
ATOM     50  C   UNL     1       3.809   7.990  -1.315  1.00  0.00     0.034 A 
ATOM     51  C   UNL     1      -0.528  10.073  -5.666  1.00  0.00     0.049 A 
ATOM     52  C   UNL     1       3.829   9.084  -2.361  1.00  0.00     0.074 A 
ATOM     53  C   UNL     1      -0.435  11.138  -6.543  1.00  0.00     0.029 A 
ATOM     54  N   UNL     1       0.649  10.043  -4.941  1.00  0.00    -0.354 N 
ATOM     55  N   UNL     1       2.872   9.482  -3.163  1.00  0.00    -0.248 NA
ATOM     56  C   UNL     1       5.077   9.856  -2.502  1.00  0.00     0.031 C 
ATOM     57  C   UNL     1       0.811  11.743  -6.362  1.00  0.00     0.029 A 
ATOM     58  C   UNL     1       1.478  11.070  -5.352  1.00  0.00     0.049 A 
ATOM     59  H   UNL     1       0.865   9.389  -4.237  1.00  0.00     0.167 HD
ATOM     60  C   UNL     1       3.382  10.577  -3.858  1.00  0.00     0.074 A 
ATOM     61  C   UNL     1       4.731  10.786  -3.383  1.00  0.00     0.031 C 
ATOM     62  C   UNL     1       2.786  11.334  -4.813  1.00  0.00     0.034 A 
BRANCH  49  63
ATOM     63  C   UNL     1      -2.817   9.307  -6.388  1.00  0.00     0.023 A 
ATOM     64  C   UNL     1      -4.010   9.837  -5.855  1.00  0.00     0.012 A 
ATOM     65  C   UNL     1      -2.755   8.967  -7.752  1.00  0.00     0.148 A 
ATOM     66  C   UNL     1      -5.136   9.991  -6.660  1.00  0.00     0.002 A 
ATOM     67  C   UNL     1      -3.866   9.169  -8.558  1.00  0.00     0.091 A 
ATOM     68  F   UNL     1      -1.618   8.439  -8.229  1.00  0.00    -0.205 F 
ATOM     69  C   UNL     1      -5.061   9.668  -8.012  1.00  0.00     0.022 A 
BRANCH  67  70
ATOM     70  S   UNL     1      -3.842   8.860 -10.326  1.00  0.00     0.127 S 
ATOM     71  O   UNL     1      -4.664   7.655 -10.426  1.00  0.00    -0.237 OA
ATOM     72  O   UNL     1      -4.466  10.071 -10.859  1.00  0.00    -0.237 OA
ATOM     73  O   UNL     1      -2.440   8.692 -10.684  1.00  0.00    -0.744 OA
ENDBRANCH  67  70
ENDBRANCH  49  63
BRANCH  50  74
ATOM     74  C   UNL     1       5.011   7.773  -0.456  1.00  0.00     0.023 A 
ATOM     75  C   UNL     1       5.401   8.772   0.460  1.00  0.00     0.012 A 
ATOM     76  C   UNL     1       5.791   6.606  -0.568  1.00  0.00     0.148 A 
ATOM     77  C   UNL     1       6.565   8.631   1.217  1.00  0.00     0.002 A 
ATOM     78  C   UNL     1       6.921   6.449   0.227  1.00  0.00     0.091 A 
ATOM     79  F   UNL     1       5.418   5.678  -1.460  1.00  0.00    -0.205 F 
ATOM     80  C   UNL     1       7.321   7.468   1.106  1.00  0.00     0.022 A 
BRANCH  78  81
ATOM     81  S   UNL     1       7.895   4.939   0.233  1.00  0.00     0.127 S 
ATOM     82  O   UNL     1       9.137   5.382  -0.394  1.00  0.00    -0.237 OA
ATOM     83  O   UNL     1       7.994   4.652   1.664  1.00  0.00    -0.237 OA
ATOM     84  O   UNL     1       7.117   3.968  -0.523  1.00  0.00    -0.744 OA
ENDBRANCH  78  81
ENDBRANCH  50  74
BRANCH  62  85
ATOM     85  C   UNL     1       3.531  12.517  -5.377  1.00  0.00     0.023 A 
ATOM     86  C   UNL     1       4.587  12.319  -6.287  1.00  0.00     0.012 A 
ATOM     87  C   UNL     1       3.086  13.829  -5.109  1.00  0.00     0.148 A 
ATOM     88  C   UNL     1       5.198  13.409  -6.910  1.00  0.00     0.002 A 
ATOM     89  C   UNL     1       3.667  14.905  -5.769  1.00  0.00     0.091 A 
ATOM     90  F   UNL     1       2.087  13.996  -4.230  1.00  0.00    -0.205 F 
ATOM     91  C   UNL     1       4.729  14.697  -6.663  1.00  0.00     0.022 A 
BRANCH  89  92
ATOM     92  S   UNL     1       3.061  16.588  -5.595  1.00  0.00     0.127 S 
ATOM     93  O   UNL     1       4.147  17.220  -4.848  1.00  0.00    -0.237 OA
ATOM     94  O   UNL     1       2.945  17.022  -6.987  1.00  0.00    -0.237 OA
ATOM     95  O   UNL     1       1.793  16.488  -4.884  1.00  0.00    -0.744 OA
ENDBRANCH  89  92
ENDBRANCH  62  85
ENDBRANCH  36  37
ENDBRANCH  29  31
ENDBRANCH  28  29
ENDBRANCH  27  28
ENDBRANCH  26  27
ENDBRANCH  25  26
ENDBRANCH  24  25
ENDBRANCH  23  24
ENDBRANCH   1  23
TORSDOF 26
