REMARK SMILES COc1cc(N[C@H]2C=C[C@@H](C(=O)OCCOCCOCCOCCOC(=O)c3ccc(-c4c5nc(c(-c6cccc(S(=O)(=O)[O-])c6F)c6ccc([nH]6)c(-c6cccc(S(=O)(=O)[O-])c6F)c6nc(c(-c7cccc(S(=O)(=O)[O-])c7F)c7ccc4[nH]7)C=C6)C=C5)cc3)C2)c([N+](=O)[O-])cc1F
REMARK SMILES IDX 19 1 18 2 17 3 16 4 15 5 14 6 13 7 11 8 12 9 10 10 7 11 8 12
REMARK SMILES IDX 91 13 9 14 6 15 5 17 3 18 4 19 97 20 96 21 98 22 92 23 2 24
REMARK SMILES IDX 1 25 93 26 94 27 95 28 20 29 21 30 22 31 23 32 24 33 25 34
REMARK SMILES IDX 26 35 27 36 28 37 29 38 90 39 30 40 89 41 31 42 32 43 33 44
REMARK SMILES IDX 83 45 34 46 88 47 82 48 84 49 35 50 87 51 81 52 80 53 36 55
REMARK SMILES IDX 68 56 48 57 67 58 49 59 52 60 66 61 85 62 50 63 51 64 65 66
REMARK SMILES IDX 86 67 53 68 37 69 38 70 46 71 39 72 41 73 47 74 40 75 42 76
REMARK SMILES IDX 43 77 44 78 45 79 69 80 70 81 78 82 71 83 73 84 79 85 72 86
REMARK SMILES IDX 74 87 75 88 76 89 77 90 54 91 55 92 63 93 56 94 58 95 64 96
REMARK SMILES IDX 57 97 59 98 60 99 61 100 62 101
REMARK H PARENT 6 16 84 54 52 65
REMARK Flexibility Score: inf
ROOT
ATOM      1  O   UNL     1      -2.281   1.581  -2.161  1.00  0.00    -0.377 OA
ENDROOT
BRANCH   1   2
ATOM      2  C   UNL     1      -3.597   1.522  -2.670  1.00  0.00     0.188 C 
BRANCH   2   3
ATOM      3  C   UNL     1      -4.682   1.239  -1.618  1.00  0.00     0.188 C 
BRANCH   3   4
ATOM      4  O   UNL     1      -4.440   1.484  -0.239  1.00  0.00    -0.376 OA
BRANCH   4   5
ATOM      5  C   UNL     1      -3.252   0.998   0.377  1.00  0.00     0.202 C 
BRANCH   5   6
ATOM      6  C   UNL     1      -2.753  -0.437   0.137  1.00  0.00     0.261 C 
BRANCH   6   7
ATOM      7  O   UNL     1      -2.776  -0.875  -1.232  1.00  0.00    -0.463 OA
BRANCH   7   8
ATOM      8  C   UNL     1      -3.555  -1.942  -1.518  1.00  0.00     0.312 C 
ATOM      9  O   UNL     1      -4.228  -2.548  -0.686  1.00  0.00    -0.252 OA
BRANCH   8  10
ATOM     10  C   UNL     1      -3.591  -2.319  -3.002  1.00  0.00     0.124 C 
ATOM     11  C   UNL     1      -2.035  -2.510  -4.901  1.00  0.00     0.103 C 
ATOM     12  C   UNL     1      -2.160  -3.793  -4.164  1.00  0.00    -0.006 C 
ATOM     13  C   UNL     1      -2.801  -1.504  -4.042  1.00  0.00     0.048 C 
ATOM     14  C   UNL     1      -3.032  -3.703  -3.153  1.00  0.00    -0.014 C 
BRANCH  11  15
ATOM     15  N   UNL     1      -0.657  -2.160  -5.180  1.00  0.00    -0.373 N 
ATOM     16  H   UNL     1      -0.405  -2.232  -6.129  1.00  0.00     0.161 HD
BRANCH  15  17
ATOM     17  C   UNL     1       0.369  -1.742  -4.348  1.00  0.00     0.117 A 
ATOM     18  C   UNL     1       1.171  -1.199  -2.080  1.00  0.00     0.157 A 
ATOM     19  C   UNL     1       0.214  -1.731  -2.951  1.00  0.00     0.082 A 
ATOM     20  C   UNL     1       2.379  -0.756  -2.601  1.00  0.00     0.172 A 
ATOM     21  C   UNL     1       2.623  -0.810  -3.967  1.00  0.00     0.131 A 
ATOM     22  F   UNL     1       3.332  -0.250  -1.810  1.00  0.00    -0.203 F 
ATOM     23  C   UNL     1       1.620  -1.279  -4.837  1.00  0.00     0.295 A 
BRANCH  18  24
ATOM     24  O   UNL     1       0.789  -1.182  -0.765  1.00  0.00    -0.494 OA
ATOM     25  C   UNL     1       1.379  -0.158   0.028  1.00  0.00     0.278 C 
ENDBRANCH  18  24
BRANCH  23  26
ATOM     26  N   UNL     1       1.914  -1.234  -6.283  1.00  0.00     0.065 N 
ATOM     27  O   UNL     1       0.990  -1.465  -7.084  1.00  0.00    -0.258 OA
ATOM     28  O   UNL     1       3.064  -0.940  -6.638  1.00  0.00    -0.258 OA
ENDBRANCH  23  26
ENDBRANCH  15  17
ENDBRANCH  11  15
ENDBRANCH   8  10
ENDBRANCH   7   8
ENDBRANCH   6   7
ENDBRANCH   5   6
ENDBRANCH   4   5
ENDBRANCH   3   4
ENDBRANCH   2   3
ENDBRANCH   1   2
BRANCH   1  29
ATOM     29  C   UNL     1      -1.719   2.874  -1.968  1.00  0.00     0.188 C 
BRANCH  29  30
ATOM     30  C   UNL     1      -2.651   4.005  -1.484  1.00  0.00     0.188 C 
BRANCH  30  31
ATOM     31  O   UNL     1      -3.857   4.136  -2.227  1.00  0.00    -0.376 OA
BRANCH  31  32
ATOM     32  C   UNL     1      -3.906   5.071  -3.296  1.00  0.00     0.202 C 
BRANCH  32  33
ATOM     33  C   UNL     1      -2.968   4.863  -4.499  1.00  0.00     0.261 C 
BRANCH  33  34
ATOM     34  O   UNL     1      -1.560   4.849  -4.223  1.00  0.00    -0.460 OA
BRANCH  34  35
ATOM     35  C   UNL     1      -1.024   5.923  -3.611  1.00  0.00     0.338 C 
ATOM     36  O   UNL     1      -1.599   6.959  -3.313  1.00  0.00    -0.246 OA
BRANCH  35  37
ATOM     37  C   UNL     1       0.337   5.562  -3.167  1.00  0.00     0.060 A 
ATOM     38  C   UNL     1       0.642   5.631  -1.802  1.00  0.00     0.016 A 
ATOM     39  C   UNL     1       1.307   5.167  -4.091  1.00  0.00     0.016 A 
ATOM     40  C   UNL     1       1.935   5.353  -1.361  1.00  0.00     0.010 A 
ATOM     41  C   UNL     1       2.608   4.911  -3.650  1.00  0.00     0.010 A 
ATOM     42  C   UNL     1       2.937   5.044  -2.289  1.00  0.00    -0.014 A 
BRANCH  42  43
ATOM     43  C   UNL     1       4.357   5.056  -1.866  1.00  0.00     0.031 A 
ATOM     44  C   UNL     1       5.179   6.283  -2.152  1.00  0.00     0.074 A 
ATOM     45  C   UNL     1       4.909   4.008  -1.232  1.00  0.00     0.049 A 
ATOM     46  N   UNL     1       6.445   6.503  -1.919  1.00  0.00    -0.248 NA
ATOM     47  C   UNL     1       4.478   7.412  -2.787  1.00  0.00     0.031 C 
ATOM     48  C   UNL     1       4.210   2.775  -0.881  1.00  0.00     0.029 A 
ATOM     49  N   UNL     1       6.194   3.807  -0.794  1.00  0.00    -0.354 N 
ATOM     50  C   UNL     1       6.701   7.779  -2.405  1.00  0.00     0.074 A 
ATOM     51  C   UNL     1       5.463   8.281  -2.957  1.00  0.00     0.031 C 
ATOM     52  C   UNL     1       5.083   1.932  -0.303  1.00  0.00     0.029 A 
ATOM     53  C   UNL     1       6.406   2.552  -0.275  1.00  0.00     0.049 A 
ATOM     54  H   UNL     1       6.896   4.495  -0.846  1.00  0.00     0.167 HD
ATOM     55  C   UNL     1       7.861   8.475  -2.381  1.00  0.00     0.034 A 
ATOM     56  C   UNL     1       7.543   1.960   0.147  1.00  0.00     0.034 A 
ATOM     57  C   UNL     1       9.086   7.978  -1.818  1.00  0.00     0.049 A 
ATOM     58  C   UNL     1       8.833   2.738   0.128  1.00  0.00     0.074 A 
ATOM     59  C   UNL     1      10.303   8.626  -1.712  1.00  0.00     0.029 A 
ATOM     60  N   UNL     1       9.257   6.711  -1.282  1.00  0.00    -0.354 N 
ATOM     61  N   UNL     1       9.042   3.976  -0.250  1.00  0.00    -0.248 NA
ATOM     62  C   UNL     1      10.037   2.052   0.619  1.00  0.00     0.031 C 
ATOM     63  C   UNL     1      11.222   7.736  -1.150  1.00  0.00     0.029 A 
ATOM     64  C   UNL     1      10.565   6.551  -0.859  1.00  0.00     0.049 A 
ATOM     65  H   UNL     1       8.553   6.027  -1.213  1.00  0.00     0.167 HD
ATOM     66  C   UNL     1      10.390   4.228  -0.013  1.00  0.00     0.074 A 
ATOM     67  C   UNL     1      10.945   3.018   0.555  1.00  0.00     0.031 C 
ATOM     68  C   UNL     1      11.101   5.358  -0.252  1.00  0.00     0.034 A 
BRANCH  55  69
ATOM     69  C   UNL     1       7.861   9.863  -2.966  1.00  0.00     0.023 A 
ATOM     70  C   UNL     1       7.198  10.908  -2.291  1.00  0.00     0.012 A 
ATOM     71  C   UNL     1       8.584  10.147  -4.141  1.00  0.00     0.148 A 
ATOM     72  C   UNL     1       7.234  12.210  -2.791  1.00  0.00     0.002 A 
ATOM     73  C   UNL     1       8.658  11.454  -4.604  1.00  0.00     0.091 A 
ATOM     74  F   UNL     1       9.187   9.135  -4.780  1.00  0.00    -0.205 F 
ATOM     75  C   UNL     1       7.974  12.484  -3.938  1.00  0.00     0.022 A 
BRANCH  73  76
ATOM     76  S   UNL     1       9.658  11.927  -6.019  1.00  0.00     0.127 S 
ATOM     77  O   UNL     1       8.632  12.314  -6.988  1.00  0.00    -0.237 OA
ATOM     78  O   UNL     1      10.440  13.041  -5.482  1.00  0.00    -0.237 OA
ATOM     79  O   UNL     1      10.436  10.750  -6.375  1.00  0.00    -0.744 OA
ENDBRANCH  73  76
ENDBRANCH  55  69
BRANCH  56  80
ATOM     80  C   UNL     1       7.491   0.561   0.659  1.00  0.00     0.023 A 
ATOM     81  C   UNL     1       7.675   0.316   2.033  1.00  0.00     0.012 A 
ATOM     82  C   UNL     1       7.192  -0.516  -0.199  1.00  0.00     0.148 A 
ATOM     83  C   UNL     1       7.575  -0.979   2.542  1.00  0.00     0.002 A 
ATOM     84  C   UNL     1       7.035  -1.794   0.324  1.00  0.00     0.091 A 
ATOM     85  F   UNL     1       7.037  -0.262  -1.506  1.00  0.00    -0.205 F 
ATOM     86  C   UNL     1       7.242  -2.030   1.692  1.00  0.00     0.022 A 
BRANCH  84  87
ATOM     87  S   UNL     1       6.473  -3.183  -0.667  1.00  0.00     0.127 S 
ATOM     88  O   UNL     1       7.630  -4.074  -0.615  1.00  0.00    -0.237 OA
ATOM     89  O   UNL     1       5.311  -3.638   0.095  1.00  0.00    -0.237 OA
ATOM     90  O   UNL     1       6.161  -2.638  -1.981  1.00  0.00    -0.744 OA
ENDBRANCH  84  87
ENDBRANCH  56  80
BRANCH  68  91
ATOM     91  C   UNL     1      12.561   5.380   0.123  1.00  0.00     0.023 A 
ATOM     92  C   UNL     1      13.495   4.655  -0.643  1.00  0.00     0.012 A 
ATOM     93  C   UNL     1      13.020   6.226   1.153  1.00  0.00     0.148 A 
ATOM     94  C   UNL     1      14.861   4.758  -0.377  1.00  0.00     0.002 A 
ATOM     95  C   UNL     1      14.385   6.366   1.377  1.00  0.00     0.091 A 
ATOM     96  F   UNL     1      12.114   6.898   1.879  1.00  0.00    -0.205 F 
ATOM     97  C   UNL     1      15.306   5.624   0.620  1.00  0.00     0.022 A 
BRANCH  95  98
ATOM     98  S   UNL     1      15.057   7.537   2.562  1.00  0.00     0.127 S 
ATOM     99  O   UNL     1      15.632   6.646   3.568  1.00  0.00    -0.237 OA
ATOM    100  O   UNL     1      16.040   8.262   1.756  1.00  0.00    -0.237 OA
ATOM    101  O   UNL     1      13.932   8.343   3.017  1.00  0.00    -0.744 OA
ENDBRANCH  95  98
ENDBRANCH  68  91
ENDBRANCH  42  43
ENDBRANCH  35  37
ENDBRANCH  34  35
ENDBRANCH  33  34
ENDBRANCH  32  33
ENDBRANCH  31  32
ENDBRANCH  30  31
ENDBRANCH  29  30
ENDBRANCH   1  29
TORSDOF 27
