REMARK SMILES O=C(Cn1nc(C(=O)OCCOCCOCCOCCOC(=O)c2ccc(-c3c4nc(c(-c5cccc(S(=O)(=O)[O-])c5F)c5ccc([nH]5)c(-c5cccc(S(=O)(=O)[O-])c5F)c5nc(c(-c6cccc(S(=O)(=O)[O-])c6F)c6ccc3[nH]6)C=C5)C=C4)cc2)c2ccccc2c1=O)Nc1ccc2c(c1)C(=O)c1ccccc1C2=O
REMARK SMILES IDX 15 1 14 2 13 3 12 4 11 5 10 6 9 7 7 8 8 9 6 10 4 11 5 12
REMARK SMILES IDX 93 13 92 14 94 15 87 16 91 17 88 18 90 19 89 20 3 21 2 22
REMARK SMILES IDX 1 23 95 24 96 26 97 27 101 28 98 29 100 30 99 31 102 32
REMARK SMILES IDX 110 33 103 34 104 35 109 36 111 37 105 38 108 39 106 40
REMARK SMILES IDX 107 41 16 42 17 43 18 44 19 45 20 46 21 47 22 48 23 49 24 50
REMARK SMILES IDX 25 51 86 52 26 53 85 54 27 55 28 56 29 57 79 58 30 59 84 60
REMARK SMILES IDX 78 61 80 62 31 63 83 64 77 65 76 66 32 68 64 69 44 70 63 71
REMARK SMILES IDX 45 72 48 73 62 74 81 75 46 76 47 77 61 79 82 80 49 81 33 82
REMARK SMILES IDX 34 83 42 84 35 85 37 86 43 87 36 88 38 89 39 90 40 91 41 92
REMARK SMILES IDX 65 93 66 94 74 95 67 96 69 97 75 98 68 99 70 100 71 101
REMARK SMILES IDX 72 102 73 103 50 104 51 105 59 106 52 107 54 108 60 109
REMARK SMILES IDX 53 110 55 111 56 112 57 113 58 114
REMARK H PARENT 95 25 80 67 48 78
REMARK Flexibility Score: inf
ROOT
ATOM      1  O   UNL     1       1.311  -5.837  -1.292  1.00  0.00    -0.377 OA
ENDROOT
BRANCH   1   2
ATOM      2  C   UNL     1       2.508  -5.622  -2.010  1.00  0.00     0.188 C 
BRANCH   2   3
ATOM      3  C   UNL     1       3.530  -6.767  -2.082  1.00  0.00     0.188 C 
BRANCH   3   4
ATOM      4  O   UNL     1       3.292  -7.854  -1.193  1.00  0.00    -0.376 OA
BRANCH   4   5
ATOM      5  C   UNL     1       4.140  -7.920  -0.050  1.00  0.00     0.202 C 
BRANCH   5   6
ATOM      6  C   UNL     1       3.716  -6.975   1.074  1.00  0.00     0.261 C 
BRANCH   6   7
ATOM      7  O   UNL     1       3.853  -5.594   0.713  1.00  0.00    -0.458 OA
BRANCH   7   8
ATOM      8  C   UNL     1       5.096  -5.089   0.652  1.00  0.00     0.359 C 
ATOM      9  O   UNL     1       6.153  -5.657   0.855  1.00  0.00    -0.244 OA
BRANCH   8  10
ATOM     10  C   UNL     1       5.006  -3.659   0.141  1.00  0.00     0.176 A 
ATOM     11  N   UNL     1       4.109  -1.549   0.376  1.00  0.00    -0.219 N 
ATOM     12  N   UNL     1       4.267  -2.837   0.826  1.00  0.00    -0.161 NA
ATOM     13  C   UNL     1       4.817  -1.009  -0.694  1.00  0.00     0.275 A 
ATOM     14  C   UNL     1       5.590  -1.962  -1.514  1.00  0.00     0.051 A 
ATOM     15  O   UNL     1       4.803   0.182  -0.997  1.00  0.00    -0.267 OA
ATOM     16  C   UNL     1       5.699  -3.288  -1.107  1.00  0.00     0.022 A 
ATOM     17  C   UNL     1       6.176  -1.540  -2.716  1.00  0.00     0.014 A 
ATOM     18  C   UNL     1       6.415  -4.196  -1.898  1.00  0.00     0.011 A 
ATOM     19  C   UNL     1       6.869  -2.452  -3.512  1.00  0.00     0.001 A 
ATOM     20  C   UNL     1       6.989  -3.778  -3.103  1.00  0.00     0.001 A 
BRANCH  11  21
ATOM     21  C   UNL     1       3.165  -0.707   1.113  1.00  0.00     0.248 C 
BRANCH  21  22
ATOM     22  C   UNL     1       2.005  -0.345   0.175  1.00  0.00     0.246 C 
ATOM     23  O   UNL     1       1.312  -1.205  -0.363  1.00  0.00    -0.273 OA
ATOM     24  N   UNL     1       1.928   1.019  -0.094  1.00  0.00    -0.324 N 
ATOM     25  H   UNL     1       2.161   1.636   0.636  1.00  0.00     0.169 HD
BRANCH  24  26
ATOM     26  C   UNL     1       1.542   1.590  -1.327  1.00  0.00     0.042 A 
ATOM     27  C   UNL     1       1.726   2.977  -1.475  1.00  0.00     0.027 A 
ATOM     28  C   UNL     1       1.229   0.815  -2.445  1.00  0.00     0.039 A 
ATOM     29  C   UNL     1       1.766   3.560  -2.745  1.00  0.00     0.015 A 
ATOM     30  C   UNL     1       1.342   1.385  -3.711  1.00  0.00     0.036 A 
ATOM     31  C   UNL     1       1.668   2.733  -3.861  1.00  0.00     0.034 A 
ATOM     32  C   UNL     1       1.442   0.492  -4.880  1.00  0.00     0.194 C 
ATOM     33  C   UNL     1       2.207   3.192  -5.160  1.00  0.00     0.194 C 
ATOM     34  O   UNL     1       0.764  -0.515  -5.008  1.00  0.00    -0.289 OA
ATOM     35  C   UNL     1       2.526   0.824  -5.818  1.00  0.00     0.034 A 
ATOM     36  C   UNL     1       2.913   2.158  -5.951  1.00  0.00     0.034 A 
ATOM     37  O   UNL     1       2.206   4.369  -5.488  1.00  0.00    -0.289 OA
ATOM     38  C   UNL     1       3.262  -0.199  -6.416  1.00  0.00     0.013 A 
ATOM     39  C   UNL     1       4.055   2.484  -6.682  1.00  0.00     0.013 A 
ATOM     40  C   UNL     1       4.425   0.123  -7.113  1.00  0.00     0.001 A 
ATOM     41  C   UNL     1       4.822   1.459  -7.243  1.00  0.00     0.001 A 
ENDBRANCH  24  26
ENDBRANCH  21  22
ENDBRANCH  11  21
ENDBRANCH   8  10
ENDBRANCH   7   8
ENDBRANCH   6   7
ENDBRANCH   5   6
ENDBRANCH   4   5
ENDBRANCH   3   4
ENDBRANCH   2   3
ENDBRANCH   1   2
BRANCH   1  42
ATOM     42  C   UNL     1       0.564  -7.027  -1.486  1.00  0.00     0.188 C 
BRANCH  42  43
ATOM     43  C   UNL     1       0.659  -7.821  -2.801  1.00  0.00     0.188 C 
BRANCH  43  44
ATOM     44  O   UNL     1       1.075  -7.062  -3.935  1.00  0.00    -0.376 OA
BRANCH  44  45
ATOM     45  C   UNL     1       0.077  -6.850  -4.928  1.00  0.00     0.202 C 
BRANCH  45  46
ATOM     46  C   UNL     1      -0.801  -5.633  -4.629  1.00  0.00     0.261 C 
BRANCH  46  47
ATOM     47  O   UNL     1      -1.608  -5.768  -3.452  1.00  0.00    -0.460 OA
BRANCH  47  48
ATOM     48  C   UNL     1      -2.532  -6.754  -3.449  1.00  0.00     0.338 C 
ATOM     49  O   UNL     1      -2.776  -7.537  -4.349  1.00  0.00    -0.246 OA
BRANCH  48  50
ATOM     50  C   UNL     1      -3.082  -6.836  -2.082  1.00  0.00     0.060 A 
ATOM     51  C   UNL     1      -3.502  -5.680  -1.417  1.00  0.00     0.016 A 
ATOM     52  C   UNL     1      -3.134  -8.084  -1.449  1.00  0.00     0.016 A 
ATOM     53  C   UNL     1      -4.010  -5.777  -0.123  1.00  0.00     0.010 A 
ATOM     54  C   UNL     1      -3.629  -8.177  -0.147  1.00  0.00     0.010 A 
ATOM     55  C   UNL     1      -4.093  -7.027   0.511  1.00  0.00    -0.014 A 
BRANCH  55  56
ATOM     56  C   UNL     1      -4.864  -7.150   1.768  1.00  0.00     0.031 A 
ATOM     57  C   UNL     1      -4.213  -7.110   3.114  1.00  0.00     0.074 A 
ATOM     58  C   UNL     1      -6.197  -7.303   1.657  1.00  0.00     0.049 A 
ATOM     59  N   UNL     1      -4.784  -7.095   4.290  1.00  0.00    -0.248 NA
ATOM     60  C   UNL     1      -2.744  -7.089   3.153  1.00  0.00     0.031 C 
ATOM     61  C   UNL     1      -6.924  -7.401   0.389  1.00  0.00     0.029 A 
ATOM     62  N   UNL     1      -7.172  -7.406   2.612  1.00  0.00    -0.354 N 
ATOM     63  C   UNL     1      -3.750  -7.060   5.215  1.00  0.00     0.074 A 
ATOM     64  C   UNL     1      -2.512  -7.076   4.462  1.00  0.00     0.031 C 
ATOM     65  C   UNL     1      -8.232  -7.548   0.645  1.00  0.00     0.029 A 
ATOM     66  C   UNL     1      -8.434  -7.548   2.091  1.00  0.00     0.049 A 
ATOM     67  H   UNL     1      -6.986  -7.380   3.579  1.00  0.00     0.167 HD
ATOM     68  C   UNL     1      -3.837  -6.992   6.565  1.00  0.00     0.034 A 
ATOM     69  C   UNL     1      -9.628  -7.646   2.704  1.00  0.00     0.034 A 
ATOM     70  C   UNL     1      -5.075  -6.953   7.300  1.00  0.00     0.049 A 
ATOM     71  C   UNL     1      -9.693  -7.546   4.198  1.00  0.00     0.074 A 
ATOM     72  C   UNL     1      -5.258  -6.808   8.665  1.00  0.00     0.029 A 
ATOM     73  N   UNL     1      -6.337  -7.067   6.738  1.00  0.00    -0.354 N 
ATOM     74  N   UNL     1      -8.715  -7.354   5.049  1.00  0.00    -0.248 NA
ATOM     75  C   UNL     1     -11.023  -7.638   4.815  1.00  0.00     0.031 C 
ATOM     76  C   UNL     1      -6.631  -6.840   8.929  1.00  0.00     0.029 A 
ATOM     77  C   UNL     1      -7.303  -7.006   7.729  1.00  0.00     0.049 A 
ATOM     78  H   UNL     1      -6.520  -7.176   5.777  1.00  0.00     0.167 HD
ATOM     79  C   UNL     1      -9.310  -7.284   6.301  1.00  0.00     0.074 A 
ATOM     80  C   UNL     1     -10.737  -7.438   6.096  1.00  0.00     0.031 C 
ATOM     81  C   UNL     1      -8.722  -7.121   7.510  1.00  0.00     0.034 A 
BRANCH  68  82
ATOM     82  C   UNL     1      -2.562  -6.870   7.353  1.00  0.00     0.023 A 
ATOM     83  C   UNL     1      -1.964  -5.601   7.473  1.00  0.00     0.012 A 
ATOM     84  C   UNL     1      -2.035  -7.959   8.073  1.00  0.00     0.148 A 
ATOM     85  C   UNL     1      -0.856  -5.414   8.299  1.00  0.00     0.002 A 
ATOM     86  C   UNL     1      -0.943  -7.761   8.911  1.00  0.00     0.091 A 
ATOM     87  F   UNL     1      -2.617  -9.159   7.934  1.00  0.00    -0.205 F 
ATOM     88  C   UNL     1      -0.353  -6.491   9.024  1.00  0.00     0.022 A 
BRANCH  86  89
ATOM     89  S   UNL     1      -0.244  -9.067   9.929  1.00  0.00     0.127 S 
ATOM     90  O   UNL     1       1.064  -9.259   9.304  1.00  0.00    -0.237 OA
ATOM     91  O   UNL     1      -0.203  -8.441  11.250  1.00  0.00    -0.237 OA
ATOM     92  O   UNL     1      -1.156 -10.197   9.818  1.00  0.00    -0.744 OA
ENDBRANCH  86  89
ENDBRANCH  68  82
BRANCH  69  93
ATOM     93  C   UNL     1     -10.854  -7.744   1.872  1.00  0.00     0.023 A 
ATOM     94  C   UNL     1     -11.641  -6.593   1.681  1.00  0.00     0.012 A 
ATOM     95  C   UNL     1     -11.178  -8.931   1.188  1.00  0.00     0.148 A 
ATOM     96  C   UNL     1     -12.739  -6.624   0.821  1.00  0.00     0.002 A 
ATOM     97  C   UNL     1     -12.251  -8.944   0.305  1.00  0.00     0.091 A 
ATOM     98  F   UNL     1     -10.409 -10.009   1.391  1.00  0.00    -0.205 F 
ATOM     99  C   UNL     1     -13.037  -7.793   0.126  1.00  0.00     0.022 A 
BRANCH  97 100
ATOM    100  S   UNL     1     -12.648 -10.367  -0.715  1.00  0.00     0.127 S 
ATOM    101  O   UNL     1     -13.933 -10.783  -0.159  1.00  0.00    -0.237 OA
ATOM    102  O   UNL     1     -12.718  -9.771  -2.050  1.00  0.00    -0.237 OA
ATOM    103  O   UNL     1     -11.550 -11.306  -0.531  1.00  0.00    -0.744 OA
ENDBRANCH  97 100
ENDBRANCH  69  93
BRANCH  81 104
ATOM    104  C   UNL     1      -9.610  -7.114   8.722  1.00  0.00     0.023 A 
ATOM    105  C   UNL     1     -10.063  -8.341   9.243  1.00  0.00     0.012 A 
ATOM    106  C   UNL     1      -9.906  -5.916   9.400  1.00  0.00     0.148 A 
ATOM    107  C   UNL     1     -10.808  -8.377  10.421  1.00  0.00     0.002 A 
ATOM    108  C   UNL     1     -10.625  -5.962  10.589  1.00  0.00     0.091 A 
ATOM    109  F   UNL     1      -9.473  -4.761   8.876  1.00  0.00    -0.205 F 
ATOM    110  C   UNL     1     -11.079  -7.191  11.098  1.00  0.00     0.022 A 
BRANCH 108 111
ATOM    111  S   UNL     1     -10.969  -4.498  11.572  1.00  0.00     0.127 S 
ATOM    112  O   UNL     1     -12.417  -4.370  11.419  1.00  0.00    -0.237 OA
ATOM    113  O   UNL     1     -10.530  -4.910  12.905  1.00  0.00    -0.237 OA
ATOM    114  O   UNL     1     -10.185  -3.421  10.981  1.00  0.00    -0.744 OA
ENDBRANCH 108 111
ENDBRANCH  81 104
ENDBRANCH  55  56
ENDBRANCH  48  50
ENDBRANCH  47  48
ENDBRANCH  46  47
ENDBRANCH  45  46
ENDBRANCH  44  45
ENDBRANCH  43  44
ENDBRANCH  42  43
ENDBRANCH   1  42
TORSDOF 26
