REMARK SMILES CN(C)S(=O)(=O)c1ccc(-n2c(CCC(=O)OCCOCCOCCOCCOC(=O)c3ccc(-c4c5nc(c(-c6cccc(S(=O)(=O)[O-])c6F)c6ccc([nH]6)c(-c6cccc(S(=O)(=O)[O-])c6F)c6nc(c(-c7cccc(S(=O)(=O)[O-])c7F)c7ccc4[nH]7)C=C6)C=C5)cc3)ccc2-c2ccc(F)cc2)cc1
REMARK SMILES IDX 22 1 21 2 20 3 19 4 18 5 17 6 15 7 16 8 14 9 13 10 12 11
REMARK SMILES IDX 11 12 97 13 95 14 96 15 10 16 7 17 8 18 106 19 9 20 105 21
REMARK SMILES IDX 4 22 5 23 6 24 2 25 1 26 3 27 98 28 99 29 104 30 100 31
REMARK SMILES IDX 103 32 101 33 102 34 23 35 24 36 25 37 26 38 27 39 28 40
REMARK SMILES IDX 29 41 30 42 31 43 32 44 33 45 94 46 34 47 93 48 35 49 36 50
REMARK SMILES IDX 37 51 87 52 38 53 92 54 86 55 88 56 39 57 91 58 85 59 84 60
REMARK SMILES IDX 40 62 72 63 52 64 71 65 53 66 56 67 70 68 89 69 54 70 55 71
REMARK SMILES IDX 69 73 90 74 57 75 41 76 42 77 50 78 43 79 45 80 51 81 44 82
REMARK SMILES IDX 46 83 47 84 48 85 49 86 73 87 74 88 82 89 75 90 77 91 83 92
REMARK SMILES IDX 76 93 78 94 79 95 80 96 81 97 58 98 59 99 67 100 60 101
REMARK SMILES IDX 62 102 68 103 61 104 63 105 64 106 65 107 66 108
REMARK H PARENT 88 61 56 72
REMARK Flexibility Score: inf
ROOT
ATOM      1  C   UNL     1      -2.303   3.333  -4.789  1.00  0.00     0.188 C 
ENDROOT
BRANCH   1   2
ATOM      2  C   UNL     1      -1.664   2.088  -4.162  1.00  0.00     0.188 C 
BRANCH   2   3
ATOM      3  O   UNL     1      -0.231   1.863  -4.675  1.00  0.00    -0.376 OA
BRANCH   3   4
ATOM      4  C   UNL     1       1.096   0.694  -5.597  1.00  0.00     0.202 C 
BRANCH   4   5
ATOM      5  C   UNL     1       0.910  -0.592  -6.738  1.00  0.00     0.261 C 
BRANCH   5   6
ATOM      6  O   UNL     1      -0.063  -0.465  -7.816  1.00  0.00    -0.463 OA
BRANCH   6   7
ATOM      7  C   UNL     1      -1.063  -1.390  -7.853  1.00  0.00     0.306 C 
ATOM      8  O   UNL     1      -0.940  -2.537  -7.430  1.00  0.00    -0.252 OA
BRANCH   7   9
ATOM      9  C   UNL     1      -2.410  -0.870  -8.367  1.00  0.00     0.129 C 
BRANCH   9  10
ATOM     10  C   UNL     1      -2.895   0.551  -8.039  1.00  0.00     0.066 C 
BRANCH  10  11
ATOM     11  C   UNL     1      -2.021   1.627  -8.569  1.00  0.00     0.024 A 
ATOM     12  N   UNL     1      -0.900   2.150  -7.926  1.00  0.00    -0.314 N 
ATOM     13  C   UNL     1      -0.245   2.978  -8.862  1.00  0.00     0.053 A 
ATOM     14  C   UNL     1      -2.210   2.323  -9.748  1.00  0.00     0.024 A 
ATOM     15  C   UNL     1      -1.108   3.169  -9.927  1.00  0.00     0.029 A 
BRANCH  12  16
ATOM     16  C   UNL     1      -0.447   1.846  -6.592  1.00  0.00     0.046 A 
ATOM     17  C   UNL     1       0.989   1.175  -3.341  1.00  0.00     0.082 A 
ATOM     18  C   UNL     1       1.523   2.591  -4.294  1.00  0.00     0.024 A 
ATOM     19  C   UNL     1      -0.227   0.027  -3.998  1.00  0.00     0.024 A 
ATOM     20  C   UNL     1       0.786   2.956  -5.883  1.00  0.00     0.028 A 
ATOM     21  C   UNL     1      -0.990   0.378  -5.619  1.00  0.00     0.028 A 
BRANCH  17  22
ATOM     22  S   UNL     1       1.488   1.182  -1.655  1.00  0.00     0.242 S 
ATOM     23  O   UNL     1       1.115   2.481  -1.098  1.00  0.00    -0.207 OA
ATOM     24  O   UNL     1       2.847   0.726  -1.636  1.00  0.00    -0.207 OA
BRANCH  22  25
ATOM     25  N   UNL     1       0.521   0.015  -0.850  1.00  0.00    -0.204 NA
ATOM     26  C   UNL     1       1.086  -0.334   0.481  1.00  0.00     0.124 C 
ATOM     27  C   UNL     1      -0.915   0.354  -0.706  1.00  0.00     0.124 C 
ENDBRANCH  22  25
ENDBRANCH  17  22
ENDBRANCH  12  16
BRANCH  13  28
ATOM     28  C   UNL     1       1.135   3.484  -8.802  1.00  0.00    -0.001 A 
ATOM     29  C   UNL     1       1.394   4.863  -8.869  1.00  0.00     0.013 A 
ATOM     30  C   UNL     1       2.217   2.596  -8.682  1.00  0.00     0.013 A 
ATOM     31  C   UNL     1       2.700   5.346  -8.741  1.00  0.00     0.040 A 
ATOM     32  C   UNL     1       3.520   3.081  -8.537  1.00  0.00     0.040 A 
ATOM     33  C   UNL     1       3.748   4.451  -8.559  1.00  0.00     0.123 A 
ATOM     34  F   UNL     1       4.996   4.910  -8.401  1.00  0.00    -0.207 F 
ENDBRANCH  13  28
ENDBRANCH  10  11
ENDBRANCH   9  10
ENDBRANCH   7   9
ENDBRANCH   6   7
ENDBRANCH   5   6
ENDBRANCH   4   5
ENDBRANCH   3   4
ENDBRANCH   2   3
ENDBRANCH   1   2
BRANCH   1  35
ATOM     35  O   UNL     1      -1.750   4.601  -4.460  1.00  0.00    -0.377 OA
BRANCH  35  36
ATOM     36  C   UNL     1      -0.872   4.710  -3.357  1.00  0.00     0.188 C 
BRANCH  36  37
ATOM     37  C   UNL     1      -1.420   5.317  -2.063  1.00  0.00     0.188 C 
BRANCH  37  38
ATOM     38  O   UNL     1      -2.712   4.987  -1.578  1.00  0.00    -0.376 OA
BRANCH  38  39
ATOM     39  C   UNL     1      -3.876   5.131  -2.380  1.00  0.00     0.202 C 
BRANCH  39  40
ATOM     40  C   UNL     1      -4.200   6.401  -3.166  1.00  0.00     0.261 C 
BRANCH  40  41
ATOM     41  O   UNL     1      -3.256   6.702  -4.179  1.00  0.00    -0.460 OA
BRANCH  41  42
ATOM     42  C   UNL     1      -2.374   7.646  -3.801  1.00  0.00     0.338 C 
ATOM     43  O   UNL     1      -2.300   8.188  -2.707  1.00  0.00    -0.246 OA
BRANCH  42  44
ATOM     44  C   UNL     1      -1.556   8.070  -4.943  1.00  0.00     0.060 A 
ATOM     45  C   UNL     1      -0.356   8.673  -4.545  1.00  0.00     0.016 A 
ATOM     46  C   UNL     1      -2.366   8.608  -5.944  1.00  0.00     0.016 A 
ATOM     47  C   UNL     1      -0.177   9.998  -4.866  1.00  0.00     0.010 A 
ATOM     48  C   UNL     1      -2.239   9.952  -6.188  1.00  0.00     0.010 A 
ATOM     49  C   UNL     1      -1.175  10.648  -5.606  1.00  0.00    -0.014 A 
BRANCH  49  50
ATOM     50  C   UNL     1      -0.965  12.061  -5.923  1.00  0.00     0.031 A 
ATOM     51  C   UNL     1      -0.084  12.127  -7.178  1.00  0.00     0.074 A 
ATOM     52  C   UNL     1      -1.463  12.972  -5.027  1.00  0.00     0.049 A 
ATOM     53  N   UNL     1       1.010  12.794  -7.387  1.00  0.00    -0.248 NA
ATOM     54  C   UNL     1      -0.321  11.147  -8.280  1.00  0.00     0.031 C 
ATOM     55  C   UNL     1      -2.348  12.658  -3.875  1.00  0.00     0.029 A 
ATOM     56  N   UNL     1      -1.338  14.339  -4.885  1.00  0.00    -0.354 N 
ATOM     57  C   UNL     1       1.395  12.518  -8.720  1.00  0.00     0.074 A 
ATOM     58  C   UNL     1       0.708  11.332  -9.105  1.00  0.00     0.031 C 
ATOM     59  C   UNL     1      -2.600  13.764  -3.133  1.00  0.00     0.029 A 
ATOM     60  C   UNL     1      -1.924  14.907  -3.721  1.00  0.00     0.049 A 
ATOM     61  H   UNL     1      -0.870  14.889  -5.553  1.00  0.00     0.167 HD
ATOM     62  C   UNL     1       2.038  13.432  -9.505  1.00  0.00     0.034 A 
ATOM     63  C   UNL     1      -1.819  16.194  -3.250  1.00  0.00     0.034 A 
ATOM     64  C   UNL     1       2.193  14.639  -8.756  1.00  0.00     0.049 A 
ATOM     65  C   UNL     1      -1.072  16.913  -4.290  1.00  0.00     0.074 A 
ATOM     66  C   UNL     1       2.965  14.978  -7.677  1.00  0.00     0.029 A 
ATOM     67  N   UNL     1       1.140  15.519  -8.875  1.00  0.00    -0.354 N 
ATOM     68  N   UNL     1      -1.560  17.270  -5.441  1.00  0.00    -0.248 NA
ATOM     69  C   UNL     1       0.367  17.128  -4.093  1.00  0.00     0.031 C 
ATOM     70  C   UNL     1       2.098  15.785  -6.911  1.00  0.00     0.029 A 
ATOM     71  C   UNL     1       0.955  16.108  -7.655  1.00  0.00     0.049 A 
ATOM     72  H   UNL     1       0.616  15.693  -9.690  1.00  0.00     0.167 HD
ATOM     73  C   UNL     1      -0.421  17.383  -6.199  1.00  0.00     0.074 A 
ATOM     74  C   UNL     1       0.663  17.649  -5.279  1.00  0.00     0.031 C 
ATOM     75  C   UNL     1      -0.329  16.706  -7.374  1.00  0.00     0.034 A 
BRANCH  62  76
ATOM     76  C   UNL     1       2.253  13.552 -10.998  1.00  0.00     0.023 A 
ATOM     77  C   UNL     1       3.116  14.616 -11.389  1.00  0.00     0.012 A 
ATOM     78  C   UNL     1       1.486  12.948 -12.010  1.00  0.00     0.148 A 
ATOM     79  C   UNL     1       3.097  15.164 -12.668  1.00  0.00     0.002 A 
ATOM     80  C   UNL     1       1.519  13.461 -13.309  1.00  0.00     0.091 A 
ATOM     81  F   UNL     1       0.669  11.935 -11.717  1.00  0.00    -0.205 F 
ATOM     82  C   UNL     1       2.280  14.595 -13.626  1.00  0.00     0.022 A 
BRANCH  80  83
ATOM     83  S   UNL     1       0.592  12.733 -14.666  1.00  0.00     0.127 S 
ATOM     84  O   UNL     1      -0.443  13.736 -14.899  1.00  0.00    -0.237 OA
ATOM     85  O   UNL     1       1.612  12.660 -15.715  1.00  0.00    -0.237 OA
ATOM     86  O   UNL     1       0.141  11.434 -14.189  1.00  0.00    -0.744 OA
ENDBRANCH  80  83
ENDBRANCH  62  76
BRANCH  63  87
ATOM     87  C   UNL     1      -2.137  16.980  -1.989  1.00  0.00     0.023 A 
ATOM     88  C   UNL     1      -3.087  16.604  -1.032  1.00  0.00     0.012 A 
ATOM     89  C   UNL     1      -1.411  18.181  -1.691  1.00  0.00     0.148 A 
ATOM     90  C   UNL     1      -3.232  17.324   0.179  1.00  0.00     0.002 A 
ATOM     91  C   UNL     1      -1.460  18.810  -0.452  1.00  0.00     0.091 A 
ATOM     92  F   UNL     1      -0.689  18.778  -2.642  1.00  0.00    -0.205 F 
ATOM     93  C   UNL     1      -2.389  18.393   0.491  1.00  0.00     0.022 A 
BRANCH  91  94
ATOM     94  S   UNL     1      -0.255  20.071   0.022  1.00  0.00     0.127 S 
ATOM     95  O   UNL     1      -1.108  21.192   0.410  1.00  0.00    -0.237 OA
ATOM     96  O   UNL     1       0.437  19.413   1.130  1.00  0.00    -0.237 OA
ATOM     97  O   UNL     1       0.579  20.307  -1.150  1.00  0.00    -0.744 OA
ENDBRANCH  91  94
ENDBRANCH  63  87
BRANCH  75  98
ATOM     98  C   UNL     1      -1.667  16.410  -8.056  1.00  0.00     0.023 A 
ATOM     99  C   UNL     1      -2.474  17.516  -8.389  1.00  0.00     0.012 A 
ATOM    100  C   UNL     1      -2.224  15.126  -8.273  1.00  0.00     0.148 A 
ATOM    101  C   UNL     1      -3.770  17.362  -8.891  1.00  0.00     0.002 A 
ATOM    102  C   UNL     1      -3.532  14.967  -8.751  1.00  0.00     0.091 A 
ATOM    103  F   UNL     1      -1.473  14.059  -8.019  1.00  0.00    -0.205 F 
ATOM    104  C   UNL     1      -4.303  16.091  -9.066  1.00  0.00     0.022 A 
BRANCH 102 105
ATOM    105  S   UNL     1      -4.360  13.369  -8.924  1.00  0.00     0.127 S 
ATOM    106  O   UNL     1      -5.618  13.582  -8.203  1.00  0.00    -0.237 OA
ATOM    107  O   UNL     1      -4.516  13.255 -10.371  1.00  0.00    -0.237 OA
ATOM    108  O   UNL     1      -3.483  12.379  -8.310  1.00  0.00    -0.744 OA
ENDBRANCH 102 105
ENDBRANCH  75  98
ENDBRANCH  49  50
ENDBRANCH  42  44
ENDBRANCH  41  42
ENDBRANCH  40  41
ENDBRANCH  39  40
ENDBRANCH  38  39
ENDBRANCH  37  38
ENDBRANCH  36  37
ENDBRANCH  35  36
ENDBRANCH   1  35
TORSDOF 29
