REMARK SMILES O=C(OCCOCCOCCOCCOC(=O)c1ccc(-c2c3nc(c(-c4cccc(S(=O)(=O)[O-])c4F)c4ccc([nH]4)c(-c4cccc(S(=O)(=O)[O-])c4F)c4nc(c(-c5cccc(S(=O)(=O)[O-])c5F)c5ccc2[nH]5)C=C4)C=C3)cc1)C1=Cc2ccc(Cl)c(Cl)c2O[C@@H]1C(F)(F)F
REMARK SMILES IDX 10 1 9 2 8 3 7 4 6 5 5 6 4 7 3 8 2 9 1 10 81 11 82 12 92 13
REMARK SMILES IDX 83 14 91 15 84 16 90 17 85 18 88 19 86 20 89 21 87 22 93 23
REMARK SMILES IDX 94 24 95 25 96 26 11 27 12 28 13 29 14 30 15 31 16 32 17 33
REMARK SMILES IDX 18 34 19 35 80 36 20 37 79 38 21 39 22 40 23 41 73 42 24 43
REMARK SMILES IDX 78 44 72 45 74 46 25 47 77 48 71 49 70 50 26 52 58 53 38 54
REMARK SMILES IDX 57 55 39 56 42 57 56 58 75 59 40 60 41 61 55 63 76 64 43 65
REMARK SMILES IDX 27 66 28 67 36 68 29 69 31 70 37 71 30 72 32 73 33 74 34 75
REMARK SMILES IDX 35 76 59 77 60 78 68 79 61 80 63 81 69 82 62 83 64 84 65 85
REMARK SMILES IDX 66 86 67 87 44 88 45 89 53 90 46 91 48 92 54 93 47 94 49 95
REMARK SMILES IDX 50 96 51 97 52 98
REMARK H PARENT 74 51 42 62
REMARK Flexibility Score: inf
ROOT
ATOM      1  C   UNL     1       4.181   1.501   3.321  1.00  0.00     0.188 C 
ENDROOT
BRANCH   1   2
ATOM      2  O   UNL     1       2.843   1.412   3.750  1.00  0.00    -0.377 OA
BRANCH   2   3
ATOM      3  C   UNL     1       1.996   0.956   2.724  1.00  0.00     0.188 C 
BRANCH   3   4
ATOM      4  C   UNL     1       2.313  -0.458   2.224  1.00  0.00     0.188 C 
BRANCH   4   5
ATOM      5  O   UNL     1       3.634  -0.906   1.760  1.00  0.00    -0.376 OA
BRANCH   5   6
ATOM      6  C   UNL     1       4.396  -0.882   0.290  1.00  0.00     0.202 C 
BRANCH   6   7
ATOM      7  C   UNL     1       3.679   0.036  -1.558  1.00  0.00     0.261 C 
BRANCH   7   8
ATOM      8  O   UNL     1       2.769  -0.603  -2.587  1.00  0.00    -0.460 OA
BRANCH   8   9
ATOM      9  C   UNL     1       2.963  -1.922  -2.690  1.00  0.00     0.338 C 
ATOM     10  O   UNL     1       2.308  -2.731  -3.298  1.00  0.00    -0.246 OA
BRANCH   9  11
ATOM     11  C   UNL     1       3.819  -2.068  -1.523  1.00  0.00     0.087 C 
ATOM     12  C   UNL     1       5.203  -1.627  -1.733  1.00  0.00     0.027 C 
ATOM     13  C   UNL     1       2.559  -1.206  -0.358  1.00  0.00     0.316 C 
ATOM     14  C   UNL     1       5.876  -0.074  -1.119  1.00  0.00     0.019 A 
ATOM     15  O   UNL     1       3.204   0.545   0.209  1.00  0.00    -0.474 OA
ATOM     16  C   UNL     1       7.164   0.258  -1.440  1.00  0.00     0.013 A 
ATOM     17  C   UNL     1       4.905   1.080  -0.257  1.00  0.00     0.148 A 
ATOM     18  C   UNL     1       7.577   1.530  -1.006  1.00  0.00     0.023 A 
ATOM     19  C   UNL     1       5.378   2.334   0.064  1.00  0.00     0.102 A 
ATOM     20  C   UNL     1       6.744   2.510  -0.305  1.00  0.00     0.063 A 
ATOM     21  Cl  UNL     1       4.416   3.587   0.708  1.00  0.00    -0.079 Cl
ATOM     22  Cl  UNL     1       7.581   3.994   0.072  1.00  0.00    -0.083 Cl
BRANCH  13  23
ATOM     23  C   UNL     1       2.251  -2.622   0.475  1.00  0.00     0.430 C 
ATOM     24  F   UNL     1       1.365  -2.595   1.486  1.00  0.00    -0.167 F 
ATOM     25  F   UNL     1       1.688  -3.486  -0.428  1.00  0.00    -0.167 F 
ATOM     26  F   UNL     1       3.353  -3.282   0.914  1.00  0.00    -0.167 F 
ENDBRANCH  13  23
ENDBRANCH   9  11
ENDBRANCH   8   9
ENDBRANCH   7   8
ENDBRANCH   6   7
ENDBRANCH   5   6
ENDBRANCH   4   5
ENDBRANCH   3   4
ENDBRANCH   2   3
ENDBRANCH   1   2
BRANCH   1  27
ATOM     27  C   UNL     1       5.165   0.517   3.961  1.00  0.00     0.188 C 
BRANCH  27  28
ATOM     28  O   UNL     1       4.750  -0.605   4.721  1.00  0.00    -0.376 OA
BRANCH  28  29
ATOM     29  C   UNL     1       3.559  -0.575   5.486  1.00  0.00     0.202 C 
BRANCH  29  30
ATOM     30  C   UNL     1       3.308   0.482   6.574  1.00  0.00     0.261 C 
BRANCH  30  31
ATOM     31  O   UNL     1       3.610   1.842   6.238  1.00  0.00    -0.460 OA
BRANCH  31  32
ATOM     32  C   UNL     1       4.865   2.248   6.529  1.00  0.00     0.338 C 
ATOM     33  O   UNL     1       5.724   1.602   7.105  1.00  0.00    -0.246 OA
BRANCH  32  34
ATOM     34  C   UNL     1       5.135   3.544   5.864  1.00  0.00     0.060 A 
ATOM     35  C   UNL     1       6.320   3.667   5.120  1.00  0.00     0.016 A 
ATOM     36  C   UNL     1       4.258   4.625   5.973  1.00  0.00     0.016 A 
ATOM     37  C   UNL     1       6.659   4.878   4.527  1.00  0.00     0.010 A 
ATOM     38  C   UNL     1       4.623   5.856   5.421  1.00  0.00     0.010 A 
ATOM     39  C   UNL     1       5.849   5.996   4.743  1.00  0.00    -0.014 A 
BRANCH  39  40
ATOM     40  C   UNL     1       6.420   7.340   4.500  1.00  0.00     0.031 A 
ATOM     41  C   UNL     1       6.984   8.086   5.678  1.00  0.00     0.074 A 
ATOM     42  C   UNL     1       6.474   7.871   3.267  1.00  0.00     0.049 A 
ATOM     43  N   UNL     1       7.490   9.289   5.734  1.00  0.00    -0.248 NA
ATOM     44  C   UNL     1       6.971   7.378   6.971  1.00  0.00     0.031 C 
ATOM     45  C   UNL     1       6.003   7.222   2.047  1.00  0.00     0.029 A 
ATOM     46  N   UNL     1       6.932   9.094   2.848  1.00  0.00    -0.354 N 
ATOM     47  C   UNL     1       7.814   9.498   7.069  1.00  0.00     0.074 A 
ATOM     48  C   UNL     1       7.443   8.303   7.792  1.00  0.00     0.031 C 
ATOM     49  C   UNL     1       6.163   8.069   1.016  1.00  0.00     0.029 A 
ATOM     50  C   UNL     1       6.711   9.330   1.513  1.00  0.00     0.049 A 
ATOM     51  H   UNL     1       7.375   9.740   3.445  1.00  0.00     0.167 HD
ATOM     52  C   UNL     1       8.374  10.589   7.641  1.00  0.00     0.034 A 
ATOM     53  C   UNL     1       6.893  10.452   0.788  1.00  0.00     0.034 A 
ATOM     54  C   UNL     1       8.741  11.773   6.914  1.00  0.00     0.049 A 
ATOM     55  C   UNL     1       7.463  11.675   1.459  1.00  0.00     0.074 A 
ATOM     56  C   UNL     1       9.348  12.920   7.391  1.00  0.00     0.029 A 
ATOM     57  N   UNL     1       8.510  11.974   5.562  1.00  0.00    -0.354 N 
ATOM     58  N   UNL     1       7.843  11.835   2.704  1.00  0.00    -0.248 NA
ATOM     59  C   UNL     1       7.656  12.866   0.618  1.00  0.00     0.031 C 
ATOM     60  C   UNL     1       9.426  13.839   6.342  1.00  0.00     0.029 A 
ATOM     61  C   UNL     1       8.938  13.237   5.193  1.00  0.00     0.049 A 
ATOM     62  H   UNL     1       8.102  11.316   4.954  1.00  0.00     0.167 HD
ATOM     63  C   UNL     1       8.358  13.125   2.785  1.00  0.00     0.074 A 
ATOM     64  C   UNL     1       8.257  13.696   1.459  1.00  0.00     0.031 C 
ATOM     65  C   UNL     1       8.865  13.779   3.860  1.00  0.00     0.034 A 
BRANCH  52  66
ATOM     66  C   UNL     1       8.602  10.560   9.129  1.00  0.00     0.023 A 
ATOM     67  C   UNL     1       9.578   9.708   9.685  1.00  0.00     0.012 A 
ATOM     68  C   UNL     1       7.870  11.416   9.976  1.00  0.00     0.148 A 
ATOM     69  C   UNL     1       9.794   9.679  11.063  1.00  0.00     0.002 A 
ATOM     70  C   UNL     1       8.128  11.421  11.340  1.00  0.00     0.091 A 
ATOM     71  F   UNL     1       6.932  12.204   9.431  1.00  0.00    -0.205 F 
ATOM     72  C   UNL     1       9.078  10.543  11.887  1.00  0.00     0.022 A 
BRANCH  70  73
ATOM     73  S   UNL     1       7.319  12.554  12.474  1.00  0.00     0.127 S 
ATOM     74  O   UNL     1       6.535  11.635  13.299  1.00  0.00    -0.237 OA
ATOM     75  O   UNL     1       8.459  13.165  13.158  1.00  0.00    -0.237 OA
ATOM     76  O   UNL     1       6.540  13.466  11.650  1.00  0.00    -0.744 OA
ENDBRANCH  70  73
ENDBRANCH  52  66
BRANCH  53  77
ATOM     77  C   UNL     1       6.529  10.477  -0.657  1.00  0.00     0.023 A 
ATOM     78  C   UNL     1       7.536  10.618  -1.631  1.00  0.00     0.012 A 
ATOM     79  C   UNL     1       5.186  10.369  -1.068  1.00  0.00     0.148 A 
ATOM     80  C   UNL     1       7.209  10.690  -2.986  1.00  0.00     0.002 A 
ATOM     81  C   UNL     1       4.872  10.382  -2.421  1.00  0.00     0.091 A 
ATOM     82  F   UNL     1       4.242  10.247  -0.125  1.00  0.00    -0.205 F 
ATOM     83  C   UNL     1       5.880  10.564  -3.381  1.00  0.00     0.022 A 
BRANCH  81  84
ATOM     84  S   UNL     1       3.205  10.110  -3.030  1.00  0.00     0.127 S 
ATOM     85  O   UNL     1       2.904  11.394  -3.659  1.00  0.00    -0.237 OA
ATOM     86  O   UNL     1       3.408   9.000  -3.962  1.00  0.00    -0.237 OA
ATOM     87  O   UNL     1       2.403   9.780  -1.861  1.00  0.00    -0.744 OA
ENDBRANCH  81  84
ENDBRANCH  53  77
BRANCH  65  88
ATOM     88  C   UNL     1       9.413  15.167   3.643  1.00  0.00     0.023 A 
ATOM     89  C   UNL     1       8.548  16.242   3.356  1.00  0.00     0.012 A 
ATOM     90  C   UNL     1      10.793  15.414   3.794  1.00  0.00     0.148 A 
ATOM     91  C   UNL     1       9.053  17.530   3.179  1.00  0.00     0.002 A 
ATOM     92  C   UNL     1      11.281  16.708   3.675  1.00  0.00     0.091 A 
ATOM     93  F   UNL     1      11.602  14.377   4.057  1.00  0.00    -0.205 F 
ATOM     94  C   UNL     1      10.416  17.765   3.349  1.00  0.00     0.022 A 
BRANCH  92  95
ATOM     95  S   UNL     1      13.003  17.122   3.974  1.00  0.00     0.127 S 
ATOM     96  O   UNL     1      13.450  17.515   2.639  1.00  0.00    -0.237 OA
ATOM     97  O   UNL     1      12.892  18.224   4.929  1.00  0.00    -0.237 OA
ATOM     98  O   UNL     1      13.624  15.917   4.506  1.00  0.00    -0.744 OA
ENDBRANCH  92  95
ENDBRANCH  65  88
ENDBRANCH  39  40
ENDBRANCH  32  34
ENDBRANCH  31  32
ENDBRANCH  30  31
ENDBRANCH  29  30
ENDBRANCH  28  29
ENDBRANCH  27  28
ENDBRANCH   1  27
TORSDOF 24
