REMARK SMILES O=C(OCCOCCOCCOCCOC(=O)[C@@H](Cc1c[nH]c2ccccc12)NC(=O)c1ccc(F)cc1F)c1ccc(-c2c3nc(c(-c4cccc(S(=O)(=O)[O-])c4F)c4ccc([nH]4)c(-c4cccc(S(=O)(=O)[O-])c4F)c4nc(c(-c5cccc(S(=O)(=O)[O-])c5F)c5ccc2[nH]5)C=C4)C=C3)cc1
REMARK SMILES IDX 8 1 7 2 6 3 5 4 4 5 3 6 2 7 1 8 40 9 41 10 102 11 42 12
REMARK SMILES IDX 101 13 43 14 44 15 45 16 95 17 46 18 100 19 94 20 96 21
REMARK SMILES IDX 47 22 99 23 93 24 92 25 48 27 80 28 60 29 79 30 61 31 64 32
REMARK SMILES IDX 78 33 97 34 62 35 63 36 77 38 98 39 65 40 49 41 50 42 58 43
REMARK SMILES IDX 51 44 53 45 59 46 52 47 54 48 55 49 56 50 57 51 81 52 82 53
REMARK SMILES IDX 90 54 83 55 85 56 91 57 84 58 86 59 87 60 88 61 89 62 66 63
REMARK SMILES IDX 67 64 75 65 68 66 70 67 76 68 69 69 71 70 72 71 73 72 74 73
REMARK SMILES IDX 9 74 10 75 11 76 12 77 13 78 14 79 15 80 16 81 17 82 18 83
REMARK SMILES IDX 19 84 20 85 21 86 28 87 22 88 23 89 27 90 24 92 26 93 25 94
REMARK SMILES IDX 29 95 30 96 31 98 32 99 33 100 38 101 34 102 37 103 39 104
REMARK SMILES IDX 35 105 36 106
REMARK H PARENT 96 26 64 37 22 91 29 97
REMARK Flexibility Score: inf
ROOT
ATOM      1  C   UNL     1       2.878   1.193  -2.636  1.00  0.00     0.188 C 
ENDROOT
BRANCH   1   2
ATOM      2  C   UNL     1       3.001   0.085  -1.611  1.00  0.00     0.188 C 
BRANCH   2   3
ATOM      3  O   UNL     1       4.258   0.189  -0.975  1.00  0.00    -0.376 OA
BRANCH   3   4
ATOM      4  C   UNL     1       4.824  -0.919  -0.315  1.00  0.00     0.202 C 
BRANCH   4   5
ATOM      5  C   UNL     1       3.898  -2.005   0.206  1.00  0.00     0.261 C 
BRANCH   5   6
ATOM      6  O   UNL     1       2.526  -1.659   0.522  1.00  0.00    -0.460 OA
BRANCH   6   7
ATOM      7  C   UNL     1       1.930  -0.864   1.438  1.00  0.00     0.338 C 
ATOM      8  O   UNL     1       0.713  -0.927   1.587  1.00  0.00    -0.246 OA
BRANCH   7   9
ATOM      9  C   UNL     1       2.689   0.072   2.292  1.00  0.00     0.060 A 
ATOM     10  C   UNL     1       3.609   0.977   1.784  1.00  0.00     0.016 A 
ATOM     11  C   UNL     1       2.362   0.161   3.647  1.00  0.00     0.016 A 
ATOM     12  C   UNL     1       4.429   1.712   2.617  1.00  0.00     0.010 A 
ATOM     13  C   UNL     1       3.070   1.031   4.481  1.00  0.00     0.010 A 
ATOM     14  C   UNL     1       4.178   1.733   3.982  1.00  0.00    -0.014 A 
BRANCH  14  15
ATOM     15  C   UNL     1       5.181   2.354   4.874  1.00  0.00     0.031 A 
ATOM     16  C   UNL     1       5.887   1.461   5.854  1.00  0.00     0.074 A 
ATOM     17  C   UNL     1       5.538   3.643   4.715  1.00  0.00     0.049 A 
ATOM     18  N   UNL     1       6.717   1.772   6.810  1.00  0.00    -0.248 NA
ATOM     19  C   UNL     1       5.618   0.014   5.746  1.00  0.00     0.031 C 
ATOM     20  C   UNL     1       4.996   4.556   3.703  1.00  0.00     0.029 A 
ATOM     21  N   UNL     1       6.464   4.403   5.379  1.00  0.00    -0.354 N 
ATOM     22  C   UNL     1       6.981   0.581   7.477  1.00  0.00     0.074 A 
ATOM     23  C   UNL     1       6.250  -0.465   6.804  1.00  0.00     0.031 C 
ATOM     24  C   UNL     1       5.632   5.735   3.784  1.00  0.00     0.029 A 
ATOM     25  C   UNL     1       6.545   5.697   4.918  1.00  0.00     0.049 A 
ATOM     26  H   UNL     1       7.018   4.057   6.115  1.00  0.00     0.167 HD
ATOM     27  C   UNL     1       7.760   0.387   8.564  1.00  0.00     0.034 A 
ATOM     28  C   UNL     1       7.246   6.742   5.395  1.00  0.00     0.034 A 
ATOM     29  C   UNL     1       8.522   1.442   9.168  1.00  0.00     0.049 A 
ATOM     30  C   UNL     1       8.089   6.507   6.619  1.00  0.00     0.074 A 
ATOM     31  C   UNL     1       9.330   1.396  10.286  1.00  0.00     0.029 A 
ATOM     32  N   UNL     1       8.569   2.743   8.684  1.00  0.00    -0.354 N 
ATOM     33  N   UNL     1       8.305   5.386   7.267  1.00  0.00    -0.248 NA
ATOM     34  C   UNL     1       8.784   7.672   7.178  1.00  0.00     0.031 C 
ATOM     35  C   UNL     1       9.846   2.680  10.493  1.00  0.00     0.029 A 
ATOM     36  C   UNL     1       9.389   3.515   9.482  1.00  0.00     0.049 A 
ATOM     37  H   UNL     1       8.088   3.067   7.888  1.00  0.00     0.167 HD
ATOM     38  C   UNL     1       9.181   5.702   8.296  1.00  0.00     0.074 A 
ATOM     39  C   UNL     1       9.474   7.118   8.166  1.00  0.00     0.031 C 
ATOM     40  C   UNL     1       9.687   4.909   9.273  1.00  0.00     0.034 A 
BRANCH  27  41
ATOM     41  C   UNL     1       7.760  -0.988   9.176  1.00  0.00     0.023 A 
ATOM     42  C   UNL     1       8.399  -2.066   8.531  1.00  0.00     0.012 A 
ATOM     43  C   UNL     1       7.075  -1.216  10.386  1.00  0.00     0.148 A 
ATOM     44  C   UNL     1       8.315  -3.357   9.055  1.00  0.00     0.002 A 
ATOM     45  C   UNL     1       7.034  -2.495  10.926  1.00  0.00     0.091 A 
ATOM     46  F   UNL     1       6.445  -0.185  10.967  1.00  0.00    -0.205 F 
ATOM     47  C   UNL     1       7.639  -3.570  10.254  1.00  0.00     0.022 A 
BRANCH  45  48
ATOM     48  S   UNL     1       6.239  -2.858  12.494  1.00  0.00     0.127 S 
ATOM     49  O   UNL     1       5.090  -3.654  12.065  1.00  0.00    -0.237 OA
ATOM     50  O   UNL     1       7.277  -3.614  13.194  1.00  0.00    -0.237 OA
ATOM     51  O   UNL     1       5.916  -1.569  13.090  1.00  0.00    -0.744 OA
ENDBRANCH  45  48
ENDBRANCH  27  41
BRANCH  28  52
ATOM     52  C   UNL     1       7.168   8.081   4.737  1.00  0.00     0.023 A 
ATOM     53  C   UNL     1       8.318   8.635   4.141  1.00  0.00     0.012 A 
ATOM     54  C   UNL     1       5.957   8.801   4.678  1.00  0.00     0.148 A 
ATOM     55  C   UNL     1       8.269   9.888   3.524  1.00  0.00     0.002 A 
ATOM     56  C   UNL     1       5.902  10.020   4.010  1.00  0.00     0.091 A 
ATOM     57  F   UNL     1       4.875   8.276   5.270  1.00  0.00    -0.205 F 
ATOM     58  C   UNL     1       7.061  10.574   3.448  1.00  0.00     0.022 A 
BRANCH  56  59
ATOM     59  S   UNL     1       4.354  10.898   3.751  1.00  0.00     0.127 S 
ATOM     60  O   UNL     1       4.507  12.040   4.658  1.00  0.00    -0.237 OA
ATOM     61  O   UNL     1       4.436  11.237   2.325  1.00  0.00    -0.237 OA
ATOM     62  O   UNL     1       3.307   9.959   4.083  1.00  0.00    -0.744 OA
ENDBRANCH  56  59
ENDBRANCH  28  52
BRANCH  40  63
ATOM     63  C   UNL     1      10.648   5.545  10.236  1.00  0.00     0.023 A 
ATOM     64  C   UNL     1      10.173   6.422  11.229  1.00  0.00     0.012 A 
ATOM     65  C   UNL     1      12.011   5.197  10.202  1.00  0.00     0.148 A 
ATOM     66  C   UNL     1      11.053   6.971  12.159  1.00  0.00     0.002 A 
ATOM     67  C   UNL     1      12.870   5.703  11.166  1.00  0.00     0.091 A 
ATOM     68  F   UNL     1      12.439   4.377   9.230  1.00  0.00    -0.205 F 
ATOM     69  C   UNL     1      12.396   6.600  12.137  1.00  0.00     0.022 A 
BRANCH  67  70
ATOM     70  S   UNL     1      14.584   5.183  11.276  1.00  0.00     0.127 S 
ATOM     71  O   UNL     1      15.283   6.346  10.732  1.00  0.00    -0.237 OA
ATOM     72  O   UNL     1      14.757   4.984  12.715  1.00  0.00    -0.237 OA
ATOM     73  O   UNL     1      14.682   3.964  10.485  1.00  0.00    -0.744 OA
ENDBRANCH  67  70
ENDBRANCH  40  63
ENDBRANCH  14  15
ENDBRANCH   7   9
ENDBRANCH   6   7
ENDBRANCH   5   6
ENDBRANCH   4   5
ENDBRANCH   3   4
ENDBRANCH   2   3
ENDBRANCH   1   2
BRANCH   1  74
ATOM     74  O   UNL     1       3.993   1.304  -3.516  1.00  0.00    -0.377 OA
BRANCH  74  75
ATOM     75  C   UNL     1       5.278   1.639  -2.997  1.00  0.00     0.188 C 
BRANCH  75  76
ATOM     76  C   UNL     1       5.473   2.954  -2.217  1.00  0.00     0.188 C 
BRANCH  76  77
ATOM     77  O   UNL     1       4.368   3.327  -1.419  1.00  0.00    -0.376 OA
BRANCH  77  78
ATOM     78  C   UNL     1       3.595   4.454  -1.837  1.00  0.00     0.202 C 
BRANCH  78  79
ATOM     79  C   UNL     1       3.534   4.860  -3.325  1.00  0.00     0.261 C 
BRANCH  79  80
ATOM     80  O   UNL     1       3.584   3.762  -4.264  1.00  0.00    -0.462 OA
BRANCH  80  81
ATOM     81  C   UNL     1       4.361   3.955  -5.359  1.00  0.00     0.329 C 
ATOM     82  O   UNL     1       4.961   5.011  -5.570  1.00  0.00    -0.250 OA
BRANCH  81  83
ATOM     83  C   UNL     1       4.579   2.739  -6.299  1.00  0.00     0.197 C 
BRANCH  83  84
ATOM     84  C   UNL     1       3.792   1.425  -6.352  1.00  0.00     0.074 C 
BRANCH  84  85
ATOM     85  C   UNL     1       2.318   1.342  -6.118  1.00  0.00    -0.020 A 
ATOM     86  C   UNL     1       1.687   0.136  -5.841  1.00  0.00     0.087 A 
ATOM     87  C   UNL     1       1.307   2.351  -6.051  1.00  0.00     0.003 A 
ATOM     88  N   UNL     1       0.388   0.387  -5.511  1.00  0.00    -0.361 N 
ATOM     89  C   UNL     1       0.143   1.736  -5.578  1.00  0.00     0.046 A 
ATOM     90  C   UNL     1       1.266   3.742  -6.276  1.00  0.00     0.010 A 
ATOM     91  H   UNL     1      -0.275  -0.297  -5.262  1.00  0.00     0.166 HD
ATOM     92  C   UNL     1      -1.011   2.448  -5.234  1.00  0.00     0.026 A 
ATOM     93  C   UNL     1       0.128   4.473  -5.922  1.00  0.00     0.001 A 
ATOM     94  C   UNL     1      -0.988   3.834  -5.392  1.00  0.00     0.002 A 
ENDBRANCH  84  85
ENDBRANCH  83  84
BRANCH  83  95
ATOM     95  N   UNL     1       4.706   3.232  -7.688  1.00  0.00    -0.338 N 
ATOM     96  C   UNL     1       5.824   3.577  -8.401  1.00  0.00     0.254 C 
ATOM     97  H   UNL     1       3.856   3.328  -8.175  1.00  0.00     0.164 HD
ATOM     98  O   UNL     1       5.708   3.995  -9.550  1.00  0.00    -0.269 OA
BRANCH  96  99
ATOM     99  C   UNL     1       7.173   3.410  -7.827  1.00  0.00     0.075 A 
ATOM    100  C   UNL     1       7.642   2.155  -7.410  1.00  0.00     0.020 A 
ATOM    101  C   UNL     1       8.028   4.513  -7.797  1.00  0.00     0.138 A 
ATOM    102  C   UNL     1       8.947   2.031  -6.925  1.00  0.00     0.040 A 
ATOM    103  C   UNL     1       9.332   4.389  -7.329  1.00  0.00     0.079 A 
ATOM    104  F   UNL     1       7.614   5.717  -8.216  1.00  0.00    -0.206 F 
ATOM    105  C   UNL     1       9.779   3.148  -6.894  1.00  0.00     0.126 A 
ATOM    106  F   UNL     1      11.036   3.017  -6.452  1.00  0.00    -0.207 F 
ENDBRANCH  96  99
ENDBRANCH  83  95
ENDBRANCH  81  83
ENDBRANCH  80  81
ENDBRANCH  79  80
ENDBRANCH  78  79
ENDBRANCH  77  78
ENDBRANCH  76  77
ENDBRANCH  75  76
ENDBRANCH  74  75
ENDBRANCH   1  74
TORSDOF 27
