REMARK SMILES C[C@@H]1CN(C(=O)N2c3ccccc3C[C@@H]2C(=O)OCCOCCOCCOCCOC(=O)c2ccc(-c3c4nc(c(-c5cccc(S(=O)(=O)[O-])c5F)c5ccc([nH]5)c(-c5cccc(S(=O)(=O)[O-])c5F)c5nc(c(-c6cccc(S(=O)(=O)[O-])c6F)c6ccc3[nH]6)C=C5)C=C4)cc2)C[C@@H]1C
REMARK SMILES IDX 25 1 24 2 23 3 22 4 21 5 20 6 19 7 18 8 16 9 17 10 15 11
REMARK SMILES IDX 7 12 8 13 9 14 13 15 14 16 10 17 12 18 11 19 5 20 6 21 4 22
REMARK SMILES IDX 1 23 2 24 3 25 97 26 96 27 98 28 26 29 27 30 28 31 29 32
REMARK SMILES IDX 30 33 31 34 32 35 33 36 34 37 95 38 35 39 94 40 36 41 37 42
REMARK SMILES IDX 38 43 88 44 39 45 93 46 87 47 89 48 40 49 92 50 86 51 85 52
REMARK SMILES IDX 41 54 73 55 53 56 72 57 54 58 57 59 71 60 90 61 55 62 56 63
REMARK SMILES IDX 70 65 91 66 58 67 42 68 43 69 51 70 44 71 46 72 52 73 45 74
REMARK SMILES IDX 47 75 48 76 49 77 50 78 74 79 75 80 83 81 76 82 78 83 84 84
REMARK SMILES IDX 77 85 79 86 80 87 81 88 82 89 59 90 60 91 68 92 61 93 63 94
REMARK SMILES IDX 69 95 62 96 64 97 65 98 66 99 67 100
REMARK H PARENT 89 53 57 64
REMARK Flexibility Score: inf
ROOT
ATOM      1  C   UNL     1      -5.948   4.289   1.359  1.00  0.00     0.188 C 
ENDROOT
BRANCH   1   2
ATOM      2  O   UNL     1      -4.957   4.693   0.418  1.00  0.00    -0.377 OA
BRANCH   2   3
ATOM      3  C   UNL     1      -4.614   3.761  -0.589  1.00  0.00     0.188 C 
BRANCH   3   4
ATOM      4  C   UNL     1      -3.498   2.806  -0.138  1.00  0.00     0.188 C 
BRANCH   4   5
ATOM      5  O   UNL     1      -3.377   2.647   1.267  1.00  0.00    -0.376 OA
BRANCH   5   6
ATOM      6  C   UNL     1      -2.591   3.530   2.057  1.00  0.00     0.202 C 
BRANCH   6   7
ATOM      7  C   UNL     1      -2.337   5.019   1.744  1.00  0.00     0.261 C 
BRANCH   7   8
ATOM      8  O   UNL     1      -2.382   5.401   0.371  1.00  0.00    -0.462 OA
BRANCH   8   9
ATOM      9  C   UNL     1      -1.305   5.091  -0.384  1.00  0.00     0.329 C 
ATOM     10  O   UNL     1      -0.248   4.664   0.065  1.00  0.00    -0.250 OA
BRANCH   9  11
ATOM     11  C   UNL     1      -1.640   5.330  -1.866  1.00  0.00     0.206 C 
ATOM     12  N   UNL     1      -0.938   4.298  -2.655  1.00  0.00    -0.279 N 
ATOM     13  C   UNL     1       0.251   4.878  -3.116  1.00  0.00     0.050 A 
ATOM     14  C   UNL     1       1.309   4.307  -3.788  1.00  0.00     0.027 A 
ATOM     15  C   UNL     1       0.248   6.249  -2.808  1.00  0.00    -0.021 A 
ATOM     16  C   UNL     1      -1.078   6.682  -2.268  1.00  0.00     0.075 C 
ATOM     17  C   UNL     1       2.429   5.110  -4.027  1.00  0.00     0.002 A 
ATOM     18  C   UNL     1       1.338   7.056  -3.058  1.00  0.00     0.006 A 
ATOM     19  C   UNL     1       2.450   6.465  -3.647  1.00  0.00     0.000 A 
BRANCH  12  20
ATOM     20  C   UNL     1      -1.489   3.075  -2.934  1.00  0.00     0.325 C 
ATOM     21  O   UNL     1      -2.652   2.992  -3.339  1.00  0.00    -0.248 OA
BRANCH  20  22
ATOM     22  N   UNL     1      -0.783   1.939  -2.590  1.00  0.00    -0.324 N 
ATOM     23  C   UNL     1       1.199   0.059  -0.080  1.00  0.00     0.010 C 
ATOM     24  C   UNL     1       0.590   0.386  -1.435  1.00  0.00     0.010 C 
ATOM     25  C   UNL     1       0.271   1.876  -1.587  1.00  0.00     0.125 C 
ATOM     26  C   UNL     1      -0.749  -0.303  -1.754  1.00  0.00     0.010 C 
ATOM     27  C   UNL     1      -1.328   0.609  -2.847  1.00  0.00     0.125 C 
ATOM     28  C   UNL     1      -1.696  -0.443  -0.562  1.00  0.00     0.010 C 
ENDBRANCH  20  22
ENDBRANCH  12  20
ENDBRANCH   9  11
ENDBRANCH   8   9
ENDBRANCH   7   8
ENDBRANCH   6   7
ENDBRANCH   5   6
ENDBRANCH   4   5
ENDBRANCH   3   4
ENDBRANCH   2   3
ENDBRANCH   1   2
BRANCH   1  29
ATOM     29  C   UNL     1      -6.153   2.793   1.713  1.00  0.00     0.188 C 
BRANCH  29  30
ATOM     30  O   UNL     1      -6.081   1.891   0.616  1.00  0.00    -0.376 OA
BRANCH  30  31
ATOM     31  C   UNL     1      -7.277   1.400   0.038  1.00  0.00     0.202 C 
BRANCH  31  32
ATOM     32  C   UNL     1      -8.206   2.410  -0.653  1.00  0.00     0.261 C 
BRANCH  32  33
ATOM     33  O   UNL     1      -8.628   3.526   0.142  1.00  0.00    -0.460 OA
BRANCH  33  34
ATOM     34  C   UNL     1      -9.330   3.263   1.264  1.00  0.00     0.338 C 
ATOM     35  O   UNL     1      -9.697   2.168   1.660  1.00  0.00    -0.246 OA
BRANCH  34  36
ATOM     36  C   UNL     1      -9.400   4.511   2.053  1.00  0.00     0.060 A 
ATOM     37  C   UNL     1      -8.872   4.525   3.351  1.00  0.00     0.016 A 
ATOM     38  C   UNL     1      -9.960   5.667   1.504  1.00  0.00     0.016 A 
ATOM     39  C   UNL     1      -8.940   5.685   4.122  1.00  0.00     0.010 A 
ATOM     40  C   UNL     1     -10.052   6.820   2.287  1.00  0.00     0.010 A 
ATOM     41  C   UNL     1      -9.578   6.821   3.611  1.00  0.00    -0.014 A 
BRANCH  41  42
ATOM     42  C   UNL     1      -9.946   7.929   4.524  1.00  0.00     0.031 A 
ATOM     43  C   UNL     1     -11.353   7.965   5.057  1.00  0.00     0.074 A 
ATOM     44  C   UNL     1      -9.064   8.885   4.865  1.00  0.00     0.049 A 
ATOM     45  N   UNL     1     -11.929   8.856   5.818  1.00  0.00    -0.248 NA
ATOM     46  C   UNL     1     -12.230   6.842   4.677  1.00  0.00     0.031 C 
ATOM     47  C   UNL     1      -7.670   8.947   4.431  1.00  0.00     0.029 A 
ATOM     48  N   UNL     1      -9.227  10.007   5.639  1.00  0.00    -0.354 N 
ATOM     49  C   UNL     1     -13.243   8.431   5.969  1.00  0.00     0.074 A 
ATOM     50  C   UNL     1     -13.381   7.198   5.226  1.00  0.00     0.031 C 
ATOM     51  C   UNL     1      -7.112  10.069   4.920  1.00  0.00     0.029 A 
ATOM     52  C   UNL     1      -8.117  10.819   5.672  1.00  0.00     0.049 A 
ATOM     53  H   UNL     1     -10.059  10.212   6.124  1.00  0.00     0.167 HD
ATOM     54  C   UNL     1     -14.245   9.012   6.667  1.00  0.00     0.034 A 
ATOM     55  C   UNL     1      -7.948  12.039   6.220  1.00  0.00     0.034 A 
ATOM     56  C   UNL     1     -14.100  10.226   7.420  1.00  0.00     0.049 A 
ATOM     57  C   UNL     1      -9.095  12.679   6.963  1.00  0.00     0.074 A 
ATOM     58  C   UNL     1     -15.040  10.861   8.212  1.00  0.00     0.029 A 
ATOM     59  N   UNL     1     -12.953  11.002   7.458  1.00  0.00    -0.354 N 
ATOM     60  N   UNL     1     -10.295  12.207   7.200  1.00  0.00    -0.248 NA
ATOM     61  C   UNL     1      -8.854  14.011   7.541  1.00  0.00     0.031 C 
ATOM     62  C   UNL     1     -14.476  12.048   8.689  1.00  0.00     0.029 A 
ATOM     63  C   UNL     1     -13.168  12.123   8.239  1.00  0.00     0.049 A 
ATOM     64  H   UNL     1     -12.110  10.787   6.997  1.00  0.00     0.167 HD
ATOM     65  C   UNL     1     -10.931  13.157   7.993  1.00  0.00     0.074 A 
ATOM     66  C   UNL     1      -9.980  14.227   8.207  1.00  0.00     0.031 C 
ATOM     67  C   UNL     1     -12.192  13.150   8.493  1.00  0.00     0.034 A 
BRANCH  54  68
ATOM     68  C   UNL     1     -15.597   8.351   6.644  1.00  0.00     0.023 A 
ATOM     69  C   UNL     1     -15.810   7.150   7.351  1.00  0.00     0.012 A 
ATOM     70  C   UNL     1     -16.675   8.964   5.978  1.00  0.00     0.148 A 
ATOM     71  C   UNL     1     -17.072   6.557   7.371  1.00  0.00     0.002 A 
ATOM     72  C   UNL     1     -17.939   8.394   6.044  1.00  0.00     0.091 A 
ATOM     73  F   UNL     1     -16.443  10.092   5.291  1.00  0.00    -0.205 F 
ATOM     74  C   UNL     1     -18.138   7.184   6.730  1.00  0.00     0.022 A 
BRANCH  72  75
ATOM     75  S   UNL     1     -19.390   9.169   5.325  1.00  0.00     0.127 S 
ATOM     76  O   UNL     1     -19.721   8.235   4.250  1.00  0.00    -0.237 OA
ATOM     77  O   UNL     1     -20.328   9.164   6.448  1.00  0.00    -0.237 OA
ATOM     78  O   UNL     1     -18.967  10.493   4.889  1.00  0.00    -0.744 OA
ENDBRANCH  72  75
ENDBRANCH  54  68
BRANCH  55  79
ATOM     79  C   UNL     1      -6.638  12.745   6.106  1.00  0.00     0.023 A 
ATOM     80  C   UNL     1      -5.871  12.980   7.264  1.00  0.00     0.012 A 
ATOM     81  C   UNL     1      -6.160  13.205   4.863  1.00  0.00     0.148 A 
ATOM     82  C   UNL     1      -4.677  13.698   7.194  1.00  0.00     0.002 A 
ATOM     83  C   UNL     1      -4.941  13.869   4.792  1.00  0.00     0.091 A 
ATOM     84  F   UNL     1      -6.911  12.988   3.774  1.00  0.00    -0.205 F 
ATOM     85  C   UNL     1      -4.208  14.136   5.959  1.00  0.00     0.022 A 
BRANCH  83  86
ATOM     86  S   UNL     1      -4.200  14.360   3.232  1.00  0.00     0.127 S 
ATOM     87  O   UNL     1      -4.294  15.816   3.301  1.00  0.00    -0.237 OA
ATOM     88  O   UNL     1      -2.845  13.822   3.361  1.00  0.00    -0.237 OA
ATOM     89  O   UNL     1      -5.002  13.723   2.196  1.00  0.00    -0.744 OA
ENDBRANCH  83  86
ENDBRANCH  55  79
BRANCH  67  90
ATOM     90  C   UNL     1     -12.608  14.295   9.382  1.00  0.00     0.023 A 
ATOM     91  C   UNL     1     -12.830  15.575   8.836  1.00  0.00     0.012 A 
ATOM     92  C   UNL     1     -12.861  14.074  10.751  1.00  0.00     0.148 A 
ATOM     93  C   UNL     1     -13.264  16.624   9.647  1.00  0.00     0.002 A 
ATOM     94  C   UNL     1     -13.346  15.109  11.540  1.00  0.00     0.091 A 
ATOM     95  F   UNL     1     -12.630  12.853  11.254  1.00  0.00    -0.205 F 
ATOM     96  C   UNL     1     -13.534  16.389  10.993  1.00  0.00     0.022 A 
BRANCH  94  97
ATOM     97  S   UNL     1     -13.820  14.873  13.256  1.00  0.00     0.127 S 
ATOM     98  O   UNL     1     -12.780  15.623  13.958  1.00  0.00    -0.237 OA
ATOM     99  O   UNL     1     -15.148  15.486  13.297  1.00  0.00    -0.237 OA
ATOM    100  O   UNL     1     -13.810  13.434  13.484  1.00  0.00    -0.744 OA
ENDBRANCH  94  97
ENDBRANCH  67  90
ENDBRANCH  41  42
ENDBRANCH  34  36
ENDBRANCH  33  34
ENDBRANCH  32  33
ENDBRANCH  31  32
ENDBRANCH  30  31
ENDBRANCH  29  30
ENDBRANCH   1  29
TORSDOF 25
