REMARK SMILES O=C(CCN1C(=O)/C(=C/c2cccc(Cl)c2Cl)SC1=S)Nc1ccc(C(=O)OCCOCCOCCOCCOC(=O)c2ccc(-c3c4nc(c(-c5cccc(S(=O)(=O)[O-])c5F)c5ccc([nH]5)c(-c5cccc(S(=O)(=O)[O-])c5F)c5nc(c(-c6cccc(S(=O)(=O)[O-])c6F)c6ccc3[nH]6)C=C5)C=C4)cc2)cc1
REMARK SMILES IDX 33 1 32 2 31 3 30 4 29 5 28 6 26 7 27 8 25 9 22 10 23 11
REMARK SMILES IDX 107 12 24 13 106 14 21 15 1 16 2 17 3 19 4 20 5 21 6 22
REMARK SMILES IDX 19 23 7 24 8 25 18 26 20 27 9 28 10 29 11 30 16 31 12 32
REMARK SMILES IDX 14 33 17 34 13 35 15 36 34 37 35 38 36 39 37 40 38 41 39 42
REMARK SMILES IDX 40 43 41 44 42 45 43 46 44 47 105 48 45 49 104 50 46 51
REMARK SMILES IDX 47 52 48 53 98 54 49 55 103 56 97 57 99 58 50 59 102 60
REMARK SMILES IDX 96 61 95 62 51 64 83 65 63 66 82 67 64 68 67 69 81 70 100 71
REMARK SMILES IDX 65 72 66 73 80 75 101 76 68 77 52 78 53 79 61 80 54 81 56 82
REMARK SMILES IDX 62 83 55 84 57 85 58 86 59 87 60 88 84 89 85 90 93 91 86 92
REMARK SMILES IDX 88 93 94 94 87 95 89 96 90 97 91 98 92 99 69 100 70 101
REMARK SMILES IDX 78 102 71 103 73 104 79 105 72 106 74 107 75 108 76 109
REMARK SMILES IDX 77 110
REMARK H PARENT 21 18 99 63 67 74
REMARK Flexibility Score: inf
ROOT
ATOM      1  C   UNL     1       1.858   3.143   6.536  1.00  0.00     0.188 C 
ENDROOT
BRANCH   1   2
ATOM      2  C   UNL     1       1.693   4.676   6.433  1.00  0.00     0.188 C 
BRANCH   2   3
ATOM      3  O   UNL     1       0.750   5.222   7.334  1.00  0.00    -0.376 OA
BRANCH   3   4
ATOM      4  C   UNL     1      -0.494   5.693   6.854  1.00  0.00     0.202 C 
BRANCH   4   5
ATOM      5  C   UNL     1      -1.416   4.764   6.048  1.00  0.00     0.261 C 
BRANCH   5   6
ATOM      6  O   UNL     1      -0.778   3.882   5.124  1.00  0.00    -0.460 OA
BRANCH   6   7
ATOM      7  C   UNL     1      -0.344   4.426   3.969  1.00  0.00     0.338 C 
ATOM      8  O   UNL     1      -0.410   5.597   3.638  1.00  0.00    -0.246 OA
BRANCH   7   9
ATOM      9  C   UNL     1       0.440   3.398   3.251  1.00  0.00     0.060 A 
ATOM     10  C   UNL     1       1.946   1.553   1.806  1.00  0.00     0.041 A 
ATOM     11  C   UNL     1       2.476   2.814   2.085  1.00  0.00     0.027 A 
ATOM     12  C   UNL     1       0.711   1.181   2.341  1.00  0.00     0.027 A 
ATOM     13  C   UNL     1       1.703   3.753   2.766  1.00  0.00     0.018 A 
ATOM     14  C   UNL     1      -0.034   2.095   3.090  1.00  0.00     0.018 A 
BRANCH  10  15
ATOM     15  N   UNL     1       2.674   0.720   0.940  1.00  0.00    -0.326 N 
ATOM     16  O   UNL     1       0.888  -0.234  -0.203  1.00  0.00    -0.275 OA
ATOM     17  C   UNL     1       2.092  -0.091  -0.017  1.00  0.00     0.226 C 
ATOM     18  H   UNL     1       3.655   0.714   1.018  1.00  0.00     0.169 HD
BRANCH  17  19
ATOM     19  C   UNL     1       3.091  -0.819  -0.892  1.00  0.00     0.122 C 
BRANCH  19  20
ATOM     20  C   UNL     1       3.952   0.102  -1.764  1.00  0.00     0.137 C 
BRANCH  20  21
ATOM     21  N   UNL     1       4.992   0.841  -1.026  1.00  0.00    -0.292 N 
ATOM     22  C   UNL     1       4.927   2.227  -0.964  1.00  0.00     0.266 C 
ATOM     23  C   UNL     1       6.107   0.260  -0.453  1.00  0.00     0.148 C 
ATOM     24  O   UNL     1       4.108   2.940  -1.524  1.00  0.00    -0.268 OA
ATOM     25  C   UNL     1       6.003   2.757  -0.082  1.00  0.00     0.081 C 
ATOM     26  S   UNL     1       6.988   1.464   0.472  1.00  0.00    -0.054 SA
ATOM     27  S   UNL     1       6.622  -1.321  -0.548  1.00  0.00    -0.052 S 
ATOM     28  C   UNL     1       6.088   4.057   0.241  1.00  0.00     0.031 C 
BRANCH  28  29
ATOM     29  C   UNL     1       7.053   4.659   1.187  1.00  0.00    -0.004 A 
ATOM     30  C   UNL     1       8.430   4.482   0.967  1.00  0.00     0.010 A 
ATOM     31  C   UNL     1       6.638   5.413   2.307  1.00  0.00     0.066 A 
ATOM     32  C   UNL     1       9.372   4.978   1.867  1.00  0.00     0.002 A 
ATOM     33  C   UNL     1       7.593   5.916   3.207  1.00  0.00     0.060 A 
ATOM     34  Cl  UNL     1       4.950   5.715   2.575  1.00  0.00    -0.082 Cl
ATOM     35  C   UNL     1       8.954   5.686   2.990  1.00  0.00     0.022 A 
ATOM     36  Cl  UNL     1       7.162   6.825   4.615  1.00  0.00    -0.083 Cl
ENDBRANCH  28  29
ENDBRANCH  20  21
ENDBRANCH  19  20
ENDBRANCH  17  19
ENDBRANCH  10  15
ENDBRANCH   7   9
ENDBRANCH   6   7
ENDBRANCH   5   6
ENDBRANCH   4   5
ENDBRANCH   3   4
ENDBRANCH   2   3
ENDBRANCH   1   2
BRANCH   1  37
ATOM     37  O   UNL     1       0.925   2.383   7.288  1.00  0.00    -0.377 OA
BRANCH  37  38
ATOM     38  C   UNL     1       0.513   2.820   8.579  1.00  0.00     0.188 C 
BRANCH  38  39
ATOM     39  C   UNL     1       1.436   3.683   9.472  1.00  0.00     0.188 C 
BRANCH  39  40
ATOM     40  O   UNL     1       2.743   3.882   8.959  1.00  0.00    -0.376 OA
BRANCH  40  41
ATOM     41  C   UNL     1       3.807   3.192   9.585  1.00  0.00     0.202 C 
BRANCH  41  42
ATOM     42  C   UNL     1       3.773   1.657   9.545  1.00  0.00     0.261 C 
BRANCH  42  43
ATOM     43  O   UNL     1       2.568   1.035  10.009  1.00  0.00    -0.460 OA
BRANCH  43  44
ATOM     44  C   UNL     1       2.265   1.167  11.318  1.00  0.00     0.338 C 
ATOM     45  O   UNL     1       2.912   1.766  12.165  1.00  0.00    -0.246 OA
BRANCH  44  46
ATOM     46  C   UNL     1       0.909   0.620  11.520  1.00  0.00     0.060 A 
ATOM     47  C   UNL     1      -0.105   1.462  11.996  1.00  0.00     0.016 A 
ATOM     48  C   UNL     1       0.641  -0.718  11.226  1.00  0.00     0.016 A 
ATOM     49  C   UNL     1      -1.384   0.952  12.223  1.00  0.00     0.010 A 
ATOM     50  C   UNL     1      -0.634  -1.231  11.472  1.00  0.00     0.010 A 
ATOM     51  C   UNL     1      -1.638  -0.408  12.012  1.00  0.00    -0.014 A 
BRANCH  51  52
ATOM     52  C   UNL     1      -2.873  -1.018  12.559  1.00  0.00     0.031 A 
ATOM     53  C   UNL     1      -2.781  -1.745  13.874  1.00  0.00     0.074 A 
ATOM     54  C   UNL     1      -4.049  -0.934  11.912  1.00  0.00     0.049 A 
ATOM     55  N   UNL     1      -3.704  -2.392  14.533  1.00  0.00    -0.248 NA
ATOM     56  C   UNL     1      -1.462  -1.745  14.530  1.00  0.00     0.031 C 
ATOM     57  C   UNL     1      -4.269  -0.247  10.642  1.00  0.00     0.029 A 
ATOM     58  N   UNL     1      -5.277  -1.457  12.233  1.00  0.00    -0.354 N 
ATOM     59  C   UNL     1      -3.074  -2.904  15.661  1.00  0.00     0.074 A 
ATOM     60  C   UNL     1      -1.686  -2.506  15.589  1.00  0.00     0.031 C 
ATOM     61  C   UNL     1      -5.553  -0.412  10.276  1.00  0.00     0.029 A 
ATOM     62  C   UNL     1      -6.234  -1.241  11.270  1.00  0.00     0.049 A 
ATOM     63  H   UNL     1      -5.455  -1.942  13.071  1.00  0.00     0.167 HD
ATOM     64  C   UNL     1      -3.603  -3.630  16.673  1.00  0.00     0.034 A 
ATOM     65  C   UNL     1      -7.505  -1.683  11.192  1.00  0.00     0.034 A 
ATOM     66  C   UNL     1      -4.984  -4.019  16.744  1.00  0.00     0.049 A 
ATOM     67  C   UNL     1      -8.064  -2.523  12.313  1.00  0.00     0.074 A 
ATOM     68  C   UNL     1      -5.630  -4.722  17.746  1.00  0.00     0.029 A 
ATOM     69  N   UNL     1      -5.931  -3.757  15.765  1.00  0.00    -0.354 N 
ATOM     70  N   UNL     1      -7.485  -2.915  13.423  1.00  0.00    -0.248 NA
ATOM     71  C   UNL     1      -9.464  -2.955  12.185  1.00  0.00     0.031 C 
ATOM     72  C   UNL     1      -6.957  -4.921  17.352  1.00  0.00     0.029 A 
ATOM     73  C   UNL     1      -7.152  -4.297  16.130  1.00  0.00     0.049 A 
ATOM     74  H   UNL     1      -5.759  -3.261  14.933  1.00  0.00     0.167 HD
ATOM     75  C   UNL     1      -8.460  -3.597  14.145  1.00  0.00     0.074 A 
ATOM     76  C   UNL     1      -9.670  -3.555  13.350  1.00  0.00     0.031 C 
ATOM     77  C   UNL     1      -8.362  -4.205  15.353  1.00  0.00     0.034 A 
BRANCH  64  78
ATOM     78  C   UNL     1      -2.676  -4.049  17.785  1.00  0.00     0.023 A 
ATOM     79  C   UNL     1      -2.162  -3.084  18.676  1.00  0.00     0.012 A 
ATOM     80  C   UNL     1      -2.336  -5.404  17.964  1.00  0.00     0.148 A 
ATOM     81  C   UNL     1      -1.289  -3.454  19.698  1.00  0.00     0.002 A 
ATOM     82  C   UNL     1      -1.507  -5.772  19.017  1.00  0.00     0.091 A 
ATOM     83  F   UNL     1      -2.814  -6.304  17.094  1.00  0.00    -0.205 F 
ATOM     84  C   UNL     1      -0.971  -4.798  19.875  1.00  0.00     0.022 A 
BRANCH  82  85
ATOM     85  S   UNL     1      -1.104  -7.484  19.377  1.00  0.00     0.127 S 
ATOM     86  O   UNL     1       0.312  -7.537  19.017  1.00  0.00    -0.237 OA
ATOM     87  O   UNL     1      -1.371  -7.566  20.813  1.00  0.00    -0.237 OA
ATOM     88  O   UNL     1      -1.990  -8.290  18.548  1.00  0.00    -0.744 OA
ENDBRANCH  82  85
ENDBRANCH  64  78
BRANCH  65  89
ATOM     89  C   UNL     1      -8.353  -1.313  10.023  1.00  0.00     0.023 A 
ATOM     90  C   UNL     1      -9.444  -0.440  10.202  1.00  0.00     0.012 A 
ATOM     91  C   UNL     1      -8.078  -1.815   8.736  1.00  0.00     0.148 A 
ATOM     92  C   UNL     1     -10.264  -0.097   9.126  1.00  0.00     0.002 A 
ATOM     93  C   UNL     1      -8.866  -1.426   7.660  1.00  0.00     0.091 A 
ATOM     94  F   UNL     1      -7.044  -2.655   8.591  1.00  0.00    -0.205 F 
ATOM     95  C   UNL     1      -9.970  -0.582   7.855  1.00  0.00     0.022 A 
BRANCH  93  96
ATOM     96  S   UNL     1      -8.495  -1.902   5.968  1.00  0.00     0.127 S 
ATOM     97  O   UNL     1      -9.649  -2.732   5.631  1.00  0.00    -0.237 OA
ATOM     98  O   UNL     1      -8.453  -0.603   5.297  1.00  0.00    -0.237 OA
ATOM     99  O   UNL     1      -7.216  -2.597   6.023  1.00  0.00    -0.744 OA
ENDBRANCH  93  96
ENDBRANCH  65  89
BRANCH  77 100
ATOM    100  C   UNL     1      -9.608  -4.826  15.933  1.00  0.00     0.023 A 
ATOM    101  C   UNL     1     -10.147  -6.000  15.371  1.00  0.00     0.012 A 
ATOM    102  C   UNL     1     -10.203  -4.278  17.088  1.00  0.00     0.148 A 
ATOM    103  C   UNL     1     -11.280  -6.596  15.927  1.00  0.00     0.002 A 
ATOM    104  C   UNL     1     -11.296  -4.908  17.668  1.00  0.00     0.091 A 
ATOM    105  F   UNL     1      -9.685  -3.151  17.600  1.00  0.00    -0.205 F 
ATOM    106  C   UNL     1     -11.846  -6.058  17.081  1.00  0.00     0.022 A 
BRANCH 104 107
ATOM    107  S   UNL     1     -12.026  -4.346  19.210  1.00  0.00     0.127 S 
ATOM    108  O   UNL     1     -13.307  -3.809  18.755  1.00  0.00    -0.237 OA
ATOM    109  O   UNL     1     -12.123  -5.588  19.977  1.00  0.00    -0.237 OA
ATOM    110  O   UNL     1     -11.100  -3.365  19.762  1.00  0.00    -0.744 OA
ENDBRANCH 104 107
ENDBRANCH  77 100
ENDBRANCH  51  52
ENDBRANCH  44  46
ENDBRANCH  43  44
ENDBRANCH  42  43
ENDBRANCH  41  42
ENDBRANCH  40  41
ENDBRANCH  39  40
ENDBRANCH  38  39
ENDBRANCH  37  38
ENDBRANCH   1  37
TORSDOF 28
