REMARK SMILES COc1ccc(Nc2c(C(=O)OCCOCCOCCOCCOC(=O)c3ccc(-c4c5nc(c(-c6cccc(S(=O)(=O)[O-])c6F)c6ccc([nH]6)c(-c6cccc(S(=O)(=O)[O-])c6F)c6nc(c(-c7cccc(S(=O)(=O)[O-])c7F)c7ccc4[nH]7)C=C6)C=C5)cc3)[nH]c(=O)[nH]c2=O)cc1
REMARK SMILES IDX 18 1 17 2 16 3 15 4 14 5 13 6 12 7 10 8 11 9 9 10 8 11 94 12
REMARK SMILES IDX 90 13 93 14 95 15 91 16 92 19 7 20 6 22 3 23 4 24 97 25 5 26
REMARK SMILES IDX 96 27 2 28 1 29 19 30 20 31 21 32 22 33 23 34 24 35 25 36
REMARK SMILES IDX 26 37 27 38 28 39 89 40 29 41 88 42 30 43 31 44 32 45 82 46
REMARK SMILES IDX 33 47 87 48 81 49 83 50 34 51 86 52 80 53 79 54 35 56 67 57
REMARK SMILES IDX 47 58 66 59 48 60 51 61 65 62 84 63 49 64 50 65 64 67 85 68
REMARK SMILES IDX 52 69 36 70 37 71 45 72 38 73 40 74 46 75 39 76 41 77 42 78
REMARK SMILES IDX 43 79 44 80 68 81 69 82 77 83 70 84 72 85 78 86 71 87 73 88
REMARK SMILES IDX 74 89 75 90 76 91 53 92 54 93 62 94 55 95 57 96 63 97 56 98
REMARK SMILES IDX 58 99 59 100 60 101 61 102
REMARK H PARENT 90 17 93 18 7 21 83 55 51 66
REMARK Flexibility Score: inf
ROOT
ATOM      1  O   UNL     1       2.235  -6.484  -3.516  1.00  0.00    -0.377 OA
ENDROOT
BRANCH   1   2
ATOM      2  C   UNL     1       1.162  -7.103  -4.191  1.00  0.00     0.188 C 
BRANCH   2   3
ATOM      3  C   UNL     1       1.621  -8.112  -5.259  1.00  0.00     0.188 C 
BRANCH   3   4
ATOM      4  O   UNL     1       2.941  -8.633  -5.264  1.00  0.00    -0.376 OA
BRANCH   4   5
ATOM      5  C   UNL     1       4.111  -7.833  -5.202  1.00  0.00     0.202 C 
BRANCH   5   6
ATOM      6  C   UNL     1       4.276  -6.420  -5.795  1.00  0.00     0.261 C 
BRANCH   6   7
ATOM      7  O   UNL     1       3.107  -5.615  -5.926  1.00  0.00    -0.459 OA
BRANCH   7   8
ATOM      8  C   UNL     1       2.477  -5.680  -7.117  1.00  0.00     0.357 C 
ATOM      9  O   UNL     1       2.848  -6.316  -8.096  1.00  0.00    -0.244 OA
BRANCH   8  10
ATOM     10  C   UNL     1       1.113  -5.071  -7.045  1.00  0.00     0.158 A 
ATOM     11  C   UNL     1       0.767  -4.063  -6.212  1.00  0.00     0.136 A 
ATOM     12  C   UNL     1      -0.647  -3.561  -6.425  1.00  0.00     0.278 A 
ATOM     13  N   UNL     1       0.182  -5.732  -7.820  1.00  0.00    -0.299 N 
ATOM     14  N   UNL     1      -1.520  -4.412  -7.045  1.00  0.00    -0.272 N 
ATOM     15  O   UNL     1      -1.025  -2.438  -6.106  1.00  0.00    -0.267 OA
ATOM     16  C   UNL     1      -1.151  -5.489  -7.782  1.00  0.00     0.326 A 
ATOM     17  H   UNL     1       0.507  -6.424  -8.440  1.00  0.00     0.172 HD
ATOM     18  H   UNL     1      -2.483  -4.229  -6.950  1.00  0.00     0.175 HD
ATOM     19  O   UNL     1      -1.960  -6.184  -8.386  1.00  0.00    -0.248 OA
BRANCH  11  20
ATOM     20  N   UNL     1       1.588  -3.455  -5.270  1.00  0.00    -0.349 N 
ATOM     21  H   UNL     1       2.527  -3.348  -5.546  1.00  0.00     0.167 HD
BRANCH  20  22
ATOM     22  C   UNL     1       1.287  -2.965  -3.977  1.00  0.00     0.039 A 
ATOM     23  C   UNL     1       0.815  -1.829  -1.429  1.00  0.00     0.119 A 
ATOM     24  C   UNL     1      -0.195  -2.517  -2.094  1.00  0.00     0.048 A 
ATOM     25  C   UNL     1       2.078  -1.744  -2.006  1.00  0.00     0.048 A 
ATOM     26  C   UNL     1       0.038  -3.072  -3.358  1.00  0.00     0.030 A 
ATOM     27  C   UNL     1       2.304  -2.296  -3.273  1.00  0.00     0.030 A 
BRANCH  23  28
ATOM     28  O   UNL     1       0.488  -1.306  -0.208  1.00  0.00    -0.497 OA
ATOM     29  C   UNL     1       1.021   0.001   0.010  1.00  0.00     0.278 C 
ENDBRANCH  23  28
ENDBRANCH  20  22
ENDBRANCH  11  20
ENDBRANCH   8  10
ENDBRANCH   7   8
ENDBRANCH   6   7
ENDBRANCH   5   6
ENDBRANCH   4   5
ENDBRANCH   3   4
ENDBRANCH   2   3
ENDBRANCH   1   2
BRANCH   1  30
ATOM     30  C   UNL     1       2.655  -7.076  -2.290  1.00  0.00     0.188 C 
BRANCH  30  31
ATOM     31  C   UNL     1       2.578  -8.612  -2.118  1.00  0.00     0.188 C 
BRANCH  31  32
ATOM     32  O   UNL     1       1.372  -9.203  -2.588  1.00  0.00    -0.376 OA
BRANCH  32  33
ATOM     33  C   UNL     1       0.404  -9.621  -1.639  1.00  0.00     0.202 C 
BRANCH  33  34
ATOM     34  C   UNL     1      -0.321  -8.519  -0.853  1.00  0.00     0.261 C 
BRANCH  34  35
ATOM     35  O   UNL     1       0.523  -7.602  -0.147  1.00  0.00    -0.460 OA
BRANCH  35  36
ATOM     36  C   UNL     1       1.271  -8.112   0.851  1.00  0.00     0.338 C 
ATOM     37  O   UNL     1       1.288  -9.274   1.233  1.00  0.00    -0.246 OA
BRANCH  36  38
ATOM     38  C   UNL     1       2.224  -7.076   1.290  1.00  0.00     0.060 A 
ATOM     39  C   UNL     1       3.593  -7.369   1.256  1.00  0.00     0.016 A 
ATOM     40  C   UNL     1       1.771  -5.838   1.752  1.00  0.00     0.016 A 
ATOM     41  C   UNL     1       4.511  -6.451   1.759  1.00  0.00     0.010 A 
ATOM     42  C   UNL     1       2.692  -4.924   2.269  1.00  0.00     0.010 A 
ATOM     43  C   UNL     1       4.057  -5.255   2.328  1.00  0.00    -0.014 A 
BRANCH  43  44
ATOM     44  C   UNL     1       4.976  -4.484   3.199  1.00  0.00     0.031 A 
ATOM     45  C   UNL     1       4.875  -4.682   4.687  1.00  0.00     0.074 A 
ATOM     46  C   UNL     1       5.899  -3.653   2.688  1.00  0.00     0.049 A 
ATOM     47  N   UNL     1       5.576  -4.138   5.647  1.00  0.00    -0.248 NA
ATOM     48  C   UNL     1       3.838  -5.617   5.155  1.00  0.00     0.031 C 
ATOM     49  C   UNL     1       6.096  -3.380   1.266  1.00  0.00     0.029 A 
ATOM     50  N   UNL     1       6.831  -2.869   3.319  1.00  0.00    -0.354 N 
ATOM     51  C   UNL     1       5.041  -4.633   6.830  1.00  0.00     0.074 A 
ATOM     52  C   UNL     1       3.949  -5.509   6.469  1.00  0.00     0.031 C 
ATOM     53  C   UNL     1       7.072  -2.465   1.134  1.00  0.00     0.029 A 
ATOM     54  C   UNL     1       7.549  -2.074   2.461  1.00  0.00     0.049 A 
ATOM     55  H   UNL     1       6.971  -2.876   4.294  1.00  0.00     0.167 HD
ATOM     56  C   UNL     1       5.427  -4.391   8.105  1.00  0.00     0.034 A 
ATOM     57  C   UNL     1       8.468  -1.122   2.719  1.00  0.00     0.034 A 
ATOM     58  C   UNL     1       6.518  -3.525   8.461  1.00  0.00     0.049 A 
ATOM     59  C   UNL     1       8.880  -0.859   4.143  1.00  0.00     0.074 A 
ATOM     60  C   UNL     1       7.028  -3.256   9.718  1.00  0.00     0.029 A 
ATOM     61  N   UNL     1       7.250  -2.766   7.561  1.00  0.00    -0.354 N 
ATOM     62  N   UNL     1       8.448  -1.420   5.247  1.00  0.00    -0.248 NA
ATOM     63  C   UNL     1       9.938   0.141   4.355  1.00  0.00     0.031 C 
ATOM     64  C   UNL     1       8.036  -2.296   9.583  1.00  0.00     0.029 A 
ATOM     65  C   UNL     1       8.195  -2.013   8.235  1.00  0.00     0.049 A 
ATOM     66  H   UNL     1       7.117  -2.764   6.586  1.00  0.00     0.167 HD
ATOM     67  C   UNL     1       9.206  -0.875   6.278  1.00  0.00     0.074 A 
ATOM     68  C   UNL     1      10.133   0.053   5.664  1.00  0.00     0.031 C 
ATOM     69  C   UNL     1       9.139  -1.120   7.611  1.00  0.00     0.034 A 
BRANCH  56  70
ATOM     70  C   UNL     1       4.647  -5.066   9.204  1.00  0.00     0.023 A 
ATOM     71  C   UNL     1       4.724  -6.464   9.376  1.00  0.00     0.012 A 
ATOM     72  C   UNL     1       3.841  -4.308  10.075  1.00  0.00     0.148 A 
ATOM     73  C   UNL     1       3.969  -7.101  10.360  1.00  0.00     0.002 A 
ATOM     74  C   UNL     1       3.134  -4.944  11.088  1.00  0.00     0.091 A 
ATOM     75  F   UNL     1       3.759  -2.984   9.882  1.00  0.00    -0.205 F 
ATOM     76  C   UNL     1       3.182  -6.341  11.221  1.00  0.00     0.022 A 
BRANCH  74  77
ATOM     77  S   UNL     1       2.164  -4.040  12.299  1.00  0.00     0.127 S 
ATOM     78  O   UNL     1       0.800  -4.367  11.888  1.00  0.00    -0.237 OA
ATOM     79  O   UNL     1       2.588  -4.660  13.555  1.00  0.00    -0.237 OA
ATOM     80  O   UNL     1       2.545  -2.642  12.156  1.00  0.00    -0.744 OA
ENDBRANCH  74  77
ENDBRANCH  56  70
BRANCH  57  81
ATOM     81  C   UNL     1       9.074  -0.365   1.589  1.00  0.00     0.023 A 
ATOM     82  C   UNL     1      10.422  -0.576   1.241  1.00  0.00     0.012 A 
ATOM     83  C   UNL     1       8.298   0.532   0.830  1.00  0.00     0.148 A 
ATOM     84  C   UNL     1      10.992   0.111   0.169  1.00  0.00     0.002 A 
ATOM     85  C   UNL     1       8.855   1.166  -0.273  1.00  0.00     0.091 A 
ATOM     86  F   UNL     1       7.021   0.724   1.188  1.00  0.00    -0.205 F 
ATOM     87  C   UNL     1      10.207   0.971  -0.595  1.00  0.00     0.022 A 
BRANCH  85  88
ATOM     88  S   UNL     1       7.884   2.176  -1.395  1.00  0.00     0.127 S 
ATOM     89  O   UNL     1       8.499   3.490  -1.224  1.00  0.00    -0.237 OA
ATOM     90  O   UNL     1       8.150   1.530  -2.680  1.00  0.00    -0.237 OA
ATOM     91  O   UNL     1       6.505   2.064  -0.938  1.00  0.00    -0.744 OA
ENDBRANCH  85  88
ENDBRANCH  57  81
BRANCH  69  92
ATOM     92  C   UNL     1      10.134  -0.421   8.504  1.00  0.00     0.023 A 
ATOM     93  C   UNL     1      10.042   0.966   8.730  1.00  0.00     0.012 A 
ATOM     94  C   UNL     1      11.129  -1.163   9.173  1.00  0.00     0.148 A 
ATOM     95  C   UNL     1      10.950   1.610   9.572  1.00  0.00     0.002 A 
ATOM     96  C   UNL     1      11.994  -0.525  10.054  1.00  0.00     0.091 A 
ATOM     97  F   UNL     1      11.215  -2.480   8.934  1.00  0.00    -0.205 F 
ATOM     98  C   UNL     1      11.917   0.864  10.242  1.00  0.00     0.022 A 
BRANCH  96  99
ATOM     99  S   UNL     1      13.201  -1.424  11.035  1.00  0.00     0.127 S 
ATOM    100  O   UNL     1      14.453  -1.054  10.379  1.00  0.00    -0.237 OA
ATOM    101  O   UNL     1      13.014  -0.842  12.365  1.00  0.00    -0.237 OA
ATOM    102  O   UNL     1      12.833  -2.830  10.935  1.00  0.00    -0.744 OA
ENDBRANCH  96  99
ENDBRANCH  69  92
ENDBRANCH  43  44
ENDBRANCH  36  38
ENDBRANCH  35  36
ENDBRANCH  34  35
ENDBRANCH  33  34
ENDBRANCH  32  33
ENDBRANCH  31  32
ENDBRANCH  30  31
ENDBRANCH   1  30
TORSDOF 26
