REMARK SMILES O=C(CCNc1cc(N2CCC3(CC2)OCCO3)c2noc3c2c1C(=O)c1ccccc1-3)OCCOCCOCCOCCOC(=O)c1ccc(-c2c3nc(c(-c4cccc(S(=O)(=O)[O-])c4F)c4ccc([nH]4)c(-c4cccc(S(=O)(=O)[O-])c4F)c4nc(c(-c5cccc(S(=O)(=O)[O-])c5F)c5ccc2[nH]5)C=C4)C=C3)cc1
REMARK SMILES IDX 38 1 37 2 36 3 35 4 34 5 33 6 2 7 1 8 3 9 4 10 5 11 6 13
REMARK SMILES IDX 7 14 24 15 8 16 23 17 25 18 19 19 22 20 26 21 27 22 20 23
REMARK SMILES IDX 21 24 32 25 28 26 31 27 29 28 30 29 9 30 10 31 14 32 11 33
REMARK SMILES IDX 13 34 12 35 15 36 18 37 16 38 17 39 39 40 40 41 41 42 42 43
REMARK SMILES IDX 43 44 44 45 45 46 46 47 47 48 48 49 49 50 110 51 50 52
REMARK SMILES IDX 109 53 51 54 52 55 53 56 103 57 54 58 108 59 102 60 104 61
REMARK SMILES IDX 55 62 107 63 101 64 100 65 56 67 88 68 68 69 87 70 69 71
REMARK SMILES IDX 72 72 86 73 105 74 70 75 71 76 85 78 106 79 73 80 57 81
REMARK SMILES IDX 58 82 66 83 59 84 61 85 67 86 60 87 62 88 63 89 64 90 65 91
REMARK SMILES IDX 89 92 90 93 98 94 91 95 93 96 99 97 92 98 94 99 95 100
REMARK SMILES IDX 96 101 97 102 74 103 75 104 83 105 76 106 78 107 84 108
REMARK SMILES IDX 77 109 79 110 80 111 81 112 82 113
REMARK H PARENT 5 12 104 66 72 77
REMARK Flexibility Score: inf
ROOT
ATOM      1  C   UNL     1       1.655   2.393   1.300  1.00  0.00     0.188 C 
ENDROOT
BRANCH   1   2
ATOM      2  C   UNL     1       2.300   1.283   2.124  1.00  0.00     0.188 C 
BRANCH   2   3
ATOM      3  O   UNL     1       3.708   1.229   1.976  1.00  0.00    -0.376 OA
BRANCH   3   4
ATOM      4  C   UNL     1       4.310   0.593   0.854  1.00  0.00     0.202 C 
BRANCH   4   5
ATOM      5  C   UNL     1       3.598   0.494  -0.507  1.00  0.00     0.261 C 
BRANCH   5   6
ATOM      6  O   UNL     1       2.292  -0.106  -0.527  1.00  0.00    -0.463 OA
BRANCH   6   7
ATOM      7  C   UNL     1       1.892  -1.269   0.018  1.00  0.00     0.307 C 
ATOM      8  O   UNL     1       0.676  -1.480   0.110  1.00  0.00    -0.252 OA
BRANCH   7   9
ATOM      9  C   UNL     1       2.841  -2.108   0.829  1.00  0.00     0.144 C 
BRANCH   9  10
ATOM     10  C   UNL     1       4.024  -2.834   0.215  1.00  0.00     0.124 C 
BRANCH  10  11
ATOM     11  N   UNL     1       5.043  -1.996  -0.421  1.00  0.00    -0.384 N 
ATOM     12  H   UNL     1       4.731  -1.301  -1.045  1.00  0.00     0.160 HD
BRANCH  11  13
ATOM     13  C   UNL     1       6.423  -2.098  -0.215  1.00  0.00     0.048 A 
ATOM     14  C   UNL     1       7.197  -0.862  -0.401  1.00  0.00     0.054 A 
ATOM     15  C   UNL     1       7.096  -3.297   0.064  1.00  0.00     0.059 A 
ATOM     16  C   UNL     1       8.617  -0.662  -0.233  1.00  0.00     0.069 A 
ATOM     17  C   UNL     1       8.450  -3.071   0.241  1.00  0.00     0.065 A 
ATOM     18  C   UNL     1       6.601  -4.700   0.170  1.00  0.00     0.196 C 
ATOM     19  C   UNL     1       9.237  -1.888   0.126  1.00  0.00     0.138 A 
ATOM     20  C   UNL     1       9.268  -4.080   0.624  1.00  0.00     0.176 A 
ATOM     21  O   UNL     1       5.480  -5.068  -0.147  1.00  0.00    -0.288 OA
ATOM     22  C   UNL     1       7.529  -5.747   0.687  1.00  0.00     0.034 A 
ATOM     23  N   UNL     1      10.517  -2.222   0.430  1.00  0.00    -0.077 NA
ATOM     24  O   UNL     1      10.524  -3.592   0.748  1.00  0.00    -0.355 OA
ATOM     25  C   UNL     1       8.888  -5.443   0.906  1.00  0.00     0.032 A 
ATOM     26  C   UNL     1       7.020  -7.023   0.948  1.00  0.00     0.013 A 
ATOM     27  C   UNL     1       9.734  -6.440   1.383  1.00  0.00     0.013 A 
ATOM     28  C   UNL     1       7.869  -8.010   1.429  1.00  0.00     0.001 A 
ATOM     29  C   UNL     1       9.220  -7.720   1.642  1.00  0.00     0.001 A 
BRANCH  16  30
ATOM     30  N   UNL     1       9.194   0.582  -0.449  1.00  0.00    -0.369 N 
ATOM     31  C   UNL     1      10.434   0.713  -1.211  1.00  0.00     0.122 C 
ATOM     32  C   UNL     1       8.896   1.690   0.455  1.00  0.00     0.122 C 
ATOM     33  C   UNL     1      10.328   1.965  -2.085  1.00  0.00     0.087 C 
ATOM     34  C   UNL     1       8.793   2.988  -0.339  1.00  0.00     0.087 C 
ATOM     35  C   UNL     1       9.994   3.215  -1.260  1.00  0.00     0.171 C 
ATOM     36  O   UNL     1      11.145   3.623  -0.492  1.00  0.00    -0.347 OA
ATOM     37  O   UNL     1       9.645   4.285  -2.158  1.00  0.00    -0.347 OA
ATOM     38  C   UNL     1      11.786   4.598  -1.326  1.00  0.00     0.192 C 
ATOM     39  C   UNL     1      10.632   5.299  -1.988  1.00  0.00     0.192 C 
ENDBRANCH  16  30
ENDBRANCH  11  13
ENDBRANCH  10  11
ENDBRANCH   9  10
ENDBRANCH   7   9
ENDBRANCH   6   7
ENDBRANCH   5   6
ENDBRANCH   4   5
ENDBRANCH   3   4
ENDBRANCH   2   3
ENDBRANCH   1   2
BRANCH   1  40
ATOM     40  O   UNL     1       2.256   3.654   1.594  1.00  0.00    -0.377 OA
BRANCH  40  41
ATOM     41  C   UNL     1       3.561   3.797   1.050  1.00  0.00     0.188 C 
BRANCH  41  42
ATOM     42  C   UNL     1       4.745   3.960   2.029  1.00  0.00     0.188 C 
BRANCH  42  43
ATOM     43  O   UNL     1       4.538   4.010   3.435  1.00  0.00    -0.376 OA
BRANCH  43  44
ATOM     44  C   UNL     1       3.433   4.745   3.934  1.00  0.00     0.202 C 
BRANCH  44  45
ATOM     45  C   UNL     1       3.388   6.243   3.601  1.00  0.00     0.261 C 
BRANCH  45  46
ATOM     46  O   UNL     1       3.194   6.517   2.201  1.00  0.00    -0.460 OA
BRANCH  46  47
ATOM     47  C   UNL     1       4.192   7.172   1.542  1.00  0.00     0.338 C 
ATOM     48  O   UNL     1       5.188   7.663   2.023  1.00  0.00    -0.246 OA
BRANCH  47  49
ATOM     49  C   UNL     1       3.968   6.983   0.082  1.00  0.00     0.060 A 
ATOM     50  C   UNL     1       2.696   7.137  -0.475  1.00  0.00     0.016 A 
ATOM     51  C   UNL     1       5.001   6.420  -0.681  1.00  0.00     0.016 A 
ATOM     52  C   UNL     1       2.454   6.704  -1.783  1.00  0.00     0.010 A 
ATOM     53  C   UNL     1       4.740   5.949  -1.975  1.00  0.00     0.010 A 
ATOM     54  C   UNL     1       3.463   6.082  -2.545  1.00  0.00    -0.014 A 
BRANCH  54  55
ATOM     55  C   UNL     1       3.193   5.740  -3.966  1.00  0.00     0.031 A 
ATOM     56  C   UNL     1       4.367   5.631  -4.894  1.00  0.00     0.074 A 
ATOM     57  C   UNL     1       2.047   5.157  -4.378  1.00  0.00     0.049 A 
ATOM     58  N   UNL     1       4.995   4.522  -5.165  1.00  0.00    -0.248 NA
ATOM     59  C   UNL     1       5.041   6.832  -5.390  1.00  0.00     0.031 C 
ATOM     60  C   UNL     1       1.415   4.016  -3.705  1.00  0.00     0.029 A 
ATOM     61  N   UNL     1       1.374   5.261  -5.575  1.00  0.00    -0.354 N 
ATOM     62  C   UNL     1       6.158   4.867  -5.839  1.00  0.00     0.074 A 
ATOM     63  C   UNL     1       6.142   6.311  -5.949  1.00  0.00     0.031 C 
ATOM     64  C   UNL     1       0.562   3.425  -4.571  1.00  0.00     0.029 A 
ATOM     65  C   UNL     1       0.462   4.231  -5.785  1.00  0.00     0.049 A 
ATOM     66  H   UNL     1       1.524   5.992  -6.218  1.00  0.00     0.167 HD
ATOM     67  C   UNL     1       7.083   3.980  -6.296  1.00  0.00     0.034 A 
ATOM     68  C   UNL     1       0.032   3.793  -7.002  1.00  0.00     0.034 A 
ATOM     69  C   UNL     1       6.775   2.592  -6.123  1.00  0.00     0.049 A 
ATOM     70  C   UNL     1       1.255   3.056  -7.492  1.00  0.00     0.074 A 
ATOM     71  C   UNL     1       7.045   1.596  -5.210  1.00  0.00     0.029 A 
ATOM     72  N   UNL     1       5.961   1.992  -7.053  1.00  0.00    -0.354 N 
ATOM     73  N   UNL     1       1.606   1.835  -7.198  1.00  0.00    -0.248 NA
ATOM     74  C   UNL     1       2.319   3.883  -8.069  1.00  0.00     0.031 C 
ATOM     75  C   UNL     1       6.024   0.609  -5.395  1.00  0.00     0.029 A 
ATOM     76  C   UNL     1       5.173   1.085  -6.389  1.00  0.00     0.049 A 
ATOM     77  H   UNL     1       5.945   2.179  -8.020  1.00  0.00     0.167 HD
ATOM     78  C   UNL     1       3.001   1.841  -7.261  1.00  0.00     0.074 A 
ATOM     79  C   UNL     1       3.375   3.137  -7.785  1.00  0.00     0.031 C 
ATOM     80  C   UNL     1       3.792   0.858  -6.746  1.00  0.00     0.034 A 
BRANCH  67  81
ATOM     81  C   UNL     1       8.238   4.381  -7.137  1.00  0.00     0.023 A 
ATOM     82  C   UNL     1       8.037   4.429  -8.530  1.00  0.00     0.012 A 
ATOM     83  C   UNL     1       9.531   4.564  -6.616  1.00  0.00     0.148 A 
ATOM     84  C   UNL     1       9.108   4.620  -9.399  1.00  0.00     0.002 A 
ATOM     85  C   UNL     1      10.598   4.763  -7.489  1.00  0.00     0.091 A 
ATOM     86  F   UNL     1       9.703   4.512  -5.288  1.00  0.00    -0.205 F 
ATOM     87  C   UNL     1      10.389   4.780  -8.880  1.00  0.00     0.022 A 
BRANCH  85  88
ATOM     88  S   UNL     1      12.292   4.993  -6.930  1.00  0.00     0.127 S 
ATOM     89  O   UNL     1      12.937   3.768  -7.397  1.00  0.00    -0.237 OA
ATOM     90  O   UNL     1      12.686   6.204  -7.652  1.00  0.00    -0.237 OA
ATOM     91  O   UNL     1      12.224   5.152  -5.483  1.00  0.00    -0.744 OA
ENDBRANCH  85  88
ENDBRANCH  67  81
BRANCH  68  92
ATOM     92  C   UNL     1      -0.660   4.807  -7.875  1.00  0.00     0.023 A 
ATOM     93  C   UNL     1      -1.614   5.660  -7.269  1.00  0.00     0.012 A 
ATOM     94  C   UNL     1      -0.434   4.962  -9.257  1.00  0.00     0.148 A 
ATOM     95  C   UNL     1      -2.230   6.694  -7.978  1.00  0.00     0.002 A 
ATOM     96  C   UNL     1      -1.004   6.031  -9.947  1.00  0.00     0.091 A 
ATOM     97  F   UNL     1       0.350   4.080  -9.889  1.00  0.00    -0.205 F 
ATOM     98  C   UNL     1      -1.901   6.898  -9.310  1.00  0.00     0.022 A 
BRANCH  96  99
ATOM     99  S   UNL     1      -0.561   6.431 -11.643  1.00  0.00     0.127 S 
ATOM    100  O   UNL     1      -1.871   6.579 -12.275  1.00  0.00    -0.237 OA
ATOM    101  O   UNL     1       0.180   7.677 -11.458  1.00  0.00    -0.237 OA
ATOM    102  O   UNL     1       0.229   5.306 -12.123  1.00  0.00    -0.744 OA
ENDBRANCH  96  99
ENDBRANCH  68  92
BRANCH  80 103
ATOM    103  C   UNL     1       3.117  -0.431  -6.420  1.00  0.00     0.023 A 
ATOM    104  C   UNL     1       2.636  -1.217  -7.487  1.00  0.00     0.012 A 
ATOM    105  C   UNL     1       3.043  -0.937  -5.118  1.00  0.00     0.148 A 
ATOM    106  C   UNL     1       2.116  -2.492  -7.266  1.00  0.00     0.002 A 
ATOM    107  C   UNL     1       2.587  -2.236  -4.915  1.00  0.00     0.091 A 
ATOM    108  F   UNL     1       3.425  -0.165  -4.087  1.00  0.00    -0.205 F 
ATOM    109  C   UNL     1       2.113  -3.013  -5.978  1.00  0.00     0.022 A 
BRANCH 107 110
ATOM    110  S   UNL     1       2.820  -3.022  -3.332  1.00  0.00     0.127 S 
ATOM    111  O   UNL     1       1.565  -2.757  -2.643  1.00  0.00    -0.237 OA
ATOM    112  O   UNL     1       3.041  -4.424  -3.681  1.00  0.00    -0.237 OA
ATOM    113  O   UNL     1       3.998  -2.354  -2.784  1.00  0.00    -0.744 OA
ENDBRANCH 107 110
ENDBRANCH  80 103
ENDBRANCH  54  55
ENDBRANCH  47  49
ENDBRANCH  46  47
ENDBRANCH  45  46
ENDBRANCH  44  45
ENDBRANCH  43  44
ENDBRANCH  42  43
ENDBRANCH  41  42
ENDBRANCH  40  41
ENDBRANCH   1  40
TORSDOF 27
