REMARK SMILES CC1(C)S[C@H]2[C@H](NC(=O)[C@H](NN3CCNC3=O)c3ccccc3)C(=O)N2[C@H]1C(=O)OCCOCCOCCOCCOC(=O)c1ccc(-c2c3nc(c(-c4cccc(S(=O)(=O)[O-])c4F)c4ccc([nH]4)c(-c4cccc(S(=O)(=O)[O-])c4F)c4nc(c(-c5cccc(S(=O)(=O)[O-])c5F)c5ccc2[nH]5)C=C4)C=C3)cc1
REMARK SMILES IDX 35 1 34 2 33 3 32 4 31 5 30 6 28 7 29 8 27 9 1 10 2 11 3 12
REMARK SMILES IDX 4 13 5 14 26 15 6 16 24 17 25 18 7 19 8 20 9 22 10 23 18 24
REMARK SMILES IDX 19 25 23 26 20 27 22 28 21 29 11 30 12 32 13 33 16 34 14 35
REMARK SMILES IDX 15 36 17 37 36 39 37 40 38 41 39 42 40 43 41 44 42 45 43 46
REMARK SMILES IDX 44 47 45 48 46 49 107 50 47 51 106 52 48 53 49 54 50 55
REMARK SMILES IDX 100 56 51 57 105 58 99 59 101 60 52 61 104 62 98 63 97 64
REMARK SMILES IDX 53 66 85 67 65 68 84 69 66 70 69 71 83 72 102 73 67 74 68 75
REMARK SMILES IDX 82 77 103 78 70 79 54 80 55 81 63 82 56 83 58 84 64 85 57 86
REMARK SMILES IDX 59 87 60 88 61 89 62 90 86 91 87 92 95 93 88 94 90 95 96 96
REMARK SMILES IDX 89 97 91 98 92 99 93 100 94 101 71 102 72 103 80 104 73 105
REMARK SMILES IDX 75 106 81 107 74 108 76 109 77 110 78 111 79 112
REMARK H PARENT 7 21 11 31 15 38 101 65 69 76
REMARK Flexibility Score: inf
ROOT
ATOM      1  C   UNL     1     -10.319   4.232   1.707  1.00  0.00     0.188 C 
ENDROOT
BRANCH   1   2
ATOM      2  C   UNL     1     -10.053   4.128   0.205  1.00  0.00     0.188 C 
BRANCH   2   3
ATOM      3  O   UNL     1     -10.017   2.822  -0.328  1.00  0.00    -0.376 OA
BRANCH   3   4
ATOM      4  C   UNL     1      -8.788   2.095  -0.307  1.00  0.00     0.202 C 
BRANCH   4   5
ATOM      5  C   UNL     1      -7.439   2.739   0.059  1.00  0.00     0.261 C 
BRANCH   5   6
ATOM      6  O   UNL     1      -7.368   3.338   1.372  1.00  0.00    -0.462 OA
BRANCH   6   7
ATOM      7  C   UNL     1      -7.035   4.654   1.403  1.00  0.00     0.330 C 
ATOM      8  O   UNL     1      -6.967   5.368   0.401  1.00  0.00    -0.250 OA
BRANCH   7   9
ATOM      9  C   UNL     1      -6.563   5.188   2.763  1.00  0.00     0.212 C 
ATOM     10  C   UNL     1      -8.335   5.295   4.632  1.00  0.00     0.026 C 
ATOM     11  C   UNL     1      -7.001   4.699   4.161  1.00  0.00     0.044 C 
ATOM     12  C   UNL     1      -6.996   3.192   4.443  1.00  0.00     0.026 C 
ATOM     13  S   UNL     1      -5.711   5.512   5.285  1.00  0.00    -0.125 SA
ATOM     14  C   UNL     1      -4.396   5.532   3.990  1.00  0.00     0.176 C 
ATOM     15  N   UNL     1      -5.105   5.239   2.739  1.00  0.00    -0.311 N 
ATOM     16  C   UNL     1      -3.706   4.165   3.858  1.00  0.00     0.205 C 
ATOM     17  C   UNL     1      -4.383   4.125   2.473  1.00  0.00     0.250 C 
ATOM     18  O   UNL     1      -4.448   3.341   1.543  1.00  0.00    -0.272 OA
BRANCH  16  19
ATOM     19  N   UNL     1      -2.247   4.008   3.781  1.00  0.00    -0.340 N 
ATOM     20  C   UNL     1      -1.666   2.765   3.968  1.00  0.00     0.244 C 
ATOM     21  H   UNL     1      -1.679   4.791   3.595  1.00  0.00     0.164 HD
ATOM     22  O   UNL     1      -0.765   2.469   3.180  1.00  0.00    -0.273 OA
BRANCH  20  23
ATOM     23  C   UNL     1      -2.178   1.861   5.145  1.00  0.00     0.194 C 
BRANCH  23  24
ATOM     24  C   UNL     1      -2.863   0.577   4.671  1.00  0.00    -0.020 A 
ATOM     25  C   UNL     1      -3.890   0.649   3.704  1.00  0.00     0.006 A 
ATOM     26  C   UNL     1      -2.603  -0.692   5.194  1.00  0.00     0.006 A 
ATOM     27  C   UNL     1      -4.604  -0.472   3.273  1.00  0.00     0.000 A 
ATOM     28  C   UNL     1      -3.292  -1.825   4.747  1.00  0.00     0.000 A 
ATOM     29  C   UNL     1      -4.292  -1.715   3.791  1.00  0.00     0.000 A 
ENDBRANCH  23  24
BRANCH  23  30
ATOM     30  N   UNL     1      -1.164   1.820   6.256  1.00  0.00    -0.213 NA
ATOM     31  H   UNL     1      -1.517   1.202   6.986  1.00  0.00     0.149 HD
BRANCH  30  32
ATOM     32  N   UNL     1       0.101   1.367   5.875  1.00  0.00    -0.257 N 
ATOM     33  C   UNL     1       1.147   2.154   5.280  1.00  0.00     0.163 C 
ATOM     34  C   UNL     1       0.613   0.084   6.166  1.00  0.00     0.331 C 
ATOM     35  C   UNL     1       1.909   1.080   4.518  1.00  0.00     0.141 C 
ATOM     36  N   UNL     1       1.747  -0.073   5.369  1.00  0.00    -0.335 N 
ATOM     37  O   UNL     1       0.172  -0.724   6.963  1.00  0.00    -0.247 OA
ATOM     38  H   UNL     1       2.347  -0.854   5.385  1.00  0.00     0.165 HD
ENDBRANCH  30  32
ENDBRANCH  23  30
ENDBRANCH  20  23
ENDBRANCH  16  19
ENDBRANCH   7   9
ENDBRANCH   6   7
ENDBRANCH   5   6
ENDBRANCH   4   5
ENDBRANCH   3   4
ENDBRANCH   2   3
ENDBRANCH   1   2
BRANCH   1  39
ATOM     39  O   UNL     1      -9.780   3.220   2.538  1.00  0.00    -0.377 OA
BRANCH  39  40
ATOM     40  C   UNL     1     -10.448   1.964   2.634  1.00  0.00     0.188 C 
BRANCH  40  41
ATOM     41  C   UNL     1     -11.925   1.872   2.231  1.00  0.00     0.188 C 
BRANCH  41  42
ATOM     42  O   UNL     1     -12.894   2.679   2.901  1.00  0.00    -0.376 OA
BRANCH  42  43
ATOM     43  C   UNL     1     -12.579   3.255   4.160  1.00  0.00     0.202 C 
BRANCH  43  44
ATOM     44  C   UNL     1     -12.685   2.355   5.393  1.00  0.00     0.261 C 
BRANCH  44  45
ATOM     45  O   UNL     1     -11.930   1.144   5.301  1.00  0.00    -0.460 OA
BRANCH  45  46
ATOM     46  C   UNL     1     -12.630   0.072   4.858  1.00  0.00     0.338 C 
ATOM     47  O   UNL     1     -13.799   0.040   4.519  1.00  0.00    -0.246 OA
BRANCH  46  48
ATOM     48  C   UNL     1     -11.717  -1.078   4.737  1.00  0.00     0.060 A 
ATOM     49  C   UNL     1     -11.716  -1.810   3.543  1.00  0.00     0.016 A 
ATOM     50  C   UNL     1     -10.938  -1.482   5.823  1.00  0.00     0.016 A 
ATOM     51  C   UNL     1     -10.970  -2.982   3.450  1.00  0.00     0.010 A 
ATOM     52  C   UNL     1     -10.200  -2.662   5.732  1.00  0.00     0.010 A 
ATOM     53  C   UNL     1     -10.249  -3.438   4.561  1.00  0.00    -0.014 A 
BRANCH  53  54
ATOM     54  C   UNL     1      -9.712  -4.817   4.576  1.00  0.00     0.031 A 
ATOM     55  C   UNL     1     -10.523  -5.890   5.252  1.00  0.00     0.074 A 
ATOM     56  C   UNL     1      -8.531  -5.107   4.004  1.00  0.00     0.049 A 
ATOM     57  N   UNL     1     -10.243  -7.154   5.426  1.00  0.00    -0.248 NA
ATOM     58  C   UNL     1     -11.828  -5.482   5.804  1.00  0.00     0.031 C 
ATOM     59  C   UNL     1      -7.676  -4.160   3.289  1.00  0.00     0.029 A 
ATOM     60  N   UNL     1      -7.839  -6.290   3.953  1.00  0.00    -0.354 N 
ATOM     61  C   UNL     1     -11.319  -7.687   6.125  1.00  0.00     0.074 A 
ATOM     62  C   UNL     1     -12.254  -6.608   6.357  1.00  0.00     0.031 C 
ATOM     63  C   UNL     1      -6.563  -4.798   2.886  1.00  0.00     0.029 A 
ATOM     64  C   UNL     1      -6.608  -6.179   3.352  1.00  0.00     0.049 A 
ATOM     65  H   UNL     1      -8.190  -7.137   4.311  1.00  0.00     0.167 HD
ATOM     66  C   UNL     1     -11.520  -8.965   6.523  1.00  0.00     0.034 A 
ATOM     67  C   UNL     1      -5.624  -7.087   3.216  1.00  0.00     0.034 A 
ATOM     68  C   UNL     1     -10.595 -10.035   6.275  1.00  0.00     0.049 A 
ATOM     69  C   UNL     1      -5.848  -8.487   3.726  1.00  0.00     0.074 A 
ATOM     70  C   UNL     1     -10.722 -11.375   6.595  1.00  0.00     0.029 A 
ATOM     71  N   UNL     1      -9.363  -9.885   5.657  1.00  0.00    -0.354 N 
ATOM     72  N   UNL     1      -6.916  -9.002   4.284  1.00  0.00    -0.248 NA
ATOM     73  C   UNL     1      -4.742  -9.441   3.550  1.00  0.00     0.031 C 
ATOM     74  C   UNL     1      -9.553 -12.030   6.195  1.00  0.00     0.029 A 
ATOM     75  C   UNL     1      -8.712 -11.104   5.599  1.00  0.00     0.049 A 
ATOM     76  H   UNL     1      -9.005  -9.036   5.311  1.00  0.00     0.167 HD
ATOM     77  C   UNL     1      -6.631 -10.349   4.481  1.00  0.00     0.074 A 
ATOM     78  C   UNL     1      -5.292 -10.570   3.974  1.00  0.00     0.031 C 
ATOM     79  C   UNL     1      -7.403 -11.315   5.037  1.00  0.00     0.034 A 
BRANCH  66  80
ATOM     80  C   UNL     1     -12.802  -9.279   7.248  1.00  0.00     0.023 A 
ATOM     81  C   UNL     1     -14.017  -9.313   6.534  1.00  0.00     0.012 A 
ATOM     82  C   UNL     1     -12.799  -9.588   8.622  1.00  0.00     0.148 A 
ATOM     83  C   UNL     1     -15.213  -9.622   7.181  1.00  0.00     0.002 A 
ATOM     84  C   UNL     1     -13.988  -9.936   9.251  1.00  0.00     0.091 A 
ATOM     85  F   UNL     1     -11.637  -9.524   9.288  1.00  0.00    -0.205 F 
ATOM     86  C   UNL     1     -15.197  -9.944   8.536  1.00  0.00     0.022 A 
BRANCH  84  87
ATOM     87  S   UNL     1     -14.061 -10.436  10.975  1.00  0.00     0.127 S 
ATOM     88  O   UNL     1     -14.735  -9.291  11.586  1.00  0.00    -0.237 OA
ATOM     89  O   UNL     1     -14.868 -11.654  10.908  1.00  0.00    -0.237 OA
ATOM     90  O   UNL     1     -12.681 -10.644  11.392  1.00  0.00    -0.744 OA
ENDBRANCH  84  87
ENDBRANCH  66  80
BRANCH  67  91
ATOM     91  C   UNL     1      -4.346  -6.734   2.537  1.00  0.00     0.023 A 
ATOM     92  C   UNL     1      -4.078  -7.264   1.261  1.00  0.00     0.012 A 
ATOM     93  C   UNL     1      -3.379  -5.923   3.162  1.00  0.00     0.148 A 
ATOM     94  C   UNL     1      -2.853  -7.028   0.635  1.00  0.00     0.002 A 
ATOM     95  C   UNL     1      -2.165  -5.679   2.525  1.00  0.00     0.091 A 
ATOM     96  F   UNL     1      -3.670  -5.388   4.356  1.00  0.00    -0.205 F 
ATOM     97  C   UNL     1      -1.895  -6.241   1.268  1.00  0.00     0.022 A 
BRANCH  95  98
ATOM     98  S   UNL     1      -0.878  -4.676   3.277  1.00  0.00     0.127 S 
ATOM     99  O   UNL     1       0.343  -5.383   2.887  1.00  0.00    -0.237 OA
ATOM    100  O   UNL     1      -1.080  -3.395   2.608  1.00  0.00    -0.237 OA
ATOM    101  O   UNL     1      -1.162  -4.712   4.705  1.00  0.00    -0.744 OA
ENDBRANCH  95  98
ENDBRANCH  67  91
BRANCH  79 102
ATOM    102  C   UNL     1      -6.846 -12.713   5.084  1.00  0.00     0.023 A 
ATOM    103  C   UNL     1      -5.819 -13.031   5.994  1.00  0.00     0.012 A 
ATOM    104  C   UNL     1      -7.398 -13.730   4.279  1.00  0.00     0.148 A 
ATOM    105  C   UNL     1      -5.328 -14.333   6.080  1.00  0.00     0.002 A 
ATOM    106  C   UNL     1      -6.939 -15.035   4.407  1.00  0.00     0.091 A 
ATOM    107  F   UNL     1      -8.362 -13.402   3.406  1.00  0.00    -0.205 F 
ATOM    108  C   UNL     1      -5.896 -15.336   5.297  1.00  0.00     0.022 A 
BRANCH 106 109
ATOM    109  S   UNL     1      -7.681 -16.405   3.513  1.00  0.00     0.127 S 
ATOM    110  O   UNL     1      -6.654 -16.703   2.516  1.00  0.00    -0.237 OA
ATOM    111  O   UNL     1      -7.826 -17.417   4.560  1.00  0.00    -0.237 OA
ATOM    112  O   UNL     1      -8.941 -15.903   2.982  1.00  0.00    -0.744 OA
ENDBRANCH 106 109
ENDBRANCH  79 102
ENDBRANCH  53  54
ENDBRANCH  46  48
ENDBRANCH  45  46
ENDBRANCH  44  45
ENDBRANCH  43  44
ENDBRANCH  42  43
ENDBRANCH  41  42
ENDBRANCH  40  41
ENDBRANCH  39  40
ENDBRANCH   1  39
TORSDOF 28
