REMARK SMILES O=C(OCCOCCOCCOCCOC(=O)c1nccnc1C(=O)Nc1n[nH]c2ncccc12)c1ccc(-c2c3nc(c(-c4cccc(S(=O)(=O)[O-])c4F)c4ccc([nH]4)c(-c4cccc(S(=O)(=O)[O-])c4F)c4nc(c(-c5cccc(S(=O)(=O)[O-])c5F)c5ccc2[nH]5)C=C4)C=C3)cc1
REMARK SMILES IDX 8 1 7 2 6 3 5 4 4 5 3 6 2 7 1 8 36 9 37 10 98 11 38 12 97 13
REMARK SMILES IDX 39 14 40 15 41 16 91 17 42 18 96 19 90 20 92 21 43 22 95 23
REMARK SMILES IDX 89 24 88 25 44 27 76 28 56 29 75 30 57 31 60 32 74 33 93 34
REMARK SMILES IDX 58 35 59 36 73 38 94 39 61 40 45 41 46 42 54 43 47 44 49 45
REMARK SMILES IDX 55 46 48 47 50 48 51 49 52 50 53 51 77 52 78 53 86 54 79 55
REMARK SMILES IDX 81 56 87 57 80 58 82 59 83 60 84 61 85 62 62 63 63 64 71 65
REMARK SMILES IDX 64 66 66 67 72 68 65 69 67 70 68 71 69 72 70 73 9 74 10 75
REMARK SMILES IDX 11 76 12 77 13 78 14 79 15 80 16 81 17 82 18 83 19 84 23 85
REMARK SMILES IDX 20 86 22 87 21 88 24 89 25 90 26 91 27 93 28 94 35 95 29 96
REMARK SMILES IDX 30 97 34 98 31 100 33 101 32 102
REMARK H PARENT 92 26 60 37 26 92 29 99
REMARK Flexibility Score: inf
ROOT
ATOM      1  C   UNL     1       2.437  -1.278  -2.131  1.00  0.00     0.188 C 
ENDROOT
BRANCH   1   2
ATOM      2  C   UNL     1       2.281  -0.719  -0.726  1.00  0.00     0.188 C 
BRANCH   2   3
ATOM      3  O   UNL     1       3.539  -0.626  -0.081  1.00  0.00    -0.376 OA
BRANCH   3   4
ATOM      4  C   UNL     1       3.990  -1.801   0.569  1.00  0.00     0.202 C 
BRANCH   4   5
ATOM      5  C   UNL     1       3.938  -1.571   2.078  1.00  0.00     0.261 C 
BRANCH   5   6
ATOM      6  O   UNL     1       2.617  -1.156   2.481  1.00  0.00    -0.460 OA
BRANCH   6   7
ATOM      7  C   UNL     1       2.046   0.071   2.374  1.00  0.00     0.338 C 
ATOM      8  O   UNL     1       0.821   0.142   2.475  1.00  0.00    -0.246 OA
BRANCH   7   9
ATOM      9  C   UNL     1       2.803   1.362   2.225  1.00  0.00     0.060 A 
ATOM     10  C   UNL     1       4.042   1.531   1.598  1.00  0.00     0.016 A 
ATOM     11  C   UNL     1       2.170   2.514   2.730  1.00  0.00     0.016 A 
ATOM     12  C   UNL     1       4.652   2.775   1.494  1.00  0.00     0.010 A 
ATOM     13  C   UNL     1       2.793   3.765   2.675  1.00  0.00     0.010 A 
ATOM     14  C   UNL     1       4.059   3.879   2.093  1.00  0.00    -0.014 A 
BRANCH  14  15
ATOM     15  C   UNL     1       4.945   5.012   2.405  1.00  0.00     0.031 A 
ATOM     16  C   UNL     1       5.636   4.968   3.738  1.00  0.00     0.074 A 
ATOM     17  C   UNL     1       5.224   5.951   1.489  1.00  0.00     0.049 A 
ATOM     18  N   UNL     1       6.452   5.825   4.282  1.00  0.00    -0.248 NA
ATOM     19  C   UNL     1       5.383   3.771   4.565  1.00  0.00     0.031 C 
ATOM     20  C   UNL     1       4.701   5.983   0.123  1.00  0.00     0.029 A 
ATOM     21  N   UNL     1       6.029   7.054   1.570  1.00  0.00    -0.354 N 
ATOM     22  C   UNL     1       6.760   5.301   5.532  1.00  0.00     0.074 A 
ATOM     23  C   UNL     1       6.073   4.039   5.659  1.00  0.00     0.031 C 
ATOM     24  C   UNL     1       5.189   7.068  -0.503  1.00  0.00     0.029 A 
ATOM     25  C   UNL     1       6.015   7.825   0.433  1.00  0.00     0.049 A 
ATOM     26  H   UNL     1       6.565   7.275   2.365  1.00  0.00     0.167 HD
ATOM     27  C   UNL     1       7.536   5.840   6.498  1.00  0.00     0.034 A 
ATOM     28  C   UNL     1       6.585   9.025   0.206  1.00  0.00     0.034 A 
ATOM     29  C   UNL     1       8.198   7.101   6.345  1.00  0.00     0.049 A 
ATOM     30  C   UNL     1       7.391   9.641   1.322  1.00  0.00     0.074 A 
ATOM     31  C   UNL     1       8.971   7.791   7.256  1.00  0.00     0.029 A 
ATOM     32  N   UNL     1       8.145   7.870   5.189  1.00  0.00    -0.354 N 
ATOM     33  N   UNL     1       7.676   9.147   2.505  1.00  0.00    -0.248 NA
ATOM     34  C   UNL     1       7.963  10.970   1.073  1.00  0.00     0.031 C 
ATOM     35  C   UNL     1       9.360   8.996   6.660  1.00  0.00     0.029 A 
ATOM     36  C   UNL     1       8.865   9.034   5.362  1.00  0.00     0.049 A 
ATOM     37  H   UNL     1       7.665   7.621   4.367  1.00  0.00     0.167 HD
ATOM     38  C   UNL     1       8.492  10.084   3.127  1.00  0.00     0.074 A 
ATOM     39  C   UNL     1       8.663  11.171   2.182  1.00  0.00     0.031 C 
ATOM     40  C   UNL     1       9.045  10.062   4.367  1.00  0.00     0.034 A 
BRANCH  27  41
ATOM     41  C   UNL     1       7.622   5.090   7.799  1.00  0.00     0.023 A 
ATOM     42  C   UNL     1       8.338   3.877   7.880  1.00  0.00     0.012 A 
ATOM     43  C   UNL     1       6.929   5.558   8.932  1.00  0.00     0.148 A 
ATOM     44  C   UNL     1       8.318   3.118   9.051  1.00  0.00     0.002 A 
ATOM     45  C   UNL     1       6.952   4.820  10.108  1.00  0.00     0.091 A 
ATOM     46  F   UNL     1       6.224   6.693   8.825  1.00  0.00    -0.205 F 
ATOM     47  C   UNL     1       7.630   3.592  10.165  1.00  0.00     0.022 A 
BRANCH  45  48
ATOM     48  S   UNL     1       6.144   5.377  11.612  1.00  0.00     0.127 S 
ATOM     49  O   UNL     1       5.021   4.446  11.707  1.00  0.00    -0.237 OA
ATOM     50  O   UNL     1       7.191   5.175  12.614  1.00  0.00    -0.237 OA
ATOM     51  O   UNL     1       5.786   6.770  11.382  1.00  0.00    -0.744 OA
ENDBRANCH  45  48
ENDBRANCH  27  41
BRANCH  28  52
ATOM     52  C   UNL     1       6.420   9.704  -1.111  1.00  0.00     0.023 A 
ATOM     53  C   UNL     1       7.540   9.893  -1.945  1.00  0.00     0.012 A 
ATOM     54  C   UNL     1       5.157  10.143  -1.556  1.00  0.00     0.148 A 
ATOM     55  C   UNL     1       7.408  10.524  -3.184  1.00  0.00     0.002 A 
ATOM     56  C   UNL     1       5.023  10.721  -2.814  1.00  0.00     0.091 A 
ATOM     57  F   UNL     1       4.104   9.974  -0.744  1.00  0.00    -0.205 F 
ATOM     58  C   UNL     1       6.150  10.928  -3.623  1.00  0.00     0.022 A 
BRANCH  56  59
ATOM     59  S   UNL     1       3.426  11.154  -3.515  1.00  0.00     0.127 S 
ATOM     60  O   UNL     1       3.511  12.611  -3.576  1.00  0.00    -0.237 OA
ATOM     61  O   UNL     1       3.477  10.478  -4.812  1.00  0.00    -0.237 OA
ATOM     62  O   UNL     1       2.432  10.618  -2.596  1.00  0.00    -0.744 OA
ENDBRANCH  56  59
ENDBRANCH  28  52
BRANCH  40  63
ATOM     63  C   UNL     1       9.932  11.214   4.747  1.00  0.00     0.023 A 
ATOM     64  C   UNL     1       9.369  12.466   5.061  1.00  0.00     0.012 A 
ATOM     65  C   UNL     1      11.318  11.015   4.893  1.00  0.00     0.148 A 
ATOM     66  C   UNL     1      10.181  13.514   5.487  1.00  0.00     0.002 A 
ATOM     67  C   UNL     1      12.112  12.047   5.373  1.00  0.00     0.091 A 
ATOM     68  F   UNL     1      11.831   9.819   4.569  1.00  0.00    -0.205 F 
ATOM     69  C   UNL     1      11.548  13.301   5.658  1.00  0.00     0.022 A 
BRANCH  67  70
ATOM     70  S   UNL     1      13.856  11.819   5.731  1.00  0.00     0.127 S 
ATOM     71  O   UNL     1      14.484  12.520   4.613  1.00  0.00    -0.237 OA
ATOM     72  O   UNL     1      13.997  12.484   7.027  1.00  0.00    -0.237 OA
ATOM     73  O   UNL     1      14.071  10.378   5.769  1.00  0.00    -0.744 OA
ENDBRANCH  67  70
ENDBRANCH  40  63
ENDBRANCH  14  15
ENDBRANCH   7   9
ENDBRANCH   6   7
ENDBRANCH   5   6
ENDBRANCH   4   5
ENDBRANCH   3   4
ENDBRANCH   2   3
ENDBRANCH   1   2
BRANCH   1  74
ATOM     74  O   UNL     1       3.777  -1.476  -2.578  1.00  0.00    -0.377 OA
BRANCH  74  75
ATOM     75  C   UNL     1       4.729  -0.401  -2.520  1.00  0.00     0.188 C 
BRANCH  75  76
ATOM     76  C   UNL     1       4.290   1.079  -2.431  1.00  0.00     0.188 C 
BRANCH  76  77
ATOM     77  O   UNL     1       2.968   1.288  -2.907  1.00  0.00    -0.376 OA
BRANCH  77  78
ATOM     78  C   UNL     1       2.781   2.227  -3.963  1.00  0.00     0.202 C 
BRANCH  78  79
ATOM     79  C   UNL     1       2.163   1.487  -5.324  1.00  0.00     0.261 C 
BRANCH  79  80
ATOM     80  O   UNL     1       3.146   0.725  -6.947  1.00  0.00    -0.458 OA
BRANCH  80  81
ATOM     81  C   UNL     1       4.042   0.009  -7.803  1.00  0.00     0.359 C 
ATOM     82  O   UNL     1       4.253   0.397  -8.953  1.00  0.00    -0.244 OA
BRANCH  81  83
ATOM     83  C   UNL     1       4.703  -1.289  -7.386  1.00  0.00     0.179 A 
ATOM     84  N   UNL     1       4.005  -2.349  -7.945  1.00  0.00    -0.245 NA
ATOM     85  C   UNL     1       5.830  -1.515  -6.574  1.00  0.00     0.161 A 
ATOM     86  C   UNL     1       4.444  -3.597  -7.688  1.00  0.00     0.132 A 
ATOM     87  N   UNL     1       6.207  -2.821  -6.314  1.00  0.00    -0.247 NA
ATOM     88  C   UNL     1       5.523  -3.831  -6.878  1.00  0.00     0.132 A 
BRANCH  85  89
ATOM     89  C   UNL     1       6.847  -0.606  -5.896  1.00  0.00     0.278 C 
ATOM     90  O   UNL     1       7.938  -1.101  -5.575  1.00  0.00    -0.267 OA
ATOM     91  N   UNL     1       6.738   0.726  -5.614  1.00  0.00    -0.303 N 
ATOM     92  H   UNL     1       7.580   1.162  -5.348  1.00  0.00     0.172 HD
BRANCH  91  93
ATOM     93  C   UNL     1       5.661   1.542  -5.643  1.00  0.00     0.164 A 
ATOM     94  N   UNL     1       5.849   2.843  -5.906  1.00  0.00    -0.155 NA
ATOM     95  C   UNL     1       4.323   1.153  -5.553  1.00  0.00     0.063 A 
ATOM     96  N   UNL     1       4.725   3.329  -6.512  1.00  0.00    -0.259 N 
ATOM     97  C   UNL     1       3.677   2.462  -6.528  1.00  0.00     0.157 A 
ATOM     98  C   UNL     1       3.303  -0.344  -5.351  1.00  0.00     0.017 A 
ATOM     99  H   UNL     1       4.677   4.231  -6.903  1.00  0.00     0.192 HD
ATOM    100  N   UNL     1       2.209   2.387  -7.400  1.00  0.00    -0.237 NA
ATOM    101  C   UNL     1       1.781  -0.497  -6.280  1.00  0.00     0.021 A 
ATOM    102  C   UNL     1       1.299   0.884  -7.242  1.00  0.00     0.113 A 
ENDBRANCH  91  93
ENDBRANCH  85  89
ENDBRANCH  81  83
ENDBRANCH  80  81
ENDBRANCH  79  80
ENDBRANCH  78  79
ENDBRANCH  77  78
ENDBRANCH  76  77
ENDBRANCH  75  76
ENDBRANCH  74  75
ENDBRANCH   1  74
TORSDOF 25
