REMARK SMILES COc1ccccc1N1C(=O)[C@@H]2[C@@H](C1=O)[C@@](Cc1ccccc1)(C(=O)OCCOCCOCCOCCOC(=O)c1ccc(-c3c4nc(c(-c5cccc(S(=O)(=O)[O-])c5F)c5ccc([nH]5)c(-c5cccc(S(=O)(=O)[O-])c5F)c5nc(c(-c6cccc(S(=O)(=O)[O-])c6F)c6ccc3[nH]6)C=C5)C=C4)cc1)[NH2+][C@H]2c1ccc(C)cc1
REMARK SMILES IDX 33 1 32 2 31 3 30 4 29 5 28 6 27 7 26 8 24 9 25 10 16 11
REMARK SMILES IDX 9 12 10 13 14 14 11 15 12 16 13 17 15 18 105 19 104 20 8 23
REMARK SMILES IDX 3 24 4 25 5 26 7 27 6 28 2 29 1 30 106 31 107 32 112 33
REMARK SMILES IDX 108 34 111 35 109 36 110 37 17 38 18 39 19 40 23 41 20 42
REMARK SMILES IDX 22 43 21 44 34 45 35 46 36 47 37 48 38 49 39 50 40 51 41 52
REMARK SMILES IDX 42 53 103 54 43 55 102 56 44 57 45 58 46 59 96 60 47 61
REMARK SMILES IDX 101 62 95 63 97 64 48 65 100 66 94 67 93 68 49 70 81 71
REMARK SMILES IDX 61 72 80 73 62 74 65 75 79 76 98 77 63 78 64 79 78 81 99 82
REMARK SMILES IDX 66 83 50 84 51 85 59 86 52 87 54 88 60 89 53 90 55 91 56 92
REMARK SMILES IDX 57 93 58 94 82 95 83 96 91 97 84 98 86 99 92 100 85 101
REMARK SMILES IDX 87 102 88 103 89 104 90 105 67 106 68 107 76 108 69 109
REMARK SMILES IDX 71 110 77 111 70 112 72 113 73 114 74 115 75 116
REMARK H PARENT 104 21 104 22 97 69 65 80
REMARK Flexibility Score: inf
ROOT
ATOM      1  C   UNL     1       8.667   1.359  -4.697  1.00  0.00     0.188 C 
ENDROOT
BRANCH   1   2
ATOM      2  O   UNL     1       7.266   1.265  -4.819  1.00  0.00    -0.377 OA
BRANCH   2   3
ATOM      3  C   UNL     1       6.503   1.948  -3.850  1.00  0.00     0.188 C 
BRANCH   3   4
ATOM      4  C   UNL     1       6.938   3.223  -3.096  1.00  0.00     0.188 C 
BRANCH   4   5
ATOM      5  O   UNL     1       8.284   3.375  -2.707  1.00  0.00    -0.376 OA
BRANCH   5   6
ATOM      6  C   UNL     1       8.885   2.702  -1.623  1.00  0.00     0.202 C 
BRANCH   6   7
ATOM      7  C   UNL     1       8.202   1.679  -0.712  1.00  0.00     0.261 C 
BRANCH   7   8
ATOM      8  O   UNL     1       7.182   0.843  -1.273  1.00  0.00    -0.459 OA
BRANCH   8   9
ATOM      9  C   UNL     1       5.911   1.084  -0.821  1.00  0.00     0.369 C 
ATOM     10  O   UNL     1       5.651   2.008  -0.060  1.00  0.00    -0.245 OA
BRANCH   9  11
ATOM     11  C   UNL     1       4.872  -0.003  -1.272  1.00  0.00     0.211 C 
ATOM     12  N   UNL     1       2.962  -0.070   1.841  1.00  0.00    -0.246 N 
ATOM     13  C   UNL     1       3.821  -1.168   1.960  1.00  0.00     0.244 C 
ATOM     14  C   UNL     1       3.224   0.654   0.693  1.00  0.00     0.245 C 
ATOM     15  O   UNL     1       3.797  -2.076   2.771  1.00  0.00    -0.273 OA
ATOM     16  C   UNL     1       4.856  -0.963   0.891  1.00  0.00     0.162 C 
ATOM     17  C   UNL     1       3.954  -0.322  -0.141  1.00  0.00     0.172 C 
ATOM     18  O   UNL     1       2.902   1.790   0.392  1.00  0.00    -0.273 OA
ATOM     19  C   UNL     1       5.551  -1.995   0.027  1.00  0.00     0.228 C 
ATOM     20  N   UNL     1       5.552  -1.364  -1.345  1.00  0.00    -0.324 N 
ATOM     21  H   UNL     1       6.513  -1.248  -1.666  1.00  0.00     0.347 HD
ATOM     22  H   UNL     1       5.047  -1.964  -1.997  1.00  0.00     0.347 HD
BRANCH  12  23
ATOM     23  C   UNL     1       1.970   0.310   2.756  1.00  0.00     0.094 A 
ATOM     24  C   UNL     1       0.729   0.838   2.344  1.00  0.00     0.143 A 
ATOM     25  C   UNL     1      -0.167   1.331   3.294  1.00  0.00     0.048 A 
ATOM     26  C   UNL     1       0.154   1.296   4.649  1.00  0.00     0.004 A 
ATOM     27  C   UNL     1       2.268   0.254   4.124  1.00  0.00     0.031 A 
ATOM     28  C   UNL     1       1.373   0.764   5.064  1.00  0.00     0.002 A 
BRANCH  24  29
ATOM     29  O   UNL     1       0.316   0.986   1.044  1.00  0.00    -0.495 OA
ATOM     30  C   UNL     1       0.143  -0.234   0.328  1.00  0.00     0.278 C 
ENDBRANCH  24  29
ENDBRANCH  12  23
BRANCH  19  31
ATOM     31  C   UNL     1       6.961  -2.385   0.425  1.00  0.00     0.010 A 
ATOM     32  C   UNL     1       7.905  -1.450   0.874  1.00  0.00     0.010 A 
ATOM     33  C   UNL     1       7.390  -3.711   0.262  1.00  0.00     0.010 A 
ATOM     34  C   UNL     1       9.226  -1.815   1.144  1.00  0.00     0.004 A 
ATOM     35  C   UNL     1       8.706  -4.086   0.560  1.00  0.00     0.004 A 
ATOM     36  C   UNL     1       9.633  -3.141   1.006  1.00  0.00    -0.051 A 
ATOM     37  C   UNL     1      11.049  -3.525   1.314  1.00  0.00     0.044 C 
ENDBRANCH  19  31
BRANCH  11  38
ATOM     38  C   UNL     1       4.023   0.215  -2.565  1.00  0.00     0.117 C 
BRANCH  38  39
ATOM     39  C   UNL     1       3.125   1.430  -2.773  1.00  0.00    -0.041 A 
ATOM     40  C   UNL     1       1.925   1.276  -3.492  1.00  0.00     0.004 A 
ATOM     41  C   UNL     1       3.466   2.730  -2.388  1.00  0.00     0.004 A 
ATOM     42  C   UNL     1       1.115   2.374  -3.809  1.00  0.00     0.000 A 
ATOM     43  C   UNL     1       2.676   3.834  -2.725  1.00  0.00     0.000 A 
ATOM     44  C   UNL     1       1.499   3.658  -3.438  1.00  0.00     0.000 A 
ENDBRANCH  38  39
ENDBRANCH  11  38
ENDBRANCH   9  11
ENDBRANCH   8   9
ENDBRANCH   7   8
ENDBRANCH   6   7
ENDBRANCH   5   6
ENDBRANCH   4   5
ENDBRANCH   3   4
ENDBRANCH   2   3
ENDBRANCH   1   2
BRANCH   1  45
ATOM     45  C   UNL     1       9.170   2.651  -5.348  1.00  0.00     0.188 C 
BRANCH  45  46
ATOM     46  O   UNL     1       8.124   3.531  -5.732  1.00  0.00    -0.376 OA
BRANCH  46  47
ATOM     47  C   UNL     1       7.365   3.279  -6.910  1.00  0.00     0.202 C 
BRANCH  47  48
ATOM     48  C   UNL     1       7.085   1.894  -7.545  1.00  0.00     0.261 C 
BRANCH  48  49
ATOM     49  O   UNL     1       8.077   0.864  -7.473  1.00  0.00    -0.460 OA
BRANCH  49  50
ATOM     50  C   UNL     1       9.258   1.047  -8.095  1.00  0.00     0.338 C 
ATOM     51  O   UNL     1       9.595   2.005  -8.764  1.00  0.00    -0.246 OA
BRANCH  50  52
ATOM     52  C   UNL     1      10.154  -0.034  -7.616  1.00  0.00     0.060 A 
ATOM     53  C   UNL     1      11.310   0.308  -6.900  1.00  0.00     0.016 A 
ATOM     54  C   UNL     1       9.819  -1.377  -7.810  1.00  0.00     0.016 A 
ATOM     55  C   UNL     1      12.144  -0.687  -6.393  1.00  0.00     0.010 A 
ATOM     56  C   UNL     1      10.680  -2.375  -7.342  1.00  0.00     0.010 A 
ATOM     57  C   UNL     1      11.861  -2.030  -6.662  1.00  0.00    -0.014 A 
BRANCH  57  58
ATOM     58  C   UNL     1      12.927  -3.040  -6.465  1.00  0.00     0.031 A 
ATOM     59  C   UNL     1      13.790  -3.375  -7.651  1.00  0.00     0.074 A 
ATOM     60  C   UNL     1      13.135  -3.632  -5.275  1.00  0.00     0.049 A 
ATOM     61  N   UNL     1      14.763  -4.239  -7.751  1.00  0.00    -0.248 NA
ATOM     62  C   UNL     1      13.514  -2.633  -8.895  1.00  0.00     0.031 C 
ATOM     63  C   UNL     1      12.380  -3.369  -4.051  1.00  0.00     0.029 A 
ATOM     64  N   UNL     1      14.036  -4.602  -4.915  1.00  0.00    -0.354 N 
ATOM     65  C   UNL     1      15.185  -4.178  -9.074  1.00  0.00     0.074 A 
ATOM     66  C   UNL     1      14.368  -3.189  -9.740  1.00  0.00     0.031 C 
ATOM     67  C   UNL     1      12.829  -4.186  -3.080  1.00  0.00     0.029 A 
ATOM     68  C   UNL     1      13.881  -5.045  -3.622  1.00  0.00     0.049 A 
ATOM     69  H   UNL     1      14.729  -4.948  -5.523  1.00  0.00     0.167 HD
ATOM     70  C   UNL     1      16.166  -4.882  -9.682  1.00  0.00     0.034 A 
ATOM     71  C   UNL     1      14.501  -6.048  -2.969  1.00  0.00     0.034 A 
ATOM     72  C   UNL     1      16.985  -5.854  -9.013  1.00  0.00     0.049 A 
ATOM     73  C   UNL     1      15.571  -6.839  -3.683  1.00  0.00     0.074 A 
ATOM     74  C   UNL     1      18.045  -6.580  -9.524  1.00  0.00     0.029 A 
ATOM     75  N   UNL     1      16.819  -6.254  -7.697  1.00  0.00    -0.354 N 
ATOM     76  N   UNL     1      16.043  -6.687  -4.897  1.00  0.00    -0.248 NA
ATOM     77  C   UNL     1      16.215  -7.923  -2.924  1.00  0.00     0.031 C 
ATOM     78  C   UNL     1      18.488  -7.457  -8.530  1.00  0.00     0.029 A 
ATOM     79  C   UNL     1      17.741  -7.236  -7.384  1.00  0.00     0.049 A 
ATOM     80  H   UNL     1      16.145  -5.892  -7.077  1.00  0.00     0.167 HD
ATOM     81  C   UNL     1      17.065  -7.623  -5.032  1.00  0.00     0.074 A 
ATOM     82  C   UNL     1      17.154  -8.325  -3.769  1.00  0.00     0.031 C 
ATOM     83  C   UNL     1      17.852  -7.886  -6.104  1.00  0.00     0.034 A 
BRANCH  70  84
ATOM     84  C   UNL     1      16.403  -4.640 -11.148  1.00  0.00     0.023 A 
ATOM     85  C   UNL     1      17.000  -3.440 -11.582  1.00  0.00     0.012 A 
ATOM     86  C   UNL     1      16.087  -5.639 -12.090  1.00  0.00     0.148 A 
ATOM     87  C   UNL     1      17.255  -3.227 -12.937  1.00  0.00     0.002 A 
ATOM     88  C   UNL     1      16.390  -5.440 -13.430  1.00  0.00     0.091 A 
ATOM     89  F   UNL     1      15.495  -6.761 -11.656  1.00  0.00    -0.205 F 
ATOM     90  C   UNL     1      16.963  -4.231 -13.857  1.00  0.00     0.022 A 
BRANCH  88  91
ATOM     91  S   UNL     1      16.131  -6.705 -14.678  1.00  0.00     0.127 S 
ATOM     92  O   UNL     1      15.075  -6.103 -15.492  1.00  0.00    -0.237 OA
ATOM     93  O   UNL     1      17.441  -6.767 -15.325  1.00  0.00    -0.237 OA
ATOM     94  O   UNL     1      15.748  -7.911 -13.958  1.00  0.00    -0.744 OA
ENDBRANCH  88  91
ENDBRANCH  70  84
BRANCH  71  95
ATOM     95  C   UNL     1      14.145  -6.369  -1.556  1.00  0.00     0.023 A 
ATOM     96  C   UNL     1      15.091  -6.154  -0.534  1.00  0.00     0.012 A 
ATOM     97  C   UNL     1      12.893  -6.920  -1.224  1.00  0.00     0.148 A 
ATOM     98  C   UNL     1      14.811  -6.520   0.784  1.00  0.00     0.002 A 
ATOM     99  C   UNL     1      12.603  -7.240   0.099  1.00  0.00     0.091 A 
ATOM    100  F   UNL     1      12.010  -7.139  -2.209  1.00  0.00    -0.205 F 
ATOM    101  C   UNL     1      13.566  -7.055   1.102  1.00  0.00     0.022 A 
BRANCH  99 102
ATOM    102  S   UNL     1      10.987  -7.846   0.596  1.00  0.00     0.127 S 
ATOM    103  O   UNL     1      11.224  -9.281   0.710  1.00  0.00    -0.237 OA
ATOM    104  O   UNL     1      10.775  -7.154   1.868  1.00  0.00    -0.237 OA
ATOM    105  O   UNL     1      10.079  -7.424  -0.463  1.00  0.00    -0.744 OA
ENDBRANCH  99 102
ENDBRANCH  71  95
BRANCH  83 106
ATOM    106  C   UNL     1      18.926  -8.934  -5.953  1.00  0.00     0.023 A 
ATOM    107  C   UNL     1      18.580 -10.297  -5.864  1.00  0.00     0.012 A 
ATOM    108  C   UNL     1      20.286  -8.567  -5.987  1.00  0.00     0.148 A 
ATOM    109  C   UNL     1      19.572 -11.274  -5.772  1.00  0.00     0.002 A 
ATOM    110  C   UNL     1      21.268  -9.549  -5.952  1.00  0.00     0.091 A 
ATOM    111  F   UNL     1      20.595  -7.264  -6.060  1.00  0.00    -0.205 F 
ATOM    112  C   UNL     1      20.913 -10.902  -5.830  1.00  0.00     0.022 A 
BRANCH 110 113
ATOM    113  S   UNL     1      23.015  -9.172  -6.125  1.00  0.00     0.127 S 
ATOM    114  O   UNL     1      23.516  -9.461  -4.782  1.00  0.00    -0.237 OA
ATOM    115  O   UNL     1      23.437 -10.126  -7.152  1.00  0.00    -0.237 OA
ATOM    116  O   UNL     1      23.090  -7.775  -6.530  1.00  0.00    -0.744 OA
ENDBRANCH 110 113
ENDBRANCH  83 106
ENDBRANCH  57  58
ENDBRANCH  50  52
ENDBRANCH  49  50
ENDBRANCH  48  49
ENDBRANCH  47  48
ENDBRANCH  46  47
ENDBRANCH  45  46
ENDBRANCH   1  45
TORSDOF 28
