REMARK SMILES Cc1ccc(NC(=O)C[C@@H](C(=O)OCCOCCOCCOCCOC(=O)c2ccc(-c3c4nc(c(-c5cccc(S(=O)(=O)[O-])c5F)c5ccc([nH]5)c(-c5cccc(S(=O)(=O)[O-])c5F)c5nc(c(-c6cccc(S(=O)(=O)[O-])c6F)c6ccc3[nH]6)C=C5)C=C4)cc2)[C@@H](C)c2ccccc2)cc1Br
REMARK SMILES IDX 19 1 18 2 17 3 16 4 15 5 14 6 13 7 11 8 12 9 10 10 9 11 7 12
REMARK SMILES IDX 6 13 8 15 5 16 1 17 2 18 3 19 100 20 4 21 99 22 101 23 91 24
REMARK SMILES IDX 92 25 93 26 94 27 98 28 95 29 97 30 96 31 20 32 21 33 22 34
REMARK SMILES IDX 23 35 24 36 25 37 26 38 27 39 28 40 29 41 90 42 30 43 89 44
REMARK SMILES IDX 31 45 32 46 33 47 83 48 34 49 88 50 82 51 84 52 35 53 87 54
REMARK SMILES IDX 81 55 80 56 36 58 68 59 48 60 67 61 49 62 52 63 66 64 85 65
REMARK SMILES IDX 50 66 51 67 65 69 86 70 53 71 37 72 38 73 46 74 39 75 41 76
REMARK SMILES IDX 47 77 40 78 42 79 43 80 44 81 45 82 69 83 70 84 78 85 71 86
REMARK SMILES IDX 73 87 79 88 72 89 74 90 75 91 76 92 77 93 54 94 55 95 63 96
REMARK SMILES IDX 56 97 58 98 64 99 57 100 59 101 60 102 61 103 62 104
REMARK H PARENT 6 14 84 57 52 68
REMARK Flexibility Score: inf
ROOT
ATOM      1  O   UNL     1       2.110   1.740   1.917  1.00  0.00    -0.377 OA
ENDROOT
BRANCH   1   2
ATOM      2  C   UNL     1       0.731   1.928   2.010  1.00  0.00     0.188 C 
BRANCH   2   3
ATOM      3  C   UNL     1      -0.100   0.752   1.496  1.00  0.00     0.188 C 
BRANCH   3   4
ATOM      4  O   UNL     1       0.538  -0.375   0.869  1.00  0.00    -0.376 OA
BRANCH   4   5
ATOM      5  C   UNL     1       1.792  -0.353  -0.115  1.00  0.00     0.202 C 
BRANCH   5   6
ATOM      6  C   UNL     1       1.893   0.050  -2.269  1.00  0.00     0.261 C 
BRANCH   6   7
ATOM      7  O   UNL     1       1.883   1.632  -2.932  1.00  0.00    -0.463 OA
BRANCH   7   8
ATOM      8  C   UNL     1       0.848   2.333  -3.453  1.00  0.00     0.310 C 
ATOM      9  O   UNL     1       0.415   2.041  -4.563  1.00  0.00    -0.252 OA
BRANCH   8  10
ATOM     10  C   UNL     1       0.318   3.603  -2.639  1.00  0.00     0.116 C 
BRANCH  10  11
ATOM     11  C   UNL     1       1.016   4.155  -1.368  1.00  0.00     0.116 C 
BRANCH  11  12
ATOM     12  C   UNL     1       2.459   3.969  -1.004  1.00  0.00     0.225 C 
ATOM     13  N   UNL     1       2.980   2.754  -0.742  1.00  0.00    -0.326 N 
ATOM     14  H   UNL     1       3.909   2.770  -0.417  1.00  0.00     0.169 HD
ATOM     15  O   UNL     1       3.173   4.961  -0.835  1.00  0.00    -0.275 OA
BRANCH  13  16
ATOM     16  C   UNL     1       2.428   1.480  -0.852  1.00  0.00     0.042 A 
ATOM     17  C   UNL     1       1.024  -3.342  -1.144  1.00  0.00     0.045 C 
ATOM     18  C   UNL     1       1.404  -1.923  -1.516  1.00  0.00    -0.037 A 
ATOM     19  C   UNL     1       3.138  -1.497  -1.375  1.00  0.00     0.007 A 
ATOM     20  C   UNL     1       0.139  -0.666  -1.354  1.00  0.00     0.022 A 
ATOM     21  C   UNL     1       3.649   0.178  -1.047  1.00  0.00     0.026 A 
ATOM     22  C   UNL     1       0.653   1.056  -1.027  1.00  0.00     0.042 A 
ATOM     23  Br  UNL     1      -1.649  -1.301  -1.069  1.00  0.00    -0.050 Br
ENDBRANCH  13  16
ENDBRANCH  11  12
ENDBRANCH  10  11
BRANCH  10  24
ATOM     24  C   UNL     1      -1.249   3.579  -2.282  1.00  0.00     0.031 C 
ATOM     25  C   UNL     1      -1.832   4.950  -1.889  1.00  0.00     0.013 C 
BRANCH  24  26
ATOM     26  C   UNL     1      -2.102   2.828  -3.276  1.00  0.00    -0.044 A 
ATOM     27  C   UNL     1      -2.735   3.397  -4.373  1.00  0.00     0.004 A 
ATOM     28  C   UNL     1      -2.167   1.440  -3.130  1.00  0.00     0.004 A 
ATOM     29  C   UNL     1      -3.325   2.570  -5.336  1.00  0.00     0.000 A 
ATOM     30  C   UNL     1      -2.700   0.607  -4.101  1.00  0.00     0.000 A 
ATOM     31  C   UNL     1      -3.273   1.178  -5.221  1.00  0.00     0.000 A 
ENDBRANCH  24  26
ENDBRANCH  10  24
ENDBRANCH   8  10
ENDBRANCH   7   8
ENDBRANCH   6   7
ENDBRANCH   5   6
ENDBRANCH   4   5
ENDBRANCH   3   4
ENDBRANCH   2   3
ENDBRANCH   1   2
BRANCH   1  32
ATOM     32  C   UNL     1       2.748   0.864   2.823  1.00  0.00     0.188 C 
BRANCH  32  33
ATOM     33  C   UNL     1       2.169  -0.516   3.232  1.00  0.00     0.188 C 
BRANCH  33  34
ATOM     34  O   UNL     1       0.961  -0.698   3.945  1.00  0.00    -0.376 OA
BRANCH  34  35
ATOM     35  C   UNL     1       0.433   0.242   4.845  1.00  0.00     0.202 C 
BRANCH  35  36
ATOM     36  C   UNL     1       1.265   0.915   5.944  1.00  0.00     0.261 C 
BRANCH  36  37
ATOM     37  O   UNL     1       2.648   1.167   5.679  1.00  0.00    -0.460 OA
BRANCH  37  38
ATOM     38  C   UNL     1       3.509   0.147   5.927  1.00  0.00     0.338 C 
ATOM     39  O   UNL     1       3.224  -0.919   6.445  1.00  0.00    -0.246 OA
BRANCH  38  40
ATOM     40  C   UNL     1       4.814   0.418   5.253  1.00  0.00     0.060 A 
ATOM     41  C   UNL     1       5.400  -0.611   4.494  1.00  0.00     0.016 A 
ATOM     42  C   UNL     1       5.443   1.664   5.325  1.00  0.00     0.016 A 
ATOM     43  C   UNL     1       6.635  -0.427   3.871  1.00  0.00     0.010 A 
ATOM     44  C   UNL     1       6.705   1.836   4.737  1.00  0.00     0.010 A 
ATOM     45  C   UNL     1       7.331   0.770   4.063  1.00  0.00    -0.014 A 
BRANCH  45  46
ATOM     46  C   UNL     1       8.804   0.774   3.871  1.00  0.00     0.031 A 
ATOM     47  C   UNL     1       9.656   0.525   5.091  1.00  0.00     0.074 A 
ATOM     48  C   UNL     1       9.385   0.952   2.671  1.00  0.00     0.049 A 
ATOM     49  N   UNL     1      10.957   0.523   5.215  1.00  0.00    -0.248 NA
ATOM     50  C   UNL     1       8.935   0.243   6.345  1.00  0.00     0.031 C 
ATOM     51  C   UNL     1       8.681   1.153   1.408  1.00  0.00     0.029 A 
ATOM     52  N   UNL     1      10.715   1.015   2.332  1.00  0.00    -0.354 N 
ATOM     53  C   UNL     1      11.206   0.290   6.563  1.00  0.00     0.074 A 
ATOM     54  C   UNL     1       9.925   0.160   7.218  1.00  0.00     0.031 C 
ATOM     55  C   UNL     1       9.587   1.351   0.433  1.00  0.00     0.029 A 
ATOM     56  C   UNL     1      10.931   1.324   1.010  1.00  0.00     0.049 A 
ATOM     57  H   UNL     1      11.443   0.854   2.974  1.00  0.00     0.167 HD
ATOM     58  C   UNL     1      12.393   0.189   7.204  1.00  0.00     0.034 A 
ATOM     59  C   UNL     1      12.080   1.589   0.353  1.00  0.00     0.034 A 
ATOM     60  C   UNL     1      13.667   0.312   6.553  1.00  0.00     0.049 A 
ATOM     61  C   UNL     1      13.391   1.527   1.098  1.00  0.00     0.074 A 
ATOM     62  C   UNL     1      14.928   0.184   7.104  1.00  0.00     0.029 A 
ATOM     63  N   UNL     1      13.842   0.619   5.213  1.00  0.00    -0.354 N 
ATOM     64  N   UNL     1      13.617   1.220   2.353  1.00  0.00    -0.248 NA
ATOM     65  C   UNL     1      14.610   1.823   0.328  1.00  0.00     0.031 C 
ATOM     66  C   UNL     1      15.867   0.473   6.110  1.00  0.00     0.029 A 
ATOM     67  C   UNL     1      15.192   0.711   4.923  1.00  0.00     0.049 A 
ATOM     68  H   UNL     1      13.115   0.751   4.563  1.00  0.00     0.167 HD
ATOM     69  C   UNL     1      15.000   1.242   2.511  1.00  0.00     0.074 A 
ATOM     70  C   UNL     1      15.561   1.579   1.220  1.00  0.00     0.031 C 
ATOM     71  C   UNL     1      15.739   1.007   3.624  1.00  0.00     0.034 A 
BRANCH  58  72
ATOM     72  C   UNL     1      12.365  -0.041   8.693  1.00  0.00     0.023 A 
ATOM     73  C   UNL     1      11.922  -1.272   9.217  1.00  0.00     0.012 A 
ATOM     74  C   UNL     1      12.808   0.965   9.574  1.00  0.00     0.148 A 
ATOM     75  C   UNL     1      11.880  -1.483  10.595  1.00  0.00     0.002 A 
ATOM     76  C   UNL     1      12.816   0.728  10.942  1.00  0.00     0.091 A 
ATOM     77  F   UNL     1      13.202   2.138   9.058  1.00  0.00    -0.205 F 
ATOM     78  C   UNL     1      12.337  -0.488  11.456  1.00  0.00     0.022 A 
BRANCH  76  79
ATOM     79  S   UNL     1      13.462   1.914  12.125  1.00  0.00     0.127 S 
ATOM     80  O   UNL     1      12.248   2.310  12.838  1.00  0.00    -0.237 OA
ATOM     81  O   UNL     1      14.387   1.091  12.905  1.00  0.00    -0.237 OA
ATOM     82  O   UNL     1      14.093   2.965  11.341  1.00  0.00    -0.744 OA
ENDBRANCH  76  79
ENDBRANCH  58  72
BRANCH  59  83
ATOM     83  C   UNL     1      12.053   1.933  -1.098  1.00  0.00     0.023 A 
ATOM     84  C   UNL     1      12.617   1.050  -2.039  1.00  0.00     0.012 A 
ATOM     85  C   UNL     1      11.475   3.136  -1.548  1.00  0.00     0.148 A 
ATOM     86  C   UNL     1      12.633   1.371  -3.397  1.00  0.00     0.002 A 
ATOM     87  C   UNL     1      11.443   3.423  -2.907  1.00  0.00     0.091 A 
ATOM     88  F   UNL     1      10.957   3.970  -0.635  1.00  0.00    -0.205 F 
ATOM     89  C   UNL     1      12.038   2.552  -3.832  1.00  0.00     0.022 A 
BRANCH  87  90
ATOM     90  S   UNL     1      10.595   4.860  -3.572  1.00  0.00     0.127 S 
ATOM     91  O   UNL     1      11.700   5.615  -4.157  1.00  0.00    -0.237 OA
ATOM     92  O   UNL     1       9.686   4.243  -4.538  1.00  0.00    -0.237 OA
ATOM     93  O   UNL     1       9.936   5.490  -2.436  1.00  0.00    -0.744 OA
ENDBRANCH  87  90
ENDBRANCH  59  83
BRANCH  71  94
ATOM     94  C   UNL     1      17.242   1.039   3.495  1.00  0.00     0.023 A 
ATOM     95  C   UNL     1      17.916   2.257   3.282  1.00  0.00     0.012 A 
ATOM     96  C   UNL     1      17.991  -0.143   3.665  1.00  0.00     0.148 A 
ATOM     97  C   UNL     1      19.308   2.292   3.198  1.00  0.00     0.002 A 
ATOM     98  C   UNL     1      19.379  -0.092   3.639  1.00  0.00     0.091 A 
ATOM     99  F   UNL     1      17.332  -1.295   3.857  1.00  0.00    -0.205 F 
ATOM    100  C   UNL     1      20.039   1.121   3.389  1.00  0.00     0.022 A 
BRANCH  98 101
ATOM    101  S   UNL     1      20.404  -1.529   3.976  1.00  0.00     0.127 S 
ATOM    102  O   UNL     1      21.011  -1.774   2.668  1.00  0.00    -0.237 OA
ATOM    103  O   UNL     1      21.326  -1.018   4.991  1.00  0.00    -0.237 OA
ATOM    104  O   UNL     1      19.500  -2.570   4.446  1.00  0.00    -0.744 OA
ENDBRANCH  98 101
ENDBRANCH  71  94
ENDBRANCH  45  46
ENDBRANCH  38  40
ENDBRANCH  37  38
ENDBRANCH  36  37
ENDBRANCH  35  36
ENDBRANCH  34  35
ENDBRANCH  33  34
ENDBRANCH  32  33
ENDBRANCH   1  32
TORSDOF 28
