REMARK SMILES C[C@@H]1[C@H](C(=O)OCCOCCOCCOCCOC(=O)c2ccc(-c3c4nc(c(-c5cccc(S(=O)(=O)[O-])c5F)c5ccc([nH]5)c(-c5cccc(S(=O)(=O)[O-])c5F)c5nc(c(-c6cccc(S(=O)(=O)[O-])c6F)c6ccc3[nH]6)C=C5)C=C4)cc2)[C@@H](C)CC(=O)N1CC(C)(C)S(C)(=O)=O
REMARK SMILES IDX 12 1 11 2 10 3 9 4 8 5 7 6 6 7 4 8 5 9 3 10 1 11 2 12 89 13
REMARK SMILES IDX 84 14 87 15 86 16 85 17 88 18 90 19 91 20 92 21 93 22 94 23
REMARK SMILES IDX 95 24 96 25 97 26 13 27 14 28 15 29 16 30 17 31 18 32 19 33
REMARK SMILES IDX 20 34 21 35 22 36 83 37 23 38 82 39 24 40 25 41 26 42 76 43
REMARK SMILES IDX 27 44 81 45 75 46 77 47 28 48 80 49 74 50 73 51 29 53 61 54
REMARK SMILES IDX 41 55 60 56 42 57 45 58 59 59 78 60 43 61 44 62 58 64 79 65
REMARK SMILES IDX 46 66 30 67 31 68 39 69 32 70 34 71 40 72 33 73 35 74 36 75
REMARK SMILES IDX 37 76 38 77 62 78 63 79 71 80 64 81 66 82 72 83 65 84 67 85
REMARK SMILES IDX 68 86 69 87 70 88 47 89 48 90 56 91 49 92 51 93 57 94 50 95
REMARK SMILES IDX 52 96 53 97 54 98 55 99
REMARK H PARENT 77 52 45 63
REMARK Flexibility Score: inf
ROOT
ATOM      1  O   UNL     1       3.240  -1.011   1.855  1.00  0.00    -0.377 OA
ENDROOT
BRANCH   1   2
ATOM      2  C   UNL     1       2.816  -2.198   2.505  1.00  0.00     0.188 C 
BRANCH   2   3
ATOM      3  C   UNL     1       3.508  -3.523   2.155  1.00  0.00     0.188 C 
BRANCH   3   4
ATOM      4  O   UNL     1       4.818  -3.392   1.663  1.00  0.00    -0.376 OA
BRANCH   4   5
ATOM      5  C   UNL     1       5.105  -3.386   0.280  1.00  0.00     0.202 C 
BRANCH   5   6
ATOM      6  C   UNL     1       4.194  -2.833  -0.835  1.00  0.00     0.261 C 
BRANCH   6   7
ATOM      7  O   UNL     1       2.930  -2.252  -0.499  1.00  0.00    -0.463 OA
BRANCH   7   8
ATOM      8  C   UNL     1       1.883  -3.096  -0.520  1.00  0.00     0.311 C 
ATOM      9  O   UNL     1       2.019  -4.314  -0.626  1.00  0.00    -0.252 OA
BRANCH   8  10
ATOM     10  C   UNL     1       0.495  -2.457  -0.416  1.00  0.00     0.125 C 
ATOM     11  C   UNL     1       1.038   0.089  -0.635  1.00  0.00     0.032 C 
ATOM     12  C   UNL     1       0.305  -1.012   0.133  1.00  0.00     0.096 C 
ATOM     13  N   UNL     1      -1.159  -0.669   0.242  1.00  0.00    -0.338 N 
ATOM     14  C   UNL     1      -0.252  -2.620  -1.751  1.00  0.00     0.011 C 
ATOM     15  C   UNL     1      -2.051  -1.049  -0.756  1.00  0.00     0.223 C 
ATOM     16  C   UNL     1      -1.716  -2.293  -1.534  1.00  0.00     0.104 C 
ATOM     17  C   UNL     1      -0.190  -4.046  -2.328  1.00  0.00     0.009 C 
ATOM     18  O   UNL     1      -3.195  -0.612  -0.860  1.00  0.00    -0.275 OA
BRANCH  13  19
ATOM     19  C   UNL     1      -1.724  -0.196   1.523  1.00  0.00     0.142 C 
BRANCH  19  20
ATOM     20  C   UNL     1      -2.426   1.186   1.741  1.00  0.00     0.084 C 
ATOM     21  C   UNL     1      -3.544   1.533   0.747  1.00  0.00     0.030 C 
ATOM     22  C   UNL     1      -3.105   1.121   3.137  1.00  0.00     0.030 C 
BRANCH  20  23
ATOM     23  S   UNL     1      -1.258   2.586   1.744  1.00  0.00     0.154 S 
ATOM     24  C   UNL     1      -0.020   2.213   2.965  1.00  0.00     0.158 C 
ATOM     25  O   UNL     1      -0.597   2.643   0.459  1.00  0.00    -0.229 OA
ATOM     26  O   UNL     1      -1.969   3.752   2.244  1.00  0.00    -0.229 OA
ENDBRANCH  20  23
ENDBRANCH  19  20
ENDBRANCH  13  19
ENDBRANCH   8  10
ENDBRANCH   7   8
ENDBRANCH   6   7
ENDBRANCH   5   6
ENDBRANCH   4   5
ENDBRANCH   3   4
ENDBRANCH   2   3
ENDBRANCH   1   2
BRANCH   1  27
ATOM     27  C   UNL     1       4.592  -0.564   1.985  1.00  0.00     0.188 C 
BRANCH  27  28
ATOM     28  C   UNL     1       5.512  -1.106   3.104  1.00  0.00     0.188 C 
BRANCH  28  29
ATOM     29  O   UNL     1       4.831  -1.686   4.203  1.00  0.00    -0.376 OA
BRANCH  29  30
ATOM     30  C   UNL     1       4.628  -0.883   5.355  1.00  0.00     0.202 C 
BRANCH  30  31
ATOM     31  C   UNL     1       3.829   0.417   5.182  1.00  0.00     0.261 C 
BRANCH  31  32
ATOM     32  O   UNL     1       4.369   1.389   4.275  1.00  0.00    -0.460 OA
BRANCH  32  33
ATOM     33  C   UNL     1       5.634   1.823   4.489  1.00  0.00     0.338 C 
ATOM     34  O   UNL     1       6.376   1.512   5.394  1.00  0.00    -0.246 OA
BRANCH  33  35
ATOM     35  C   UNL     1       6.028   2.610   3.302  1.00  0.00     0.060 A 
ATOM     36  C   UNL     1       7.105   2.179   2.513  1.00  0.00     0.016 A 
ATOM     37  C   UNL     1       5.330   3.774   2.984  1.00  0.00     0.016 A 
ATOM     38  C   UNL     1       7.517   2.943   1.421  1.00  0.00     0.010 A 
ATOM     39  C   UNL     1       5.757   4.547   1.907  1.00  0.00     0.010 A 
ATOM     40  C   UNL     1       6.877   4.157   1.150  1.00  0.00    -0.014 A 
BRANCH  40  41
ATOM     41  C   UNL     1       7.504   5.157   0.257  1.00  0.00     0.031 A 
ATOM     42  C   UNL     1       8.288   6.266   0.902  1.00  0.00     0.074 A 
ATOM     43  C   UNL     1       7.320   5.133  -1.073  1.00  0.00     0.049 A 
ATOM     44  N   UNL     1       8.769   7.359   0.376  1.00  0.00    -0.248 NA
ATOM     45  C   UNL     1       8.544   6.125   2.346  1.00  0.00     0.031 C 
ATOM     46  C   UNL     1       6.601   4.098  -1.809  1.00  0.00     0.029 A 
ATOM     47  N   UNL     1       7.686   6.044  -2.033  1.00  0.00    -0.354 N 
ATOM     48  C   UNL     1       9.331   8.065   1.433  1.00  0.00     0.074 A 
ATOM     49  C   UNL     1       9.137   7.274   2.627  1.00  0.00     0.031 C 
ATOM     50  C   UNL     1       6.531   4.457  -3.103  1.00  0.00     0.029 A 
ATOM     51  C   UNL     1       7.160   5.766  -3.272  1.00  0.00     0.049 A 
ATOM     52  H   UNL     1       8.267   6.819  -1.851  1.00  0.00     0.167 HD
ATOM     53  C   UNL     1       9.948   9.268   1.411  1.00  0.00     0.034 A 
ATOM     54  C   UNL     1       7.144   6.510  -4.397  1.00  0.00     0.034 A 
ATOM     55  C   UNL     1      10.138  10.043   0.217  1.00  0.00     0.049 A 
ATOM     56  C   UNL     1       7.811   7.862  -4.398  1.00  0.00     0.074 A 
ATOM     57  C   UNL     1      10.797  11.250   0.072  1.00  0.00     0.029 A 
ATOM     58  N   UNL     1       9.645   9.700  -1.032  1.00  0.00    -0.354 N 
ATOM     59  N   UNL     1       8.421   8.482  -3.416  1.00  0.00    -0.248 NA
ATOM     60  C   UNL     1       7.809   8.608  -5.665  1.00  0.00     0.031 C 
ATOM     61  C   UNL     1      10.660  11.660  -1.257  1.00  0.00     0.029 A 
ATOM     62  C   UNL     1       9.970  10.679  -1.953  1.00  0.00     0.049 A 
ATOM     63  H   UNL     1       9.138   8.880  -1.234  1.00  0.00     0.167 HD
ATOM     64  C   UNL     1       8.918   9.664  -3.958  1.00  0.00     0.074 A 
ATOM     65  C   UNL     1       8.534   9.676  -5.354  1.00  0.00     0.031 C 
ATOM     66  C   UNL     1       9.630  10.646  -3.353  1.00  0.00     0.034 A 
BRANCH  53  67
ATOM     67  C   UNL     1      10.440   9.822   2.722  1.00  0.00     0.023 A 
ATOM     68  C   UNL     1      11.523   9.214   3.389  1.00  0.00     0.012 A 
ATOM     69  C   UNL     1       9.833  10.961   3.286  1.00  0.00     0.148 A 
ATOM     70  C   UNL     1      11.960   9.699   4.620  1.00  0.00     0.002 A 
ATOM     71  C   UNL     1      10.310  11.472   4.487  1.00  0.00     0.091 A 
ATOM     72  F   UNL     1       8.789  11.512   2.651  1.00  0.00    -0.205 F 
ATOM     73  C   UNL     1      11.361  10.832   5.163  1.00  0.00     0.022 A 
BRANCH  71  74
ATOM     74  S   UNL     1       9.660  12.975   5.221  1.00  0.00     0.127 S 
ATOM     75  O   UNL     1       8.932  12.449   6.374  1.00  0.00    -0.237 OA
ATOM     76  O   UNL     1      10.883  13.707   5.555  1.00  0.00    -0.237 OA
ATOM     77  O   UNL     1       8.840  13.602   4.195  1.00  0.00    -0.744 OA
ENDBRANCH  71  74
ENDBRANCH  53  67
BRANCH  54  78
ATOM     78  C   UNL     1       6.480   5.980  -5.620  1.00  0.00     0.023 A 
ATOM     79  C   UNL     1       7.262   5.590  -6.724  1.00  0.00     0.012 A 
ATOM     80  C   UNL     1       5.081   5.822  -5.678  1.00  0.00     0.148 A 
ATOM     81  C   UNL     1       6.662   5.070  -7.871  1.00  0.00     0.002 A 
ATOM     82  C   UNL     1       4.495   5.253  -6.802  1.00  0.00     0.091 A 
ATOM     83  F   UNL     1       4.356   6.209  -4.619  1.00  0.00    -0.205 F 
ATOM     84  C   UNL     1       5.282   4.891  -7.906  1.00  0.00     0.022 A 
BRANCH  82  85
ATOM     85  S   UNL     1       2.744   4.866  -6.893  1.00  0.00     0.127 S 
ATOM     86  O   UNL     1       2.309   5.711  -8.003  1.00  0.00    -0.237 OA
ATOM     87  O   UNL     1       2.775   3.432  -7.185  1.00  0.00    -0.237 OA
ATOM     88  O   UNL     1       2.194   5.210  -5.591  1.00  0.00    -0.744 OA
ENDBRANCH  82  85
ENDBRANCH  54  78
BRANCH  66  89
ATOM     89  C   UNL     1      10.129  11.791  -4.196  1.00  0.00     0.023 A 
ATOM     90  C   UNL     1       9.245  12.792  -4.641  1.00  0.00     0.012 A 
ATOM     91  C   UNL     1      11.513  11.934  -4.430  1.00  0.00     0.148 A 
ATOM     92  C   UNL     1       9.729  13.911  -5.319  1.00  0.00     0.002 A 
ATOM     93  C   UNL     1      11.993  13.075  -5.057  1.00  0.00     0.091 A 
ATOM     94  F   UNL     1      12.333  10.960  -4.011  1.00  0.00    -0.205 F 
ATOM     95  C   UNL     1      11.102  14.060  -5.513  1.00  0.00     0.022 A 
BRANCH  93  96
ATOM     96  S   UNL     1      13.748  13.403  -5.250  1.00  0.00     0.127 S 
ATOM     97  O   UNL     1      13.908  13.328  -6.701  1.00  0.00    -0.237 OA
ATOM     98  O   UNL     1      13.873  14.750  -4.691  1.00  0.00    -0.237 OA
ATOM     99  O   UNL     1      14.441  12.367  -4.496  1.00  0.00    -0.744 OA
ENDBRANCH  93  96
ENDBRANCH  66  89
ENDBRANCH  40  41
ENDBRANCH  33  35
ENDBRANCH  32  33
ENDBRANCH  31  32
ENDBRANCH  30  31
ENDBRANCH  29  30
ENDBRANCH  28  29
ENDBRANCH  27  28
ENDBRANCH   1  27
TORSDOF 26
