REMARK SMILES C[C@@H](CCO)Sc1cc(C(=O)OCCOCCOCCOCCOC(=O)c2ccc(-c3c4nc(c(-c5cccc(S(=O)(=O)[O-])c5F)c5ccc([nH]5)c(-c5cccc(S(=O)(=O)[O-])c5F)c5nc(c(-c6cccc(S(=O)(=O)[O-])c6F)c6ccc3[nH]6)C=C5)C=C4)cc2)c2ccccc2n1
REMARK SMILES IDX 17 1 16 2 15 3 14 4 13 5 12 6 10 7 11 8 9 9 7 10 8 11 96 12
REMARK SMILES IDX 95 13 90 14 94 15 91 16 93 17 92 18 6 19 2 20 1 21 3 22 4 23
REMARK SMILES IDX 5 24 18 26 19 27 20 28 21 29 22 30 23 31 24 32 25 33 26 34
REMARK SMILES IDX 27 35 28 36 89 37 29 38 88 39 30 40 31 41 32 42 82 43 33 44
REMARK SMILES IDX 87 45 81 46 83 47 34 48 86 49 80 50 79 51 35 53 67 54 47 55
REMARK SMILES IDX 66 56 48 57 51 58 65 59 84 60 49 61 50 62 64 64 85 65 52 66
REMARK SMILES IDX 36 67 37 68 45 69 38 70 40 71 46 72 39 73 41 74 42 75 43 76
REMARK SMILES IDX 44 77 68 78 69 79 77 80 70 81 72 82 78 83 71 84 73 85 74 86
REMARK SMILES IDX 75 87 76 88 53 89 54 90 62 91 55 92 57 93 63 94 56 95 58 96
REMARK SMILES IDX 59 97 60 98 61 99
REMARK H PARENT 5 25 83 52 51 63
REMARK Flexibility Score: inf
ROOT
ATOM      1  C   UNL     1       0.449   4.385   2.480  1.00  0.00     0.188 C 
ENDROOT
BRANCH   1   2
ATOM      2  C   UNL     1       1.207   4.237   1.144  1.00  0.00     0.188 C 
BRANCH   2   3
ATOM      3  O   UNL     1       1.747   5.441   0.638  1.00  0.00    -0.376 OA
BRANCH   3   4
ATOM      4  C   UNL     1       1.024   6.242  -0.281  1.00  0.00     0.202 C 
BRANCH   4   5
ATOM      5  C   UNL     1      -0.508   6.376  -0.295  1.00  0.00     0.261 C 
BRANCH   5   6
ATOM      6  O   UNL     1      -1.247   5.305   0.290  1.00  0.00    -0.460 OA
BRANCH   6   7
ATOM      7  C   UNL     1      -1.632   4.282  -0.496  1.00  0.00     0.338 C 
ATOM      8  O   UNL     1      -1.377   4.138  -1.679  1.00  0.00    -0.246 OA
BRANCH   7   9
ATOM      9  C   UNL     1      -2.182   3.208   0.371  1.00  0.00     0.072 A 
ATOM     10  C   UNL     1      -2.051   0.894   0.940  1.00  0.00     0.098 A 
ATOM     11  C   UNL     1      -1.674   1.927   0.114  1.00  0.00     0.052 A 
ATOM     12  N   UNL     1      -2.955   1.065   1.927  1.00  0.00    -0.241 NA
ATOM     13  C   UNL     1      -3.500   2.281   2.135  1.00  0.00     0.072 A 
ATOM     14  C   UNL     1      -3.110   3.429   1.420  1.00  0.00     0.015 A 
ATOM     15  C   UNL     1      -4.494   2.398   3.101  1.00  0.00     0.029 A 
ATOM     16  C   UNL     1      -3.670   4.681   1.796  1.00  0.00     0.011 A 
ATOM     17  C   UNL     1      -5.067   3.627   3.436  1.00  0.00     0.002 A 
ATOM     18  C   UNL     1      -4.628   4.778   2.804  1.00  0.00     0.001 A 
BRANCH  10  19
ATOM     19  S   UNL     1      -1.494  -0.779   0.737  1.00  0.00    -0.103 SA
BRANCH  19  20
ATOM     20  C   UNL     1       0.332  -0.778   1.019  1.00  0.00     0.052 C 
ATOM     21  C   UNL     1       1.118   0.024  -0.015  1.00  0.00     0.020 C 
BRANCH  20  22
ATOM     22  C   UNL     1       0.822  -0.569   2.465  1.00  0.00     0.043 C 
BRANCH  22  23
ATOM     23  C   UNL     1       0.644   0.820   3.057  1.00  0.00     0.157 C 
BRANCH  23  24
ATOM     24  O   UNL     1      -0.506   0.882   3.881  1.00  0.00    -0.396 OA
ATOM     25  H   UNL     1      -1.294   0.679   3.353  1.00  0.00     0.210 HD
ENDBRANCH  23  24
ENDBRANCH  22  23
ENDBRANCH  20  22
ENDBRANCH  19  20
ENDBRANCH  10  19
ENDBRANCH   7   9
ENDBRANCH   6   7
ENDBRANCH   5   6
ENDBRANCH   4   5
ENDBRANCH   3   4
ENDBRANCH   2   3
ENDBRANCH   1   2
BRANCH   1  26
ATOM     26  O   UNL     1       0.031   5.696   2.803  1.00  0.00    -0.377 OA
BRANCH  26  27
ATOM     27  C   UNL     1       1.004   6.676   3.151  1.00  0.00     0.188 C 
BRANCH  27  28
ATOM     28  C   UNL     1       2.528   6.395   3.142  1.00  0.00     0.188 C 
BRANCH  28  29
ATOM     29  O   UNL     1       2.899   5.034   3.313  1.00  0.00    -0.376 OA
BRANCH  29  30
ATOM     30  C   UNL     1       3.465   4.651   4.554  1.00  0.00     0.202 C 
BRANCH  30  31
ATOM     31  C   UNL     1       2.534   4.702   5.772  1.00  0.00     0.261 C 
BRANCH  31  32
ATOM     32  O   UNL     1       1.915   5.970   6.028  1.00  0.00    -0.460 OA
BRANCH  32  33
ATOM     33  C   UNL     1       2.731   6.996   6.366  1.00  0.00     0.338 C 
ATOM     34  O   UNL     1       3.938   6.964   6.483  1.00  0.00    -0.246 OA
BRANCH  33  35
ATOM     35  C   UNL     1       1.910   8.225   6.378  1.00  0.00     0.060 A 
ATOM     36  C   UNL     1       2.234   9.265   5.498  1.00  0.00     0.016 A 
ATOM     37  C   UNL     1       0.814   8.338   7.237  1.00  0.00     0.016 A 
ATOM     38  C   UNL     1       1.477  10.436   5.496  1.00  0.00     0.010 A 
ATOM     39  C   UNL     1       0.068   9.519   7.247  1.00  0.00     0.010 A 
ATOM     40  C   UNL     1       0.415  10.585   6.399  1.00  0.00    -0.014 A 
BRANCH  40  41
ATOM     41  C   UNL     1      -0.225  11.912   6.566  1.00  0.00     0.031 A 
ATOM     42  C   UNL     1       0.198  12.774   7.724  1.00  0.00     0.074 A 
ATOM     43  C   UNL     1      -1.160  12.349   5.704  1.00  0.00     0.049 A 
ATOM     44  N   UNL     1      -0.225  13.961   8.071  1.00  0.00    -0.248 NA
ATOM     45  C   UNL     1       1.236  12.221   8.611  1.00  0.00     0.031 C 
ATOM     46  C   UNL     1      -1.652  11.608   4.544  1.00  0.00     0.029 A 
ATOM     47  N   UNL     1      -1.878  13.519   5.688  1.00  0.00    -0.354 N 
ATOM     48  C   UNL     1       0.473  14.287   9.228  1.00  0.00     0.074 A 
ATOM     49  C   UNL     1       1.336  13.167   9.532  1.00  0.00     0.031 C 
ATOM     50  C   UNL     1      -2.612  12.331   3.942  1.00  0.00     0.029 A 
ATOM     51  C   UNL     1      -2.820  13.572   4.688  1.00  0.00     0.049 A 
ATOM     52  H   UNL     1      -1.732  14.250   6.331  1.00  0.00     0.167 HD
ATOM     53  C   UNL     1       0.411  15.421   9.965  1.00  0.00     0.034 A 
ATOM     54  C   UNL     1      -3.757  14.504   4.421  1.00  0.00     0.034 A 
ATOM     55  C   UNL     1      -0.444  16.536   9.658  1.00  0.00     0.049 A 
ATOM     56  C   UNL     1      -3.828  15.744   5.276  1.00  0.00     0.074 A 
ATOM     57  C   UNL     1      -0.543  17.749  10.315  1.00  0.00     0.029 A 
ATOM     58  N   UNL     1      -1.363  16.567   8.621  1.00  0.00    -0.354 N 
ATOM     59  N   UNL     1      -3.077  16.093   6.293  1.00  0.00    -0.248 NA
ATOM     60  C   UNL     1      -4.856  16.736   4.925  1.00  0.00     0.031 C 
ATOM     61  C   UNL     1      -1.552  18.497   9.701  1.00  0.00     0.029 A 
ATOM     62  C   UNL     1      -2.049  17.769   8.632  1.00  0.00     0.049 A 
ATOM     63  H   UNL     1      -1.508  15.840   7.972  1.00  0.00     0.167 HD
ATOM     64  C   UNL     1      -3.516  17.356   6.678  1.00  0.00     0.074 A 
ATOM     65  C   UNL     1      -4.585  17.720   5.771  1.00  0.00     0.031 C 
ATOM     66  C   UNL     1      -3.082  18.139   7.697  1.00  0.00     0.034 A 
BRANCH  53  67
ATOM     67  C   UNL     1       1.301  15.515  11.176  1.00  0.00     0.023 A 
ATOM     68  C   UNL     1       2.694  15.661  11.016  1.00  0.00     0.012 A 
ATOM     69  C   UNL     1       0.752  15.507  12.473  1.00  0.00     0.148 A 
ATOM     70  C   UNL     1       3.530  15.761  12.128  1.00  0.00     0.002 A 
ATOM     71  C   UNL     1       1.586  15.657  13.574  1.00  0.00     0.091 A 
ATOM     72  F   UNL     1      -0.572  15.345  12.606  1.00  0.00    -0.205 F 
ATOM     73  C   UNL     1       2.975  15.771  13.405  1.00  0.00     0.022 A 
BRANCH  71  74
ATOM     74  S   UNL     1       0.961  15.763  15.255  1.00  0.00     0.127 S 
ATOM     75  O   UNL     1       1.435  14.502  15.825  1.00  0.00    -0.237 OA
ATOM     76  O   UNL     1       1.643  16.955  15.760  1.00  0.00    -0.237 OA
ATOM     77  O   UNL     1      -0.485  15.891  15.140  1.00  0.00    -0.744 OA
ENDBRANCH  71  74
ENDBRANCH  53  67
BRANCH  54  78
ATOM     78  C   UNL     1      -4.694  14.314   3.277  1.00  0.00     0.023 A 
ATOM     79  C   UNL     1      -4.608  15.159   2.154  1.00  0.00     0.012 A 
ATOM     80  C   UNL     1      -5.664  13.293   3.296  1.00  0.00     0.148 A 
ATOM     81  C   UNL     1      -5.493  15.012   1.084  1.00  0.00     0.002 A 
ATOM     82  C   UNL     1      -6.502  13.114   2.202  1.00  0.00     0.091 A 
ATOM     83  F   UNL     1      -5.741  12.510   4.381  1.00  0.00    -0.205 F 
ATOM     84  C   UNL     1      -6.432  13.984   1.103  1.00  0.00     0.022 A 
BRANCH  82  85
ATOM     85  S   UNL     1      -7.650  11.738   2.082  1.00  0.00     0.127 S 
ATOM     86  O   UNL     1      -8.941  12.419   2.140  1.00  0.00    -0.237 OA
ATOM     87  O   UNL     1      -7.306  11.176   0.775  1.00  0.00    -0.237 OA
ATOM     88  O   UNL     1      -7.345  10.867   3.209  1.00  0.00    -0.744 OA
ENDBRANCH  82  85
ENDBRANCH  54  78
BRANCH  66  89
ATOM     89  C   UNL     1      -3.728  19.492   7.868  1.00  0.00     0.023 A 
ATOM     90  C   UNL     1      -5.056  19.588   8.331  1.00  0.00     0.012 A 
ATOM     91  C   UNL     1      -2.993  20.671   7.633  1.00  0.00     0.148 A 
ATOM     92  C   UNL     1      -5.653  20.835   8.518  1.00  0.00     0.002 A 
ATOM     93  C   UNL     1      -3.577  21.909   7.873  1.00  0.00     0.091 A 
ATOM     94  F   UNL     1      -1.736  20.561   7.179  1.00  0.00    -0.205 F 
ATOM     95  C   UNL     1      -4.911  21.993   8.300  1.00  0.00     0.022 A 
BRANCH  93  96
ATOM     96  S   UNL     1      -2.668  23.451   7.716  1.00  0.00     0.127 S 
ATOM     97  O   UNL     1      -3.281  24.038   6.525  1.00  0.00    -0.237 OA
ATOM     98  O   UNL     1      -2.996  24.132   8.969  1.00  0.00    -0.237 OA
ATOM     99  O   UNL     1      -1.266  23.081   7.577  1.00  0.00    -0.744 OA
ENDBRANCH  93  96
ENDBRANCH  66  89
ENDBRANCH  40  41
ENDBRANCH  33  35
ENDBRANCH  32  33
ENDBRANCH  31  32
ENDBRANCH  30  31
ENDBRANCH  29  30
ENDBRANCH  28  29
ENDBRANCH  27  28
ENDBRANCH  26  27
ENDBRANCH   1  26
TORSDOF 28
