REMARK SMILES O=C(OCCOCCOCCOCCOC(=O)[C@H]1CC2(CC[NH+](C(=O)c3cccc(O)c3)CC2)CN1C(=O)C1CC1)c1ccc(-c2c3nc(c(-c4cccc(S(=O)(=O)[O-])c4F)c4ccc([nH]4)c(-c4cccc(S(=O)(=O)[O-])c4F)c4nc(c(-c5cccc(S(=O)(=O)[O-])c5F)c5ccc2[nH]5)C=C4)C=C3)cc1
REMARK SMILES IDX 9 1 8 2 7 3 6 4 5 5 4 6 3 7 2 8 1 9 42 10 43 11 104 12 44 13
REMARK SMILES IDX 103 14 45 15 46 16 47 17 97 18 48 19 102 20 96 21 98 22
REMARK SMILES IDX 49 23 101 24 95 25 94 26 50 28 82 29 62 30 81 31 63 32 66 33
REMARK SMILES IDX 80 34 99 35 64 36 65 37 79 39 100 40 67 41 51 42 52 43 60 44
REMARK SMILES IDX 53 45 55 46 61 47 54 48 56 49 57 50 58 51 59 52 83 53 84 54
REMARK SMILES IDX 92 55 85 56 87 57 93 58 86 59 88 60 89 61 90 62 91 63 68 64
REMARK SMILES IDX 69 65 77 66 70 67 72 68 78 69 71 70 73 71 74 72 75 73 76 74
REMARK SMILES IDX 10 75 11 76 12 77 13 78 14 79 15 80 16 81 17 82 18 83 19 84
REMARK SMILES IDX 36 85 20 86 35 87 21 88 34 89 22 90 33 91 23 92 37 94 38 95
REMARK SMILES IDX 39 96 40 97 41 98 24 99 25 100 26 101 27 102 32 103 28 104
REMARK SMILES IDX 30 105 29 106 31 107
REMARK H PARENT 98 27 66 38 23 93 31 108
REMARK Flexibility Score: inf
ROOT
ATOM      1  O   UNL     1       6.764   3.557  -7.296  1.00  0.00    -0.377 OA
ENDROOT
BRANCH   1   2
ATOM      2  C   UNL     1       7.804   3.267  -8.215  1.00  0.00     0.188 C 
BRANCH   2   3
ATOM      3  C   UNL     1       7.322   3.163  -9.655  1.00  0.00     0.188 C 
BRANCH   3   4
ATOM      4  O   UNL     1       6.674   1.930  -9.992  1.00  0.00    -0.376 OA
BRANCH   4   5
ATOM      5  C   UNL     1       7.270   0.697  -9.596  1.00  0.00     0.202 C 
BRANCH   5   6
ATOM      6  C   UNL     1       8.652   0.326 -10.151  1.00  0.00     0.261 C 
BRANCH   6   7
ATOM      7  O   UNL     1       9.484   1.451 -10.438  1.00  0.00    -0.460 OA
BRANCH   7   8
ATOM      8  C   UNL     1       9.854   1.664 -11.731  1.00  0.00     0.338 C 
ATOM      9  O   UNL     1      11.031   1.683 -12.071  1.00  0.00    -0.246 OA
BRANCH   8  10
ATOM     10  C   UNL     1       8.779   2.210 -12.607  1.00  0.00     0.060 A 
ATOM     11  C   UNL     1       7.515   1.623 -12.687  1.00  0.00     0.016 A 
ATOM     12  C   UNL     1       9.043   3.366 -13.358  1.00  0.00     0.016 A 
ATOM     13  C   UNL     1       6.498   2.219 -13.410  1.00  0.00     0.010 A 
ATOM     14  C   UNL     1       8.046   3.921 -14.172  1.00  0.00     0.010 A 
ATOM     15  C   UNL     1       6.777   3.331 -14.204  1.00  0.00    -0.014 A 
BRANCH  15  16
ATOM     16  C   UNL     1       5.800   3.569 -15.280  1.00  0.00     0.031 A 
ATOM     17  C   UNL     1       5.882   2.635 -16.455  1.00  0.00     0.074 A 
ATOM     18  C   UNL     1       4.753   4.390 -15.098  1.00  0.00     0.049 A 
ATOM     19  N   UNL     1       5.011   2.412 -17.399  1.00  0.00    -0.248 NA
ATOM     20  C   UNL     1       7.082   1.777 -16.525  1.00  0.00     0.031 C 
ATOM     21  C   UNL     1       4.528   5.226 -13.920  1.00  0.00     0.029 A 
ATOM     22  N   UNL     1       3.660   4.618 -15.890  1.00  0.00    -0.354 N 
ATOM     23  C   UNL     1       5.552   1.387 -18.164  1.00  0.00     0.074 A 
ATOM     24  C   UNL     1       6.809   1.008 -17.565  1.00  0.00     0.031 C 
ATOM     25  C   UNL     1       3.362   5.880 -14.068  1.00  0.00     0.029 A 
ATOM     26  C   UNL     1       2.771   5.519 -15.355  1.00  0.00     0.049 A 
ATOM     27  H   UNL     1       3.524   4.179 -16.761  1.00  0.00     0.167 HD
ATOM     28  C   UNL     1       5.051   0.818 -19.281  1.00  0.00     0.034 A 
ATOM     29  C   UNL     1       1.614   5.988 -15.863  1.00  0.00     0.034 A 
ATOM     30  C   UNL     1       3.841   1.257 -19.907  1.00  0.00     0.049 A 
ATOM     31  C   UNL     1       1.146   5.433 -17.186  1.00  0.00     0.074 A 
ATOM     32  C   UNL     1       3.292   0.852 -21.106  1.00  0.00     0.029 A 
ATOM     33  N   UNL     1       3.010   2.240 -19.387  1.00  0.00    -0.354 N 
ATOM     34  N   UNL     1       1.644   4.441 -17.889  1.00  0.00    -0.248 NA
ATOM     35  C   UNL     1      -0.049   6.047 -17.781  1.00  0.00     0.031 C 
ATOM     36  C   UNL     1       2.140   1.616 -21.327  1.00  0.00     0.029 A 
ATOM     37  C   UNL     1       1.960   2.474 -20.250  1.00  0.00     0.049 A 
ATOM     38  H   UNL     1       3.150   2.703 -18.529  1.00  0.00     0.167 HD
ATOM     39  C   UNL     1       0.812   4.296 -18.993  1.00  0.00     0.074 A 
ATOM     40  C   UNL     1      -0.236   5.287 -18.852  1.00  0.00     0.031 C 
ATOM     41  C   UNL     1       0.910   3.439 -20.041  1.00  0.00     0.034 A 
BRANCH  28  42
ATOM     42  C   UNL     1       5.873  -0.271 -19.904  1.00  0.00     0.023 A 
ATOM     43  C   UNL     1       5.856  -1.568 -19.353  1.00  0.00     0.012 A 
ATOM     44  C   UNL     1       6.729   0.015 -20.983  1.00  0.00     0.148 A 
ATOM     45  C   UNL     1       6.703  -2.558 -19.851  1.00  0.00     0.002 A 
ATOM     46  C   UNL     1       7.552  -0.983 -21.490  1.00  0.00     0.091 A 
ATOM     47  F   UNL     1       6.762   1.269 -21.456  1.00  0.00    -0.205 F 
ATOM     48  C   UNL     1       7.547  -2.267 -20.920  1.00  0.00     0.022 A 
BRANCH  46  49
ATOM     49  S   UNL     1       8.659  -0.704 -22.875  1.00  0.00     0.127 S 
ATOM     50  O   UNL     1       9.963  -0.696 -22.212  1.00  0.00    -0.237 OA
ATOM     51  O   UNL     1       8.406  -1.877 -23.711  1.00  0.00    -0.237 OA
ATOM     52  O   UNL     1       8.249   0.562 -23.466  1.00  0.00    -0.744 OA
ENDBRANCH  46  49
ENDBRANCH  28  42
BRANCH  29  53
ATOM     53  C   UNL     1       0.818   7.015 -15.127  1.00  0.00     0.023 A 
ATOM     54  C   UNL     1      -0.475   6.705 -14.663  1.00  0.00     0.012 A 
ATOM     55  C   UNL     1       1.335   8.305 -14.889  1.00  0.00     0.148 A 
ATOM     56  C   UNL     1      -1.245   7.664 -14.000  1.00  0.00     0.002 A 
ATOM     57  C   UNL     1       0.584   9.239 -14.181  1.00  0.00     0.091 A 
ATOM     58  F   UNL     1       2.551   8.602 -15.366  1.00  0.00    -0.205 F 
ATOM     59  C   UNL     1      -0.713   8.926 -13.749  1.00  0.00     0.022 A 
BRANCH  57  60
ATOM     60  S   UNL     1       1.248  10.843 -13.716  1.00  0.00     0.127 S 
ATOM     61  O   UNL     1       0.587  11.729 -14.671  1.00  0.00    -0.237 OA
ATOM     62  O   UNL     1       0.790  10.976 -12.333  1.00  0.00    -0.237 OA
ATOM     63  O   UNL     1       2.693  10.719 -13.855  1.00  0.00    -0.744 OA
ENDBRANCH  57  60
ENDBRANCH  29  53
BRANCH  41  64
ATOM     64  C   UNL     1      -0.146   3.522 -21.106  1.00  0.00     0.023 A 
ATOM     65  C   UNL     1      -0.116   4.580 -22.035  1.00  0.00     0.012 A 
ATOM     66  C   UNL     1      -1.090   2.489 -21.256  1.00  0.00     0.148 A 
ATOM     67  C   UNL     1      -1.025   4.617 -23.090  1.00  0.00     0.002 A 
ATOM     68  C   UNL     1      -1.961   2.508 -22.338  1.00  0.00     0.091 A 
ATOM     69  F   UNL     1      -1.114   1.504 -20.346  1.00  0.00    -0.205 F 
ATOM     70  C   UNL     1      -1.937   3.575 -23.250  1.00  0.00     0.022 A 
BRANCH  68  71
ATOM     71  S   UNL     1      -3.082   1.145 -22.670  1.00  0.00     0.127 S 
ATOM     72  O   UNL     1      -4.342   1.656 -22.134  1.00  0.00    -0.237 OA
ATOM     73  O   UNL     1      -3.035   1.046 -24.130  1.00  0.00    -0.237 OA
ATOM     74  O   UNL     1      -2.518  -0.005 -21.975  1.00  0.00    -0.744 OA
ENDBRANCH  68  71
ENDBRANCH  41  64
ENDBRANCH  15  16
ENDBRANCH   8  10
ENDBRANCH   7   8
ENDBRANCH   6   7
ENDBRANCH   5   6
ENDBRANCH   4   5
ENDBRANCH   3   4
ENDBRANCH   2   3
ENDBRANCH   1   2
BRANCH   1  75
ATOM     75  C   UNL     1       5.636   2.707  -7.344  1.00  0.00     0.188 C 
BRANCH  75  76
ATOM     76  C   UNL     1       4.401   3.239  -8.090  1.00  0.00     0.188 C 
BRANCH  76  77
ATOM     77  O   UNL     1       4.447   4.533  -8.675  1.00  0.00    -0.376 OA
BRANCH  77  78
ATOM     78  C   UNL     1       4.775   5.653  -7.854  1.00  0.00     0.202 C 
BRANCH  78  79
ATOM     79  C   UNL     1       4.089   5.707  -6.486  1.00  0.00     0.261 C 
BRANCH  79  80
ATOM     80  O   UNL     1       4.712   4.734  -5.622  1.00  0.00    -0.462 OA
BRANCH  80  81
ATOM     81  C   UNL     1       4.099   4.431  -4.467  1.00  0.00     0.328 C 
ATOM     82  O   UNL     1       3.065   4.968  -4.080  1.00  0.00    -0.250 OA
BRANCH  81  83
ATOM     83  C   UNL     1       4.700   3.195  -3.760  1.00  0.00     0.195 C 
ATOM     84  C   UNL     1       3.723   2.052  -4.218  1.00  0.00     0.046 C 
ATOM     85  N   UNL     1       6.016   2.528  -3.917  1.00  0.00    -0.328 N 
ATOM     86  C   UNL     1       4.374   0.716  -3.827  1.00  0.00     0.001 C 
ATOM     87  C   UNL     1       5.857   1.088  -3.722  1.00  0.00     0.128 C 
ATOM     88  C   UNL     1       4.236  -0.422  -4.876  1.00  0.00     0.071 C 
ATOM     89  C   UNL     1       3.796   0.226  -2.482  1.00  0.00     0.071 C 
ATOM     90  C   UNL     1       2.852  -1.062  -4.950  1.00  0.00     0.271 C 
ATOM     91  C   UNL     1       2.386  -0.352  -2.640  1.00  0.00     0.271 C 
ATOM     92  N   UNL     1       2.376  -1.432  -3.619  1.00  0.00    -0.267 N 
ATOM     93  H   UNL     1       1.648  -0.984  -4.108  1.00  0.00     0.357 HD
BRANCH  85  94
ATOM     94  C   UNL     1       7.355   2.931  -3.802  1.00  0.00     0.226 C 
ATOM     95  O   UNL     1       8.214   2.058  -3.631  1.00  0.00    -0.275 OA
BRANCH  94  96
ATOM     96  C   UNL     1       7.923   4.302  -3.851  1.00  0.00     0.079 C 
ATOM     97  C   UNL     1       7.610   5.385  -4.834  1.00  0.00     0.014 C 
ATOM     98  C   UNL     1       7.292   5.569  -3.376  1.00  0.00     0.014 C 
ENDBRANCH  94  96
ENDBRANCH  85  94
BRANCH  92  99
ATOM     99  C   UNL     1       1.721  -2.617  -3.283  1.00  0.00     0.344 C 
ATOM    100  O   UNL     1       1.095  -2.763  -2.233  1.00  0.00    -0.226 OA
BRANCH  99 101
ATOM    101  C   UNL     1       1.783  -3.792  -4.181  1.00  0.00     0.083 A 
ATOM    102  C   UNL     1       3.012  -4.373  -4.518  1.00  0.00     0.018 A 
ATOM    103  C   UNL     1       0.587  -4.414  -4.552  1.00  0.00     0.064 A 
ATOM    104  C   UNL     1       3.038  -5.560  -5.256  1.00  0.00     0.005 A 
ATOM    105  C   UNL     1       0.628  -5.595  -5.285  1.00  0.00     0.116 A 
ATOM    106  C   UNL     1       1.843  -6.173  -5.643  1.00  0.00     0.046 A 
BRANCH 105 107
ATOM    107  O   UNL     1      -0.559  -6.175  -5.621  1.00  0.00    -0.508 OA
ATOM    108  H   UNL     1      -0.568  -6.972  -6.115  1.00  0.00     0.293 HD
ENDBRANCH 105 107
ENDBRANCH  99 101
ENDBRANCH  92  99
ENDBRANCH  81  83
ENDBRANCH  80  81
ENDBRANCH  79  80
ENDBRANCH  78  79
ENDBRANCH  77  78
ENDBRANCH  76  77
ENDBRANCH  75  76
ENDBRANCH   1  75
TORSDOF 28
