REMARK SMILES CCn1cc(CC(=O)OCCOCCOCCOCCOC(=O)c2ccc(-c3c4nc(c(-c5cccc(S(=O)(=O)[O-])c5F)c5ccc([nH]5)c(-c5cccc(S(=O)(=O)[O-])c5F)c5nc(c(-c6cccc(S(=O)(=O)[O-])c6F)c6ccc3[nH]6)C=C5)C=C4)cc2)c2ccccc21
REMARK SMILES IDX 16 1 15 2 14 3 13 4 12 5 11 6 10 7 9 8 7 9 8 10 6 11 5 12
REMARK SMILES IDX 3 13 4 14 92 15 87 16 91 17 88 18 90 19 89 20 2 21 1 22
REMARK SMILES IDX 17 23 18 24 19 25 20 26 21 27 22 28 23 29 24 30 25 31 86 32
REMARK SMILES IDX 26 33 85 34 27 35 28 36 29 37 79 38 30 39 84 40 78 41 80 42
REMARK SMILES IDX 31 43 83 44 77 45 76 46 32 48 64 49 44 50 63 51 45 52 48 53
REMARK SMILES IDX 62 54 81 55 46 56 47 57 61 59 82 60 49 61 33 62 34 63 42 64
REMARK SMILES IDX 35 65 37 66 43 67 36 68 38 69 39 70 40 71 41 72 65 73 66 74
REMARK SMILES IDX 74 75 67 76 69 77 75 78 68 79 70 80 71 81 72 82 73 83 50 84
REMARK SMILES IDX 51 85 59 86 52 87 54 88 60 89 53 90 55 91 56 92 57 93 58 94
REMARK H PARENT 80 47 48 58
REMARK Flexibility Score: inf
ROOT
ATOM      1  C   UNL     1       2.086  -6.254   1.982  1.00  0.00     0.188 C 
ENDROOT
BRANCH   1   2
ATOM      2  O   UNL     1       1.752  -5.545   0.812  1.00  0.00    -0.377 OA
BRANCH   2   3
ATOM      3  C   UNL     1       2.049  -6.150  -0.427  1.00  0.00     0.188 C 
BRANCH   3   4
ATOM      4  C   UNL     1       3.061  -7.289  -0.591  1.00  0.00     0.188 C 
BRANCH   4   5
ATOM      5  O   UNL     1       3.940  -7.456   0.496  1.00  0.00    -0.376 OA
BRANCH   5   6
ATOM      6  C   UNL     1       5.213  -6.837   0.477  1.00  0.00     0.202 C 
BRANCH   6   7
ATOM      7  C   UNL     1       5.394  -5.331   0.185  1.00  0.00     0.261 C 
BRANCH   7   8
ATOM      8  O   UNL     1       4.517  -4.692  -0.765  1.00  0.00    -0.463 OA
BRANCH   8   9
ATOM      9  C   UNL     1       4.808  -4.800  -2.080  1.00  0.00     0.310 C 
ATOM     10  O   UNL     1       5.747  -5.471  -2.506  1.00  0.00    -0.252 OA
BRANCH   9  11
ATOM     11  C   UNL     1       3.879  -4.053  -3.037  1.00  0.00     0.160 C 
BRANCH  11  12
ATOM     12  C   UNL     1       2.645  -3.336  -2.536  1.00  0.00    -0.011 A 
ATOM     13  N   UNL     1       1.288  -1.756  -1.698  1.00  0.00    -0.347 N 
ATOM     14  C   UNL     1       2.594  -2.064  -1.993  1.00  0.00     0.091 A 
ATOM     15  C   UNL     1       0.476  -2.842  -1.944  1.00  0.00     0.048 A 
ATOM     16  C   UNL     1       1.271  -3.791  -2.597  1.00  0.00     0.003 A 
ATOM     17  C   UNL     1      -0.884  -3.066  -1.661  1.00  0.00     0.027 A 
ATOM     18  C   UNL     1       0.637  -4.962  -3.078  1.00  0.00     0.010 A 
ATOM     19  C   UNL     1      -1.458  -4.271  -2.071  1.00  0.00     0.002 A 
ATOM     20  C   UNL     1      -0.715  -5.199  -2.790  1.00  0.00     0.001 A 
BRANCH  13  21
ATOM     21  C   UNL     1       0.823  -0.432  -1.321  1.00  0.00     0.119 C 
ATOM     22  C   UNL     1       1.172  -0.041   0.101  1.00  0.00     0.027 C 
ENDBRANCH  13  21
ENDBRANCH  11  12
ENDBRANCH   9  11
ENDBRANCH   8   9
ENDBRANCH   7   8
ENDBRANCH   6   7
ENDBRANCH   5   6
ENDBRANCH   4   5
ENDBRANCH   3   4
ENDBRANCH   2   3
ENDBRANCH   1   2
BRANCH   1  23
ATOM     23  C   UNL     1       1.422  -7.624   2.146  1.00  0.00     0.188 C 
BRANCH  23  24
ATOM     24  O   UNL     1       0.538  -7.937   1.080  1.00  0.00    -0.376 OA
BRANCH  24  25
ATOM     25  C   UNL     1      -0.820  -7.526   1.164  1.00  0.00     0.202 C 
BRANCH  25  26
ATOM     26  C   UNL     1      -1.292  -6.174   1.748  1.00  0.00     0.261 C 
BRANCH  26  27
ATOM     27  O   UNL     1      -0.556  -5.685   2.868  1.00  0.00    -0.460 OA
BRANCH  27  28
ATOM     28  C   UNL     1      -0.987  -5.860   4.136  1.00  0.00     0.338 C 
ATOM     29  O   UNL     1      -2.061  -6.291   4.508  1.00  0.00    -0.246 OA
BRANCH  28  30
ATOM     30  C   UNL     1       0.249  -5.716   4.942  1.00  0.00     0.060 A 
ATOM     31  C   UNL     1       1.055  -4.580   4.796  1.00  0.00     0.016 A 
ATOM     32  C   UNL     1       0.767  -6.899   5.489  1.00  0.00     0.016 A 
ATOM     33  C   UNL     1       2.420  -4.693   5.051  1.00  0.00     0.010 A 
ATOM     34  C   UNL     1       2.135  -7.011   5.727  1.00  0.00     0.010 A 
ATOM     35  C   UNL     1       2.971  -5.926   5.461  1.00  0.00    -0.014 A 
BRANCH  35  36
ATOM     36  C   UNL     1       4.373  -5.918   5.899  1.00  0.00     0.031 A 
ATOM     37  C   UNL     1       4.540  -4.998   7.052  1.00  0.00     0.074 A 
ATOM     38  C   UNL     1       5.393  -6.722   5.530  1.00  0.00     0.049 A 
ATOM     39  N   UNL     1       5.204  -3.890   7.102  1.00  0.00    -0.248 NA
ATOM     40  C   UNL     1       3.690  -5.262   8.226  1.00  0.00     0.031 C 
ATOM     41  C   UNL     1       5.331  -7.907   4.675  1.00  0.00     0.029 A 
ATOM     42  N   UNL     1       6.697  -6.721   5.967  1.00  0.00    -0.354 N 
ATOM     43  C   UNL     1       5.022  -3.438   8.403  1.00  0.00     0.074 A 
ATOM     44  C   UNL     1       3.930  -4.186   8.971  1.00  0.00     0.031 C 
ATOM     45  C   UNL     1       6.455  -8.640   4.857  1.00  0.00     0.029 A 
ATOM     46  C   UNL     1       7.364  -7.923   5.738  1.00  0.00     0.049 A 
ATOM     47  H   UNL     1       7.119  -5.944   6.401  1.00  0.00     0.167 HD
ATOM     48  C   UNL     1       5.970  -2.714   9.049  1.00  0.00     0.034 A 
ATOM     49  C   UNL     1       8.532  -8.326   6.303  1.00  0.00     0.034 A 
ATOM     50  C   UNL     1       6.996  -2.228   8.179  1.00  0.00     0.049 A 
ATOM     51  C   UNL     1       9.261  -7.122   6.764  1.00  0.00     0.074 A 
ATOM     52  C   UNL     1       7.163  -1.199   7.281  1.00  0.00     0.029 A 
ATOM     53  N   UNL     1       7.995  -3.134   7.962  1.00  0.00    -0.354 N 
ATOM     54  N   UNL     1       9.760  -6.221   5.966  1.00  0.00    -0.248 NA
ATOM     55  C   UNL     1       9.277  -6.782   8.184  1.00  0.00     0.031 C 
ATOM     56  C   UNL     1       8.234  -1.587   6.423  1.00  0.00     0.029 A 
ATOM     57  C   UNL     1       8.688  -2.843   6.819  1.00  0.00     0.049 A 
ATOM     58  H   UNL     1       8.191  -3.898   8.551  1.00  0.00     0.167 HD
ATOM     59  C   UNL     1       9.752  -5.066   6.722  1.00  0.00     0.074 A 
ATOM     60  C   UNL     1       9.639  -5.500   8.104  1.00  0.00     0.031 C 
ATOM     61  C   UNL     1       9.467  -3.863   6.154  1.00  0.00     0.034 A 
BRANCH  48  62
ATOM     62  C   UNL     1       6.212  -2.864  10.524  1.00  0.00     0.023 A 
ATOM     63  C   UNL     1       6.858  -1.824  11.213  1.00  0.00     0.012 A 
ATOM     64  C   UNL     1       6.044  -4.094  11.201  1.00  0.00     0.148 A 
ATOM     65  C   UNL     1       7.278  -1.992  12.538  1.00  0.00     0.002 A 
ATOM     66  C   UNL     1       6.369  -4.223  12.542  1.00  0.00     0.091 A 
ATOM     67  F   UNL     1       5.692  -5.186  10.510  1.00  0.00    -0.205 F 
ATOM     68  C   UNL     1       7.005  -3.179  13.213  1.00  0.00     0.022 A 
BRANCH  66  69
ATOM     69  S   UNL     1       5.952  -5.710  13.455  1.00  0.00     0.127 S 
ATOM     70  O   UNL     1       7.241  -6.392  13.511  1.00  0.00    -0.237 OA
ATOM     71  O   UNL     1       5.481  -5.162  14.727  1.00  0.00    -0.237 OA
ATOM     72  O   UNL     1       4.910  -6.355  12.665  1.00  0.00    -0.744 OA
ENDBRANCH  66  69
ENDBRANCH  48  62
BRANCH  49  73
ATOM     73  C   UNL     1       9.039  -9.681   6.657  1.00  0.00     0.023 A 
ATOM     74  C   UNL     1      10.401  -9.832   7.012  1.00  0.00     0.012 A 
ATOM     75  C   UNL     1       8.166 -10.750   6.948  1.00  0.00     0.148 A 
ATOM     76  C   UNL     1      10.857 -10.964   7.698  1.00  0.00     0.002 A 
ATOM     77  C   UNL     1       8.629 -11.883   7.615  1.00  0.00     0.091 A 
ATOM     78  F   UNL     1       6.864 -10.621   6.666  1.00  0.00    -0.205 F 
ATOM     79  C   UNL     1       9.967 -11.985   8.012  1.00  0.00     0.022 A 
BRANCH  77  80
ATOM     80  S   UNL     1       7.530 -13.240   8.044  1.00  0.00     0.127 S 
ATOM     81  O   UNL     1       8.365 -14.412   7.777  1.00  0.00    -0.237 OA
ATOM     82  O   UNL     1       7.268 -12.985   9.456  1.00  0.00    -0.237 OA
ATOM     83  O   UNL     1       6.387 -13.111   7.147  1.00  0.00    -0.744 OA
ENDBRANCH  77  80
ENDBRANCH  49  73
BRANCH  61  84
ATOM     84  C   UNL     1       9.780  -3.684   4.703  1.00  0.00     0.023 A 
ATOM     85  C   UNL     1       9.074  -4.349   3.682  1.00  0.00     0.012 A 
ATOM     86  C   UNL     1      10.762  -2.740   4.362  1.00  0.00     0.148 A 
ATOM     87  C   UNL     1       9.355  -4.081   2.341  1.00  0.00     0.002 A 
ATOM     88  C   UNL     1      11.010  -2.447   3.030  1.00  0.00     0.091 A 
ATOM     89  F   UNL     1      11.426  -2.131   5.356  1.00  0.00    -0.205 F 
ATOM     90  C   UNL     1      10.313  -3.121   2.014  1.00  0.00     0.022 A 
BRANCH  88  91
ATOM     91  S   UNL     1      12.157  -1.156   2.546  1.00  0.00     0.127 S 
ATOM     92  O   UNL     1      13.247  -1.922   1.947  1.00  0.00    -0.237 OA
ATOM     93  O   UNL     1      11.360  -0.377   1.596  1.00  0.00    -0.237 OA
ATOM     94  O   UNL     1      12.497  -0.438   3.768  1.00  0.00    -0.744 OA
ENDBRANCH  88  91
ENDBRANCH  61  84
ENDBRANCH  35  36
ENDBRANCH  28  30
ENDBRANCH  27  28
ENDBRANCH  26  27
ENDBRANCH  25  26
ENDBRANCH  24  25
ENDBRANCH  23  24
ENDBRANCH   1  23
TORSDOF 25
