REMARK SMILES C[C@@H]1[C@@H](C(=O)OCCOCCOCCOCCOC(=O)c2ccc(-c3c4nc(c(-c5cccc(S(=O)(=O)[O-])c5F)c5ccc([nH]5)c(-c5cccc(S(=O)(=O)[O-])c5F)c5nc(c(-c6cccc(S(=O)(=O)[O-])c6F)c6ccc3[nH]6)C=C5)C=C4)cc2)CCN1c1nc2sccn2c1[N+](=O)[O-]
REMARK SMILES IDX 13 1 12 2 11 3 10 4 9 5 8 6 7 7 6 8 4 9 5 10 3 11 1 12 2 13
REMARK SMILES IDX 86 14 84 15 85 16 87 17 88 18 94 19 89 20 93 21 90 22 92 23
REMARK SMILES IDX 91 24 95 25 96 26 97 27 14 28 15 29 16 30 17 31 18 32 19 33
REMARK SMILES IDX 20 34 21 35 22 36 83 37 23 38 82 39 24 40 25 41 26 42 76 43
REMARK SMILES IDX 27 44 81 45 75 46 77 47 28 48 80 49 74 50 73 51 29 53 61 54
REMARK SMILES IDX 41 55 60 56 42 57 45 58 59 59 78 60 43 61 44 62 58 64 79 65
REMARK SMILES IDX 46 66 30 67 31 68 39 69 32 70 34 71 40 72 33 73 35 74 36 75
REMARK SMILES IDX 37 76 38 77 62 78 63 79 71 80 64 81 66 82 72 83 65 84 67 85
REMARK SMILES IDX 68 86 69 87 70 88 47 89 48 90 56 91 49 92 51 93 57 94 50 95
REMARK SMILES IDX 52 96 53 97 54 98 55 99
REMARK H PARENT 77 52 45 63
REMARK Flexibility Score: inf
ROOT
ATOM      1  C   UNL     1      -1.221   4.920  -3.412  1.00  0.00     0.188 C 
ENDROOT
BRANCH   1   2
ATOM      2  O   UNL     1      -1.049   3.822  -2.527  1.00  0.00    -0.377 OA
BRANCH   2   3
ATOM      3  C   UNL     1       0.273   3.390  -2.305  1.00  0.00     0.188 C 
BRANCH   3   4
ATOM      4  C   UNL     1       0.678   2.203  -3.194  1.00  0.00     0.188 C 
BRANCH   4   5
ATOM      5  O   UNL     1      -0.005   1.935  -4.407  1.00  0.00    -0.376 OA
BRANCH   5   6
ATOM      6  C   UNL     1      -1.411   1.762  -4.526  1.00  0.00     0.202 C 
BRANCH   6   7
ATOM      7  C   UNL     1      -2.389   1.313  -3.423  1.00  0.00     0.261 C 
BRANCH   7   8
ATOM      8  O   UNL     1      -1.928   1.382  -2.081  1.00  0.00    -0.463 OA
BRANCH   8   9
ATOM      9  C   UNL     1      -1.259   0.285  -1.664  1.00  0.00     0.311 C 
ATOM     10  O   UNL     1      -1.138  -0.740  -2.322  1.00  0.00    -0.252 OA
BRANCH   9  11
ATOM     11  C   UNL     1      -0.615   0.566  -0.314  1.00  0.00     0.123 C 
ATOM     12  C   UNL     1       1.603   0.088   0.848  1.00  0.00     0.032 C 
ATOM     13  C   UNL     1       0.535  -0.417  -0.118  1.00  0.00     0.095 C 
ATOM     14  N   UNL     1      -0.154  -1.610   0.420  1.00  0.00    -0.346 N 
ATOM     15  C   UNL     1      -1.548   0.265   0.836  1.00  0.00     0.039 C 
ATOM     16  C   UNL     1      -1.510  -1.258   0.857  1.00  0.00     0.119 C 
BRANCH  14  17
ATOM     17  C   UNL     1       0.238  -2.824  -0.043  1.00  0.00     0.229 A 
ATOM     18  N   UNL     1       1.547  -2.911  -0.498  1.00  0.00    -0.173 NA
ATOM     19  C   UNL     1      -0.402  -4.047  -0.176  1.00  0.00     0.373 A 
ATOM     20  C   UNL     1       1.652  -4.133  -0.922  1.00  0.00     0.286 A 
ATOM     21  N   UNL     1       0.521  -4.873  -0.757  1.00  0.00    -0.166 N 
ATOM     22  S   UNL     1       2.933  -5.051  -1.647  1.00  0.00    -0.078 S 
ATOM     23  C   UNL     1       0.629  -6.180  -1.199  1.00  0.00     0.220 A 
ATOM     24  C   UNL     1       1.850  -6.445  -1.695  1.00  0.00     0.114 A 
BRANCH  19  25
ATOM     25  N   UNL     1      -1.696  -4.531   0.122  1.00  0.00    -0.023 N 
ATOM     26  O   UNL     1      -2.651  -3.757   0.055  1.00  0.00    -0.358 OA
ATOM     27  O   UNL     1      -1.787  -5.733   0.406  1.00  0.00    -0.358 OA
ENDBRANCH  19  25
ENDBRANCH  14  17
ENDBRANCH   9  11
ENDBRANCH   8   9
ENDBRANCH   7   8
ENDBRANCH   6   7
ENDBRANCH   5   6
ENDBRANCH   4   5
ENDBRANCH   3   4
ENDBRANCH   2   3
ENDBRANCH   1   2
BRANCH   1  28
ATOM     28  C   UNL     1      -0.272   5.075  -4.624  1.00  0.00     0.188 C 
BRANCH  28  29
ATOM     29  O   UNL     1       1.106   4.857  -4.346  1.00  0.00    -0.376 OA
BRANCH  29  30
ATOM     30  C   UNL     1       1.957   5.980  -4.177  1.00  0.00     0.202 C 
BRANCH  30  31
ATOM     31  C   UNL     1       1.725   6.868  -2.944  1.00  0.00     0.261 C 
BRANCH  31  32
ATOM     32  O   UNL     1       0.406   7.410  -2.799  1.00  0.00    -0.460 OA
BRANCH  32  33
ATOM     33  C   UNL     1      -0.035   8.231  -3.776  1.00  0.00     0.338 C 
ATOM     34  O   UNL     1       0.591   8.603  -4.755  1.00  0.00    -0.246 OA
BRANCH  33  35
ATOM     35  C   UNL     1      -1.484   8.437  -3.576  1.00  0.00     0.060 A 
ATOM     36  C   UNL     1      -2.365   8.067  -4.602  1.00  0.00     0.016 A 
ATOM     37  C   UNL     1      -1.973   8.973  -2.382  1.00  0.00     0.016 A 
ATOM     38  C   UNL     1      -3.735   8.274  -4.455  1.00  0.00     0.010 A 
ATOM     39  C   UNL     1      -3.344   9.203  -2.246  1.00  0.00     0.010 A 
ATOM     40  C   UNL     1      -4.225   8.892  -3.298  1.00  0.00    -0.014 A 
BRANCH  40  41
ATOM     41  C   UNL     1      -5.614   9.409  -3.280  1.00  0.00     0.031 A 
ATOM     42  C   UNL     1      -5.830  10.869  -3.577  1.00  0.00     0.074 A 
ATOM     43  C   UNL     1      -6.660   8.608  -3.017  1.00  0.00     0.049 A 
ATOM     44  N   UNL     1      -6.938  11.559  -3.583  1.00  0.00    -0.248 NA
ATOM     45  C   UNL     1      -4.629  11.655  -3.910  1.00  0.00     0.031 C 
ATOM     46  C   UNL     1      -6.581   7.177  -2.732  1.00  0.00     0.029 A 
ATOM     47  N   UNL     1      -7.999   8.899  -2.922  1.00  0.00    -0.354 N 
ATOM     48  C   UNL     1      -6.568  12.864  -3.887  1.00  0.00     0.074 A 
ATOM     49  C   UNL     1      -5.131  12.873  -4.047  1.00  0.00     0.031 C 
ATOM     50  C   UNL     1      -7.817   6.719  -2.463  1.00  0.00     0.029 A 
ATOM     51  C   UNL     1      -8.766   7.829  -2.527  1.00  0.00     0.049 A 
ATOM     52  H   UNL     1      -8.373   9.789  -3.118  1.00  0.00     0.167 HD
ATOM     53  C   UNL     1      -7.354  13.957  -4.030  1.00  0.00     0.034 A 
ATOM     54  C   UNL     1     -10.079   7.764  -2.225  1.00  0.00     0.034 A 
ATOM     55  C   UNL     1      -8.783  13.944  -3.878  1.00  0.00     0.049 A 
ATOM     56  C   UNL     1     -10.927   9.005  -2.353  1.00  0.00     0.074 A 
ATOM     57  C   UNL     1      -9.673  14.989  -4.043  1.00  0.00     0.029 A 
ATOM     58  N   UNL     1      -9.529  12.836  -3.507  1.00  0.00    -0.354 N 
ATOM     59  N   UNL     1     -10.581  10.208  -2.744  1.00  0.00    -0.248 NA
ATOM     60  C   UNL     1     -12.355   8.871  -2.026  1.00  0.00     0.031 C 
ATOM     61  C   UNL     1     -10.954  14.524  -3.731  1.00  0.00     0.029 A 
ATOM     62  C   UNL     1     -10.867  13.176  -3.421  1.00  0.00     0.049 A 
ATOM     63  H   UNL     1      -9.161  11.940  -3.331  1.00  0.00     0.167 HD
ATOM     64  C   UNL     1     -11.752  10.960  -2.752  1.00  0.00     0.074 A 
ATOM     65  C   UNL     1     -12.820  10.072  -2.342  1.00  0.00     0.031 C 
ATOM     66  C   UNL     1     -11.928  12.269  -3.061  1.00  0.00     0.034 A 
BRANCH  53  67
ATOM     67  C   UNL     1      -6.682  15.260  -4.371  1.00  0.00     0.023 A 
ATOM     68  C   UNL     1      -6.134  15.455  -5.656  1.00  0.00     0.012 A 
ATOM     69  C   UNL     1      -6.637  16.310  -3.434  1.00  0.00     0.148 A 
ATOM     70  C   UNL     1      -5.521  16.662  -5.990  1.00  0.00     0.002 A 
ATOM     71  C   UNL     1      -6.069  17.527  -3.790  1.00  0.00     0.091 A 
ATOM     72  F   UNL     1      -7.142  16.096  -2.210  1.00  0.00    -0.205 F 
ATOM     73  C   UNL     1      -5.499  17.700  -5.062  1.00  0.00     0.022 A 
BRANCH  71  74
ATOM     74  S   UNL     1      -6.064  18.951  -2.696  1.00  0.00     0.127 S 
ATOM     75  O   UNL     1      -4.640  19.081  -2.389  1.00  0.00    -0.237 OA
ATOM     76  O   UNL     1      -6.600  20.002  -3.561  1.00  0.00    -0.237 OA
ATOM     77  O   UNL     1      -6.913  18.596  -1.568  1.00  0.00    -0.744 OA
ENDBRANCH  71  74
ENDBRANCH  53  67
BRANCH  54  78
ATOM     78  C   UNL     1     -10.684   6.475  -1.785  1.00  0.00     0.023 A 
ATOM     79  C   UNL     1     -11.620   5.823  -2.611  1.00  0.00     0.012 A 
ATOM     80  C   UNL     1     -10.338   5.894  -0.549  1.00  0.00     0.148 A 
ATOM     81  C   UNL     1     -12.228   4.637  -2.199  1.00  0.00     0.002 A 
ATOM     82  C   UNL     1     -10.904   4.683  -0.170  1.00  0.00     0.091 A 
ATOM     83  F   UNL     1      -9.458   6.538   0.230  1.00  0.00    -0.205 F 
ATOM     84  C   UNL     1     -11.864   4.062  -0.984  1.00  0.00     0.022 A 
BRANCH  82  85
ATOM     85  S   UNL     1     -10.406   3.809   1.318  1.00  0.00     0.127 S 
ATOM     86  O   UNL     1     -11.615   3.893   2.133  1.00  0.00    -0.237 OA
ATOM     87  O   UNL     1     -10.107   2.476   0.794  1.00  0.00    -0.237 OA
ATOM     88  O   UNL     1      -9.248   4.528   1.830  1.00  0.00    -0.744 OA
ENDBRANCH  82  85
ENDBRANCH  54  78
BRANCH  66  89
ATOM     89  C   UNL     1     -13.331  12.820  -3.026  1.00  0.00     0.023 A 
ATOM     90  C   UNL     1     -13.989  13.011  -1.795  1.00  0.00     0.012 A 
ATOM     91  C   UNL     1     -13.969  13.220  -4.219  1.00  0.00     0.148 A 
ATOM     92  C   UNL     1     -15.273  13.555  -1.754  1.00  0.00     0.002 A 
ATOM     93  C   UNL     1     -15.224  13.812  -4.166  1.00  0.00     0.091 A 
ATOM     94  F   UNL     1     -13.333  13.017  -5.382  1.00  0.00    -0.205 F 
ATOM     95  C   UNL     1     -15.884  13.967  -2.937  1.00  0.00     0.022 A 
BRANCH  93  96
ATOM     96  S   UNL     1     -16.046  14.464  -5.624  1.00  0.00     0.127 S 
ATOM     97  O   UNL     1     -17.148  13.519  -5.793  1.00  0.00    -0.237 OA
ATOM     98  O   UNL     1     -16.448  15.799  -5.181  1.00  0.00    -0.237 OA
ATOM     99  O   UNL     1     -15.049  14.454  -6.687  1.00  0.00    -0.744 OA
ENDBRANCH  93  96
ENDBRANCH  66  89
ENDBRANCH  40  41
ENDBRANCH  33  35
ENDBRANCH  32  33
ENDBRANCH  31  32
ENDBRANCH  30  31
ENDBRANCH  29  30
ENDBRANCH  28  29
ENDBRANCH   1  28
TORSDOF 25
