REMARK SMILES N#CCC1(C[N@@H+]2CCO[C@H](CC(=O)OCCOCCOCCOCCOC(=O)c3ccc(-c4c5nc(c(-c6cccc(S(=O)(=O)[O-])c6F)c6ccc([nH]6)c(-c6cccc(S(=O)(=O)[O-])c6F)c6nc(c(-c7cccc(S(=O)(=O)[O-])c7F)c7ccc4[nH]7)C=C6)C=C5)cc3)C2)CC1
REMARK SMILES IDX 19 1 18 2 17 3 16 4 15 5 14 6 12 7 13 8 11 9 10 10 6 11 7 12
REMARK SMILES IDX 92 13 8 15 9 16 5 17 4 18 93 19 94 20 3 21 2 22 1 23 20 24
REMARK SMILES IDX 21 25 22 26 23 27 24 28 25 29 26 30 27 31 28 32 29 33 30 34
REMARK SMILES IDX 91 35 31 36 90 37 32 38 33 39 34 40 84 41 35 42 89 43 83 44
REMARK SMILES IDX 85 45 36 46 88 47 82 48 81 49 37 51 69 52 49 53 68 54 50 55
REMARK SMILES IDX 53 56 67 57 86 58 51 59 52 60 66 62 87 63 54 64 38 65 39 66
REMARK SMILES IDX 47 67 40 68 42 69 48 70 41 71 43 72 44 73 45 74 46 75 70 76
REMARK SMILES IDX 71 77 79 78 72 79 74 80 80 81 73 82 75 83 76 84 77 85 78 86
REMARK SMILES IDX 55 87 56 88 64 89 57 90 59 91 65 92 58 93 60 94 61 95 62 96
REMARK SMILES IDX 63 97
REMARK H PARENT 6 14 85 50 53 61
REMARK Flexibility Score: inf
ROOT
ATOM      1  C   UNL     1       3.397   0.223   5.622  1.00  0.00     0.188 C 
ENDROOT
BRANCH   1   2
ATOM      2  C   UNL     1       4.869  -0.076   5.825  1.00  0.00     0.188 C 
BRANCH   2   3
ATOM      3  O   UNL     1       5.604   0.738   6.731  1.00  0.00    -0.376 OA
BRANCH   3   4
ATOM      4  C   UNL     1       5.155   2.062   7.027  1.00  0.00     0.202 C 
BRANCH   4   5
ATOM      5  C   UNL     1       5.567   3.145   6.016  1.00  0.00     0.261 C 
BRANCH   5   6
ATOM      6  O   UNL     1       4.621   3.378   4.941  1.00  0.00    -0.463 OA
BRANCH   6   7
ATOM      7  C   UNL     1       5.140   3.704   3.729  1.00  0.00     0.308 C 
ATOM      8  O   UNL     1       6.345   3.652   3.492  1.00  0.00    -0.252 OA
BRANCH   7   9
ATOM      9  C   UNL     1       4.152   4.166   2.646  1.00  0.00     0.160 C 
BRANCH   9  10
ATOM     10  C   UNL     1       2.650   4.151   2.876  1.00  0.00     0.184 C 
ATOM     11  N   UNL     1       2.094   1.731   2.808  1.00  0.00    -0.330 N 
ATOM     12  C   UNL     1       1.004   2.055   1.901  1.00  0.00     0.291 C 
ATOM     13  C   UNL     1       2.162   2.933   3.639  1.00  0.00     0.295 C 
ATOM     14  H   UNL     1       1.909   0.863   3.310  1.00  0.00     0.348 HD
ATOM     15  C   UNL     1       1.472   3.135   0.933  1.00  0.00     0.222 C 
ATOM     16  O   UNL     1       1.916   4.332   1.621  1.00  0.00    -0.366 OA
BRANCH  11  17
ATOM     17  C   UNL     1       3.301   0.939   2.451  1.00  0.00     0.270 C 
BRANCH  17  18
ATOM     18  C   UNL     1       4.283   0.805   1.225  1.00  0.00     0.032 C 
ATOM     19  C   UNL     1       5.665   0.265   1.654  1.00  0.00     0.015 C 
ATOM     20  C   UNL     1       5.579   1.594   1.011  1.00  0.00     0.015 C 
BRANCH  18  21
ATOM     21  C   UNL     1       3.850   0.068  -0.026  1.00  0.00     0.133 C 
BRANCH  21  22
ATOM     22  C   UNL     1       2.330   0.068  -0.026  1.00  0.00     0.063 C 
ATOM     23  N   UNL     1       1.069   0.068  -0.026  1.00  0.00    -0.198 NA
ENDBRANCH  21  22
ENDBRANCH  18  21
ENDBRANCH  17  18
ENDBRANCH  11  17
ENDBRANCH   9  10
ENDBRANCH   7   9
ENDBRANCH   6   7
ENDBRANCH   5   6
ENDBRANCH   4   5
ENDBRANCH   3   4
ENDBRANCH   2   3
ENDBRANCH   1   2
BRANCH   1  24
ATOM     24  O   UNL     1       2.677   0.368   6.829  1.00  0.00    -0.377 OA
BRANCH  24  25
ATOM     25  C   UNL     1       1.287   0.589   6.574  1.00  0.00     0.188 C 
BRANCH  25  26
ATOM     26  C   UNL     1       0.590  -0.767   6.636  1.00  0.00     0.188 C 
BRANCH  26  27
ATOM     27  O   UNL     1       0.610  -1.544   5.437  1.00  0.00    -0.376 OA
BRANCH  27  28
ATOM     28  C   UNL     1       0.066  -0.967   4.247  1.00  0.00     0.202 C 
BRANCH  28  29
ATOM     29  C   UNL     1      -1.434  -0.668   4.256  1.00  0.00     0.261 C 
BRANCH  29  30
ATOM     30  O   UNL     1      -1.678   0.594   4.899  1.00  0.00    -0.460 OA
BRANCH  30  31
ATOM     31  C   UNL     1      -2.348   0.532   6.074  1.00  0.00     0.338 C 
ATOM     32  O   UNL     1      -2.817  -0.445   6.616  1.00  0.00    -0.246 OA
BRANCH  31  33
ATOM     33  C   UNL     1      -2.226   1.844   6.725  1.00  0.00     0.060 A 
ATOM     34  C   UNL     1      -1.597   1.904   7.975  1.00  0.00     0.016 A 
ATOM     35  C   UNL     1      -2.796   2.977   6.146  1.00  0.00     0.016 A 
ATOM     36  C   UNL     1      -1.572   3.099   8.678  1.00  0.00     0.010 A 
ATOM     37  C   UNL     1      -2.814   4.166   6.872  1.00  0.00     0.010 A 
ATOM     38  C   UNL     1      -2.253   4.205   8.161  1.00  0.00    -0.014 A 
BRANCH  38  39
ATOM     39  C   UNL     1      -2.659   5.261   9.108  1.00  0.00     0.031 A 
ATOM     40  C   UNL     1      -4.013   5.125   9.749  1.00  0.00     0.074 A 
ATOM     41  C   UNL     1      -1.831   6.267   9.425  1.00  0.00     0.049 A 
ATOM     42  N   UNL     1      -4.609   5.910  10.603  1.00  0.00    -0.248 NA
ATOM     43  C   UNL     1      -4.802   3.936   9.375  1.00  0.00     0.031 C 
ATOM     44  C   UNL     1      -0.485   6.458   8.888  1.00  0.00     0.029 A 
ATOM     45  N   UNL     1      -2.016   7.328  10.271  1.00  0.00    -0.354 N 
ATOM     46  C   UNL     1      -5.850   5.332  10.840  1.00  0.00     0.074 A 
ATOM     47  C   UNL     1      -5.930   4.136  10.036  1.00  0.00     0.031 C 
ATOM     48  C   UNL     1       0.024   7.595   9.395  1.00  0.00     0.029 A 
ATOM     49  C   UNL     1      -0.970   8.216  10.267  1.00  0.00     0.049 A 
ATOM     50  H   UNL     1      -2.821   7.442  10.826  1.00  0.00     0.167 HD
ATOM     51  C   UNL     1      -6.835   5.758  11.664  1.00  0.00     0.034 A 
ATOM     52  C   UNL     1      -0.852   9.408  10.882  1.00  0.00     0.034 A 
ATOM     53  C   UNL     1      -6.737   6.948  12.460  1.00  0.00     0.049 A 
ATOM     54  C   UNL     1      -1.975   9.877  11.770  1.00  0.00     0.074 A 
ATOM     55  C   UNL     1      -7.661   7.471  13.345  1.00  0.00     0.029 A 
ATOM     56  N   UNL     1      -5.651   7.811  12.454  1.00  0.00    -0.354 N 
ATOM     57  N   UNL     1      -3.115   9.288  12.044  1.00  0.00    -0.248 NA
ATOM     58  C   UNL     1      -1.778  11.155  12.466  1.00  0.00     0.031 C 
ATOM     59  C   UNL     1      -7.149   8.673  13.844  1.00  0.00     0.029 A 
ATOM     60  C   UNL     1      -5.882   8.867  13.314  1.00  0.00     0.049 A 
ATOM     61  H   UNL     1      -4.836   7.689  11.915  1.00  0.00     0.167 HD
ATOM     62  C   UNL     1      -3.748  10.095  12.983  1.00  0.00     0.074 A 
ATOM     63  C   UNL     1      -2.856  11.209  13.237  1.00  0.00     0.031 C 
ATOM     64  C   UNL     1      -4.954   9.935  13.584  1.00  0.00     0.034 A 
BRANCH  51  65
ATOM     65  C   UNL     1      -8.096   4.938  11.726  1.00  0.00     0.023 A 
ATOM     66  C   UNL     1      -8.087   3.665  12.332  1.00  0.00     0.012 A 
ATOM     67  C   UNL     1      -9.301   5.445  11.204  1.00  0.00     0.148 A 
ATOM     68  C   UNL     1      -9.249   2.895  12.384  1.00  0.00     0.002 A 
ATOM     69  C   UNL     1     -10.466   4.695  11.306  1.00  0.00     0.091 A 
ATOM     70  F   UNL     1      -9.283   6.644  10.604  1.00  0.00    -0.205 F 
ATOM     71  C   UNL     1     -10.439   3.414  11.882  1.00  0.00     0.022 A 
BRANCH  69  72
ATOM     72  S   UNL     1     -12.063   5.310  10.765  1.00  0.00     0.127 S 
ATOM     73  O   UNL     1     -12.351   4.430   9.633  1.00  0.00    -0.237 OA
ATOM     74  O   UNL     1     -12.895   5.078  11.945  1.00  0.00    -0.237 OA
ATOM     75  O   UNL     1     -11.863   6.712  10.427  1.00  0.00    -0.744 OA
ENDBRANCH  69  72
ENDBRANCH  51  65
BRANCH  52  76
ATOM     76  C   UNL     1       0.380  10.225  10.700  1.00  0.00     0.023 A 
ATOM     77  C   UNL     1       1.256  10.427  11.783  1.00  0.00     0.012 A 
ATOM     78  C   UNL     1       0.689  10.796   9.450  1.00  0.00     0.148 A 
ATOM     79  C   UNL     1       2.398  11.215  11.636  1.00  0.00     0.002 A 
ATOM     80  C   UNL     1       1.857  11.532   9.295  1.00  0.00     0.091 A 
ATOM     81  F   UNL     1      -0.163  10.600   8.434  1.00  0.00    -0.205 F 
ATOM     82  C   UNL     1       2.703  11.760  10.391  1.00  0.00     0.022 A 
BRANCH  80  83
ATOM     83  S   UNL     1       2.395  12.162   7.702  1.00  0.00     0.127 S 
ATOM     84  O   UNL     1       2.273  13.605   7.894  1.00  0.00    -0.237 OA
ATOM     85  O   UNL     1       3.768  11.662   7.631  1.00  0.00    -0.237 OA
ATOM     86  O   UNL     1       1.492  11.578   6.720  1.00  0.00    -0.744 OA
ENDBRANCH  80  83
ENDBRANCH  52  76
BRANCH  64  87
ATOM     87  C   UNL     1      -5.347  10.943  14.632  1.00  0.00     0.023 A 
ATOM     88  C   UNL     1      -5.671  12.265  14.270  1.00  0.00     0.012 A 
ATOM     89  C   UNL     1      -5.446  10.551  15.982  1.00  0.00     0.148 A 
ATOM     90  C   UNL     1      -6.036  13.195  15.242  1.00  0.00     0.002 A 
ATOM     91  C   UNL     1      -5.869  11.466  16.936  1.00  0.00     0.091 A 
ATOM     92  F   UNL     1      -5.119   9.292  16.310  1.00  0.00    -0.205 F 
ATOM     93  C   UNL     1      -6.146  12.793  16.572  1.00  0.00     0.022 A 
BRANCH  91  94
ATOM     94  S   UNL     1      -6.143  11.004  18.650  1.00  0.00     0.127 S 
ATOM     95  O   UNL     1      -4.997  11.626  19.311  1.00  0.00    -0.237 OA
ATOM     96  O   UNL     1      -7.431  11.635  18.939  1.00  0.00    -0.237 OA
ATOM     97  O   UNL     1      -6.166   9.548  18.674  1.00  0.00    -0.744 OA
ENDBRANCH  91  94
ENDBRANCH  64  87
ENDBRANCH  38  39
ENDBRANCH  31  33
ENDBRANCH  30  31
ENDBRANCH  29  30
ENDBRANCH  28  29
ENDBRANCH  27  28
ENDBRANCH  26  27
ENDBRANCH  25  26
ENDBRANCH  24  25
ENDBRANCH   1  24
TORSDOF 28
