REMARK SMILES Cc1cnn(C2(C(=O)OCCOCCOCCOCCOC(=O)c3ccc(-c4c5nc(c(-c6cccc(S(=O)(=O)[O-])c6F)c6ccc([nH]6)c(-c6cccc(S(=O)(=O)[O-])c6F)c6nc(c(-c7cccc(S(=O)(=O)[O-])c7F)c7ccc4[nH]7)C=C6)C=C5)cc3)CCN(C(=O)c3cscn3)CC2)c1
REMARK SMILES IDX 16 1 15 2 14 3 13 4 12 5 11 6 10 7 9 8 7 9 8 10 6 11 87 12
REMARK SMILES IDX 98 13 88 14 97 15 89 16 90 17 91 18 5 19 1 20 2 21 3 22
REMARK SMILES IDX 99 23 4 24 92 25 93 26 96 27 94 28 95 29 17 30 18 31 19 32
REMARK SMILES IDX 20 33 21 34 22 35 23 36 24 37 25 38 86 39 26 40 85 41 27 42
REMARK SMILES IDX 28 43 29 44 79 45 30 46 84 47 78 48 80 49 31 50 83 51 77 52
REMARK SMILES IDX 76 53 32 55 64 56 44 57 63 58 45 59 48 60 62 61 81 62 46 63
REMARK SMILES IDX 47 64 61 66 82 67 49 68 33 69 34 70 42 71 35 72 37 73 43 74
REMARK SMILES IDX 36 75 38 76 39 77 40 78 41 79 65 80 66 81 74 82 67 83 69 84
REMARK SMILES IDX 75 85 68 86 70 87 71 88 72 89 73 90 50 91 51 92 59 93 52 94
REMARK SMILES IDX 54 95 60 96 53 97 55 98 56 99 57 100 58 101
REMARK H PARENT 80 54 48 65
REMARK Flexibility Score: inf
ROOT
ATOM      1  C   UNL     1      -2.713   8.272   1.261  1.00  0.00     0.188 C 
ENDROOT
BRANCH   1   2
ATOM      2  O   UNL     1      -1.631   7.414   0.913  1.00  0.00    -0.377 OA
BRANCH   2   3
ATOM      3  C   UNL     1      -1.879   6.018   0.908  1.00  0.00     0.188 C 
BRANCH   3   4
ATOM      4  C   UNL     1      -1.774   5.370   2.297  1.00  0.00     0.188 C 
BRANCH   4   5
ATOM      5  O   UNL     1      -1.766   6.337   3.341  1.00  0.00    -0.376 OA
BRANCH   5   6
ATOM      6  C   UNL     1      -0.501   6.746   3.832  1.00  0.00     0.202 C 
BRANCH   6   7
ATOM      7  C   UNL     1       0.567   7.313   2.876  1.00  0.00     0.261 C 
BRANCH   7   8
ATOM      8  O   UNL     1       0.834   6.606   1.651  1.00  0.00    -0.461 OA
BRANCH   8   9
ATOM      9  C   UNL     1       1.395   5.381   1.746  1.00  0.00     0.334 C 
ATOM     10  O   UNL     1       1.696   4.868   2.823  1.00  0.00    -0.249 OA
BRANCH   9  11
ATOM     11  C   UNL     1       1.813   4.798   0.376  1.00  0.00     0.163 C 
ATOM     12  C   UNL     1       1.144   5.339  -0.918  1.00  0.00     0.064 C 
ATOM     13  C   UNL     1       3.309   5.229   0.380  1.00  0.00     0.064 C 
ATOM     14  C   UNL     1       1.951   4.937  -2.155  1.00  0.00     0.123 C 
ATOM     15  C   UNL     1       4.059   5.167  -0.939  1.00  0.00     0.123 C 
ATOM     16  N   UNL     1       3.250   5.572  -2.071  1.00  0.00    -0.337 N 
ATOM     17  C   UNL     1       3.579   6.473  -3.090  1.00  0.00     0.273 C 
ATOM     18  O   UNL     1       3.101   6.348  -4.217  1.00  0.00    -0.267 OA
BRANCH  11  19
ATOM     19  N   UNL     1       1.464   3.372   0.446  1.00  0.00    -0.255 N 
ATOM     20  C   UNL     1       1.560  -0.250  -0.072  1.00  0.00     0.048 C 
ATOM     21  C   UNL     1       1.318   1.184   0.192  1.00  0.00    -0.013 A 
ATOM     22  C   UNL     1       0.076   1.759   0.515  1.00  0.00     0.138 A 
ATOM     23  C   UNL     1       2.197   2.254   0.159  1.00  0.00     0.113 A 
ATOM     24  N   UNL     1       0.155   3.076   0.653  1.00  0.00    -0.180 NA
ENDBRANCH  11  19
BRANCH  17  25
ATOM     25  C   UNL     1       4.369   7.664  -2.758  1.00  0.00     0.139 A 
ATOM     26  C   UNL     1       5.687   7.714  -2.346  1.00  0.00     0.100 A 
ATOM     27  N   UNL     1       3.793   8.924  -2.949  1.00  0.00    -0.240 NA
ATOM     28  S   UNL     1       6.201   9.345  -2.165  1.00  0.00    -0.130 S 
ATOM     29  C   UNL     1       4.662   9.874  -2.699  1.00  0.00     0.176 A 
ENDBRANCH  17  25
ENDBRANCH   9  11
ENDBRANCH   8   9
ENDBRANCH   7   8
ENDBRANCH   6   7
ENDBRANCH   5   6
ENDBRANCH   4   5
ENDBRANCH   3   4
ENDBRANCH   2   3
ENDBRANCH   1   2
BRANCH   1  30
ATOM     30  C   UNL     1      -3.899   7.780   2.134  1.00  0.00     0.188 C 
BRANCH  30  31
ATOM     31  O   UNL     1      -4.285   6.417   1.964  1.00  0.00    -0.376 OA
BRANCH  31  32
ATOM     32  C   UNL     1      -5.451   6.080   1.232  1.00  0.00     0.202 C 
BRANCH  32  33
ATOM     33  C   UNL     1      -5.353   6.234  -0.285  1.00  0.00     0.261 C 
BRANCH  33  34
ATOM     34  O   UNL     1      -4.911   7.517  -0.693  1.00  0.00    -0.460 OA
BRANCH  34  35
ATOM     35  C   UNL     1      -5.697   8.534  -0.294  1.00  0.00     0.338 C 
ATOM     36  O   UNL     1      -6.673   8.479   0.432  1.00  0.00    -0.246 OA
BRANCH  35  37
ATOM     37  C   UNL     1      -5.234   9.764  -0.931  1.00  0.00     0.060 A 
ATOM     38  C   UNL     1      -5.859  10.932  -0.498  1.00  0.00     0.016 A 
ATOM     39  C   UNL     1      -4.504   9.682  -2.126  1.00  0.00     0.016 A 
ATOM     40  C   UNL     1      -6.020  11.933  -1.417  1.00  0.00     0.010 A 
ATOM     41  C   UNL     1      -4.670  10.682  -3.046  1.00  0.00     0.010 A 
ATOM     42  C   UNL     1      -5.528  11.723  -2.710  1.00  0.00    -0.014 A 
BRANCH  42  43
ATOM     43  C   UNL     1      -6.047  12.590  -3.734  1.00  0.00     0.031 A 
ATOM     44  C   UNL     1      -5.451  13.930  -3.755  1.00  0.00     0.074 A 
ATOM     45  C   UNL     1      -6.985  12.171  -4.601  1.00  0.00     0.049 A 
ATOM     46  N   UNL     1      -6.031  15.047  -3.475  1.00  0.00    -0.248 NA
ATOM     47  C   UNL     1      -4.004  14.016  -3.983  1.00  0.00     0.031 C 
ATOM     48  C   UNL     1      -7.427  10.798  -4.862  1.00  0.00     0.029 A 
ATOM     49  N   UNL     1      -7.629  12.898  -5.549  1.00  0.00    -0.354 N 
ATOM     50  C   UNL     1      -5.065  16.013  -3.710  1.00  0.00     0.074 A 
ATOM     51  C   UNL     1      -3.805  15.325  -3.847  1.00  0.00     0.031 C 
ATOM     52  C   UNL     1      -8.047  10.767  -6.062  1.00  0.00     0.029 A 
ATOM     53  C   UNL     1      -8.145  12.123  -6.575  1.00  0.00     0.049 A 
ATOM     54  H   UNL     1      -7.721  13.878  -5.511  1.00  0.00     0.167 HD
ATOM     55  C   UNL     1      -5.399  17.291  -4.022  1.00  0.00     0.034 A 
ATOM     56  C   UNL     1      -8.502  12.576  -7.799  1.00  0.00     0.034 A 
ATOM     57  C   UNL     1      -6.762  17.608  -3.700  1.00  0.00     0.049 A 
ATOM     58  C   UNL     1      -8.720  14.041  -7.690  1.00  0.00     0.074 A 
ATOM     59  C   UNL     1      -7.519  17.565  -2.545  1.00  0.00     0.029 A 
ATOM     60  N   UNL     1      -7.659  17.698  -4.736  1.00  0.00    -0.354 N 
ATOM     61  N   UNL     1      -9.701  14.586  -7.024  1.00  0.00    -0.248 NA
ATOM     62  C   UNL     1      -7.606  14.928  -7.991  1.00  0.00     0.031 C 
ATOM     63  C   UNL     1      -8.819  17.164  -2.969  1.00  0.00     0.029 A 
ATOM     64  C   UNL     1      -8.782  17.009  -4.356  1.00  0.00     0.049 A 
ATOM     65  H   UNL     1      -7.522  18.169  -5.590  1.00  0.00     0.167 HD
ATOM     66  C   UNL     1      -9.150  15.729  -6.455  1.00  0.00     0.074 A 
ATOM     67  C   UNL     1      -7.905  15.950  -7.184  1.00  0.00     0.031 C 
ATOM     68  C   UNL     1      -9.598  16.220  -5.258  1.00  0.00     0.034 A 
BRANCH  55  69
ATOM     69  C   UNL     1      -4.551  18.148  -4.910  1.00  0.00     0.023 A 
ATOM     70  C   UNL     1      -4.738  19.541  -4.872  1.00  0.00     0.012 A 
ATOM     71  C   UNL     1      -3.725  17.625  -5.931  1.00  0.00     0.148 A 
ATOM     72  C   UNL     1      -4.115  20.377  -5.804  1.00  0.00     0.002 A 
ATOM     73  C   UNL     1      -3.028  18.465  -6.784  1.00  0.00     0.091 A 
ATOM     74  F   UNL     1      -3.705  16.307  -6.168  1.00  0.00    -0.205 F 
ATOM     75  C   UNL     1      -3.238  19.843  -6.744  1.00  0.00     0.022 A 
BRANCH  73  76
ATOM     76  S   UNL     1      -1.807  17.796  -7.916  1.00  0.00     0.127 S 
ATOM     77  O   UNL     1      -2.590  17.629  -9.135  1.00  0.00    -0.237 OA
ATOM     78  O   UNL     1      -0.808  18.865  -7.961  1.00  0.00    -0.237 OA
ATOM     79  O   UNL     1      -1.338  16.577  -7.267  1.00  0.00    -0.744 OA
ENDBRANCH  73  76
ENDBRANCH  55  69
BRANCH  56  80
ATOM     80  C   UNL     1      -8.415  11.871  -9.098  1.00  0.00     0.023 A 
ATOM     81  C   UNL     1      -9.166  12.342 -10.191  1.00  0.00     0.012 A 
ATOM     82  C   UNL     1      -7.431  10.885  -9.343  1.00  0.00     0.148 A 
ATOM     83  C   UNL     1      -8.935  11.860 -11.485  1.00  0.00     0.002 A 
ATOM     84  C   UNL     1      -7.224  10.388 -10.626  1.00  0.00     0.091 A 
ATOM     85  F   UNL     1      -6.627  10.500  -8.343  1.00  0.00    -0.205 F 
ATOM     86  C   UNL     1      -7.966  10.883 -11.703  1.00  0.00     0.022 A 
BRANCH  84  87
ATOM     87  S   UNL     1      -6.000   9.113 -10.958  1.00  0.00     0.127 S 
ATOM     88  O   UNL     1      -6.689   8.271 -11.938  1.00  0.00    -0.237 OA
ATOM     89  O   UNL     1      -4.887   9.890 -11.493  1.00  0.00    -0.237 OA
ATOM     90  O   UNL     1      -5.768   8.457  -9.676  1.00  0.00    -0.744 OA
ENDBRANCH  84  87
ENDBRANCH  56  80
BRANCH  68  91
ATOM     91  C   UNL     1     -10.870  15.648  -4.671  1.00  0.00     0.023 A 
ATOM     92  C   UNL     1     -10.989  14.275  -4.367  1.00  0.00     0.012 A 
ATOM     93  C   UNL     1     -11.881  16.523  -4.232  1.00  0.00     0.148 A 
ATOM     94  C   UNL     1     -12.096  13.782  -3.672  1.00  0.00     0.002 A 
ATOM     95  C   UNL     1     -12.959  16.036  -3.497  1.00  0.00     0.091 A 
ATOM     96  F   UNL     1     -11.760  17.830  -4.514  1.00  0.00    -0.205 F 
ATOM     97  C   UNL     1     -13.075  14.665  -3.225  1.00  0.00     0.022 A 
BRANCH  95  98
ATOM     98  S   UNL     1     -14.174  17.140  -2.768  1.00  0.00     0.127 S 
ATOM     99  O   UNL     1     -15.284  17.045  -3.714  1.00  0.00    -0.237 OA
ATOM    100  O   UNL     1     -14.428  16.522  -1.465  1.00  0.00    -0.237 OA
ATOM    101  O   UNL     1     -13.524  18.443  -2.685  1.00  0.00    -0.744 OA
ENDBRANCH  95  98
ENDBRANCH  68  91
ENDBRANCH  42  43
ENDBRANCH  35  37
ENDBRANCH  34  35
ENDBRANCH  33  34
ENDBRANCH  32  33
ENDBRANCH  31  32
ENDBRANCH  30  31
ENDBRANCH   1  30
TORSDOF 25
