REMARK SMILES CC1=C(C)C[C@@H](C(=O)OCCOCCOCCOCCOC(=O)c2ccc(-c3c4nc(c(-c5cccc(S(=O)(=O)[O-])c5F)c5ccc([nH]5)c(-c5cccc(S(=O)(=O)[O-])c5F)c5nc(c(-c6cccc(S(=O)(=O)[O-])c6F)c6ccc3[nH]6)C=C5)C=C4)cc2)[C@@H](C(=O)NCC[NH+]2CCOCC2)C1
REMARK SMILES IDX 14 1 13 2 12 3 11 4 10 5 9 6 7 7 8 8 6 9 1 10 2 11 3 12
REMARK SMILES IDX 99 13 4 14 5 15 87 16 88 17 89 18 90 19 91 21 92 22 93 23
REMARK SMILES IDX 94 24 98 25 95 27 97 28 96 29 15 30 16 31 17 32 18 33 19 34
REMARK SMILES IDX 20 35 21 36 22 37 23 38 24 39 25 40 86 41 26 42 85 43 27 44
REMARK SMILES IDX 28 45 29 46 79 47 30 48 84 49 78 50 80 51 31 52 83 53 77 54
REMARK SMILES IDX 76 55 32 57 64 58 44 59 63 60 45 61 48 62 62 63 81 64 46 65
REMARK SMILES IDX 47 66 61 68 82 69 49 70 33 71 34 72 42 73 35 74 37 75 43 76
REMARK SMILES IDX 36 77 38 78 39 79 40 80 41 81 65 82 66 83 74 84 67 85 69 86
REMARK SMILES IDX 75 87 68 88 70 89 71 90 72 91 73 92 50 93 51 94 59 95 52 96
REMARK SMILES IDX 54 97 60 98 53 99 55 100 56 101 57 102 58 103
REMARK H PARENT 90 20 93 26 80 56 48 67
REMARK Flexibility Score: inf
ROOT
ATOM      1  C   UNL     1      -2.859  -5.969   2.666  1.00  0.00     0.188 C 
ENDROOT
BRANCH   1   2
ATOM      2  C   UNL     1      -1.626  -6.822   2.361  1.00  0.00     0.188 C 
BRANCH   2   3
ATOM      3  O   UNL     1      -0.790  -7.165   3.463  1.00  0.00    -0.376 OA
BRANCH   3   4
ATOM      4  C   UNL     1      -0.374  -6.122   4.345  1.00  0.00     0.202 C 
BRANCH   4   5
ATOM      5  C   UNL     1       0.586  -5.037   3.816  1.00  0.00     0.261 C 
BRANCH   5   6
ATOM      6  O   UNL     1       0.094  -4.242   2.711  1.00  0.00    -0.463 OA
BRANCH   6   7
ATOM      7  C   UNL     1       0.604  -4.552   1.510  1.00  0.00     0.310 C 
ATOM      8  O   UNL     1       1.416  -5.471   1.357  1.00  0.00    -0.252 OA
BRANCH   7   9
ATOM      9  C   UNL     1       0.068  -3.826   0.271  1.00  0.00     0.116 C 
ATOM     10  C   UNL     1       1.274   0.381  -0.008  1.00  0.00     0.039 C 
ATOM     11  C   UNL     1       0.940  -1.072  -0.214  1.00  0.00    -0.074 C 
ATOM     12  C   UNL     1       1.828  -2.081  -0.300  1.00  0.00    -0.073 C 
ATOM     13  C   UNL     1      -0.534  -1.359  -0.381  1.00  0.00     0.045 C 
ATOM     14  C   UNL     1       3.324  -1.969  -0.189  1.00  0.00     0.039 C 
ATOM     15  C   UNL     1       1.311  -3.469  -0.576  1.00  0.00     0.046 C 
ATOM     16  C   UNL     1      -1.036  -2.735   0.137  1.00  0.00     0.097 C 
BRANCH  16  17
ATOM     17  C   UNL     1      -1.992  -2.428   1.283  1.00  0.00     0.224 C 
ATOM     18  O   UNL     1      -1.579  -2.049   2.380  1.00  0.00    -0.275 OA
ATOM     19  N   UNL     1      -3.356  -2.407   1.059  1.00  0.00    -0.350 N 
ATOM     20  H   UNL     1      -3.900  -2.468   1.878  1.00  0.00     0.163 HD
BRANCH  19  21
ATOM     21  C   UNL     1      -4.140  -2.311  -0.177  1.00  0.00     0.177 C 
BRANCH  21  22
ATOM     22  C   UNL     1      -5.138  -3.479  -0.460  1.00  0.00     0.283 C 
BRANCH  22  23
ATOM     23  N   UNL     1      -6.343  -3.567   0.386  1.00  0.00    -0.330 N 
ATOM     24  C   UNL     1      -7.045  -4.869   0.270  1.00  0.00     0.291 C 
ATOM     25  C   UNL     1      -7.339  -2.485   0.208  1.00  0.00     0.291 C 
ATOM     26  H   UNL     1      -5.946  -3.462   1.320  1.00  0.00     0.348 HD
ATOM     27  C   UNL     1      -8.013  -4.996  -0.912  1.00  0.00     0.221 C 
ATOM     28  C   UNL     1      -8.318  -2.665  -0.961  1.00  0.00     0.221 C 
ATOM     29  O   UNL     1      -8.974  -3.936  -0.906  1.00  0.00    -0.370 OA
ENDBRANCH  22  23
ENDBRANCH  21  22
ENDBRANCH  19  21
ENDBRANCH  16  17
ENDBRANCH   7   9
ENDBRANCH   6   7
ENDBRANCH   5   6
ENDBRANCH   4   5
ENDBRANCH   3   4
ENDBRANCH   2   3
ENDBRANCH   1   2
BRANCH   1  30
ATOM     30  O   UNL     1      -2.476  -4.667   3.055  1.00  0.00    -0.377 OA
BRANCH  30  31
ATOM     31  C   UNL     1      -3.033  -4.019   4.199  1.00  0.00     0.188 C 
BRANCH  31  32
ATOM     32  C   UNL     1      -4.015  -4.792   5.077  1.00  0.00     0.188 C 
BRANCH  32  33
ATOM     33  O   UNL     1      -5.258  -5.197   4.500  1.00  0.00    -0.376 OA
BRANCH  33  34
ATOM     34  C   UNL     1      -5.715  -4.511   3.343  1.00  0.00     0.202 C 
BRANCH  34  35
ATOM     35  C   UNL     1      -6.491  -3.224   3.579  1.00  0.00     0.261 C 
BRANCH  35  36
ATOM     36  O   UNL     1      -5.762  -2.285   4.346  1.00  0.00    -0.460 OA
BRANCH  36  37
ATOM     37  C   UNL     1      -6.123  -2.276   5.635  1.00  0.00     0.338 C 
ATOM     38  O   UNL     1      -6.976  -2.959   6.194  1.00  0.00    -0.246 OA
BRANCH  37  39
ATOM     39  C   UNL     1      -5.226  -1.368   6.323  1.00  0.00     0.060 A 
ATOM     40  C   UNL     1      -4.647  -1.840   7.499  1.00  0.00     0.016 A 
ATOM     41  C   UNL     1      -5.049  -0.056   5.866  1.00  0.00     0.016 A 
ATOM     42  C   UNL     1      -3.984  -0.948   8.307  1.00  0.00     0.010 A 
ATOM     43  C   UNL     1      -4.378   0.841   6.679  1.00  0.00     0.010 A 
ATOM     44  C   UNL     1      -3.932   0.402   7.932  1.00  0.00    -0.014 A 
BRANCH  44  45
ATOM     45  C   UNL     1      -3.653   1.360   9.004  1.00  0.00     0.031 A 
ATOM     46  C   UNL     1      -4.822   2.005   9.689  1.00  0.00     0.074 A 
ATOM     47  C   UNL     1      -2.389   1.498   9.422  1.00  0.00     0.049 A 
ATOM     48  N   UNL     1      -4.837   2.756  10.754  1.00  0.00    -0.248 NA
ATOM     49  C   UNL     1      -6.157   1.763   9.107  1.00  0.00     0.031 C 
ATOM     50  C   UNL     1      -1.225   0.864   8.801  1.00  0.00     0.029 A 
ATOM     51  N   UNL     1      -1.881   2.195  10.476  1.00  0.00    -0.354 N 
ATOM     52  C   UNL     1      -6.170   3.096  10.954  1.00  0.00     0.074 A 
ATOM     53  C   UNL     1      -6.937   2.487   9.894  1.00  0.00     0.031 C 
ATOM     54  C   UNL     1      -0.128   1.202   9.495  1.00  0.00     0.029 A 
ATOM     55  C   UNL     1      -0.518   2.091  10.584  1.00  0.00     0.049 A 
ATOM     56  H   UNL     1      -2.435   2.720  11.097  1.00  0.00     0.167 HD
ATOM     57  C   UNL     1      -6.699   3.841  11.950  1.00  0.00     0.034 A 
ATOM     58  C   UNL     1       0.309   2.669  11.471  1.00  0.00     0.034 A 
ATOM     59  C   UNL     1      -5.900   4.415  12.996  1.00  0.00     0.049 A 
ATOM     60  C   UNL     1      -0.307   3.497  12.562  1.00  0.00     0.074 A 
ATOM     61  C   UNL     1      -6.306   5.174  14.076  1.00  0.00     0.029 A 
ATOM     62  N   UNL     1      -4.519   4.295  13.081  1.00  0.00    -0.354 N 
ATOM     63  N   UNL     1      -1.575   3.750  12.791  1.00  0.00    -0.248 NA
ATOM     64  C   UNL     1       0.614   4.085  13.539  1.00  0.00     0.031 C 
ATOM     65  C   UNL     1      -5.163   5.544  14.794  1.00  0.00     0.029 A 
ATOM     66  C   UNL     1      -4.050   4.978  14.187  1.00  0.00     0.049 A 
ATOM     67  H   UNL     1      -3.956   3.796  12.446  1.00  0.00     0.167 HD
ATOM     68  C   UNL     1      -1.610   4.506  13.954  1.00  0.00     0.074 A 
ATOM     69  C   UNL     1      -0.233   4.638  14.396  1.00  0.00     0.031 C 
ATOM     70  C   UNL     1      -2.670   5.058  14.597  1.00  0.00     0.034 A 
BRANCH  57  71
ATOM     71  C   UNL     1      -8.187   4.075  11.939  1.00  0.00     0.023 A 
ATOM     72  C   UNL     1      -9.076   3.018  12.221  1.00  0.00     0.012 A 
ATOM     73  C   UNL     1      -8.706   5.356  11.666  1.00  0.00     0.148 A 
ATOM     74  C   UNL     1     -10.457   3.224  12.202  1.00  0.00     0.002 A 
ATOM     75  C   UNL     1     -10.080   5.565  11.695  1.00  0.00     0.091 A 
ATOM     76  F   UNL     1      -7.848   6.342  11.367  1.00  0.00    -0.205 F 
ATOM     77  C   UNL     1     -10.957   4.498  11.950  1.00  0.00     0.022 A 
BRANCH  75  78
ATOM     78  S   UNL     1     -10.820   7.183  11.453  1.00  0.00     0.127 S 
ATOM     79  O   UNL     1     -11.515   7.004  10.179  1.00  0.00    -0.237 OA
ATOM     80  O   UNL     1     -11.700   7.293  12.617  1.00  0.00    -0.237 OA
ATOM     81  O   UNL     1      -9.716   8.133  11.431  1.00  0.00    -0.744 OA
ENDBRANCH  75  78
ENDBRANCH  57  71
BRANCH  58  82
ATOM     82  C   UNL     1       1.775   2.449  11.363  1.00  0.00     0.023 A 
ATOM     83  C   UNL     1       2.452   1.702  12.343  1.00  0.00     0.012 A 
ATOM     84  C   UNL     1       2.492   2.940  10.253  1.00  0.00     0.148 A 
ATOM     85  C   UNL     1       3.825   1.472  12.236  1.00  0.00     0.002 A 
ATOM     86  C   UNL     1       3.846   2.659  10.123  1.00  0.00     0.091 A 
ATOM     87  F   UNL     1       1.829   3.657   9.335  1.00  0.00    -0.205 F 
ATOM     88  C   UNL     1       4.518   1.940  11.122  1.00  0.00     0.022 A 
BRANCH  86  89
ATOM     89  S   UNL     1       4.782   3.109   8.658  1.00  0.00     0.127 S 
ATOM     90  O   UNL     1       5.640   4.175   9.168  1.00  0.00    -0.237 OA
ATOM     91  O   UNL     1       5.472   1.857   8.345  1.00  0.00    -0.237 OA
ATOM     92  O   UNL     1       3.793   3.513   7.667  1.00  0.00    -0.744 OA
ENDBRANCH  86  89
ENDBRANCH  58  82
BRANCH  70  93
ATOM     93  C   UNL     1      -2.369   5.828  15.853  1.00  0.00     0.023 A 
ATOM     94  C   UNL     1      -1.707   7.069  15.775  1.00  0.00     0.012 A 
ATOM     95  C   UNL     1      -2.778   5.335  17.107  1.00  0.00     0.148 A 
ATOM     96  C   UNL     1      -1.406   7.782  16.933  1.00  0.00     0.002 A 
ATOM     97  C   UNL     1      -2.528   6.080  18.250  1.00  0.00     0.091 A 
ATOM     98  F   UNL     1      -3.393   4.144  17.159  1.00  0.00    -0.205 F 
ATOM     99  C   UNL     1      -1.825   7.293  18.168  1.00  0.00     0.022 A 
BRANCH  97 100
ATOM    100  S   UNL     1      -3.127   5.579  19.866  1.00  0.00     0.127 S 
ATOM    101  O   UNL     1      -1.900   5.108  20.506  1.00  0.00    -0.237 OA
ATOM    102  O   UNL     1      -3.655   6.833  20.404  1.00  0.00    -0.237 OA
ATOM    103  O   UNL     1      -4.138   4.559  19.619  1.00  0.00    -0.744 OA
ENDBRANCH  97 100
ENDBRANCH  70  93
ENDBRANCH  44  45
ENDBRANCH  37  39
ENDBRANCH  36  37
ENDBRANCH  35  36
ENDBRANCH  34  35
ENDBRANCH  33  34
ENDBRANCH  32  33
ENDBRANCH  31  32
ENDBRANCH  30  31
ENDBRANCH   1  30
TORSDOF 27
