REMARK SMILES CCN1CC(=O)N(C[C@@H]([NH3+])C(=O)OCCOCCOCCOCCOC(=O)c2ccc(-c3c4nc(c(-c5cccc(S(=O)(=O)[O-])c5F)c5ccc([nH]5)c(-c5cccc(S(=O)(=O)[O-])c5F)c5nc(c(-c6cccc(S(=O)(=O)[O-])c6F)c6ccc3[nH]6)C=C5)C=C4)cc2)CC1=O
REMARK SMILES IDX 19 1 18 2 17 3 16 4 15 5 14 6 13 7 11 8 12 9 9 10 8 11 7 12
REMARK SMILES IDX 3 13 4 14 92 15 5 16 91 17 93 18 6 19 2 20 1 21 10 22 20 26
REMARK SMILES IDX 21 27 22 28 23 29 24 30 25 31 26 32 27 33 28 34 29 35 90 36
REMARK SMILES IDX 30 37 89 38 31 39 32 40 33 41 83 42 34 43 88 44 82 45 84 46
REMARK SMILES IDX 35 47 87 48 81 49 80 50 36 52 68 53 48 54 67 55 49 56 52 57
REMARK SMILES IDX 66 58 85 59 50 60 51 61 65 63 86 64 53 65 37 66 38 67 46 68
REMARK SMILES IDX 39 69 41 70 47 71 40 72 42 73 43 74 44 75 45 76 69 77 70 78
REMARK SMILES IDX 78 79 71 80 73 81 79 82 72 83 74 84 75 85 76 86 77 87 54 88
REMARK SMILES IDX 55 89 63 90 56 91 58 92 64 93 57 94 59 95 60 96 61 97 62 98
REMARK H PARENT 10 23 10 24 10 25 84 51 52 62
REMARK Flexibility Score: inf
ROOT
ATOM      1  O   UNL     1      -1.564  -3.882   7.872  1.00  0.00    -0.377 OA
ENDROOT
BRANCH   1   2
ATOM      2  C   UNL     1      -0.424  -4.699   7.706  1.00  0.00     0.188 C 
BRANCH   2   3
ATOM      3  C   UNL     1       0.456  -4.822   8.959  1.00  0.00     0.188 C 
BRANCH   3   4
ATOM      4  O   UNL     1      -0.080  -4.624  10.258  1.00  0.00    -0.376 OA
BRANCH   4   5
ATOM      5  C   UNL     1      -0.804  -3.449  10.601  1.00  0.00     0.202 C 
BRANCH   5   6
ATOM      6  C   UNL     1      -0.426  -2.043  10.105  1.00  0.00     0.261 C 
BRANCH   6   7
ATOM      7  O   UNL     1      -0.119  -1.930   8.708  1.00  0.00    -0.459 OA
BRANCH   7   8
ATOM      8  C   UNL     1       1.168  -1.662   8.412  1.00  0.00     0.366 C 
ATOM      9  O   UNL     1       2.053  -1.491   9.252  1.00  0.00    -0.245 OA
BRANCH   8  10
ATOM     10  C   UNL     1       1.514  -1.683   6.910  1.00  0.00     0.311 C 
BRANCH  10  11
ATOM     11  C   UNL     1       0.346  -1.627   5.901  1.00  0.00     0.197 C 
BRANCH  11  12
ATOM     12  N   UNL     1       0.794  -1.620   4.494  1.00  0.00    -0.325 N 
ATOM     13  N   UNL     1       0.905  -1.311   1.729  1.00  0.00    -0.332 N 
ATOM     14  C   UNL     1       1.442  -2.551   2.306  1.00  0.00     0.219 C 
ATOM     15  C   UNL     1       0.829  -0.165   2.521  1.00  0.00     0.242 C 
ATOM     16  C   UNL     1       0.995  -2.788   3.766  1.00  0.00     0.242 C 
ATOM     17  C   UNL     1       1.308  -0.370   3.949  1.00  0.00     0.220 C 
ATOM     18  O   UNL     1       0.554   0.951   2.092  1.00  0.00    -0.273 OA
ATOM     19  O   UNL     1       0.965  -3.911   4.266  1.00  0.00    -0.273 OA
BRANCH  13  20
ATOM     20  C   UNL     1       0.521  -1.279   0.319  1.00  0.00     0.116 C 
ATOM     21  C   UNL     1       1.163  -0.161  -0.496  1.00  0.00     0.027 C 
ENDBRANCH  13  20
ENDBRANCH  11  12
ENDBRANCH  10  11
BRANCH  10  22
ATOM     22  N   UNL     1       2.500  -0.583   6.683  1.00  0.00    -0.344 N 
ATOM     23  H   UNL     1       2.064   0.314   6.898  1.00  0.00     0.345 HD
ATOM     24  H   UNL     1       2.799  -0.590   5.708  1.00  0.00     0.345 HD
ATOM     25  H   UNL     1       3.309  -0.721   7.288  1.00  0.00     0.345 HD
ENDBRANCH  10  22
ENDBRANCH   8  10
ENDBRANCH   7   8
ENDBRANCH   6   7
ENDBRANCH   5   6
ENDBRANCH   4   5
ENDBRANCH   3   4
ENDBRANCH   2   3
ENDBRANCH   1   2
BRANCH   1  26
ATOM     26  C   UNL     1      -2.803  -4.505   8.188  1.00  0.00     0.188 C 
BRANCH  26  27
ATOM     27  C   UNL     1      -2.796  -5.846   8.951  1.00  0.00     0.188 C 
BRANCH  27  28
ATOM     28  O   UNL     1      -1.934  -6.832   8.402  1.00  0.00    -0.376 OA
BRANCH  28  29
ATOM     29  C   UNL     1      -2.474  -7.760   7.471  1.00  0.00     0.202 C 
BRANCH  29  30
ATOM     30  C   UNL     1      -3.070  -7.211   6.164  1.00  0.00     0.261 C 
BRANCH  30  31
ATOM     31  O   UNL     1      -4.213  -6.346   6.287  1.00  0.00    -0.460 OA
BRANCH  31  32
ATOM     32  C   UNL     1      -5.280  -6.784   6.989  1.00  0.00     0.338 C 
ATOM     33  O   UNL     1      -5.437  -7.885   7.474  1.00  0.00    -0.246 OA
BRANCH  32  34
ATOM     34  C   UNL     1      -6.152  -5.617   7.254  1.00  0.00     0.060 A 
ATOM     35  C   UNL     1      -6.439  -5.279   8.583  1.00  0.00     0.016 A 
ATOM     36  C   UNL     1      -6.692  -4.874   6.203  1.00  0.00     0.016 A 
ATOM     37  C   UNL     1      -7.308  -4.224   8.864  1.00  0.00     0.010 A 
ATOM     38  C   UNL     1      -7.580  -3.831   6.486  1.00  0.00     0.010 A 
ATOM     39  C   UNL     1      -7.923  -3.529   7.816  1.00  0.00    -0.014 A 
BRANCH  39  40
ATOM     40  C   UNL     1      -9.067  -2.629   8.105  1.00  0.00     0.031 A 
ATOM     41  C   UNL     1     -10.461  -3.155   7.891  1.00  0.00     0.074 A 
ATOM     42  C   UNL     1      -8.880  -1.374   8.550  1.00  0.00     0.049 A 
ATOM     43  N   UNL     1     -11.609  -2.546   8.032  1.00  0.00    -0.248 NA
ATOM     44  C   UNL     1     -10.575  -4.558   7.456  1.00  0.00     0.031 C 
ATOM     45  C   UNL     1      -7.583  -0.753   8.809  1.00  0.00     0.029 A 
ATOM     46  N   UNL     1      -9.791  -0.387   8.836  1.00  0.00    -0.354 N 
ATOM     47  C   UNL     1     -12.577  -3.474   7.668  1.00  0.00     0.074 A 
ATOM     48  C   UNL     1     -11.883  -4.687   7.295  1.00  0.00     0.031 C 
ATOM     49  C   UNL     1      -7.779   0.524   9.181  1.00  0.00     0.029 A 
ATOM     50  C   UNL     1      -9.212   0.818   9.158  1.00  0.00     0.049 A 
ATOM     51  H   UNL     1     -10.765  -0.528   8.812  1.00  0.00     0.167 HD
ATOM     52  C   UNL     1     -13.923  -3.334   7.652  1.00  0.00     0.034 A 
ATOM     53  C   UNL     1      -9.772   2.025   9.376  1.00  0.00     0.034 A 
ATOM     54  C   UNL     1     -14.612  -2.132   8.036  1.00  0.00     0.049 A 
ATOM     55  C   UNL     1     -11.273   2.163   9.323  1.00  0.00     0.074 A 
ATOM     56  C   UNL     1     -15.976  -1.910   8.106  1.00  0.00     0.029 A 
ATOM     57  N   UNL     1     -13.994  -0.945   8.393  1.00  0.00    -0.354 N 
ATOM     58  N   UNL     1     -12.181   1.246   9.090  1.00  0.00    -0.248 NA
ATOM     59  C   UNL     1     -11.829   3.498   9.593  1.00  0.00     0.031 C 
ATOM     60  C   UNL     1     -16.182  -0.574   8.461  1.00  0.00     0.029 A 
ATOM     61  C   UNL     1     -14.947   0.021   8.664  1.00  0.00     0.049 A 
ATOM     62  H   UNL     1     -13.020  -0.809   8.446  1.00  0.00     0.167 HD
ATOM     63  C   UNL     1     -13.412   1.881   9.226  1.00  0.00     0.074 A 
ATOM     64  C   UNL     1     -13.133   3.258   9.579  1.00  0.00     0.031 C 
ATOM     65  C   UNL     1     -14.659   1.375   9.064  1.00  0.00     0.034 A 
BRANCH  52  66
ATOM     66  C   UNL     1     -14.746  -4.512   7.201  1.00  0.00     0.023 A 
ATOM     67  C   UNL     1     -14.861  -5.650   8.026  1.00  0.00     0.012 A 
ATOM     68  C   UNL     1     -15.454  -4.466   5.984  1.00  0.00     0.148 A 
ATOM     69  C   UNL     1     -15.641  -6.736   7.630  1.00  0.00     0.002 A 
ATOM     70  C   UNL     1     -16.268  -5.530   5.620  1.00  0.00     0.091 A 
ATOM     71  F   UNL     1     -15.313  -3.384   5.205  1.00  0.00    -0.205 F 
ATOM     72  C   UNL     1     -16.353  -6.671   6.435  1.00  0.00     0.022 A 
BRANCH  70  73
ATOM     73  S   UNL     1     -17.288  -5.509   4.143  1.00  0.00     0.127 S 
ATOM     74  O   UNL     1     -16.640  -6.532   3.322  1.00  0.00    -0.237 OA
ATOM     75  O   UNL     1     -18.598  -5.891   4.670  1.00  0.00    -0.237 OA
ATOM     76  O   UNL     1     -17.213  -4.152   3.620  1.00  0.00    -0.744 OA
ENDBRANCH  70  73
ENDBRANCH  52  66
BRANCH  53  77
ATOM     77  C   UNL     1      -8.913   3.206   9.671  1.00  0.00     0.023 A 
ATOM     78  C   UNL     1      -8.956   3.805  10.945  1.00  0.00     0.012 A 
ATOM     79  C   UNL     1      -8.055   3.741   8.690  1.00  0.00     0.148 A 
ATOM     80  C   UNL     1      -8.188   4.936  11.226  1.00  0.00     0.002 A 
ATOM     81  C   UNL     1      -7.249   4.831   8.995  1.00  0.00     0.091 A 
ATOM     82  F   UNL     1      -8.042   3.168   7.479  1.00  0.00    -0.205 F 
ATOM     83  C   UNL     1      -7.328   5.443  10.255  1.00  0.00     0.022 A 
BRANCH  81  84
ATOM     84  S   UNL     1      -6.021   5.471   7.851  1.00  0.00     0.127 S 
ATOM     85  O   UNL     1      -6.575   6.782   7.522  1.00  0.00    -0.237 OA
ATOM     86  O   UNL     1      -4.822   5.500   8.688  1.00  0.00    -0.237 OA
ATOM     87  O   UNL     1      -5.968   4.515   6.754  1.00  0.00    -0.744 OA
ENDBRANCH  81  84
ENDBRANCH  53  77
BRANCH  65  88
ATOM     88  C   UNL     1     -15.831   2.289   9.317  1.00  0.00     0.023 A 
ATOM     89  C   UNL     1     -16.127   3.332   8.417  1.00  0.00     0.012 A 
ATOM     90  C   UNL     1     -16.687   2.063  10.415  1.00  0.00     0.148 A 
ATOM     91  C   UNL     1     -17.232   4.156   8.625  1.00  0.00     0.002 A 
ATOM     92  C   UNL     1     -17.817   2.853  10.585  1.00  0.00     0.091 A 
ATOM     93  F   UNL     1     -16.381   1.075  11.269  1.00  0.00    -0.205 F 
ATOM     94  C   UNL     1     -18.083   3.909   9.700  1.00  0.00     0.022 A 
BRANCH  92  95
ATOM     95  S   UNL     1     -19.022   2.546  11.881  1.00  0.00     0.127 S 
ATOM     96  O   UNL     1     -18.810   3.693  12.762  1.00  0.00    -0.237 OA
ATOM     97  O   UNL     1     -20.284   2.570  11.141  1.00  0.00    -0.237 OA
ATOM     98  O   UNL     1     -18.680   1.250  12.452  1.00  0.00    -0.744 OA
ENDBRANCH  92  95
ENDBRANCH  65  88
ENDBRANCH  39  40
ENDBRANCH  32  34
ENDBRANCH  31  32
ENDBRANCH  30  31
ENDBRANCH  29  30
ENDBRANCH  28  29
ENDBRANCH  27  28
ENDBRANCH  26  27
ENDBRANCH   1  26
TORSDOF 27
