REMARK SMILES CC(C)[NH2+][C@@]1(C(=O)OCCOCCOCCOCCOC(=O)c2ccc(-c3c4nc(c(-c5cccc(S(=O)(=O)[O-])c5F)c5ccc([nH]5)c(-c5cccc(S(=O)(=O)[O-])c5F)c5nc(c(-c6cccc(S(=O)(=O)[O-])c6F)c6ccc3[nH]6)C=C5)C=C4)cc2)CCC[C@@H]([NH+]2CCS(=O)CC2)C1
REMARK SMILES IDX 15 1 14 2 13 3 12 4 11 5 10 6 9 7 8 8 6 9 7 10 5 11 86 12
REMARK SMILES IDX 97 13 87 14 89 15 88 16 4 17 2 20 1 21 3 22 90 23 91 24
REMARK SMILES IDX 96 25 92 27 95 28 93 29 94 30 16 31 17 32 18 33 19 34 20 35
REMARK SMILES IDX 21 36 22 37 23 38 24 39 85 40 25 41 84 42 26 43 27 44 28 45
REMARK SMILES IDX 78 46 29 47 83 48 77 49 79 50 30 51 82 52 76 53 75 54 31 56
REMARK SMILES IDX 63 57 43 58 62 59 44 60 47 61 61 62 80 63 45 64 46 65 60 67
REMARK SMILES IDX 81 68 48 69 32 70 33 71 41 72 34 73 36 74 42 75 35 76 37 77
REMARK SMILES IDX 38 78 39 79 40 80 64 81 65 82 73 83 66 84 68 85 74 86 67 87
REMARK SMILES IDX 69 88 70 89 71 90 72 91 49 92 50 93 58 94 51 95 53 96 59 97
REMARK SMILES IDX 52 98 54 99 55 100 56 101 57 102
REMARK H PARENT 4 18 4 19 90 26 79 55 47 66
REMARK Flexibility Score: inf
ROOT
ATOM      1  C   UNL     1      -4.796   2.582   4.216  1.00  0.00     0.188 C 
ENDROOT
BRANCH   1   2
ATOM      2  O   UNL     1      -3.528   2.653   3.595  1.00  0.00    -0.377 OA
BRANCH   2   3
ATOM      3  C   UNL     1      -3.300   1.897   2.422  1.00  0.00     0.188 C 
BRANCH   3   4
ATOM      4  C   UNL     1      -4.361   1.275   1.500  1.00  0.00     0.188 C 
BRANCH   4   5
ATOM      5  O   UNL     1      -5.603   0.890   2.030  1.00  0.00    -0.376 OA
BRANCH   5   6
ATOM      6  C   UNL     1      -5.852  -0.237   2.841  1.00  0.00     0.202 C 
BRANCH   6   7
ATOM      7  C   UNL     1      -4.818  -1.196   3.451  1.00  0.00     0.261 C 
BRANCH   7   8
ATOM      8  O   UNL     1      -3.458  -0.767   3.572  1.00  0.00    -0.459 OA
BRANCH   8   9
ATOM      9  C   UNL     1      -2.623  -1.305   2.643  1.00  0.00     0.368 C 
ATOM     10  O   UNL     1      -3.035  -1.988   1.704  1.00  0.00    -0.245 OA
BRANCH   9  11
ATOM     11  C   UNL     1      -1.077  -0.999   2.853  1.00  0.00     0.200 C 
ATOM     12  C   UNL     1      -0.557  -2.265   3.561  1.00  0.00     0.081 C 
ATOM     13  C   UNL     1      -0.585   0.205   3.688  1.00  0.00     0.146 C 
ATOM     14  C   UNL     1      -1.044  -2.303   5.026  1.00  0.00     0.013 C 
ATOM     15  C   UNL     1      -0.961   0.282   5.166  1.00  0.00     0.191 C 
ATOM     16  C   UNL     1      -0.628  -1.070   5.842  1.00  0.00     0.065 C 
BRANCH  11  17
ATOM     17  N   UNL     1      -0.615  -0.774   1.450  1.00  0.00    -0.330 N 
ATOM     18  H   UNL     1      -1.073  -1.500   0.898  1.00  0.00     0.347 HD
ATOM     19  H   UNL     1      -0.837   0.216   1.351  1.00  0.00     0.347 HD
BRANCH  17  20
ATOM     20  C   UNL     1       0.766  -0.766   0.996  1.00  0.00     0.176 C 
ATOM     21  C   UNL     1       0.696  -0.617  -0.535  1.00  0.00     0.075 C 
ATOM     22  C   UNL     1       1.640   0.381   1.503  1.00  0.00     0.075 C 
ENDBRANCH  17  20
ENDBRANCH  11  17
BRANCH  15  23
ATOM     23  N   UNL     1      -0.314   1.405   5.894  1.00  0.00    -0.331 N 
ATOM     24  C   UNL     1       1.149   1.534   5.905  1.00  0.00     0.276 C 
ATOM     25  C   UNL     1      -0.962   2.723   5.828  1.00  0.00     0.276 C 
ATOM     26  H   UNL     1      -0.521   1.006   6.810  1.00  0.00     0.348 HD
ATOM     27  C   UNL     1       1.781   2.301   4.745  1.00  0.00     0.166 C 
ATOM     28  C   UNL     1      -0.569   3.630   4.664  1.00  0.00     0.166 C 
ATOM     29  S   UNL     1       1.202   3.999   4.585  1.00  0.00     0.032 S 
ATOM     30  O   UNL     1       1.612   4.770   5.801  1.00  0.00    -0.259 OA
ENDBRANCH  15  23
ENDBRANCH   9  11
ENDBRANCH   8   9
ENDBRANCH   7   8
ENDBRANCH   6   7
ENDBRANCH   5   6
ENDBRANCH   4   5
ENDBRANCH   3   4
ENDBRANCH   2   3
ENDBRANCH   1   2
BRANCH   1  31
ATOM     31  C   UNL     1      -5.852   3.386   3.450  1.00  0.00     0.188 C 
BRANCH  31  32
ATOM     32  O   UNL     1      -5.313   3.993   2.276  1.00  0.00    -0.376 OA
BRANCH  32  33
ATOM     33  C   UNL     1      -4.817   5.322   2.418  1.00  0.00     0.202 C 
BRANCH  33  34
ATOM     34  C   UNL     1      -3.711   5.605   3.456  1.00  0.00     0.261 C 
BRANCH  34  35
ATOM     35  O   UNL     1      -4.028   5.333   4.835  1.00  0.00    -0.460 OA
BRANCH  35  36
ATOM     36  C   UNL     1      -5.095   5.975   5.363  1.00  0.00     0.338 C 
ATOM     37  O   UNL     1      -5.787   6.811   4.821  1.00  0.00    -0.246 OA
BRANCH  36  38
ATOM     38  C   UNL     1      -5.424   5.340   6.659  1.00  0.00     0.060 A 
ATOM     39  C   UNL     1      -6.667   4.706   6.795  1.00  0.00     0.016 A 
ATOM     40  C   UNL     1      -4.538   5.396   7.736  1.00  0.00     0.016 A 
ATOM     41  C   UNL     1      -7.046   4.164   8.022  1.00  0.00     0.010 A 
ATOM     42  C   UNL     1      -4.931   4.875   8.974  1.00  0.00     0.010 A 
ATOM     43  C   UNL     1      -6.202   4.293   9.131  1.00  0.00    -0.014 A 
BRANCH  43  44
ATOM     44  C   UNL     1      -6.744   4.012  10.483  1.00  0.00     0.031 A 
ATOM     45  C   UNL     1      -7.222   5.171  11.317  1.00  0.00     0.074 A 
ATOM     46  C   UNL     1      -6.847   2.755  10.951  1.00  0.00     0.049 A 
ATOM     47  N   UNL     1      -7.723   5.175  12.524  1.00  0.00    -0.248 NA
ATOM     48  C   UNL     1      -7.121   6.507  10.704  1.00  0.00     0.031 C 
ATOM     49  C   UNL     1      -6.442   1.550  10.232  1.00  0.00     0.029 A 
ATOM     50  N   UNL     1      -7.308   2.290  12.158  1.00  0.00    -0.354 N 
ATOM     51  C   UNL     1      -7.965   6.509  12.829  1.00  0.00     0.074 A 
ATOM     52  C   UNL     1      -7.550   7.288  11.684  1.00  0.00     0.031 C 
ATOM     53  C   UNL     1      -6.645   0.482  11.024  1.00  0.00     0.029 A 
ATOM     54  C   UNL     1      -7.165   0.932  12.314  1.00  0.00     0.049 A 
ATOM     55  H   UNL     1      -7.703   2.874  12.846  1.00  0.00     0.167 HD
ATOM     56  C   UNL     1      -8.495   7.039  13.956  1.00  0.00     0.034 A 
ATOM     57  C   UNL     1      -7.401   0.148  13.386  1.00  0.00     0.034 A 
ATOM     58  C   UNL     1      -8.917   6.262  15.089  1.00  0.00     0.049 A 
ATOM     59  C   UNL     1      -7.957   0.766  14.644  1.00  0.00     0.074 A 
ATOM     60  C   UNL     1      -9.504   6.702  16.262  1.00  0.00     0.029 A 
ATOM     61  N   UNL     1      -8.780   4.887  15.201  1.00  0.00    -0.354 N 
ATOM     62  N   UNL     1      -8.277   2.016  14.879  1.00  0.00    -0.248 NA
ATOM     63  C   UNL     1      -8.215  -0.139  15.773  1.00  0.00     0.031 C 
ATOM     64  C   UNL     1      -9.682   5.597  17.101  1.00  0.00     0.029 A 
ATOM     65  C   UNL     1      -9.255   4.463  16.430  1.00  0.00     0.049 A 
ATOM     66  H   UNL     1      -8.401   4.299  14.508  1.00  0.00     0.167 HD
ATOM     67  C   UNL     1      -8.810   2.040  16.164  1.00  0.00     0.074 A 
ATOM     68  C   UNL     1      -8.786   0.675  16.650  1.00  0.00     0.031 C 
ATOM     69  C   UNL     1      -9.269   3.095  16.882  1.00  0.00     0.034 A 
BRANCH  56  70
ATOM     70  C   UNL     1      -8.649   8.536  14.021  1.00  0.00     0.023 A 
ATOM     71  C   UNL     1      -9.628   9.180  13.236  1.00  0.00     0.012 A 
ATOM     72  C   UNL     1      -7.857   9.300  14.900  1.00  0.00     0.148 A 
ATOM     73  C   UNL     1      -9.792  10.563  13.300  1.00  0.00     0.002 A 
ATOM     74  C   UNL     1      -8.060  10.671  14.995  1.00  0.00     0.091 A 
ATOM     75  F   UNL     1      -6.917   8.672  15.621  1.00  0.00    -0.205 F 
ATOM     76  C   UNL     1      -9.017  11.306  14.187  1.00  0.00     0.022 A 
BRANCH  74  77
ATOM     77  S   UNL     1      -7.172  11.703  16.166  1.00  0.00     0.127 S 
ATOM     78  O   UNL     1      -6.349  12.519  15.274  1.00  0.00    -0.237 OA
ATOM     79  O   UNL     1      -8.261  12.427  16.822  1.00  0.00    -0.237 OA
ATOM     80  O   UNL     1      -6.437  10.792  17.032  1.00  0.00    -0.744 OA
ENDBRANCH  74  77
ENDBRANCH  56  70
BRANCH  57  81
ATOM     81  C   UNL     1      -7.124  -1.316  13.317  1.00  0.00     0.023 A 
ATOM     82  C   UNL     1      -8.190  -2.235  13.365  1.00  0.00     0.012 A 
ATOM     83  C   UNL     1      -5.806  -1.800  13.201  1.00  0.00     0.148 A 
ATOM     84  C   UNL     1      -7.946  -3.609  13.333  1.00  0.00     0.002 A 
ATOM     85  C   UNL     1      -5.574  -3.166  13.109  1.00  0.00     0.091 A 
ATOM     86  F   UNL     1      -4.804  -0.909  13.173  1.00  0.00    -0.205 F 
ATOM     87  C   UNL     1      -6.640  -4.074  13.196  1.00  0.00     0.022 A 
BRANCH  85  88
ATOM     88  S   UNL     1      -3.943  -3.851  12.800  1.00  0.00     0.127 S 
ATOM     89  O   UNL     1      -3.668  -4.550  14.053  1.00  0.00    -0.237 OA
ATOM     90  O   UNL     1      -4.198  -4.721  11.651  1.00  0.00    -0.237 OA
ATOM     91  O   UNL     1      -3.083  -2.711  12.511  1.00  0.00    -0.744 OA
ENDBRANCH  85  88
ENDBRANCH  57  81
BRANCH  69  92
ATOM     92  C   UNL     1      -9.838   2.821  18.252  1.00  0.00     0.023 A 
ATOM     93  C   UNL     1      -8.987   2.452  19.313  1.00  0.00     0.012 A 
ATOM     94  C   UNL     1     -11.213   3.003  18.502  1.00  0.00     0.148 A 
ATOM     95  C   UNL     1      -9.502   2.230  20.590  1.00  0.00     0.002 A 
ATOM     96  C   UNL     1     -11.710   2.833  19.788  1.00  0.00     0.091 A 
ATOM     97  F   UNL     1     -12.010   3.340  17.477  1.00  0.00    -0.205 F 
ATOM     98  C   UNL     1     -10.859   2.432  20.830  1.00  0.00     0.022 A 
BRANCH  96  99
ATOM     99  S   UNL     1     -13.423   3.169  20.212  1.00  0.00     0.127 S 
ATOM    100  O   UNL     1     -13.938   1.823  20.459  1.00  0.00    -0.237 OA
ATOM    101  O   UNL     1     -13.289   4.000  21.408  1.00  0.00    -0.237 OA
ATOM    102  O   UNL     1     -13.997   3.853  19.061  1.00  0.00    -0.744 OA
ENDBRANCH  96  99
ENDBRANCH  69  92
ENDBRANCH  43  44
ENDBRANCH  36  38
ENDBRANCH  35  36
ENDBRANCH  34  35
ENDBRANCH  33  34
ENDBRANCH  32  33
ENDBRANCH  31  32
ENDBRANCH   1  31
TORSDOF 26
