REMARK SMILES O=C(/C=C/c1ccccc1Oc1cccc(Cl)c1)OCCOCCOCCOCCOC(=O)c1ccc(-c2c3nc(c(-c4cccc(S(=O)(=O)[O-])c4F)c4ccc([nH]4)c(-c4cccc(S(=O)(=O)[O-])c4F)c4nc(c(-c5cccc(S(=O)(=O)[O-])c5F)c5ccc2[nH]5)C=C4)C=C3)cc1
REMARK SMILES IDX 25 1 24 2 23 3 22 4 21 5 20 6 19 7 2 8 1 9 3 10 4 11 5 12
REMARK SMILES IDX 6 13 10 14 7 15 9 16 8 17 11 18 12 19 13 20 18 21 14 22
REMARK SMILES IDX 16 23 15 24 17 25 26 26 27 27 28 28 29 29 30 30 31 31 32 32
REMARK SMILES IDX 33 33 34 34 35 35 96 36 36 37 95 38 37 39 38 40 39 41 89 42
REMARK SMILES IDX 40 43 94 44 88 45 90 46 41 47 93 48 87 49 86 50 42 52 74 53
REMARK SMILES IDX 54 54 73 55 55 56 58 57 72 58 91 59 56 60 57 61 71 63 92 64
REMARK SMILES IDX 59 65 43 66 44 67 52 68 45 69 47 70 53 71 46 72 48 73 49 74
REMARK SMILES IDX 50 75 51 76 75 77 76 78 84 79 77 80 79 81 85 82 78 83 80 84
REMARK SMILES IDX 81 85 82 86 83 87 60 88 61 89 69 90 62 91 64 92 70 93 63 94
REMARK SMILES IDX 65 95 66 96 67 97 68 98
REMARK H PARENT 90 51 58 62
REMARK Flexibility Score: inf
ROOT
ATOM      1  O   UNL     1       2.807  -4.158   0.436  1.00  0.00    -0.377 OA
ENDROOT
BRANCH   1   2
ATOM      2  C   UNL     1       2.258  -2.870   0.221  1.00  0.00     0.188 C 
BRANCH   2   3
ATOM      3  C   UNL     1       2.960  -1.927  -0.759  1.00  0.00     0.188 C 
BRANCH   3   4
ATOM      4  O   UNL     1       4.304  -1.468  -0.641  1.00  0.00    -0.376 OA
BRANCH   4   5
ATOM      5  C   UNL     1       5.033  -1.034   0.492  1.00  0.00     0.202 C 
BRANCH   5   6
ATOM      6  C   UNL     1       4.500  -0.094   1.568  1.00  0.00     0.261 C 
BRANCH   6   7
ATOM      7  O   UNL     1       3.131   0.285   1.520  1.00  0.00    -0.460 OA
BRANCH   7   8
ATOM      8  C   UNL     1       2.490   0.855   0.489  1.00  0.00     0.330 C 
ATOM      9  O   UNL     1       1.264   0.939   0.517  1.00  0.00    -0.247 OA
BRANCH   8  10
ATOM     10  C   UNL     1       3.193   1.172  -0.770  1.00  0.00     0.094 C 
ATOM     11  C   UNL     1       4.413   1.673  -0.999  1.00  0.00     0.019 C 
BRANCH  11  12
ATOM     12  C   UNL     1       4.901   1.838  -2.377  1.00  0.00     0.017 A 
ATOM     13  C   UNL     1       5.827   0.859  -2.804  1.00  0.00     0.012 A 
ATOM     14  C   UNL     1       4.542   2.864  -3.272  1.00  0.00     0.134 A 
ATOM     15  C   UNL     1       6.421   0.910  -4.065  1.00  0.00     0.001 A 
ATOM     16  C   UNL     1       5.156   2.900  -4.539  1.00  0.00     0.048 A 
ATOM     17  C   UNL     1       6.093   1.941  -4.931  1.00  0.00     0.004 A 
BRANCH  14  18
ATOM     18  O   UNL     1       3.666   3.926  -3.102  1.00  0.00    -0.457 OA
BRANCH  18  19
ATOM     19  C   UNL     1       2.805   3.962  -2.038  1.00  0.00     0.128 A 
ATOM     20  C   UNL     1       1.486   3.532  -2.207  1.00  0.00     0.047 A 
ATOM     21  C   UNL     1       3.244   4.449  -0.805  1.00  0.00     0.067 A 
ATOM     22  C   UNL     1       0.625   3.504  -1.107  1.00  0.00     0.005 A 
ATOM     23  C   UNL     1       2.392   4.379   0.294  1.00  0.00     0.044 A 
ATOM     24  C   UNL     1       1.085   3.913   0.149  1.00  0.00     0.021 A 
ATOM     25  Cl  UNL     1       2.998   4.759   1.858  1.00  0.00    -0.084 Cl
ENDBRANCH  18  19
ENDBRANCH  14  18
ENDBRANCH  11  12
ENDBRANCH   8  10
ENDBRANCH   7   8
ENDBRANCH   6   7
ENDBRANCH   5   6
ENDBRANCH   4   5
ENDBRANCH   3   4
ENDBRANCH   2   3
ENDBRANCH   1   2
BRANCH   1  26
ATOM     26  C   UNL     1       4.182  -4.138   0.767  1.00  0.00     0.188 C 
BRANCH  26  27
ATOM     27  C   UNL     1       5.083  -4.305  -0.474  1.00  0.00     0.188 C 
BRANCH  27  28
ATOM     28  O   UNL     1       4.366  -4.179  -1.693  1.00  0.00    -0.376 OA
BRANCH  28  29
ATOM     29  C   UNL     1       3.867  -5.358  -2.309  1.00  0.00     0.202 C 
BRANCH  29  30
ATOM     30  C   UNL     1       3.059  -6.414  -1.525  1.00  0.00     0.261 C 
BRANCH  30  31
ATOM     31  O   UNL     1       3.523  -6.787  -0.219  1.00  0.00    -0.460 OA
BRANCH  31  32
ATOM     32  C   UNL     1       4.695  -7.443  -0.098  1.00  0.00     0.338 C 
ATOM     33  O   UNL     1       5.397  -7.851  -1.007  1.00  0.00    -0.246 OA
BRANCH  32  34
ATOM     34  C   UNL     1       5.118  -7.311   1.324  1.00  0.00     0.060 A 
ATOM     35  C   UNL     1       6.403  -6.809   1.586  1.00  0.00     0.016 A 
ATOM     36  C   UNL     1       4.224  -7.526   2.382  1.00  0.00     0.016 A 
ATOM     37  C   UNL     1       6.807  -6.557   2.898  1.00  0.00     0.010 A 
ATOM     38  C   UNL     1       4.641  -7.308   3.701  1.00  0.00     0.010 A 
ATOM     39  C   UNL     1       5.951  -6.867   3.963  1.00  0.00    -0.014 A 
BRANCH  39  40
ATOM     40  C   UNL     1       6.552  -7.068   5.305  1.00  0.00     0.031 A 
ATOM     41  C   UNL     1       7.059  -8.454   5.612  1.00  0.00     0.074 A 
ATOM     42  C   UNL     1       6.700  -6.076   6.201  1.00  0.00     0.049 A 
ATOM     43  N   UNL     1       7.662  -8.905   6.679  1.00  0.00    -0.248 NA
ATOM     44  C   UNL     1       6.862  -9.470   4.560  1.00  0.00     0.031 C 
ATOM     45  C   UNL     1       6.263  -4.693   6.024  1.00  0.00     0.029 A 
ATOM     46  N   UNL     1       7.254  -6.096   7.458  1.00  0.00    -0.354 N 
ATOM     47  C   UNL     1       7.910 -10.249   6.428  1.00  0.00     0.074 A 
ATOM     48  C   UNL     1       7.371 -10.552   5.123  1.00  0.00     0.031 C 
ATOM     49  C   UNL     1       6.538  -4.003   7.147  1.00  0.00     0.029 A 
ATOM     50  C   UNL     1       7.158  -4.897   8.125  1.00  0.00     0.049 A 
ATOM     51  H   UNL     1       7.680  -6.894   7.846  1.00  0.00     0.167 HD
ATOM     52  C   UNL     1       8.551 -11.154   7.201  1.00  0.00     0.034 A 
ATOM     53  C   UNL     1       7.516  -4.573   9.386  1.00  0.00     0.034 A 
ATOM     54  C   UNL     1       9.079 -10.862   8.502  1.00  0.00     0.049 A 
ATOM     55  C   UNL     1       8.186  -5.614  10.251  1.00  0.00     0.074 A 
ATOM     56  C   UNL     1       9.745 -11.708   9.369  1.00  0.00     0.029 A 
ATOM     57  N   UNL     1       8.988  -9.630   9.129  1.00  0.00    -0.354 N 
ATOM     58  N   UNL     1       8.511  -6.851   9.959  1.00  0.00    -0.248 NA
ATOM     59  C   UNL     1       8.575  -5.202  11.609  1.00  0.00     0.031 C 
ATOM     60  C   UNL     1      10.040 -10.990  10.532  1.00  0.00     0.029 A 
ATOM     61  C   UNL     1       9.586  -9.691  10.374  1.00  0.00     0.049 A 
ATOM     62  H   UNL     1       8.562  -8.830   8.745  1.00  0.00     0.167 HD
ATOM     63  C   UNL     1       9.173  -7.349  11.078  1.00  0.00     0.074 A 
ATOM     64  C   UNL     1       9.226  -6.272  12.044  1.00  0.00     0.031 C 
ATOM     65  C   UNL     1       9.679  -8.589  11.296  1.00  0.00     0.034 A 
BRANCH  52  66
ATOM     66  C   UNL     1       8.731 -12.537   6.637  1.00  0.00     0.023 A 
ATOM     67  C   UNL     1       9.655 -12.744   5.592  1.00  0.00     0.012 A 
ATOM     68  C   UNL     1       8.011 -13.629   7.153  1.00  0.00     0.148 A 
ATOM     69  C   UNL     1       9.838 -14.015   5.048  1.00  0.00     0.002 A 
ATOM     70  C   UNL     1       8.232 -14.900   6.637  1.00  0.00     0.091 A 
ATOM     71  F   UNL     1       7.115 -13.403   8.124  1.00  0.00    -0.205 F 
ATOM     72  C   UNL     1       9.135 -15.093   5.578  1.00  0.00     0.022 A 
BRANCH  70  73
ATOM     73  S   UNL     1       7.433 -16.366   7.298  1.00  0.00     0.127 S 
ATOM     74  O   UNL     1       6.553 -16.746   6.193  1.00  0.00    -0.237 OA
ATOM     75  O   UNL     1       8.569 -17.263   7.510  1.00  0.00    -0.237 OA
ATOM     76  O   UNL     1       6.755 -15.942   8.515  1.00  0.00    -0.744 OA
ENDBRANCH  70  73
ENDBRANCH  52  66
BRANCH  53  77
ATOM     77  C   UNL     1       7.268  -3.199   9.914  1.00  0.00     0.023 A 
ATOM     78  C   UNL     1       8.355  -2.356  10.221  1.00  0.00     0.012 A 
ATOM     79  C   UNL     1       5.958  -2.733  10.139  1.00  0.00     0.148 A 
ATOM     80  C   UNL     1       8.143  -1.093  10.779  1.00  0.00     0.002 A 
ATOM     81  C   UNL     1       5.752  -1.453  10.641  1.00  0.00     0.091 A 
ATOM     82  F   UNL     1       4.936  -3.556   9.866  1.00  0.00    -0.205 F 
ATOM     83  C   UNL     1       6.843  -0.638  10.980  1.00  0.00     0.022 A 
BRANCH  81  84
ATOM     84  S   UNL     1       4.112  -0.742  10.814  1.00  0.00     0.127 S 
ATOM     85  O   UNL     1       3.936  -0.745  12.264  1.00  0.00    -0.237 OA
ATOM     86  O   UNL     1       4.293   0.581  10.216  1.00  0.00    -0.237 OA
ATOM     87  O   UNL     1       3.225  -1.621  10.064  1.00  0.00    -0.744 OA
ENDBRANCH  81  84
ENDBRANCH  53  77
BRANCH  65  88
ATOM     88  C   UNL     1      10.378  -8.841  12.608  1.00  0.00     0.023 A 
ATOM     89  C   UNL     1       9.630  -8.931  13.798  1.00  0.00     0.012 A 
ATOM     90  C   UNL     1      11.769  -9.063  12.646  1.00  0.00     0.148 A 
ATOM     91  C   UNL     1      10.262  -9.197  15.013  1.00  0.00     0.002 A 
ATOM     92  C   UNL     1      12.384  -9.379  13.852  1.00  0.00     0.091 A 
ATOM     93  F   UNL     1      12.466  -8.960  11.505  1.00  0.00    -0.205 F 
ATOM     94  C   UNL     1      11.635  -9.432  15.038  1.00  0.00     0.022 A 
BRANCH  92  95
ATOM     95  S   UNL     1      14.128  -9.795  13.961  1.00  0.00     0.127 S 
ATOM     96  O   UNL     1      14.683  -8.591  14.577  1.00  0.00    -0.237 OA
ATOM     97  O   UNL     1      14.114 -10.973  14.829  1.00  0.00    -0.237 OA
ATOM     98  O   UNL     1      14.563 -10.057  12.595  1.00  0.00    -0.744 OA
ENDBRANCH  92  95
ENDBRANCH  65  88
ENDBRANCH  39  40
ENDBRANCH  32  34
ENDBRANCH  31  32
ENDBRANCH  30  31
ENDBRANCH  29  30
ENDBRANCH  28  29
ENDBRANCH  27  28
ENDBRANCH  26  27
ENDBRANCH   1  26
TORSDOF 26
