REMARK SMILES COc1cccc([C@@H]2CC(c3cccc(C)c3)=NN2C(=O)CCC(=O)OCCOCCOCCOCCOC(=O)c2ccc(-c3c4nc(c(-c5cccc(S(=O)(=O)[O-])c5F)c5ccc([nH]5)c(-c5cccc(S(=O)(=O)[O-])c5F)c5nc(c(-c6cccc(S(=O)(=O)[O-])c6F)c6ccc3[nH]6)C=C5)C=C4)cc2)c1
REMARK SMILES IDX 31 1 30 2 29 3 28 4 27 5 26 6 24 7 25 8 23 9 22 10 20 11
REMARK SMILES IDX 21 12 19 13 8 14 9 15 10 16 18 17 7 18 3 19 4 20 104 21 5 22
REMARK SMILES IDX 6 23 2 24 1 25 11 26 12 27 17 28 13 29 15 30 14 31 16 32
REMARK SMILES IDX 32 33 33 34 34 35 35 36 36 37 37 38 38 39 39 40 40 41 41 42
REMARK SMILES IDX 42 43 103 44 43 45 102 46 44 47 45 48 46 49 96 50 47 51
REMARK SMILES IDX 101 52 95 53 97 54 48 55 100 56 94 57 93 58 49 60 81 61
REMARK SMILES IDX 61 62 80 63 62 64 65 65 79 66 98 67 63 68 64 69 78 71 99 72
REMARK SMILES IDX 66 73 50 74 51 75 59 76 52 77 54 78 60 79 53 80 55 81 56 82
REMARK SMILES IDX 57 83 58 84 82 85 83 86 91 87 84 88 86 89 92 90 85 91 87 92
REMARK SMILES IDX 88 93 89 94 90 95 67 96 68 97 76 98 69 99 71 100 77 101
REMARK SMILES IDX 70 102 72 103 73 104 74 105 75 106
REMARK H PARENT 97 59 65 70
REMARK Flexibility Score: inf
ROOT
ATOM      1  C   UNL     1       4.093   0.162   5.985  1.00  0.00     0.188 C 
ENDROOT
BRANCH   1   2
ATOM      2  C   UNL     1       2.237   0.231   5.651  1.00  0.00     0.188 C 
BRANCH   2   3
ATOM      3  O   UNL     1       1.062  -0.587   5.213  1.00  0.00    -0.376 OA
BRANCH   3   4
ATOM      4  C   UNL     1       0.612  -1.298   3.996  1.00  0.00     0.202 C 
BRANCH   4   5
ATOM      5  C   UNL     1       0.831  -0.782   2.550  1.00  0.00     0.261 C 
BRANCH   5   6
ATOM      6  O   UNL     1       1.663   0.356   2.535  1.00  0.00    -0.463 OA
BRANCH   6   7
ATOM      7  C   UNL     1       0.991   1.499   2.719  1.00  0.00     0.306 C 
ATOM      8  O   UNL     1      -0.223   1.621   2.603  1.00  0.00    -0.252 OA
BRANCH   7   9
ATOM      9  C   UNL     1       1.884   2.631   3.107  1.00  0.00     0.132 C 
BRANCH   9  10
ATOM     10  C   UNL     1       3.192   2.409   3.854  1.00  0.00     0.114 C 
BRANCH  10  11
ATOM     11  C   UNL     1       4.223   1.321   3.528  1.00  0.00     0.243 C 
ATOM     12  O   UNL     1       5.345   1.821   3.281  1.00  0.00    -0.273 OA
BRANCH  11  13
ATOM     13  N   UNL     1       4.077  -0.074   3.484  1.00  0.00    -0.225 N 
ATOM     14  C   UNL     1       3.566  -1.550   4.260  1.00  0.00     0.147 C 
ATOM     15  C   UNL     1       3.786  -2.545   3.037  1.00  0.00     0.091 C 
ATOM     16  C   UNL     1       4.671  -1.702   2.156  1.00  0.00     0.071 C 
ATOM     17  N   UNL     1       4.721  -0.444   2.367  1.00  0.00    -0.174 NA
BRANCH  14  18
ATOM     18  C   UNL     1       3.641  -2.017   6.097  1.00  0.00    -0.019 A 
ATOM     19  C   UNL     1       2.057  -3.445   8.283  1.00  0.00     0.119 A 
ATOM     20  C   UNL     1       3.472  -4.132   9.059  1.00  0.00     0.046 A 
ATOM     21  C   UNL     1       2.120  -2.507   6.826  1.00  0.00     0.052 A 
ATOM     22  C   UNL     1       5.085  -3.743   8.452  1.00  0.00     0.004 A 
ATOM     23  C   UNL     1       5.202  -2.527   7.050  1.00  0.00     0.006 A 
BRANCH  19  24
ATOM     24  O   UNL     1       0.908  -3.389   9.072  1.00  0.00    -0.497 OA
ATOM     25  C   UNL     1      -0.004  -2.340   8.710  1.00  0.00     0.278 C 
ENDBRANCH  19  24
ENDBRANCH  14  18
BRANCH  16  26
ATOM     26  C   UNL     1       5.560  -2.152   1.095  1.00  0.00    -0.002 A 
ATOM     27  C   UNL     1       6.780  -1.453   1.009  1.00  0.00     0.010 A 
ATOM     28  C   UNL     1       5.116  -2.986   0.086  1.00  0.00     0.013 A 
ATOM     29  C   UNL     1       7.496  -1.486  -0.164  1.00  0.00     0.001 A 
ATOM     30  C   UNL     1       5.905  -3.108  -1.055  1.00  0.00    -0.050 A 
ATOM     31  C   UNL     1       7.051  -2.314  -1.193  1.00  0.00     0.003 A 
ATOM     32  C   UNL     1       5.567  -4.105  -2.113  1.00  0.00     0.044 C 
ENDBRANCH  16  26
ENDBRANCH  11  13
ENDBRANCH  10  11
ENDBRANCH   9  10
ENDBRANCH   7   9
ENDBRANCH   6   7
ENDBRANCH   5   6
ENDBRANCH   4   5
ENDBRANCH   3   4
ENDBRANCH   2   3
ENDBRANCH   1   2
BRANCH   1  33
ATOM     33  O   UNL     1       5.403  -0.738   5.351  1.00  0.00    -0.377 OA
BRANCH  33  34
ATOM     34  C   UNL     1       5.666  -2.408   4.919  1.00  0.00     0.188 C 
BRANCH  34  35
ATOM     35  C   UNL     1       4.681  -3.893   5.618  1.00  0.00     0.188 C 
BRANCH  35  36
ATOM     36  O   UNL     1       3.737  -3.602   7.148  1.00  0.00    -0.376 OA
BRANCH  36  37
ATOM     37  C   UNL     1       3.934  -2.012   8.384  1.00  0.00     0.202 C 
BRANCH  37  38
ATOM     38  C   UNL     1       5.646  -1.463   9.079  1.00  0.00     0.261 C 
BRANCH  38  39
ATOM     39  O   UNL     1       7.101  -1.710   8.360  1.00  0.00    -0.460 OA
BRANCH  39  40
ATOM     40  C   UNL     1       7.909  -2.854   8.291  1.00  0.00     0.338 C 
ATOM     41  O   UNL     1       7.996  -3.680   9.193  1.00  0.00    -0.246 OA
BRANCH  40  42
ATOM     42  C   UNL     1       8.570  -3.192   6.914  1.00  0.00     0.060 A 
ATOM     43  C   UNL     1       8.223  -4.367   6.185  1.00  0.00     0.016 A 
ATOM     44  C   UNL     1       9.618  -2.448   6.370  1.00  0.00     0.016 A 
ATOM     45  C   UNL     1       8.859  -4.749   4.952  1.00  0.00     0.010 A 
ATOM     46  C   UNL     1      10.291  -2.859   5.173  1.00  0.00     0.010 A 
ATOM     47  C   UNL     1       9.942  -4.019   4.446  1.00  0.00    -0.014 A 
BRANCH  47  48
ATOM     48  C   UNL     1      10.868  -4.522   3.348  1.00  0.00     0.031 A 
ATOM     49  C   UNL     1      12.089  -5.312   3.726  1.00  0.00     0.074 A 
ATOM     50  C   UNL     1      10.745  -4.270   2.026  1.00  0.00     0.049 A 
ATOM     51  N   UNL     1      13.068  -5.732   2.967  1.00  0.00    -0.248 NA
ATOM     52  C   UNL     1      12.202  -5.693   5.137  1.00  0.00     0.031 C 
ATOM     53  C   UNL     1       9.564  -3.703   1.417  1.00  0.00     0.029 A 
ATOM     54  N   UNL     1      11.617  -4.452   0.953  1.00  0.00    -0.354 N 
ATOM     55  C   UNL     1      13.934  -6.409   3.806  1.00  0.00     0.074 A 
ATOM     56  C   UNL     1      13.364  -6.327   5.139  1.00  0.00     0.031 C 
ATOM     57  C   UNL     1       9.810  -3.542   0.109  1.00  0.00     0.029 A 
ATOM     58  C   UNL     1      11.162  -3.901  -0.227  1.00  0.00     0.049 A 
ATOM     59  H   UNL     1      12.475  -4.928   1.030  1.00  0.00     0.167 HD
ATOM     60  C   UNL     1      15.094  -7.040   3.503  1.00  0.00     0.034 A 
ATOM     61  C   UNL     1      11.685  -3.677  -1.456  1.00  0.00     0.034 A 
ATOM     62  C   UNL     1      15.708  -7.076   2.199  1.00  0.00     0.049 A 
ATOM     63  C   UNL     1      13.027  -4.251  -1.758  1.00  0.00     0.074 A 
ATOM     64  C   UNL     1      16.900  -7.679   1.831  1.00  0.00     0.029 A 
ATOM     65  N   UNL     1      15.219  -6.452   1.059  1.00  0.00    -0.354 N 
ATOM     66  N   UNL     1      13.796  -4.934  -0.953  1.00  0.00    -0.248 NA
ATOM     67  C   UNL     1      13.537  -4.122  -3.132  1.00  0.00     0.031 C 
ATOM     68  C   UNL     1      17.164  -7.363   0.492  1.00  0.00     0.029 A 
ATOM     69  C   UNL     1      16.106  -6.617   0.003  1.00  0.00     0.049 A 
ATOM     70  H   UNL     1      14.366  -5.962   1.007  1.00  0.00     0.167 HD
ATOM     71  C   UNL     1      14.858  -5.362  -1.724  1.00  0.00     0.074 A 
ATOM     72  C   UNL     1      14.630  -4.872  -3.071  1.00  0.00     0.031 C 
ATOM     73  C   UNL     1      15.915  -6.110  -1.334  1.00  0.00     0.034 A 
BRANCH  60  74
ATOM     74  C   UNL     1      15.803  -7.682   4.663  1.00  0.00     0.023 A 
ATOM     75  C   UNL     1      15.246  -8.810   5.303  1.00  0.00     0.012 A 
ATOM     76  C   UNL     1      16.989  -7.115   5.162  1.00  0.00     0.148 A 
ATOM     77  C   UNL     1      15.822  -9.316   6.467  1.00  0.00     0.002 A 
ATOM     78  C   UNL     1      17.589  -7.662   6.286  1.00  0.00     0.091 A 
ATOM     79  F   UNL     1      17.483  -6.028   4.553  1.00  0.00    -0.205 F 
ATOM     80  C   UNL     1      16.994  -8.746   6.955  1.00  0.00     0.022 A 
BRANCH  78  81
ATOM     81  S   UNL     1      19.139  -7.046   6.944  1.00  0.00     0.127 S 
ATOM     82  O   UNL     1      18.713  -6.484   8.225  1.00  0.00    -0.237 OA
ATOM     83  O   UNL     1      19.931  -8.271   7.046  1.00  0.00    -0.237 OA
ATOM     84  O   UNL     1      19.634  -6.079   5.974  1.00  0.00    -0.744 OA
ENDBRANCH  78  81
ENDBRANCH  60  74
BRANCH  61  85
ATOM     85  C   UNL     1      10.896  -2.980  -2.533  1.00  0.00     0.023 A 
ATOM     86  C   UNL     1      10.364  -3.740  -3.596  1.00  0.00     0.012 A 
ATOM     87  C   UNL     1      10.616  -1.595  -2.491  1.00  0.00     0.148 A 
ATOM     88  C   UNL     1       9.577  -3.146  -4.588  1.00  0.00     0.002 A 
ATOM     89  C   UNL     1       9.799  -1.015  -3.464  1.00  0.00     0.091 A 
ATOM     90  F   UNL     1      11.128  -0.876  -1.483  1.00  0.00    -0.205 F 
ATOM     91  C   UNL     1       9.283  -1.789  -4.515  1.00  0.00     0.022 A 
BRANCH  89  92
ATOM     92  S   UNL     1       9.239   0.695  -3.391  1.00  0.00     0.127 S 
ATOM     93  O   UNL     1       9.916   1.281  -4.546  1.00  0.00    -0.237 OA
ATOM     94  O   UNL     1       7.792   0.540  -3.543  1.00  0.00    -0.237 OA
ATOM     95  O   UNL     1       9.666   1.188  -2.090  1.00  0.00    -0.744 OA
ENDBRANCH  89  92
ENDBRANCH  61  85
BRANCH  73  96
ATOM     96  C   UNL     1      16.922  -6.446  -2.393  1.00  0.00     0.023 A 
ATOM     97  C   UNL     1      17.740  -5.437  -2.943  1.00  0.00     0.012 A 
ATOM     98  C   UNL     1      17.055  -7.771  -2.844  1.00  0.00     0.148 A 
ATOM     99  C   UNL     1      18.644  -5.738  -3.959  1.00  0.00     0.002 A 
ATOM    100  C   UNL     1      18.001  -8.074  -3.811  1.00  0.00     0.091 A 
ATOM    101  F   UNL     1      16.241  -8.704  -2.330  1.00  0.00    -0.205 F 
ATOM    102  C   UNL     1      18.783  -7.058  -4.384  1.00  0.00     0.022 A 
BRANCH 100 103
ATOM    103  S   UNL     1      18.315  -9.755  -4.351  1.00  0.00     0.127 S 
ATOM    104  O   UNL     1      17.913  -9.697  -5.756  1.00  0.00    -0.237 OA
ATOM    105  O   UNL     1      19.756  -9.880  -4.131  1.00  0.00    -0.237 OA
ATOM    106  O   UNL     1      17.493 -10.614  -3.509  1.00  0.00    -0.744 OA
ENDBRANCH 100 103
ENDBRANCH  73  96
ENDBRANCH  47  48
ENDBRANCH  40  42
ENDBRANCH  39  40
ENDBRANCH  38  39
ENDBRANCH  37  38
ENDBRANCH  36  37
ENDBRANCH  35  36
ENDBRANCH  34  35
ENDBRANCH  33  34
ENDBRANCH   1  33
TORSDOF 29
