REMARK SMILES O=C(OCCOCCOCCOCCOC(=O)c1ccc(C[NH2+][C@H]2CCCNC2=O)nc1)c1ccc(-c2c3nc(c(-c4cccc(S(=O)(=O)[O-])c4F)c4ccc([nH]4)c(-c4cccc(S(=O)(=O)[O-])c4F)c4nc(c(-c5cccc(S(=O)(=O)[O-])c5F)c5ccc2[nH]5)C=C4)C=C3)cc1
REMARK SMILES IDX 9 1 8 2 7 3 6 4 5 5 4 6 3 7 2 8 1 9 33 10 34 11 95 12 35 13
REMARK SMILES IDX 94 14 36 15 37 16 38 17 88 18 39 19 93 20 87 21 89 22 40 23
REMARK SMILES IDX 92 24 86 25 85 26 41 28 73 29 53 30 72 31 54 32 57 33 71 34
REMARK SMILES IDX 90 35 55 36 56 37 70 39 91 40 58 41 42 42 43 43 51 44 44 45
REMARK SMILES IDX 46 46 52 47 45 48 47 49 48 50 49 51 50 52 74 53 75 54 83 55
REMARK SMILES IDX 76 56 78 57 84 58 77 59 79 60 80 61 81 62 82 63 59 64 60 65
REMARK SMILES IDX 68 66 61 67 63 68 69 69 62 70 64 71 65 72 66 73 67 74 10 75
REMARK SMILES IDX 11 76 12 77 13 78 14 79 15 80 16 81 17 82 18 83 19 84 32 85
REMARK SMILES IDX 20 86 31 87 21 88 22 89 23 90 24 93 25 94 29 95 26 96 28 97
REMARK SMILES IDX 30 98 27 99
REMARK H PARENT 89 27 57 38 23 91 23 92 28 100
REMARK Flexibility Score: inf
ROOT
ATOM      1  O   UNL     1       2.555  -0.925  -3.900  1.00  0.00    -0.377 OA
ENDROOT
BRANCH   1   2
ATOM      2  C   UNL     1       1.869  -0.343  -2.791  1.00  0.00     0.188 C 
BRANCH   2   3
ATOM      3  C   UNL     1       2.328  -0.829  -1.416  1.00  0.00     0.188 C 
BRANCH   3   4
ATOM      4  O   UNL     1       3.660  -0.400  -1.126  1.00  0.00    -0.376 OA
BRANCH   4   5
ATOM      5  C   UNL     1       4.491  -1.357  -0.468  1.00  0.00     0.202 C 
BRANCH   5   6
ATOM      6  C   UNL     1       4.250  -1.492   1.038  1.00  0.00     0.261 C 
BRANCH   6   7
ATOM      7  O   UNL     1       2.875  -1.301   1.396  1.00  0.00    -0.460 OA
BRANCH   7   8
ATOM      8  C   UNL     1       2.263  -0.141   1.749  1.00  0.00     0.338 C 
ATOM      9  O   UNL     1       1.076  -0.192   2.071  1.00  0.00    -0.246 OA
BRANCH   8  10
ATOM     10  C   UNL     1       2.944   1.194   1.786  1.00  0.00     0.060 A 
ATOM     11  C   UNL     1       4.087   1.543   1.063  1.00  0.00     0.016 A 
ATOM     12  C   UNL     1       2.354   2.186   2.587  1.00  0.00     0.016 A 
ATOM     13  C   UNL     1       4.696   2.778   1.205  1.00  0.00     0.010 A 
ATOM     14  C   UNL     1       2.943   3.448   2.721  1.00  0.00     0.010 A 
ATOM     15  C   UNL     1       4.150   3.718   2.068  1.00  0.00    -0.014 A 
BRANCH  15  16
ATOM     16  C   UNL     1       5.012   4.849   2.447  1.00  0.00     0.031 A 
ATOM     17  C   UNL     1       5.709   4.764   3.772  1.00  0.00     0.074 A 
ATOM     18  C   UNL     1       5.286   5.818   1.558  1.00  0.00     0.049 A 
ATOM     19  N   UNL     1       6.511   5.616   4.344  1.00  0.00    -0.248 NA
ATOM     20  C   UNL     1       5.484   3.533   4.554  1.00  0.00     0.031 C 
ATOM     21  C   UNL     1       4.758   5.885   0.193  1.00  0.00     0.029 A 
ATOM     22  N   UNL     1       6.096   6.915   1.659  1.00  0.00    -0.354 N 
ATOM     23  C   UNL     1       6.824   5.061   5.579  1.00  0.00     0.074 A 
ATOM     24  C   UNL     1       6.151   3.788   5.667  1.00  0.00     0.031 C 
ATOM     25  C   UNL     1       5.265   6.967  -0.419  1.00  0.00     0.029 A 
ATOM     26  C   UNL     1       6.098   7.698   0.529  1.00  0.00     0.049 A 
ATOM     27  H   UNL     1       6.626   7.124   2.462  1.00  0.00     0.167 HD
ATOM     28  C   UNL     1       7.599   5.582   6.556  1.00  0.00     0.034 A 
ATOM     29  C   UNL     1       6.688   8.889   0.313  1.00  0.00     0.034 A 
ATOM     30  C   UNL     1       8.269   6.843   6.423  1.00  0.00     0.049 A 
ATOM     31  C   UNL     1       7.499   9.477   1.437  1.00  0.00     0.074 A 
ATOM     32  C   UNL     1       9.049   7.512   7.344  1.00  0.00     0.029 A 
ATOM     33  N   UNL     1       8.226   7.630   5.278  1.00  0.00    -0.354 N 
ATOM     34  N   UNL     1       7.779   8.958   2.611  1.00  0.00    -0.248 NA
ATOM     35  C   UNL     1       8.086  10.802   1.209  1.00  0.00     0.031 C 
ATOM     36  C   UNL     1       9.451   8.722   6.766  1.00  0.00     0.029 A 
ATOM     37  C   UNL     1       8.957   8.785   5.470  1.00  0.00     0.049 A 
ATOM     38  H   UNL     1       7.744   7.399   4.451  1.00  0.00     0.167 HD
ATOM     39  C   UNL     1       8.602   9.876   3.250  1.00  0.00     0.074 A 
ATOM     40  C   UNL     1       8.786  10.977   2.322  1.00  0.00     0.031 C 
ATOM     41  C   UNL     1       9.149   9.827   4.491  1.00  0.00     0.034 A 
BRANCH  28  42
ATOM     42  C   UNL     1       7.681   4.813   7.846  1.00  0.00     0.023 A 
ATOM     43  C   UNL     1       8.393   3.597   7.914  1.00  0.00     0.012 A 
ATOM     44  C   UNL     1       6.991   5.272   8.985  1.00  0.00     0.148 A 
ATOM     45  C   UNL     1       8.373   2.828   9.079  1.00  0.00     0.002 A 
ATOM     46  C   UNL     1       7.013   4.523  10.154  1.00  0.00     0.091 A 
ATOM     47  F   UNL     1       6.290   6.411   8.891  1.00  0.00    -0.205 F 
ATOM     48  C   UNL     1       7.689   3.293  10.199  1.00  0.00     0.022 A 
BRANCH  46  49
ATOM     49  S   UNL     1       6.211   5.070  11.665  1.00  0.00     0.127 S 
ATOM     50  O   UNL     1       5.083   4.144  11.752  1.00  0.00    -0.237 OA
ATOM     51  O   UNL     1       7.258   4.851  12.664  1.00  0.00    -0.237 OA
ATOM     52  O   UNL     1       5.860   6.466  11.450  1.00  0.00    -0.744 OA
ENDBRANCH  46  49
ENDBRANCH  28  42
BRANCH  29  53
ATOM     53  C   UNL     1       6.534   9.582  -0.998  1.00  0.00     0.023 A 
ATOM     54  C   UNL     1       7.655   9.762  -1.830  1.00  0.00     0.012 A 
ATOM     55  C   UNL     1       5.275  10.037  -1.441  1.00  0.00     0.148 A 
ATOM     56  C   UNL     1       7.531  10.401  -3.066  1.00  0.00     0.002 A 
ATOM     57  C   UNL     1       5.148  10.623  -2.696  1.00  0.00     0.091 A 
ATOM     58  F   UNL     1       4.220   9.875  -0.630  1.00  0.00    -0.205 F 
ATOM     59  C   UNL     1       6.277  10.821  -3.503  1.00  0.00     0.022 A 
BRANCH  57  60
ATOM     60  S   UNL     1       3.556  11.085  -3.390  1.00  0.00     0.127 S 
ATOM     61  O   UNL     1       3.650  12.543  -3.411  1.00  0.00    -0.237 OA
ATOM     62  O   UNL     1       3.605  10.446  -4.706  1.00  0.00    -0.237 OA
ATOM     63  O   UNL     1       2.555  10.530  -2.490  1.00  0.00    -0.744 OA
ENDBRANCH  57  60
ENDBRANCH  29  53
BRANCH  41  64
ATOM     64  C   UNL     1      10.042  10.968   4.891  1.00  0.00     0.023 A 
ATOM     65  C   UNL     1       9.486  12.219   5.216  1.00  0.00     0.012 A 
ATOM     66  C   UNL     1      11.426  10.759   5.035  1.00  0.00     0.148 A 
ATOM     67  C   UNL     1      10.304  13.259   5.652  1.00  0.00     0.002 A 
ATOM     68  C   UNL     1      12.226  11.782   5.524  1.00  0.00     0.091 A 
ATOM     69  F   UNL     1      11.933   9.564   4.698  1.00  0.00    -0.205 F 
ATOM     70  C   UNL     1      11.669  13.037   5.820  1.00  0.00     0.022 A 
BRANCH  68  71
ATOM     71  S   UNL     1      13.968  11.539   5.881  1.00  0.00     0.127 S 
ATOM     72  O   UNL     1      14.601  12.249   4.771  1.00  0.00    -0.237 OA
ATOM     73  O   UNL     1      14.112  12.190   7.184  1.00  0.00    -0.237 OA
ATOM     74  O   UNL     1      14.175  10.097   5.903  1.00  0.00    -0.744 OA
ENDBRANCH  68  71
ENDBRANCH  41  64
ENDBRANCH  15  16
ENDBRANCH   8  10
ENDBRANCH   7   8
ENDBRANCH   6   7
ENDBRANCH   5   6
ENDBRANCH   4   5
ENDBRANCH   3   4
ENDBRANCH   2   3
ENDBRANCH   1   2
BRANCH   1  75
ATOM     75  C   UNL     1       3.979  -0.927  -3.832  1.00  0.00     0.188 C 
BRANCH  75  76
ATOM     76  C   UNL     1       4.719   0.423  -3.710  1.00  0.00     0.188 C 
BRANCH  76  77
ATOM     77  O   UNL     1       3.861   1.535  -3.522  1.00  0.00    -0.376 OA
BRANCH  77  78
ATOM     78  C   UNL     1       3.740   2.424  -4.626  1.00  0.00     0.202 C 
BRANCH  78  79
ATOM     79  C   UNL     1       3.048   1.875  -5.888  1.00  0.00     0.261 C 
BRANCH  79  80
ATOM     80  O   UNL     1       3.518   0.598  -6.362  1.00  0.00    -0.460 OA
BRANCH  80  81
ATOM     81  C   UNL     1       4.694   0.558  -7.032  1.00  0.00     0.339 C 
ATOM     82  O   UNL     1       5.394   1.495  -7.342  1.00  0.00    -0.246 OA
BRANCH  81  83
ATOM     83  C   UNL     1       5.111  -0.859  -7.112  1.00  0.00     0.078 A 
ATOM     84  C   UNL     1       4.282  -1.892  -7.549  1.00  0.00     0.019 A 
ATOM     85  C   UNL     1       6.344  -1.194  -6.577  1.00  0.00     0.127 A 
ATOM     86  C   UNL     1       4.728  -3.217  -7.450  1.00  0.00     0.031 A 
ATOM     87  N   UNL     1       6.778  -2.468  -6.433  1.00  0.00    -0.254 NA
ATOM     88  C   UNL     1       5.983  -3.472  -6.892  1.00  0.00     0.094 A 
BRANCH  88  89
ATOM     89  C   UNL     1       6.540  -4.891  -6.789  1.00  0.00     0.318 C 
BRANCH  89  90
ATOM     90  N   UNL     1       7.888  -4.946  -7.367  1.00  0.00    -0.331 N 
ATOM     91  H   UNL     1       8.438  -4.204  -6.935  1.00  0.00     0.347 HD
ATOM     92  H   UNL     1       7.744  -4.853  -8.373  1.00  0.00     0.347 HD
BRANCH  90  93
ATOM     93  C   UNL     1       8.640  -6.200  -7.210  1.00  0.00     0.272 C 
ATOM     94  C   UNL     1       9.213  -6.385  -5.797  1.00  0.00     0.077 C 
ATOM     95  C   UNL     1       7.865  -7.399  -7.791  1.00  0.00     0.278 C 
ATOM     96  C   UNL     1       8.465  -7.413  -4.962  1.00  0.00     0.028 C 
ATOM     97  N   UNL     1       7.722  -8.513  -7.014  1.00  0.00    -0.351 N 
ATOM     98  O   UNL     1       7.347  -7.373  -8.908  1.00  0.00    -0.268 OA
ATOM     99  C   UNL     1       8.363  -8.711  -5.739  1.00  0.00     0.116 C 
ATOM    100  H   UNL     1       7.140  -9.232  -7.349  1.00  0.00     0.163 HD
ENDBRANCH  90  93
ENDBRANCH  89  90
ENDBRANCH  88  89
ENDBRANCH  81  83
ENDBRANCH  80  81
ENDBRANCH  79  80
ENDBRANCH  78  79
ENDBRANCH  77  78
ENDBRANCH  76  77
ENDBRANCH  75  76
ENDBRANCH   1  75
TORSDOF 26
