REMARK SMILES CCc1cc2c(C)cc(=O)oc2cc1O[C@H](C)C(=O)OCCOCCOCCOCCOC(=O)c1ccc(-c2c3nc(c(-c4cccc(S(=O)(=O)[O-])c4F)c4ccc([nH]4)c(-c4cccc(S(=O)(=O)[O-])c4F)c4nc(c(-c5cccc(S(=O)(=O)[O-])c5F)c5ccc2[nH]5)C=C4)C=C3)cc1
REMARK SMILES IDX 26 1 25 2 24 3 23 4 22 5 21 6 20 7 18 8 19 9 16 10 17 11
REMARK SMILES IDX 15 12 14 13 3 14 4 15 5 16 13 17 6 18 12 19 7 20 8 21 11 22
REMARK SMILES IDX 9 23 10 24 2 25 1 26 27 27 28 28 29 29 30 30 31 31 32 32
REMARK SMILES IDX 33 33 34 34 35 35 36 36 97 37 37 38 96 39 38 40 39 41 40 42
REMARK SMILES IDX 90 43 41 44 95 45 89 46 91 47 42 48 94 49 88 50 87 51 43 53
REMARK SMILES IDX 75 54 55 55 74 56 56 57 59 58 73 59 92 60 57 61 58 62 72 64
REMARK SMILES IDX 93 65 60 66 44 67 45 68 53 69 46 70 48 71 54 72 47 73 49 74
REMARK SMILES IDX 50 75 51 76 52 77 76 78 77 79 85 80 78 81 80 82 86 83 79 84
REMARK SMILES IDX 81 85 82 86 83 87 84 88 61 89 62 90 70 91 63 92 65 93 71 94
REMARK SMILES IDX 64 95 66 96 67 97 68 98 69 99
REMARK H PARENT 91 52 59 63
REMARK Flexibility Score: inf
ROOT
ATOM      1  O   UNL     1       0.362   1.288   5.530  1.00  0.00    -0.377 OA
ENDROOT
BRANCH   1   2
ATOM      2  C   UNL     1       0.855  -0.015   5.743  1.00  0.00     0.188 C 
BRANCH   2   3
ATOM      3  C   UNL     1       1.609  -0.197   7.071  1.00  0.00     0.188 C 
BRANCH   3   4
ATOM      4  O   UNL     1       1.321   0.630   8.191  1.00  0.00    -0.376 OA
BRANCH   4   5
ATOM      5  C   UNL     1       1.401   2.051   8.101  1.00  0.00     0.202 C 
BRANCH   5   6
ATOM      6  C   UNL     1       2.516   2.765   7.319  1.00  0.00     0.261 C 
BRANCH   6   7
ATOM      7  O   UNL     1       2.700   2.270   5.987  1.00  0.00    -0.461 OA
BRANCH   7   8
ATOM      8  C   UNL     1       3.930   1.801   5.665  1.00  0.00     0.347 C 
ATOM      9  O   UNL     1       4.902   1.875   6.410  1.00  0.00    -0.248 OA
BRANCH   8  10
ATOM     10  C   UNL     1       3.915   0.974   4.362  1.00  0.00     0.279 C 
ATOM     11  C   UNL     1       2.891   1.354   3.293  1.00  0.00     0.066 C 
BRANCH  10  12
ATOM     12  O   UNL     1       5.170   1.030   3.698  1.00  0.00    -0.479 OA
BRANCH  12  13
ATOM     13  C   UNL     1       6.195   0.274   4.176  1.00  0.00     0.127 A 
ATOM     14  C   UNL     1       7.456   0.885   4.130  1.00  0.00    -0.005 A 
ATOM     15  C   UNL     1       8.601   0.110   4.364  1.00  0.00     0.019 A 
ATOM     16  C   UNL     1       8.497  -1.251   4.675  1.00  0.00     0.021 A 
ATOM     17  C   UNL     1       6.068  -1.059   4.556  1.00  0.00     0.094 A 
ATOM     18  C   UNL     1       9.659  -2.135   4.811  1.00  0.00    -0.033 A 
ATOM     19  C   UNL     1       7.221  -1.796   4.814  1.00  0.00     0.142 A 
ATOM     20  C   UNL     1      11.029  -1.610   4.503  1.00  0.00     0.045 C 
ATOM     21  C   UNL     1       9.449  -3.413   5.156  1.00  0.00     0.098 A 
ATOM     22  O   UNL     1       7.031  -3.142   5.184  1.00  0.00    -0.423 OA
ATOM     23  C   UNL     1       8.112  -3.976   5.403  1.00  0.00     0.336 A 
ATOM     24  O   UNL     1       7.983  -5.143   5.759  1.00  0.00    -0.246 OA
BRANCH  14  25
ATOM     25  C   UNL     1       7.591   2.359   3.812  1.00  0.00     0.036 C 
ATOM     26  C   UNL     1       7.820   2.603   2.331  1.00  0.00     0.009 C 
ENDBRANCH  14  25
ENDBRANCH  12  13
ENDBRANCH  10  12
ENDBRANCH   8  10
ENDBRANCH   7   8
ENDBRANCH   6   7
ENDBRANCH   5   6
ENDBRANCH   4   5
ENDBRANCH   3   4
ENDBRANCH   2   3
ENDBRANCH   1   2
BRANCH   1  27
ATOM     27  C   UNL     1      -0.994   1.565   5.847  1.00  0.00     0.188 C 
BRANCH  27  28
ATOM     28  C   UNL     1      -1.700   0.724   6.929  1.00  0.00     0.188 C 
BRANCH  28  29
ATOM     29  O   UNL     1      -1.538  -0.681   6.787  1.00  0.00    -0.376 OA
BRANCH  29  30
ATOM     30  C   UNL     1      -2.526  -1.410   6.073  1.00  0.00     0.202 C 
BRANCH  30  31
ATOM     31  C   UNL     1      -2.739  -1.089   4.583  1.00  0.00     0.261 C 
BRANCH  31  32
ATOM     32  O   UNL     1      -3.152   0.246   4.252  1.00  0.00    -0.460 OA
BRANCH  32  33
ATOM     33  C   UNL     1      -4.258   0.749   4.846  1.00  0.00     0.338 C 
ATOM     34  O   UNL     1      -5.013   0.167   5.594  1.00  0.00    -0.246 OA
BRANCH  33  35
ATOM     35  C   UNL     1      -4.275   2.211   4.593  1.00  0.00     0.060 A 
ATOM     36  C   UNL     1      -4.243   3.087   5.686  1.00  0.00     0.016 A 
ATOM     37  C   UNL     1      -4.307   2.712   3.290  1.00  0.00     0.016 A 
ATOM     38  C   UNL     1      -4.276   4.468   5.480  1.00  0.00     0.010 A 
ATOM     39  C   UNL     1      -4.363   4.095   3.087  1.00  0.00     0.010 A 
ATOM     40  C   UNL     1      -4.378   4.979   4.181  1.00  0.00    -0.014 A 
BRANCH  40  41
ATOM     41  C   UNL     1      -4.661   6.421   3.969  1.00  0.00     0.031 A 
ATOM     42  C   UNL     1      -6.074   6.844   3.671  1.00  0.00     0.074 A 
ATOM     43  C   UNL     1      -3.682   7.343   4.027  1.00  0.00     0.049 A 
ATOM     44  N   UNL     1      -6.545   8.032   3.397  1.00  0.00    -0.248 NA
ATOM     45  C   UNL     1      -7.093   5.780   3.683  1.00  0.00     0.031 C 
ATOM     46  C   UNL     1      -2.277   7.066   4.318  1.00  0.00     0.029 A 
ATOM     47  N   UNL     1      -3.722   8.699   3.812  1.00  0.00    -0.354 N 
ATOM     48  C   UNL     1      -7.905   7.857   3.170  1.00  0.00     0.074 A 
ATOM     49  C   UNL     1      -8.183   6.446   3.333  1.00  0.00     0.031 C 
ATOM     50  C   UNL     1      -1.581   8.213   4.230  1.00  0.00     0.029 A 
ATOM     51  C   UNL     1      -2.484   9.297   3.845  1.00  0.00     0.049 A 
ATOM     52  H   UNL     1      -4.557   9.195   3.649  1.00  0.00     0.167 HD
ATOM     53  C   UNL     1      -8.841   8.786   2.864  1.00  0.00     0.034 A 
ATOM     54  C   UNL     1      -2.119  10.564   3.563  1.00  0.00     0.034 A 
ATOM     55  C   UNL     1      -8.566  10.189   2.709  1.00  0.00     0.049 A 
ATOM     56  C   UNL     1      -3.173  11.571   3.178  1.00  0.00     0.074 A 
ATOM     57  C   UNL     1      -9.457  11.215   2.447  1.00  0.00     0.029 A 
ATOM     58  N   UNL     1      -7.306  10.762   2.776  1.00  0.00    -0.354 N 
ATOM     59  N   UNL     1      -4.472  11.415   3.083  1.00  0.00    -0.248 NA
ATOM     60  C   UNL     1      -2.713  12.938   2.887  1.00  0.00     0.031 C 
ATOM     61  C   UNL     1      -8.730  12.402   2.312  1.00  0.00     0.029 A 
ATOM     62  C   UNL     1      -7.391  12.123   2.535  1.00  0.00     0.049 A 
ATOM     63  H   UNL     1      -6.473  10.273   2.966  1.00  0.00     0.167 HD
ATOM     64  C   UNL     1      -4.986  12.666   2.755  1.00  0.00     0.074 A 
ATOM     65  C   UNL     1      -3.860  13.575   2.693  1.00  0.00     0.031 C 
ATOM     66  C   UNL     1      -6.271  13.028   2.515  1.00  0.00     0.034 A 
BRANCH  53  67
ATOM     67  C   UNL     1     -10.260   8.314   2.677  1.00  0.00     0.023 A 
ATOM     68  C   UNL     1     -11.014   7.891   3.791  1.00  0.00     0.012 A 
ATOM     69  C   UNL     1     -10.864   8.342   1.404  1.00  0.00     0.148 A 
ATOM     70  C   UNL     1     -12.334   7.471   3.636  1.00  0.00     0.002 A 
ATOM     71  C   UNL     1     -12.195   7.967   1.266  1.00  0.00     0.091 A 
ATOM     72  F   UNL     1     -10.124   8.726   0.355  1.00  0.00    -0.205 F 
ATOM     73  C   UNL     1     -12.927   7.520   2.377  1.00  0.00     0.022 A 
BRANCH  71  74
ATOM     74  S   UNL     1     -13.073   8.070  -0.297  1.00  0.00     0.127 S 
ATOM     75  O   UNL     1     -13.284   6.657  -0.610  1.00  0.00    -0.237 OA
ATOM     76  O   UNL     1     -14.284   8.799   0.080  1.00  0.00    -0.237 OA
ATOM     77  O   UNL     1     -12.191   8.784  -1.210  1.00  0.00    -0.744 OA
ENDBRANCH  71  74
ENDBRANCH  53  67
BRANCH  54  78
ATOM     78  C   UNL     1      -0.684  10.963   3.641  1.00  0.00     0.023 A 
ATOM     79  C   UNL     1      -0.263  11.870   4.633  1.00  0.00     0.012 A 
ATOM     80  C   UNL     1       0.264  10.450   2.734  1.00  0.00     0.148 A 
ATOM     81  C   UNL     1       1.069  12.283   4.701  1.00  0.00     0.002 A 
ATOM     82  C   UNL     1       1.599  10.820   2.843  1.00  0.00     0.091 A 
ATOM     83  F   UNL     1      -0.159   9.603   1.785  1.00  0.00    -0.205 F 
ATOM     84  C   UNL     1       2.001  11.751   3.814  1.00  0.00     0.022 A 
BRANCH  82  85
ATOM     85  S   UNL     1       2.889  10.093   1.827  1.00  0.00     0.127 S 
ATOM     86  O   UNL     1       3.316  11.236   1.023  1.00  0.00    -0.237 OA
ATOM     87  O   UNL     1       3.853   9.654   2.837  1.00  0.00    -0.237 OA
ATOM     88  O   UNL     1       2.251   9.010   1.093  1.00  0.00    -0.744 OA
ENDBRANCH  82  85
ENDBRANCH  54  78
BRANCH  66  89
ATOM     89  C   UNL     1      -6.546  14.477   2.195  1.00  0.00     0.023 A 
ATOM     90  C   UNL     1      -6.140  15.016   0.958  1.00  0.00     0.012 A 
ATOM     91  C   UNL     1      -7.271  15.286   3.095  1.00  0.00     0.148 A 
ATOM     92  C   UNL     1      -6.416  16.345   0.638  1.00  0.00     0.002 A 
ATOM     93  C   UNL     1      -7.589  16.593   2.746  1.00  0.00     0.091 A 
ATOM     94  F   UNL     1      -7.638  14.760   4.272  1.00  0.00    -0.205 F 
ATOM     95  C   UNL     1      -7.150  17.129   1.525  1.00  0.00     0.022 A 
BRANCH  93  96
ATOM     96  S   UNL     1      -8.611  17.648   3.780  1.00  0.00     0.127 S 
ATOM     97  O   UNL     1      -7.644  18.648   4.233  1.00  0.00    -0.237 OA
ATOM     98  O   UNL     1      -9.603  18.146   2.827  1.00  0.00    -0.237 OA
ATOM     99  O   UNL     1      -9.152  16.789   4.825  1.00  0.00    -0.744 OA
ENDBRANCH  93  96
ENDBRANCH  66  89
ENDBRANCH  40  41
ENDBRANCH  33  35
ENDBRANCH  32  33
ENDBRANCH  31  32
ENDBRANCH  30  31
ENDBRANCH  29  30
ENDBRANCH  28  29
ENDBRANCH  27  28
ENDBRANCH   1  27
TORSDOF 26
