REMARK SMILES CCNC(=O)c1ccc(SC[C@H](C)C(=O)OCCOCCOCCOCCOC(=O)c2ccc(-c3c4nc(c(-c5cccc(S(=O)(=O)[O-])c5F)c5ccc([nH]5)c(-c5cccc(S(=O)(=O)[O-])c5F)c5nc(c(-c6cccc(S(=O)(=O)[O-])c6F)c6ccc3[nH]6)C=C5)C=C4)cc2)nn1
REMARK SMILES IDX 21 1 20 2 19 3 18 4 17 5 16 6 14 7 15 8 12 9 13 10 11 11
REMARK SMILES IDX 10 12 9 13 6 14 7 15 95 16 8 17 94 18 4 19 3 20 5 22 2 23
REMARK SMILES IDX 1 24 22 25 23 26 24 27 25 28 26 29 27 30 28 31 29 32 30 33
REMARK SMILES IDX 31 34 32 35 93 36 33 37 92 38 34 39 35 40 36 41 86 42 37 43
REMARK SMILES IDX 91 44 85 45 87 46 38 47 90 48 84 49 83 50 39 52 71 53 51 54
REMARK SMILES IDX 70 55 52 56 55 57 69 58 88 59 53 60 54 61 68 63 89 64 56 65
REMARK SMILES IDX 40 66 41 67 49 68 42 69 44 70 50 71 43 72 45 73 46 74 47 75
REMARK SMILES IDX 48 76 72 77 73 78 81 79 74 80 76 81 82 82 75 83 77 84 78 85
REMARK SMILES IDX 79 86 80 87 57 88 58 89 66 90 59 91 61 92 67 93 60 94 62 95
REMARK SMILES IDX 63 96 64 97 65 98
REMARK H PARENT 3 21 87 51 55 62
REMARK Flexibility Score: inf
ROOT
ATOM      1  C   UNL     1      -7.980   0.745   3.008  1.00  0.00     0.188 C 
ENDROOT
BRANCH   1   2
ATOM      2  C   UNL     1      -7.555  -0.611   3.590  1.00  0.00     0.188 C 
BRANCH   2   3
ATOM      3  O   UNL     1      -7.451  -0.815   4.986  1.00  0.00    -0.376 OA
BRANCH   3   4
ATOM      4  C   UNL     1      -6.623  -0.016   5.821  1.00  0.00     0.202 C 
BRANCH   4   5
ATOM      5  C   UNL     1      -5.286   0.615   5.395  1.00  0.00     0.261 C 
BRANCH   5   6
ATOM      6  O   UNL     1      -5.220   1.168   4.076  1.00  0.00    -0.463 OA
BRANCH   6   7
ATOM      7  C   UNL     1      -4.500   0.453   3.189  1.00  0.00     0.309 C 
ATOM      8  O   UNL     1      -3.945  -0.607   3.470  1.00  0.00    -0.252 OA
BRANCH   7   9
ATOM      9  C   UNL     1      -4.542   0.984   1.761  1.00  0.00     0.106 C 
ATOM     10  C   UNL     1      -5.053   2.417   1.580  1.00  0.00     0.021 C 
BRANCH   9  11
ATOM     11  C   UNL     1      -3.124   0.833   1.185  1.00  0.00     0.091 C 
BRANCH  11  12
ATOM     12  S   UNL     1      -3.116   0.329  -0.580  1.00  0.00    -0.104 SA
BRANCH  12  13
ATOM     13  C   UNL     1      -3.533  -1.404  -0.560  1.00  0.00     0.119 A 
ATOM     14  C   UNL     1      -4.267  -4.037  -0.825  1.00  0.00     0.150 A 
ATOM     15  C   UNL     1      -4.178  -3.502   0.443  1.00  0.00     0.039 A 
ATOM     16  N   UNL     1      -3.971  -3.313  -1.922  1.00  0.00    -0.144 NA
ATOM     17  C   UNL     1      -3.798  -2.166   0.568  1.00  0.00     0.040 A 
ATOM     18  N   UNL     1      -3.613  -1.983  -1.780  1.00  0.00    -0.143 NA
BRANCH  14  19
ATOM     19  C   UNL     1      -4.666  -5.447  -1.034  1.00  0.00     0.271 C 
ATOM     20  N   UNL     1      -5.891  -5.890  -0.587  1.00  0.00    -0.351 N 
ATOM     21  H   UNL     1      -6.029  -6.863  -0.633  1.00  0.00     0.163 HD
ATOM     22  O   UNL     1      -3.897  -6.237  -1.575  1.00  0.00    -0.267 OA
BRANCH  20  23
ATOM     23  C   UNL     1      -7.011  -5.130  -0.058  1.00  0.00     0.113 C 
ATOM     24  C   UNL     1      -8.196  -5.181  -1.005  1.00  0.00     0.027 C 
ENDBRANCH  20  23
ENDBRANCH  14  19
ENDBRANCH  12  13
ENDBRANCH  11  12
ENDBRANCH   9  11
ENDBRANCH   7   9
ENDBRANCH   6   7
ENDBRANCH   5   6
ENDBRANCH   4   5
ENDBRANCH   3   4
ENDBRANCH   2   3
ENDBRANCH   1   2
BRANCH   1  25
ATOM     25  O   UNL     1      -7.690   1.862   3.817  1.00  0.00    -0.377 OA
BRANCH  25  26
ATOM     26  C   UNL     1      -8.663   2.317   4.748  1.00  0.00     0.188 C 
BRANCH  26  27
ATOM     27  C   UNL     1      -9.803   1.381   5.199  1.00  0.00     0.188 C 
BRANCH  27  28
ATOM     28  O   UNL     1     -10.446   0.674   4.147  1.00  0.00    -0.376 OA
BRANCH  28  29
ATOM     29  C   UNL     1     -11.633   1.233   3.601  1.00  0.00     0.202 C 
BRANCH  29  30
ATOM     30  C   UNL     1     -11.490   2.571   2.855  1.00  0.00     0.261 C 
BRANCH  30  31
ATOM     31  O   UNL     1     -11.096   3.699   3.654  1.00  0.00    -0.460 OA
BRANCH  31  32
ATOM     32  C   UNL     1     -11.842   3.985   4.743  1.00  0.00     0.338 C 
ATOM     33  O   UNL     1     -12.881   3.451   5.078  1.00  0.00    -0.246 OA
BRANCH  32  34
ATOM     34  C   UNL     1     -11.082   4.925   5.593  1.00  0.00     0.060 A 
ATOM     35  C   UNL     1     -10.841   4.566   6.925  1.00  0.00     0.016 A 
ATOM     36  C   UNL     1     -10.657   6.162   5.102  1.00  0.00     0.016 A 
ATOM     37  C   UNL     1     -10.246   5.478   7.793  1.00  0.00     0.010 A 
ATOM     38  C   UNL     1     -10.073   7.082   5.979  1.00  0.00     0.010 A 
ATOM     39  C   UNL     1      -9.922   6.763   7.341  1.00  0.00    -0.014 A 
BRANCH  39  40
ATOM     40  C   UNL     1      -9.664   7.825   8.344  1.00  0.00     0.031 A 
ATOM     41  C   UNL     1     -10.798   8.745   8.716  1.00  0.00     0.074 A 
ATOM     42  C   UNL     1      -8.473   7.937   8.959  1.00  0.00     0.049 A 
ATOM     43  N   UNL     1     -10.831   9.707   9.599  1.00  0.00    -0.248 NA
ATOM     44  C   UNL     1     -12.068   8.551   7.994  1.00  0.00     0.031 C 
ATOM     45  C   UNL     1      -7.302   7.104   8.696  1.00  0.00     0.029 A 
ATOM     46  N   UNL     1      -8.055   8.813   9.930  1.00  0.00    -0.354 N 
ATOM     47  C   UNL     1     -12.109  10.248   9.523  1.00  0.00     0.074 A 
ATOM     48  C   UNL     1     -12.817   9.521   8.493  1.00  0.00     0.031 C 
ATOM     49  C   UNL     1      -6.289   7.521   9.475  1.00  0.00     0.029 A 
ATOM     50  C   UNL     1      -6.734   8.661  10.277  1.00  0.00     0.049 A 
ATOM     51  H   UNL     1      -8.645   9.487  10.338  1.00  0.00     0.167 HD
ATOM     52  C   UNL     1     -12.656  11.246  10.256  1.00  0.00     0.034 A 
ATOM     53  C   UNL     1      -5.971   9.370  11.132  1.00  0.00     0.034 A 
ATOM     54  C   UNL     1     -11.959  11.959  11.291  1.00  0.00     0.049 A 
ATOM     55  C   UNL     1      -6.596  10.496  11.918  1.00  0.00     0.074 A 
ATOM     56  C   UNL     1     -12.439  12.957  12.120  1.00  0.00     0.029 A 
ATOM     57  N   UNL     1     -10.629  11.763  11.628  1.00  0.00    -0.354 N 
ATOM     58  N   UNL     1      -7.839  10.914  11.921  1.00  0.00    -0.248 NA
ATOM     59  C   UNL     1      -5.719  11.223  12.847  1.00  0.00     0.031 C 
ATOM     60  C   UNL     1     -11.387  13.389  12.935  1.00  0.00     0.029 A 
ATOM     61  C   UNL     1     -10.264  12.633  12.641  1.00  0.00     0.049 A 
ATOM     62  H   UNL     1     -10.032  11.103  11.208  1.00  0.00     0.167 HD
ATOM     63  C   UNL     1      -7.901  11.928  12.872  1.00  0.00     0.074 A 
ATOM     64  C   UNL     1      -6.575  12.040  13.445  1.00  0.00     0.031 C 
ATOM     65  C   UNL     1      -8.953  12.706  13.232  1.00  0.00     0.034 A 
BRANCH  52  66
ATOM     66  C   UNL     1     -14.087  11.617   9.968  1.00  0.00     0.023 A 
ATOM     67  C   UNL     1     -15.129  10.743  10.340  1.00  0.00     0.012 A 
ATOM     68  C   UNL     1     -14.403  12.851   9.366  1.00  0.00     0.148 A 
ATOM     69  C   UNL     1     -16.459  11.074  10.086  1.00  0.00     0.002 A 
ATOM     70  C   UNL     1     -15.733  13.195   9.159  1.00  0.00     0.091 A 
ATOM     71  F   UNL     1     -13.398  13.657   8.996  1.00  0.00    -0.205 F 
ATOM     72  C   UNL     1     -16.761  12.303   9.506  1.00  0.00     0.022 A 
BRANCH  70  73
ATOM     73  S   UNL     1     -16.229  14.786   8.492  1.00  0.00     0.127 S 
ATOM     74  O   UNL     1     -16.753  14.405   7.180  1.00  0.00    -0.237 OA
ATOM     75  O   UNL     1     -17.245  15.218   9.452  1.00  0.00    -0.237 OA
ATOM     76  O   UNL     1     -15.026  15.606   8.468  1.00  0.00    -0.744 OA
ENDBRANCH  70  73
ENDBRANCH  52  66
BRANCH  53  77
ATOM     77  C   UNL     1      -4.533   9.023  11.316  1.00  0.00     0.023 A 
ATOM     78  C   UNL     1      -4.090   8.499  12.546  1.00  0.00     0.012 A 
ATOM     79  C   UNL     1      -3.603   9.213  10.276  1.00  0.00     0.148 A 
ATOM     80  C   UNL     1      -2.740   8.203  12.748  1.00  0.00     0.002 A 
ATOM     81  C   UNL     1      -2.272   8.861  10.464  1.00  0.00     0.091 A 
ATOM     82  F   UNL     1      -4.041   9.729   9.119  1.00  0.00    -0.205 F 
ATOM     83  C   UNL     1      -1.834   8.374  11.705  1.00  0.00     0.022 A 
BRANCH  81  84
ATOM     84  S   UNL     1      -1.062   8.923   9.138  1.00  0.00     0.127 S 
ATOM     85  O   UNL     1      -0.184  10.001   9.585  1.00  0.00    -0.237 OA
ATOM     86  O   UNL     1      -0.478   7.583   9.203  1.00  0.00    -0.237 OA
ATOM     87  O   UNL     1      -1.821   9.189   7.924  1.00  0.00    -0.744 OA
ENDBRANCH  81  84
ENDBRANCH  53  77
BRANCH  65  88
ATOM     88  C   UNL     1      -8.728  13.728  14.318  1.00  0.00     0.023 A 
ATOM     89  C   UNL     1      -7.929  14.861  14.065  1.00  0.00     0.012 A 
ATOM     90  C   UNL     1      -9.354  13.592  15.573  1.00  0.00     0.148 A 
ATOM     91  C   UNL     1      -7.720  15.819  15.058  1.00  0.00     0.002 A 
ATOM     92  C   UNL     1      -9.185  14.577  16.539  1.00  0.00     0.091 A 
ATOM     93  F   UNL     1     -10.098  12.501  15.803  1.00  0.00    -0.205 F 
ATOM     94  C   UNL     1      -8.356  15.682  16.290  1.00  0.00     0.022 A 
BRANCH  92  95
ATOM     95  S   UNL     1     -10.044  14.535  18.117  1.00  0.00     0.127 S 
ATOM     96  O   UNL     1      -8.961  14.189  19.036  1.00  0.00    -0.237 OA
ATOM     97  O   UNL     1     -10.533  15.908  18.241  1.00  0.00    -0.237 OA
ATOM     98  O   UNL     1     -11.091  13.532  17.977  1.00  0.00    -0.744 OA
ENDBRANCH  92  95
ENDBRANCH  65  88
ENDBRANCH  39  40
ENDBRANCH  32  34
ENDBRANCH  31  32
ENDBRANCH  30  31
ENDBRANCH  29  30
ENDBRANCH  28  29
ENDBRANCH  27  28
ENDBRANCH  26  27
ENDBRANCH  25  26
ENDBRANCH   1  25
TORSDOF 28
