REMARK SMILES CCc1sc(NC(=O)[C@H]2CC(C)=C(C)C[C@H]2C(=O)OCCOCCOCCOCCOC(=O)c2ccc(-c3c4nc(c(-c5cccc(S(=O)(=O)[O-])c5F)c5ccc([nH]5)c(-c5cccc(S(=O)(=O)[O-])c5F)c5nc(c(-c6cccc(S(=O)(=O)[O-])c6F)c6ccc3[nH]6)C=C5)C=C4)cc2)nc1-c1ccccc1
REMARK SMILES IDX 25 1 24 2 23 3 22 4 21 5 20 6 19 7 17 8 18 9 16 10 9 11
REMARK SMILES IDX 10 12 11 13 15 14 12 15 13 16 14 17 7 18 6 19 8 21 5 22 3 23
REMARK SMILES IDX 4 24 98 25 97 26 2 27 1 28 99 29 100 30 104 31 101 32 103 33
REMARK SMILES IDX 102 34 26 35 27 36 28 37 29 38 30 39 31 40 32 41 33 42 34 43
REMARK SMILES IDX 35 44 96 45 36 46 95 47 37 48 38 49 39 50 89 51 40 52 94 53
REMARK SMILES IDX 88 54 90 55 41 56 93 57 87 58 86 59 42 61 74 62 54 63 73 64
REMARK SMILES IDX 55 65 58 66 72 67 91 68 56 69 57 70 71 72 92 73 59 74 43 75
REMARK SMILES IDX 44 76 52 77 45 78 47 79 53 80 46 81 48 82 49 83 50 84 51 85
REMARK SMILES IDX 75 86 76 87 84 88 77 89 79 90 85 91 78 92 80 93 81 94 82 95
REMARK SMILES IDX 83 96 60 97 61 98 69 99 62 100 64 101 70 102 63 103 65 104
REMARK SMILES IDX 66 105 67 106 68 107
REMARK H PARENT 6 20 90 60 58 71
REMARK Flexibility Score: inf
ROOT
ATOM      1  O   UNL     1       0.997   5.256   5.301  1.00  0.00    -0.377 OA
ENDROOT
BRANCH   1   2
ATOM      2  C   UNL     1       2.309   5.759   5.505  1.00  0.00     0.188 C 
BRANCH   2   3
ATOM      3  C   UNL     1       3.307   5.730   4.355  1.00  0.00     0.188 C 
BRANCH   3   4
ATOM      4  O   UNL     1       2.836   6.220   3.109  1.00  0.00    -0.376 OA
BRANCH   4   5
ATOM      5  C   UNL     1       2.290   5.215   2.247  1.00  0.00     0.202 C 
BRANCH   5   6
ATOM      6  C   UNL     1       3.333   4.239   1.680  1.00  0.00     0.261 C 
BRANCH   6   7
ATOM      7  O   UNL     1       3.479   3.068   2.524  1.00  0.00    -0.463 OA
BRANCH   7   8
ATOM      8  C   UNL     1       4.724   2.663   2.861  1.00  0.00     0.310 C 
ATOM      9  O   UNL     1       5.751   3.226   2.498  1.00  0.00    -0.252 OA
BRANCH   8  10
ATOM     10  C   UNL     1       4.744   1.392   3.709  1.00  0.00     0.116 C 
ATOM     11  C   UNL     1       3.990   1.420   5.044  1.00  0.00     0.097 C 
ATOM     12  C   UNL     1       3.743   0.084   5.737  1.00  0.00     0.045 C 
ATOM     13  C   UNL     1       3.686  -1.126   4.856  1.00  0.00    -0.074 C 
ATOM     14  C   UNL     1       4.559   0.137   2.851  1.00  0.00     0.046 C 
ATOM     15  C   UNL     1       3.003  -2.290   5.537  1.00  0.00     0.039 C 
ATOM     16  C   UNL     1       4.088  -1.114   3.567  1.00  0.00    -0.073 C 
ATOM     17  C   UNL     1       3.980  -2.337   2.694  1.00  0.00     0.039 C 
BRANCH  11  18
ATOM     18  C   UNL     1       2.838   2.355   5.381  1.00  0.00     0.230 C 
ATOM     19  N   UNL     1       1.699   2.579   4.696  1.00  0.00    -0.302 N 
ATOM     20  H   UNL     1       1.204   3.366   5.022  1.00  0.00     0.172 HD
ATOM     21  O   UNL     1       2.981   2.988   6.443  1.00  0.00    -0.274 OA
BRANCH  19  22
ATOM     22  C   UNL     1       1.078   1.960   3.650  1.00  0.00     0.190 A 
ATOM     23  C   UNL     1       0.282   0.440   1.953  1.00  0.00     0.034 A 
ATOM     24  S   UNL     1       1.131   0.291   3.430  1.00  0.00    -0.101 S 
ATOM     25  C   UNL     1      -0.130   1.755   1.821  1.00  0.00     0.087 A 
ATOM     26  N   UNL     1       0.297   2.611   2.820  1.00  0.00    -0.220 NA
BRANCH  23  27
ATOM     27  C   UNL     1       0.095  -0.745   1.053  1.00  0.00     0.046 C 
ATOM     28  C   UNL     1       0.941  -0.625  -0.210  1.00  0.00     0.010 C 
ENDBRANCH  23  27
BRANCH  25  29
ATOM     29  C   UNL     1      -0.885   2.236   0.682  1.00  0.00     0.001 A 
ATOM     30  C   UNL     1      -2.195   1.796   0.469  1.00  0.00     0.010 A 
ATOM     31  C   UNL     1      -0.275   3.078  -0.256  1.00  0.00     0.010 A 
ATOM     32  C   UNL     1      -2.876   2.163  -0.691  1.00  0.00     0.001 A 
ATOM     33  C   UNL     1      -0.957   3.440  -1.419  1.00  0.00     0.001 A 
ATOM     34  C   UNL     1      -2.253   2.976  -1.639  1.00  0.00     0.000 A 
ENDBRANCH  25  29
ENDBRANCH  19  22
ENDBRANCH  11  18
ENDBRANCH   8  10
ENDBRANCH   7   8
ENDBRANCH   6   7
ENDBRANCH   5   6
ENDBRANCH   4   5
ENDBRANCH   3   4
ENDBRANCH   2   3
ENDBRANCH   1   2
BRANCH   1  35
ATOM     35  C   UNL     1       0.016   6.111   4.716  1.00  0.00     0.188 C 
BRANCH  35  36
ATOM     36  C   UNL     1      -0.175   7.566   5.203  1.00  0.00     0.188 C 
BRANCH  36  37
ATOM     37  O   UNL     1       0.892   8.139   5.933  1.00  0.00    -0.376 OA
BRANCH  37  38
ATOM     38  C   UNL     1       0.755   8.200   7.354  1.00  0.00     0.202 C 
BRANCH  38  39
ATOM     39  C   UNL     1       0.533   6.906   8.166  1.00  0.00     0.261 C 
BRANCH  39  40
ATOM     40  O   UNL     1      -0.533   6.052   7.732  1.00  0.00    -0.460 OA
BRANCH  40  41
ATOM     41  C   UNL     1      -1.783   6.506   7.917  1.00  0.00     0.338 C 
ATOM     42  O   UNL     1      -2.111   7.601   8.371  1.00  0.00    -0.246 OA
BRANCH  41  43
ATOM     43  C   UNL     1      -2.721   5.530   7.345  1.00  0.00     0.060 A 
ATOM     44  C   UNL     1      -3.422   5.870   6.182  1.00  0.00     0.016 A 
ATOM     45  C   UNL     1      -2.953   4.311   7.988  1.00  0.00     0.016 A 
ATOM     46  C   UNL     1      -4.390   5.006   5.677  1.00  0.00     0.010 A 
ATOM     47  C   UNL     1      -3.946   3.458   7.496  1.00  0.00     0.010 A 
ATOM     48  C   UNL     1      -4.697   3.826   6.365  1.00  0.00    -0.014 A 
BRANCH  48  49
ATOM     49  C   UNL     1      -5.965   3.128   6.050  1.00  0.00     0.031 A 
ATOM     50  C   UNL     1      -7.192   3.513   6.831  1.00  0.00     0.074 A 
ATOM     51  C   UNL     1      -6.043   2.205   5.076  1.00  0.00     0.049 A 
ATOM     52  N   UNL     1      -8.418   3.074   6.725  1.00  0.00    -0.248 NA
ATOM     53  C   UNL     1      -7.007   4.540   7.871  1.00  0.00     0.031 C 
ATOM     54  C   UNL     1      -4.936   1.772   4.228  1.00  0.00     0.029 A 
ATOM     55  N   UNL     1      -7.112   1.458   4.650  1.00  0.00    -0.354 N 
ATOM     56  C   UNL     1      -9.146   3.754   7.694  1.00  0.00     0.074 A 
ATOM     57  C   UNL     1      -8.221   4.621   8.390  1.00  0.00     0.031 C 
ATOM     58  C   UNL     1      -5.380   0.818   3.392  1.00  0.00     0.029 A 
ATOM     59  C   UNL     1      -6.795   0.559   3.661  1.00  0.00     0.049 A 
ATOM     60  H   UNL     1      -8.020   1.557   5.018  1.00  0.00     0.167 HD
ATOM     61  C   UNL     1     -10.469   3.679   7.973  1.00  0.00     0.034 A 
ATOM     62  C   UNL     1      -7.560  -0.371   3.055  1.00  0.00     0.034 A 
ATOM     63  C   UNL     1     -11.385   2.808   7.290  1.00  0.00     0.049 A 
ATOM     64  C   UNL     1      -9.016  -0.491   3.433  1.00  0.00     0.074 A 
ATOM     65  C   UNL     1     -12.748   2.671   7.480  1.00  0.00     0.029 A 
ATOM     66  N   UNL     1     -11.026   1.905   6.300  1.00  0.00    -0.354 N 
ATOM     67  N   UNL     1      -9.716   0.231   4.274  1.00  0.00    -0.248 NA
ATOM     68  C   UNL     1      -9.793  -1.539   2.753  1.00  0.00     0.031 C 
ATOM     69  C   UNL     1     -13.206   1.656   6.632  1.00  0.00     0.029 A 
ATOM     70  C   UNL     1     -12.136   1.191   5.883  1.00  0.00     0.049 A 
ATOM     71  H   UNL     1     -10.114   1.789   5.946  1.00  0.00     0.167 HD
ATOM     72  C   UNL     1     -11.023  -0.243   4.194  1.00  0.00     0.074 A 
ATOM     73  C   UNL     1     -11.017  -1.309   3.212  1.00  0.00     0.031 C 
ATOM     74  C   UNL     1     -12.125   0.163   4.873  1.00  0.00     0.034 A 
BRANCH  61  75
ATOM     75  C   UNL     1     -10.988   4.567   9.074  1.00  0.00     0.023 A 
ATOM     76  C   UNL     1     -11.046   5.963   8.882  1.00  0.00     0.012 A 
ATOM     77  C   UNL     1     -11.412   4.022  10.301  1.00  0.00     0.148 A 
ATOM     78  C   UNL     1     -11.466   6.806   9.911  1.00  0.00     0.002 A 
ATOM     79  C   UNL     1     -11.877   4.864  11.304  1.00  0.00     0.091 A 
ATOM     80  F   UNL     1     -11.325   2.696  10.477  1.00  0.00    -0.205 F 
ATOM     81  C   UNL     1     -11.889   6.256  11.118  1.00  0.00     0.022 A 
BRANCH  79  82
ATOM     82  S   UNL     1     -12.516   4.242  12.863  1.00  0.00     0.127 S 
ATOM     83  O   UNL     1     -11.428   4.572  13.782  1.00  0.00    -0.237 OA
ATOM     84  O   UNL     1     -13.728   5.043  13.041  1.00  0.00    -0.237 OA
ATOM     85  O   UNL     1     -12.757   2.821  12.656  1.00  0.00    -0.744 OA
ENDBRANCH  79  82
ENDBRANCH  61  75
BRANCH  62  86
ATOM     86  C   UNL     1      -6.974  -1.232   1.988  1.00  0.00     0.023 A 
ATOM     87  C   UNL     1      -7.395  -1.063   0.655  1.00  0.00     0.012 A 
ATOM     88  C   UNL     1      -5.986  -2.193   2.280  1.00  0.00     0.148 A 
ATOM     89  C   UNL     1      -6.863  -1.852  -0.365  1.00  0.00     0.002 A 
ATOM     90  C   UNL     1      -5.418  -2.935   1.252  1.00  0.00     0.091 A 
ATOM     91  F   UNL     1      -5.606  -2.344   3.556  1.00  0.00    -0.205 F 
ATOM     92  C   UNL     1      -5.869  -2.781  -0.069  1.00  0.00     0.022 A 
BRANCH  90  93
ATOM     93  S   UNL     1      -4.042  -4.060   1.512  1.00  0.00     0.127 S 
ATOM     94  O   UNL     1      -4.608  -5.334   1.076  1.00  0.00    -0.237 OA
ATOM     95  O   UNL     1      -3.028  -3.496   0.619  1.00  0.00    -0.237 OA
ATOM     96  O   UNL     1      -3.717  -3.972   2.928  1.00  0.00    -0.744 OA
ENDBRANCH  90  93
ENDBRANCH  62  86
BRANCH  74  97
ATOM     97  C   UNL     1     -13.438  -0.512   4.556  1.00  0.00     0.023 A 
ATOM     98  C   UNL     1     -13.668  -1.840   4.969  1.00  0.00     0.012 A 
ATOM     99  C   UNL     1     -14.474   0.202   3.921  1.00  0.00     0.148 A 
ATOM    100  C   UNL     1     -14.895  -2.456   4.724  1.00  0.00     0.002 A 
ATOM    101  C   UNL     1     -15.711  -0.401   3.727  1.00  0.00     0.091 A 
ATOM    102  F   UNL     1     -14.233   1.459   3.521  1.00  0.00    -0.205 F 
ATOM    103  C   UNL     1     -15.919  -1.734   4.115  1.00  0.00     0.022 A 
BRANCH 101 104
ATOM    104  S   UNL     1     -17.119   0.481   3.044  1.00  0.00     0.127 S 
ATOM    105  O   UNL     1     -17.252  -0.143   1.728  1.00  0.00    -0.237 OA
ATOM    106  O   UNL     1     -18.184   0.144   3.989  1.00  0.00    -0.237 OA
ATOM    107  O   UNL     1     -16.745   1.889   3.031  1.00  0.00    -0.744 OA
ENDBRANCH 101 104
ENDBRANCH  74  97
ENDBRANCH  48  49
ENDBRANCH  41  43
ENDBRANCH  40  41
ENDBRANCH  39  40
ENDBRANCH  38  39
ENDBRANCH  37  38
ENDBRANCH  36  37
ENDBRANCH  35  36
ENDBRANCH   1  35
TORSDOF 27
