REMARK SMILES CO[C@@H]1C[C@@H](C(=O)OCCOCCOCCOCCOC(=O)c2ccc(-c3c4nc(c(-c5cccc(S(=O)(=O)[O-])c5F)c5ccc([nH]5)c(-c5cccc(S(=O)(=O)[O-])c5F)c5nc(c(-c6cccc(S(=O)(=O)[O-])c6F)c6ccc3[nH]6)C=C5)C=C4)cc2)N(S(=O)(=O)c2ccc(Cl)cc2F)C1
REMARK SMILES IDX 15 1 14 2 13 3 12 4 11 5 10 6 9 7 8 8 6 9 7 10 5 11 3 12
REMARK SMILES IDX 4 13 98 14 86 15 2 16 1 17 87 18 88 19 89 20 90 21 91 22
REMARK SMILES IDX 96 23 92 24 95 25 97 26 93 27 94 28 16 29 17 30 18 31 19 32
REMARK SMILES IDX 20 33 21 34 22 35 23 36 24 37 85 38 25 39 84 40 26 41 27 42
REMARK SMILES IDX 28 43 78 44 29 45 83 46 77 47 79 48 30 49 82 50 76 51 75 52
REMARK SMILES IDX 31 54 63 55 43 56 62 57 44 58 47 59 61 60 80 61 45 62 46 63
REMARK SMILES IDX 60 65 81 66 48 67 32 68 33 69 41 70 34 71 36 72 42 73 35 74
REMARK SMILES IDX 37 75 38 76 39 77 40 78 64 79 65 80 73 81 66 82 68 83 74 84
REMARK SMILES IDX 67 85 69 86 70 87 71 88 72 89 49 90 50 91 58 92 51 93 53 94
REMARK SMILES IDX 59 95 52 96 54 97 55 98 56 99 57 100
REMARK H PARENT 79 53 47 64
REMARK Flexibility Score: inf
ROOT
ATOM      1  C   UNL     1      -5.118   1.319  -4.214  1.00  0.00     0.188 C 
ENDROOT
BRANCH   1   2
ATOM      2  O   UNL     1      -4.049   0.428  -3.906  1.00  0.00    -0.377 OA
BRANCH   2   3
ATOM      3  C   UNL     1      -2.891   0.968  -3.302  1.00  0.00     0.188 C 
BRANCH   3   4
ATOM      4  C   UNL     1      -1.900   1.563  -4.319  1.00  0.00     0.188 C 
BRANCH   4   5
ATOM      5  O   UNL     1      -2.395   1.714  -5.640  1.00  0.00    -0.376 OA
BRANCH   5   6
ATOM      6  C   UNL     1      -2.538   0.634  -6.553  1.00  0.00     0.202 C 
BRANCH   6   7
ATOM      7  C   UNL     1      -3.007  -0.770  -6.135  1.00  0.00     0.261 C 
BRANCH   7   8
ATOM      8  O   UNL     1      -2.313  -1.437  -5.071  1.00  0.00    -0.462 OA
BRANCH   8   9
ATOM      9  C   UNL     1      -0.982  -1.259  -4.943  1.00  0.00     0.324 C 
ATOM     10  O   UNL     1      -0.271  -0.629  -5.711  1.00  0.00    -0.250 OA
BRANCH   9  11
ATOM     11  C   UNL     1      -0.478  -1.926  -3.701  1.00  0.00     0.185 C 
ATOM     12  C   UNL     1       1.245  -1.988  -2.042  1.00  0.00     0.135 C 
ATOM     13  C   UNL     1       0.584  -1.055  -3.035  1.00  0.00     0.065 C 
ATOM     14  C   UNL     1       0.989  -3.409  -2.604  1.00  0.00     0.135 C 
ATOM     15  N   UNL     1       0.142  -3.267  -3.851  1.00  0.00    -0.181 NA
BRANCH  12  16
ATOM     16  O   UNL     1       0.653  -1.839  -0.744  1.00  0.00    -0.380 OA
ATOM     17  C   UNL     1       1.087  -0.664  -0.059  1.00  0.00     0.195 C 
ENDBRANCH  12  16
BRANCH  15  18
ATOM     18  S   UNL     1       1.002  -3.637  -5.298  1.00  0.00     0.246 S 
ATOM     19  O   UNL     1       2.039  -2.634  -5.409  1.00  0.00    -0.207 OA
ATOM     20  O   UNL     1       1.367  -5.036  -5.207  1.00  0.00    -0.207 OA
BRANCH  18  21
ATOM     21  C   UNL     1      -0.138  -3.512  -6.654  1.00  0.00     0.118 A 
ATOM     22  C   UNL     1      -1.250  -4.361  -6.714  1.00  0.00     0.026 A 
ATOM     23  C   UNL     1       0.066  -2.580  -7.674  1.00  0.00     0.144 A 
ATOM     24  C   UNL     1      -2.173  -4.227  -7.763  1.00  0.00     0.022 A 
ATOM     25  C   UNL     1      -0.875  -2.411  -8.689  1.00  0.00     0.061 A 
ATOM     26  F   UNL     1       1.135  -1.773  -7.690  1.00  0.00    -0.205 F 
ATOM     27  C   UNL     1      -1.993  -3.238  -8.732  1.00  0.00     0.044 A 
ATOM     28  Cl  UNL     1      -3.179  -2.995  -9.954  1.00  0.00    -0.084 Cl
ENDBRANCH  18  21
ENDBRANCH  15  18
ENDBRANCH   9  11
ENDBRANCH   8   9
ENDBRANCH   7   8
ENDBRANCH   6   7
ENDBRANCH   5   6
ENDBRANCH   4   5
ENDBRANCH   3   4
ENDBRANCH   2   3
ENDBRANCH   1   2
BRANCH   1  29
ATOM     29  C   UNL     1      -4.813   2.762  -4.666  1.00  0.00     0.188 C 
BRANCH  29  30
ATOM     30  O   UNL     1      -3.878   3.427  -3.825  1.00  0.00    -0.376 OA
BRANCH  30  31
ATOM     31  C   UNL     1      -4.360   4.352  -2.870  1.00  0.00     0.202 C 
BRANCH  31  32
ATOM     32  C   UNL     1      -5.170   3.771  -1.702  1.00  0.00     0.261 C 
BRANCH  32  33
ATOM     33  O   UNL     1      -6.344   3.019  -2.047  1.00  0.00    -0.460 OA
BRANCH  33  34
ATOM     34  C   UNL     1      -7.282   3.621  -2.810  1.00  0.00     0.338 C 
ATOM     35  O   UNL     1      -7.294   4.791  -3.156  1.00  0.00    -0.246 OA
BRANCH  34  36
ATOM     36  C   UNL     1      -8.173   2.572  -3.363  1.00  0.00     0.060 A 
ATOM     37  C   UNL     1      -8.396   2.544  -4.748  1.00  0.00     0.016 A 
ATOM     38  C   UNL     1      -8.765   1.612  -2.537  1.00  0.00     0.016 A 
ATOM     39  C   UNL     1      -9.265   1.604  -5.300  1.00  0.00     0.010 A 
ATOM     40  C   UNL     1      -9.656   0.685  -3.088  1.00  0.00     0.010 A 
ATOM     41  C   UNL     1      -9.950   0.715  -4.463  1.00  0.00    -0.014 A 
BRANCH  41  42
ATOM     42  C   UNL     1     -11.156   0.029  -4.988  1.00  0.00     0.031 A 
ATOM     43  C   UNL     1     -12.496   0.667  -4.726  1.00  0.00     0.074 A 
ATOM     44  C   UNL     1     -11.078  -1.102  -5.709  1.00  0.00     0.049 A 
ATOM     45  N   UNL     1     -13.688   0.281  -5.095  1.00  0.00    -0.248 NA
ATOM     46  C   UNL     1     -12.485   1.913  -3.938  1.00  0.00     0.031 C 
ATOM     47  C   UNL     1      -9.845  -1.814  -6.037  1.00  0.00     0.029 A 
ATOM     48  N   UNL     1     -12.070  -1.861  -6.278  1.00  0.00    -0.354 N 
ATOM     49  C   UNL     1     -14.569   1.215  -4.561  1.00  0.00     0.074 A 
ATOM     50  C   UNL     1     -13.777   2.178  -3.830  1.00  0.00     0.031 C 
ATOM     51  C   UNL     1     -10.158  -2.928  -6.723  1.00  0.00     0.029 A 
ATOM     52  C   UNL     1     -11.611  -3.015  -6.866  1.00  0.00     0.049 A 
ATOM     53  H   UNL     1     -13.021  -1.603  -6.266  1.00  0.00     0.167 HD
ATOM     54  C   UNL     1     -15.916   1.278  -4.679  1.00  0.00     0.034 A 
ATOM     55  C   UNL     1     -12.290  -4.034  -7.432  1.00  0.00     0.034 A 
ATOM     56  C   UNL     1     -16.704   0.326  -5.411  1.00  0.00     0.049 A 
ATOM     57  C   UNL     1     -13.792  -3.954  -7.536  1.00  0.00     0.074 A 
ATOM     58  C   UNL     1     -18.069   0.326  -5.629  1.00  0.00     0.029 A 
ATOM     59  N   UNL     1     -16.200  -0.810  -6.026  1.00  0.00    -0.354 N 
ATOM     60  N   UNL     1     -14.601  -3.004  -7.133  1.00  0.00    -0.248 NA
ATOM     61  C   UNL     1     -14.472  -5.070  -8.211  1.00  0.00     0.031 C 
ATOM     62  C   UNL     1     -18.397  -0.832  -6.341  1.00  0.00     0.029 A 
ATOM     63  C   UNL     1     -17.229  -1.528  -6.610  1.00  0.00     0.049 A 
ATOM     64  H   UNL     1     -15.250  -1.067  -6.045  1.00  0.00     0.167 HD
ATOM     65  C   UNL     1     -15.877  -3.388  -7.535  1.00  0.00     0.074 A 
ATOM     66  C   UNL     1     -15.729  -4.647  -8.235  1.00  0.00     0.031 C 
ATOM     67  C   UNL     1     -17.064  -2.761  -7.338  1.00  0.00     0.034 A 
BRANCH  54  68
ATOM     68  C   UNL     1     -16.618   2.421  -3.993  1.00  0.00     0.023 A 
ATOM     69  C   UNL     1     -16.471   3.736  -4.481  1.00  0.00     0.012 A 
ATOM     70  C   UNL     1     -17.442   2.187  -2.875  1.00  0.00     0.148 A 
ATOM     71  C   UNL     1     -17.101   4.804  -3.844  1.00  0.00     0.002 A 
ATOM     72  C   UNL     1     -18.106   3.251  -2.276  1.00  0.00     0.091 A 
ATOM     73  F   UNL     1     -17.547   0.935  -2.408  1.00  0.00    -0.205 F 
ATOM     74  C   UNL     1     -17.925   4.561  -2.749  1.00  0.00     0.022 A 
BRANCH  72  75
ATOM     75  S   UNL     1     -19.253   3.027  -0.912  1.00  0.00     0.127 S 
ATOM     76  O   UNL     1     -18.506   3.613   0.200  1.00  0.00    -0.237 OA
ATOM     77  O   UNL     1     -20.407   3.812  -1.351  1.00  0.00    -0.237 OA
ATOM     78  O   UNL     1     -19.492   1.594  -0.819  1.00  0.00    -0.744 OA
ENDBRANCH  72  75
ENDBRANCH  54  68
BRANCH  55  79
ATOM     79  C   UNL     1     -11.550  -5.216  -7.960  1.00  0.00     0.023 A 
ATOM     80  C   UNL     1     -11.503  -5.458  -9.346  1.00  0.00     0.012 A 
ATOM     81  C   UNL     1     -10.879  -6.094  -7.086  1.00  0.00     0.148 A 
ATOM     82  C   UNL     1     -10.828  -6.571  -9.850  1.00  0.00     0.002 A 
ATOM     83  C   UNL     1     -10.158  -7.165  -7.599  1.00  0.00     0.091 A 
ATOM     84  F   UNL     1     -10.951  -5.856  -5.769  1.00  0.00    -0.205 F 
ATOM     85  C   UNL     1     -10.146  -7.417  -8.979  1.00  0.00     0.022 A 
BRANCH  83  86
ATOM     86  S   UNL     1      -9.142  -8.226  -6.566  1.00  0.00     0.127 S 
ATOM     87  O   UNL     1      -9.842  -9.503  -6.667  1.00  0.00    -0.237 OA
ATOM     88  O   UNL     1      -7.854  -8.170  -7.258  1.00  0.00    -0.237 OA
ATOM     89  O   UNL     1      -9.141  -7.610  -5.246  1.00  0.00    -0.744 OA
ENDBRANCH  83  86
ENDBRANCH  55  79
BRANCH  67  90
ATOM     90  C   UNL     1     -18.300  -3.399  -7.923  1.00  0.00     0.023 A 
ATOM     91  C   UNL     1     -18.805  -4.596  -7.379  1.00  0.00     0.012 A 
ATOM     92  C   UNL     1     -18.994  -2.776  -8.980  1.00  0.00     0.148 A 
ATOM     93  C   UNL     1     -19.953  -5.188  -7.908  1.00  0.00     0.002 A 
ATOM     94  C   UNL     1     -20.167  -3.341  -9.465  1.00  0.00     0.091 A 
ATOM     95  F   UNL     1     -18.492  -1.645  -9.496  1.00  0.00    -0.205 F 
ATOM     96  C   UNL     1     -20.639  -4.555  -8.942  1.00  0.00     0.022 A 
BRANCH  94  97
ATOM     97  S   UNL     1     -21.169  -2.543 -10.725  1.00  0.00     0.127 S 
ATOM     98  O   UNL     1     -20.898  -3.378 -11.893  1.00  0.00    -0.237 OA
ATOM     99  O   UNL     1     -22.520  -2.678 -10.178  1.00  0.00    -0.237 OA
ATOM    100  O   UNL     1     -20.688  -1.171 -10.810  1.00  0.00    -0.744 OA
ENDBRANCH  94  97
ENDBRANCH  67  90
ENDBRANCH  41  42
ENDBRANCH  34  36
ENDBRANCH  33  34
ENDBRANCH  32  33
ENDBRANCH  31  32
ENDBRANCH  30  31
ENDBRANCH  29  30
ENDBRANCH   1  29
TORSDOF 26
