REMARK SMILES C=C[C@@H]1[C@@H](O)C[C@H]2[C@]3(CC[C@]4(C)[C@@H]([C@H](C)CCC=C(C)C)CC[C@]24C)C[C@]13CCC(=O)OCCOCCOCCOCCOC(=O)c1ccc(-c2c3nc(c(-c4cccc(S(=O)(=O)[O-])c4F)c4ccc([nH]4)c(-c4cccc(S(=O)(=O)[O-])c4F)c4nc(c(-c5cccc(S(=O)(=O)[O-])c5F)c5ccc2[nH]5)C=C4)C=C3)cc1
REMARK SMILES IDX 36 1 35 2 34 3 33 4 32 5 30 6 31 7 29 8 28 9 27 10 3 11 4 12
REMARK SMILES IDX 6 13 8 14 26 15 7 16 9 17 24 18 10 19 11 20 23 21 25 22
REMARK SMILES IDX 13 23 12 24 22 25 2 26 1 27 5 28 14 30 15 31 16 32 17 33
REMARK SMILES IDX 18 34 19 35 20 36 21 37 37 38 38 39 39 40 40 41 41 42 42 43
REMARK SMILES IDX 43 44 44 45 45 46 46 47 47 48 48 49 109 50 49 51 108 52
REMARK SMILES IDX 50 53 51 54 52 55 102 56 53 57 107 58 101 59 103 60 54 61
REMARK SMILES IDX 106 62 100 63 99 64 55 66 87 67 67 68 86 69 68 70 71 71
REMARK SMILES IDX 85 72 104 73 69 74 70 75 84 77 105 78 72 79 56 80 57 81
REMARK SMILES IDX 65 82 58 83 60 84 66 85 59 86 61 87 62 88 63 89 64 90 88 91
REMARK SMILES IDX 89 92 97 93 90 94 92 95 98 96 91 97 93 98 94 99 95 100
REMARK SMILES IDX 96 101 73 102 74 103 82 104 75 105 77 106 83 107 76 108
REMARK SMILES IDX 78 109 79 110 80 111 81 112
REMARK H PARENT 5 29 103 65 71 76
REMARK Flexibility Score: inf
ROOT
ATOM      1  C   UNL     1      -0.786   1.435   5.192  1.00  0.00     0.188 C 
ENDROOT
BRANCH   1   2
ATOM      2  O   UNL     1       0.597   1.684   5.275  1.00  0.00    -0.376 OA
BRANCH   2   3
ATOM      3  C   UNL     1       1.512   1.013   4.428  1.00  0.00     0.202 C 
BRANCH   3   4
ATOM      4  C   UNL     1       1.119   0.225   3.172  1.00  0.00     0.261 C 
BRANCH   4   5
ATOM      5  O   UNL     1      -0.194   0.443   2.653  1.00  0.00    -0.463 OA
BRANCH   5   6
ATOM      6  C   UNL     1      -0.998  -0.641   2.626  1.00  0.00     0.305 C 
ATOM      7  O   UNL     1      -0.713  -1.734   3.110  1.00  0.00    -0.252 OA
BRANCH   6   8
ATOM      8  C   UNL     1      -2.338  -0.415   1.979  1.00  0.00     0.123 C 
BRANCH   8   9
ATOM      9  C   UNL     1      -2.705   0.877   1.263  1.00  0.00     0.020 C 
BRANCH   9  10
ATOM     10  C   UNL     1      -1.829   1.505   0.180  1.00  0.00    -0.014 C 
ATOM     11  C   UNL     1      -0.745   0.580  -0.443  1.00  0.00     0.047 C 
ATOM     12  C   UNL     1      -1.132   0.164  -1.868  1.00  0.00     0.122 C 
ATOM     13  C   UNL     1      -1.532   1.383  -2.688  1.00  0.00     0.037 C 
ATOM     14  C   UNL     1      -2.727   2.469  -0.688  1.00  0.00    -0.019 C 
ATOM     15  C   UNL     1      -1.529   3.002   0.013  1.00  0.00     0.016 C 
ATOM     16  C   UNL     1      -2.824   2.027  -2.146  1.00  0.00     0.005 C 
ATOM     17  C   UNL     1      -4.022   3.089  -0.141  1.00  0.00     0.008 C 
ATOM     18  C   UNL     1      -3.454   3.118  -3.089  1.00  0.00    -0.023 C 
ATOM     19  C   UNL     1      -4.584   4.179  -1.051  1.00  0.00     0.008 C 
ATOM     20  C   UNL     1      -4.812   3.710  -2.502  1.00  0.00    -0.024 C 
ATOM     21  C   UNL     1      -3.993   2.419  -4.360  1.00  0.00     0.008 C 
ATOM     22  C   UNL     1      -2.417   4.209  -3.432  1.00  0.00     0.012 C 
ATOM     23  C   UNL     1      -5.752   2.463  -2.605  1.00  0.00    -0.002 C 
ATOM     24  C   UNL     1      -5.335   4.893  -3.358  1.00  0.00     0.012 C 
ATOM     25  C   UNL     1      -5.355   1.827  -3.966  1.00  0.00     0.005 C 
BRANCH  11  26
ATOM     26  C   UNL     1       0.686   1.103  -0.403  1.00  0.00    -0.028 C 
ATOM     27  C   UNL     1       1.777   0.327  -0.342  1.00  0.00     0.004 C 
ENDBRANCH  11  26
BRANCH  12  28
ATOM     28  O   UNL     1      -2.196  -0.800  -1.821  1.00  0.00    -0.392 OA
ATOM     29  H   UNL     1      -2.971  -0.405  -1.393  1.00  0.00     0.210 HD
ENDBRANCH  12  28
BRANCH  23  30
ATOM     30  C   UNL     1      -7.297   2.459  -2.403  1.00  0.00    -0.010 C 
ATOM     31  C   UNL     1      -7.923   3.632  -1.644  1.00  0.00     0.008 C 
BRANCH  30  32
ATOM     32  C   UNL     1      -7.712   1.133  -1.671  1.00  0.00     0.008 C 
BRANCH  32  33
ATOM     33  C   UNL     1      -8.837   0.344  -2.341  1.00  0.00     0.027 C 
BRANCH  33  34
ATOM     34  C   UNL     1      -8.351  -0.303  -3.608  1.00  0.00    -0.028 C 
ATOM     35  C   UNL     1      -8.081  -1.609  -3.799  1.00  0.00    -0.080 C 
ATOM     36  C   UNL     1      -7.498  -2.084  -5.102  1.00  0.00     0.039 C 
ATOM     37  C   UNL     1      -8.280  -2.667  -2.750  1.00  0.00     0.039 C 
ENDBRANCH  33  34
ENDBRANCH  32  33
ENDBRANCH  30  32
ENDBRANCH  23  30
ENDBRANCH   9  10
ENDBRANCH   8   9
ENDBRANCH   6   8
ENDBRANCH   5   6
ENDBRANCH   4   5
ENDBRANCH   3   4
ENDBRANCH   2   3
ENDBRANCH   1   2
BRANCH   1  38
ATOM     38  C   UNL     1      -1.615   2.382   4.308  1.00  0.00     0.188 C 
BRANCH  38  39
ATOM     39  O   UNL     1      -1.038   3.086   3.223  1.00  0.00    -0.377 OA
BRANCH  39  40
ATOM     40  C   UNL     1       0.167   3.823   3.375  1.00  0.00     0.188 C 
BRANCH  40  41
ATOM     41  C   UNL     1       0.498   4.488   4.723  1.00  0.00     0.188 C 
BRANCH  41  42
ATOM     42  O   UNL     1      -0.545   4.429   5.679  1.00  0.00    -0.376 OA
BRANCH  42  43
ATOM     43  C   UNL     1      -1.417   5.547   5.769  1.00  0.00     0.202 C 
BRANCH  43  44
ATOM     44  C   UNL     1      -2.128   6.041   4.497  1.00  0.00     0.261 C 
BRANCH  44  45
ATOM     45  O   UNL     1      -1.290   6.434   3.398  1.00  0.00    -0.460 OA
BRANCH  45  46
ATOM     46  C   UNL     1      -0.424   7.444   3.601  1.00  0.00     0.338 C 
ATOM     47  O   UNL     1      -0.260   8.084   4.631  1.00  0.00    -0.246 OA
BRANCH  46  48
ATOM     48  C   UNL     1       0.429   7.555   2.405  1.00  0.00     0.060 A 
ATOM     49  C   UNL     1       1.789   7.234   2.501  1.00  0.00     0.016 A 
ATOM     50  C   UNL     1      -0.112   8.008   1.200  1.00  0.00     0.016 A 
ATOM     51  C   UNL     1       2.624   7.409   1.398  1.00  0.00     0.010 A 
ATOM     52  C   UNL     1       0.730   8.198   0.102  1.00  0.00     0.010 A 
ATOM     53  C   UNL     1       2.108   7.938   0.209  1.00  0.00    -0.014 A 
BRANCH  53  54
ATOM     54  C   UNL     1       3.038   8.394  -0.852  1.00  0.00     0.031 A 
ATOM     55  C   UNL     1       3.348   9.864  -0.951  1.00  0.00     0.074 A 
ATOM     56  C   UNL     1       3.596   7.524  -1.712  1.00  0.00     0.049 A 
ATOM     57  N   UNL     1       4.088  10.497  -1.821  1.00  0.00    -0.248 NA
ATOM     58  C   UNL     1       2.737  10.736   0.067  1.00  0.00     0.031 C 
ATOM     59  C   UNL     1       3.380   6.078  -1.711  1.00  0.00     0.029 A 
ATOM     60  N   UNL     1       4.437   7.740  -2.776  1.00  0.00    -0.354 N 
ATOM     61  C   UNL     1       3.998  11.843  -1.485  1.00  0.00     0.074 A 
ATOM     62  C   UNL     1       3.135  11.936  -0.329  1.00  0.00     0.031 C 
ATOM     63  C   UNL     1       4.039   5.540  -2.753  1.00  0.00     0.029 A 
ATOM     64  C   UNL     1       4.695   6.606  -3.509  1.00  0.00     0.049 A 
ATOM     65  H   UNL     1       4.819   8.621  -2.992  1.00  0.00     0.167 HD
ATOM     66  C   UNL     1       4.583  12.905  -2.085  1.00  0.00     0.034 A 
ATOM     67  C   UNL     1       5.351   6.453  -4.678  1.00  0.00     0.034 A 
ATOM     68  C   UNL     1       5.458  12.807  -3.221  1.00  0.00     0.049 A 
ATOM     69  C   UNL     1       5.981   7.657  -5.332  1.00  0.00     0.074 A 
ATOM     70  C   UNL     1       6.154  13.820  -3.857  1.00  0.00     0.029 A 
ATOM     71  N   UNL     1       5.736  11.636  -3.907  1.00  0.00    -0.354 N 
ATOM     72  N   UNL     1       5.993   8.905  -4.931  1.00  0.00    -0.248 NA
ATOM     73  C   UNL     1       6.716   7.426  -6.586  1.00  0.00     0.031 C 
ATOM     74  C   UNL     1       6.814  13.268  -4.958  1.00  0.00     0.029 A 
ATOM     75  C   UNL     1       6.574  11.904  -4.975  1.00  0.00     0.049 A 
ATOM     76  H   UNL     1       5.389  10.746  -3.670  1.00  0.00     0.167 HD
ATOM     77  C   UNL     1       6.766   9.598  -5.857  1.00  0.00     0.074 A 
ATOM     78  C   UNL     1       7.221   8.627  -6.830  1.00  0.00     0.031 C 
ATOM     79  C   UNL     1       7.064  10.920  -5.906  1.00  0.00     0.034 A 
BRANCH  66  80
ATOM     80  C   UNL     1       4.297  14.276  -1.533  1.00  0.00     0.023 A 
ATOM     81  C   UNL     1       4.858  14.678  -0.304  1.00  0.00     0.012 A 
ATOM     82  C   UNL     1       3.533  15.195  -2.279  1.00  0.00     0.148 A 
ATOM     83  C   UNL     1       4.643  15.966   0.184  1.00  0.00     0.002 A 
ATOM     84  C   UNL     1       3.364  16.491  -1.810  1.00  0.00     0.091 A 
ATOM     85  F   UNL     1       2.989  14.783  -3.433  1.00  0.00    -0.205 F 
ATOM     86  C   UNL     1       3.908  16.875  -0.573  1.00  0.00     0.022 A 
BRANCH  84  87
ATOM     87  S   UNL     1       2.507  17.758  -2.751  1.00  0.00     0.127 S 
ATOM     88  O   UNL     1       1.327  17.994  -1.921  1.00  0.00    -0.237 OA
ATOM     89  O   UNL     1       3.482  18.849  -2.750  1.00  0.00    -0.237 OA
ATOM     90  O   UNL     1       2.240  17.178  -4.060  1.00  0.00    -0.744 OA
ENDBRANCH  84  87
ENDBRANCH  66  80
BRANCH  67  91
ATOM     91  C   UNL     1       5.443   5.108  -5.315  1.00  0.00     0.023 A 
ATOM     92  C   UNL     1       6.691   4.466  -5.429  1.00  0.00     0.012 A 
ATOM     93  C   UNL     1       4.294   4.469  -5.819  1.00  0.00     0.148 A 
ATOM     94  C   UNL     1       6.799   3.231  -6.071  1.00  0.00     0.002 A 
ATOM     95  C   UNL     1       4.399   3.211  -6.399  1.00  0.00     0.091 A 
ATOM     96  F   UNL     1       3.118   5.104  -5.718  1.00  0.00    -0.205 F 
ATOM     97  C   UNL     1       5.653   2.600  -6.547  1.00  0.00     0.022 A 
BRANCH  95  98
ATOM     98  S   UNL     1       2.960   2.268  -6.915  1.00  0.00     0.127 S 
ATOM     99  O   UNL     1       3.090   2.295  -8.369  1.00  0.00    -0.237 OA
ATOM    100  O   UNL     1       3.218   0.967  -6.295  1.00  0.00    -0.237 OA
ATOM    101  O   UNL     1       1.810   2.975  -6.367  1.00  0.00    -0.744 OA
ENDBRANCH  95  98
ENDBRANCH  67  91
BRANCH  79 102
ATOM    102  C   UNL     1       7.971  11.399  -7.010  1.00  0.00     0.023 A 
ATOM    103  C   UNL     1       7.509  11.446  -8.340  1.00  0.00     0.012 A 
ATOM    104  C   UNL     1       9.263  11.879  -6.710  1.00  0.00     0.148 A 
ATOM    105  C   UNL     1       8.331  11.928  -9.359  1.00  0.00     0.002 A 
ATOM    106  C   UNL     1      10.055  12.408  -7.721  1.00  0.00     0.091 A 
ATOM    107  F   UNL     1       9.690  11.813  -5.441  1.00  0.00    -0.205 F 
ATOM    108  C   UNL     1       9.597  12.419  -9.048  1.00  0.00     0.022 A 
BRANCH 106 109
ATOM    109  S   UNL     1      11.656  13.156  -7.399  1.00  0.00     0.127 S 
ATOM    110  O   UNL     1      12.566  12.182  -8.000  1.00  0.00    -0.237 OA
ATOM    111  O   UNL     1      11.555  14.425  -8.121  1.00  0.00    -0.237 OA
ATOM    112  O   UNL     1      11.755  13.290  -5.952  1.00  0.00    -0.744 OA
ENDBRANCH 106 109
ENDBRANCH  79 102
ENDBRANCH  53  54
ENDBRANCH  46  48
ENDBRANCH  45  46
ENDBRANCH  44  45
ENDBRANCH  43  44
ENDBRANCH  42  43
ENDBRANCH  41  42
ENDBRANCH  40  41
ENDBRANCH  39  40
ENDBRANCH  38  39
ENDBRANCH   1  38
TORSDOF 31
