REMARK SMILES Cc1cccc(-c2ncc(C[NH+]3CCC4(CC3)NC(=O)C[C@H]4C(=O)OCCOCCOCCOCCOC(=O)c3ccc(-c4c5nc(c(-c6cccc(S(=O)(=O)[O-])c6F)c6ccc([nH]6)c(-c6cccc(S(=O)(=O)[O-])c6F)c6nc(c(-c7cccc(S(=O)(=O)[O-])c7F)c7ccc4[nH]7)C=C6)C=C5)cc3)cn2)c1
REMARK SMILES IDX 31 1 30 2 29 3 28 4 27 5 26 6 25 7 23 8 24 9 22 10 12 11
REMARK SMILES IDX 13 12 17 13 14 15 16 16 15 17 18 18 19 19 21 21 20 22 11 23
REMARK SMILES IDX 10 24 7 25 8 26 104 27 9 28 103 29 6 30 1 31 2 32 3 33
REMARK SMILES IDX 105 34 4 35 5 36 32 37 33 38 34 39 35 40 36 41 37 42 38 43
REMARK SMILES IDX 39 44 40 45 41 46 102 47 42 48 101 49 43 50 44 51 45 52
REMARK SMILES IDX 95 53 46 54 100 55 94 56 96 57 47 58 99 59 93 60 92 61 48 63
REMARK SMILES IDX 80 64 60 65 79 66 61 67 64 68 78 69 97 70 62 71 63 72 77 74
REMARK SMILES IDX 98 75 65 76 49 77 50 78 58 79 51 80 53 81 59 82 52 83 54 84
REMARK SMILES IDX 55 85 56 86 57 87 81 88 82 89 90 90 83 91 85 92 91 93 84 94
REMARK SMILES IDX 86 95 87 96 88 97 89 98 66 99 67 100 75 101 68 102 70 103
REMARK SMILES IDX 76 104 69 105 71 106 72 107 73 108 74 109
REMARK H PARENT 12 14 18 20 96 62 64 73
REMARK Flexibility Score: inf
ROOT
ATOM      1  O   UNL     1      -2.586   7.173  -3.205  1.00  0.00    -0.377 OA
ENDROOT
BRANCH   1   2
ATOM      2  C   UNL     1      -2.976   8.250  -2.352  1.00  0.00     0.188 C 
BRANCH   2   3
ATOM      3  C   UNL     1      -2.251   9.604  -2.520  1.00  0.00     0.188 C 
BRANCH   3   4
ATOM      4  O   UNL     1      -0.851   9.657  -2.282  1.00  0.00    -0.376 OA
BRANCH   4   5
ATOM      5  C   UNL     1      -0.196   8.479  -2.687  1.00  0.00     0.202 C 
BRANCH   5   6
ATOM      6  C   UNL     1       1.269   8.491  -2.329  1.00  0.00     0.261 C 
BRANCH   6   7
ATOM      7  O   UNL     1       1.562   7.572  -1.263  1.00  0.00    -0.463 OA
BRANCH   7   8
ATOM      8  C   UNL     1       1.106   7.899  -0.043  1.00  0.00     0.311 C 
ATOM      9  O   UNL     1       0.497   8.918   0.248  1.00  0.00    -0.252 OA
BRANCH   8  10
ATOM     10  C   UNL     1       1.397   6.824   0.974  1.00  0.00     0.134 C 
ATOM     11  N   UNL     1      -2.655   6.682   1.696  1.00  0.00    -0.331 N 
ATOM     12  C   UNL     1      -1.674   6.993   2.710  1.00  0.00     0.264 C 
ATOM     13  C   UNL     1      -2.040   6.644   0.388  1.00  0.00     0.264 C 
ATOM     14  H   UNL     1      -3.285   7.481   1.762  1.00  0.00     0.348 HD
ATOM     15  C   UNL     1      -0.425   6.114   2.675  1.00  0.00     0.091 C 
ATOM     16  C   UNL     1      -0.850   5.714   0.197  1.00  0.00     0.091 C 
ATOM     17  C   UNL     1       0.216   5.859   1.286  1.00  0.00     0.064 C 
ATOM     18  N   UNL     1       0.894   4.572   1.375  1.00  0.00    -0.349 N 
ATOM     19  C   UNL     1       2.191   4.557   0.966  1.00  0.00     0.221 C 
ATOM     20  H   UNL     1       0.441   3.764   1.711  1.00  0.00     0.164 HD
ATOM     21  C   UNL     1       2.620   5.946   0.633  1.00  0.00     0.117 C 
ATOM     22  O   UNL     1       2.888   3.546   0.930  1.00  0.00    -0.275 OA
BRANCH  11  23
ATOM     23  C   UNL     1      -3.754   5.747   1.940  1.00  0.00     0.302 C 
BRANCH  23  24
ATOM     24  C   UNL     1      -3.453   4.308   1.656  1.00  0.00     0.043 A 
ATOM     25  C   UNL     1      -2.387   1.923   0.965  1.00  0.00     0.159 A 
ATOM     26  N   UNL     1      -2.284   2.307   2.254  1.00  0.00    -0.236 NA
ATOM     27  N   UNL     1      -3.094   2.566   0.025  1.00  0.00    -0.236 NA
ATOM     28  C   UNL     1      -2.849   3.485   2.573  1.00  0.00     0.124 A 
ATOM     29  C   UNL     1      -3.610   3.751   0.402  1.00  0.00     0.124 A 
BRANCH  25  30
ATOM     30  C   UNL     1      -1.563   0.792   0.547  1.00  0.00     0.019 A 
ATOM     31  C   UNL     1       2.148  -0.020   0.081  1.00  0.00     0.044 C 
ATOM     32  C   UNL     1       0.656  -0.171   0.134  1.00  0.00    -0.050 A 
ATOM     33  C   UNL     1       0.060  -1.414  -0.090  1.00  0.00     0.003 A 
ATOM     34  C   UNL     1      -0.163   0.920   0.452  1.00  0.00     0.015 A 
ATOM     35  C   UNL     1      -1.328  -1.551  -0.040  1.00  0.00     0.001 A 
ATOM     36  C   UNL     1      -2.135  -0.454   0.268  1.00  0.00     0.012 A 
ENDBRANCH  25  30
ENDBRANCH  23  24
ENDBRANCH  11  23
ENDBRANCH   8  10
ENDBRANCH   7   8
ENDBRANCH   6   7
ENDBRANCH   5   6
ENDBRANCH   4   5
ENDBRANCH   3   4
ENDBRANCH   2   3
ENDBRANCH   1   2
BRANCH   1  37
ATOM     37  C   UNL     1      -3.040   5.827  -2.940  1.00  0.00     0.188 C 
BRANCH  37  38
ATOM     38  C   UNL     1      -4.543   5.575  -2.843  1.00  0.00     0.188 C 
BRANCH  38  39
ATOM     39  O   UNL     1      -5.111   6.705  -2.233  1.00  0.00    -0.376 OA
BRANCH  39  40
ATOM     40  C   UNL     1      -6.493   6.783  -2.008  1.00  0.00     0.202 C 
BRANCH  40  41
ATOM     41  C   UNL     1      -7.395   6.462  -3.197  1.00  0.00     0.261 C 
BRANCH  41  42
ATOM     42  O   UNL     1      -6.926   7.175  -4.356  1.00  0.00    -0.460 OA
BRANCH  42  43
ATOM     43  C   UNL     1      -6.725   6.399  -5.462  1.00  0.00     0.338 C 
ATOM     44  O   UNL     1      -7.436   5.458  -5.779  1.00  0.00    -0.246 OA
BRANCH  43  45
ATOM     45  C   UNL     1      -5.376   6.690  -6.047  1.00  0.00     0.060 A 
ATOM     46  C   UNL     1      -4.761   5.738  -6.874  1.00  0.00     0.016 A 
ATOM     47  C   UNL     1      -4.604   7.737  -5.560  1.00  0.00     0.016 A 
ATOM     48  C   UNL     1      -3.358   5.705  -7.028  1.00  0.00     0.010 A 
ATOM     49  C   UNL     1      -3.220   7.695  -5.734  1.00  0.00     0.010 A 
ATOM     50  C   UNL     1      -2.559   6.609  -6.350  1.00  0.00    -0.014 A 
BRANCH  50  51
ATOM     51  C   UNL     1      -1.086   6.479  -6.081  1.00  0.00     0.031 A 
ATOM     52  C   UNL     1      -0.237   7.714  -6.307  1.00  0.00     0.074 A 
ATOM     53  C   UNL     1      -0.639   5.518  -5.220  1.00  0.00     0.049 A 
ATOM     54  N   UNL     1       0.959   7.952  -5.864  1.00  0.00    -0.248 NA
ATOM     55  C   UNL     1      -0.746   8.820  -7.117  1.00  0.00     0.031 C 
ATOM     56  C   UNL     1       0.310   5.769  -4.144  1.00  0.00     0.029 A 
ATOM     57  N   UNL     1      -0.982   4.189  -4.964  1.00  0.00    -0.354 N 
ATOM     58  C   UNL     1       1.247   9.299  -6.073  1.00  0.00     0.074 A 
ATOM     59  C   UNL     1       0.186   9.757  -6.931  1.00  0.00     0.031 C 
ATOM     60  C   UNL     1       0.476   4.711  -3.350  1.00  0.00     0.029 A 
ATOM     61  C   UNL     1      -0.025   3.606  -4.102  1.00  0.00     0.049 A 
ATOM     62  H   UNL     1      -1.772   3.727  -5.329  1.00  0.00     0.167 HD
ATOM     63  C   UNL     1       2.296   9.915  -5.436  1.00  0.00     0.034 A 
ATOM     64  C   UNL     1       0.836   2.598  -4.428  1.00  0.00     0.034 A 
ATOM     65  C   UNL     1       3.236   8.935  -4.796  1.00  0.00     0.049 A 
ATOM     66  C   UNL     1       2.269   3.089  -4.764  1.00  0.00     0.074 A 
ATOM     67  C   UNL     1       3.995   8.867  -3.630  1.00  0.00     0.029 A 
ATOM     68  N   UNL     1       3.430   7.683  -5.395  1.00  0.00    -0.354 N 
ATOM     69  N   UNL     1       2.803   4.262  -4.468  1.00  0.00    -0.248 NA
ATOM     70  C   UNL     1       3.193   2.271  -5.541  1.00  0.00     0.031 C 
ATOM     71  C   UNL     1       4.510   7.537  -3.480  1.00  0.00     0.029 A 
ATOM     72  C   UNL     1       4.183   6.820  -4.616  1.00  0.00     0.049 A 
ATOM     73  H   UNL     1       3.069   7.442  -6.279  1.00  0.00     0.167 HD
ATOM     74  C   UNL     1       4.001   4.434  -5.148  1.00  0.00     0.074 A 
ATOM     75  C   UNL     1       4.203   3.128  -5.767  1.00  0.00     0.031 C 
ATOM     76  C   UNL     1       4.718   5.615  -5.243  1.00  0.00     0.034 A 
BRANCH  63  77
ATOM     77  C   UNL     1       2.445  11.465  -5.263  1.00  0.00     0.023 A 
ATOM     78  C   UNL     1       3.604  11.934  -4.596  1.00  0.00     0.012 A 
ATOM     79  C   UNL     1       1.519  12.498  -5.605  1.00  0.00     0.148 A 
ATOM     80  C   UNL     1       3.805  13.275  -4.223  1.00  0.00     0.002 A 
ATOM     81  C   UNL     1       1.767  13.858  -5.323  1.00  0.00     0.091 A 
ATOM     82  F   UNL     1       0.341  12.198  -6.153  1.00  0.00    -0.205 F 
ATOM     83  C   UNL     1       2.892  14.242  -4.596  1.00  0.00     0.022 A 
BRANCH  81  84
ATOM     84  S   UNL     1       0.701  15.212  -5.880  1.00  0.00     0.127 S 
ATOM     85  O   UNL     1       0.307  15.843  -4.620  1.00  0.00    -0.237 OA
ATOM     86  O   UNL     1       1.616  16.015  -6.693  1.00  0.00    -0.237 OA
ATOM     87  O   UNL     1      -0.392  14.600  -6.626  1.00  0.00    -0.744 OA
ENDBRANCH  81  84
ENDBRANCH  63  77
BRANCH  64  88
ATOM     88  C   UNL     1       0.079   1.363  -4.822  1.00  0.00     0.023 A 
ATOM     89  C   UNL     1      -0.620   0.787  -3.725  1.00  0.00     0.012 A 
ATOM     90  C   UNL     1      -0.547   1.377  -6.075  1.00  0.00     0.148 A 
ATOM     91  C   UNL     1      -2.002   0.586  -3.795  1.00  0.00     0.002 A 
ATOM     92  C   UNL     1      -1.935   1.225  -6.128  1.00  0.00     0.091 A 
ATOM     93  F   UNL     1       0.170   1.782  -7.131  1.00  0.00    -0.205 F 
ATOM     94  C   UNL     1      -2.668   0.877  -4.979  1.00  0.00     0.022 A 
BRANCH  92  95
ATOM     95  S   UNL     1      -2.867   1.917  -7.506  1.00  0.00     0.127 S 
ATOM     96  O   UNL     1      -3.242   0.731  -8.264  1.00  0.00    -0.237 OA
ATOM     97  O   UNL     1      -3.966   2.591  -6.816  1.00  0.00    -0.237 OA
ATOM     98  O   UNL     1      -1.932   2.829  -8.149  1.00  0.00    -0.744 OA
ENDBRANCH  92  95
ENDBRANCH  64  88
BRANCH  76  99
ATOM     99  C   UNL     1       5.996   5.848  -6.086  1.00  0.00     0.023 A 
ATOM    100  C   UNL     1       6.829   4.805  -6.510  1.00  0.00     0.012 A 
ATOM    101  C   UNL     1       6.418   7.161  -6.479  1.00  0.00     0.148 A 
ATOM    102  C   UNL     1       7.856   5.009  -7.444  1.00  0.00     0.002 A 
ATOM    103  C   UNL     1       7.443   7.368  -7.396  1.00  0.00     0.091 A 
ATOM    104  F   UNL     1       5.884   8.245  -5.913  1.00  0.00    -0.205 F 
ATOM    105  C   UNL     1       8.133   6.283  -7.923  1.00  0.00     0.022 A 
BRANCH 103 106
ATOM    106  S   UNL     1       7.929   9.014  -7.945  1.00  0.00     0.127 S 
ATOM    107  O   UNL     1       9.244   9.155  -7.320  1.00  0.00    -0.237 OA
ATOM    108  O   UNL     1       7.961   8.849  -9.399  1.00  0.00    -0.237 OA
ATOM    109  O   UNL     1       6.908   9.932  -7.462  1.00  0.00    -0.744 OA
ENDBRANCH 103 106
ENDBRANCH  76  99
ENDBRANCH  50  51
ENDBRANCH  43  45
ENDBRANCH  42  43
ENDBRANCH  41  42
ENDBRANCH  40  41
ENDBRANCH  39  40
ENDBRANCH  38  39
ENDBRANCH  37  38
ENDBRANCH   1  37
TORSDOF 26
