REMARK SMILES CC(C)CCc1cc2c(cc1Cl)C=C(C(=O)OCCOCCOCCOCCOC(=O)c1ccc(-c3c4nc(c(-c5cccc(S(=O)(=O)[O-])c5F)c5ccc([nH]5)c(-c5cccc(S(=O)(=O)[O-])c5F)c5nc(c(-c6cccc(S(=O)(=O)[O-])c6F)c6ccc3[nH]6)C=C5)C=C4)cc1)[C@@H](C(F)(F)F)O2
REMARK SMILES IDX 23 1 22 2 21 3 20 4 19 5 18 6 17 7 15 8 16 9 14 10 6 11 7 12
REMARK SMILES IDX 11 13 8 14 10 15 12 16 9 17 100 18 13 19 95 20 5 21 4 22
REMARK SMILES IDX 2 23 1 24 3 25 96 26 97 27 98 28 99 29 24 30 25 31 26 32
REMARK SMILES IDX 27 33 28 34 29 35 30 36 31 37 32 38 33 39 94 40 34 41 93 42
REMARK SMILES IDX 35 43 36 44 37 45 87 46 38 47 92 48 86 49 88 50 39 51 91 52
REMARK SMILES IDX 85 53 84 54 40 56 72 57 52 58 71 59 53 60 56 61 70 62 89 63
REMARK SMILES IDX 54 64 55 65 69 67 90 68 57 69 41 70 42 71 50 72 43 73 45 74
REMARK SMILES IDX 51 75 44 76 46 77 47 78 48 79 49 80 73 81 74 82 82 83 75 84
REMARK SMILES IDX 77 85 83 86 76 87 78 88 79 89 80 90 81 91 58 92 59 93 67 94
REMARK SMILES IDX 60 95 62 96 68 97 61 98 63 99 64 100 65 101 66 102
REMARK H PARENT 88 55 56 66
REMARK Flexibility Score: inf
ROOT
ATOM      1  O   UNL     1      -1.054  10.396   2.068  1.00  0.00    -0.377 OA
ENDROOT
BRANCH   1   2
ATOM      2  C   UNL     1      -0.108   9.351   2.208  1.00  0.00     0.188 C 
BRANCH   2   3
ATOM      3  C   UNL     1       1.276   9.724   1.647  1.00  0.00     0.188 C 
BRANCH   3   4
ATOM      4  O   UNL     1       1.413  11.114   1.367  1.00  0.00    -0.376 OA
BRANCH   4   5
ATOM      5  C   UNL     1       1.278  11.525   0.010  1.00  0.00     0.202 C 
BRANCH   5   6
ATOM      6  C   UNL     1      -0.089  11.337  -0.668  1.00  0.00     0.261 C 
BRANCH   6   7
ATOM      7  O   UNL     1      -0.590   9.990  -0.670  1.00  0.00    -0.460 OA
BRANCH   7   8
ATOM      8  C   UNL     1       0.074   9.073  -1.397  1.00  0.00     0.338 C 
ATOM      9  O   UNL     1       1.047   9.256  -2.106  1.00  0.00    -0.246 OA
BRANCH   8  10
ATOM     10  C   UNL     1      -0.458   7.746  -1.023  1.00  0.00     0.087 C 
ATOM     11  C   UNL     1      -0.929   2.927   0.316  1.00  0.00    -0.026 A 
ATOM     12  C   UNL     1      -1.809   3.903  -0.191  1.00  0.00     0.052 A 
ATOM     13  C   UNL     1       0.347   3.340   0.729  1.00  0.00     0.045 A 
ATOM     14  C   UNL     1      -1.385   5.218  -0.392  1.00  0.00     0.128 A 
ATOM     15  C   UNL     1       0.790   4.639   0.468  1.00  0.00     0.032 A 
ATOM     16  Cl  UNL     1       1.441   2.294   1.561  1.00  0.00    -0.084 Cl
ATOM     17  C   UNL     1      -0.059   5.562  -0.145  1.00  0.00     0.019 A 
ATOM     18  O   UNL     1      -2.306   6.088  -0.896  1.00  0.00    -0.475 OA
ATOM     19  C   UNL     1       0.440   6.847  -0.598  1.00  0.00     0.027 C 
ATOM     20  C   UNL     1      -1.946   7.500  -1.003  1.00  0.00     0.316 C 
BRANCH  11  21
ATOM     21  C   UNL     1      -1.372   1.479   0.294  1.00  0.00     0.037 C 
BRANCH  21  22
ATOM     22  C   UNL     1      -1.047   0.778  -1.045  1.00  0.00     0.008 C 
BRANCH  22  23
ATOM     23  C   UNL     1       0.439   0.428  -1.278  1.00  0.00    -0.017 C 
ATOM     24  C   UNL     1       0.930  -0.666  -0.326  1.00  0.00     0.007 C 
ATOM     25  C   UNL     1       0.671  -0.027  -2.722  1.00  0.00     0.007 C 
ENDBRANCH  22  23
ENDBRANCH  21  22
ENDBRANCH  11  21
BRANCH  20  26
ATOM     26  C   UNL     1      -2.671   8.047  -2.243  1.00  0.00     0.430 C 
ATOM     27  F   UNL     1      -4.002   7.799  -2.173  1.00  0.00    -0.167 F 
ATOM     28  F   UNL     1      -2.529   9.382  -2.384  1.00  0.00    -0.167 F 
ATOM     29  F   UNL     1      -2.212   7.468  -3.377  1.00  0.00    -0.167 F 
ENDBRANCH  20  26
ENDBRANCH   8  10
ENDBRANCH   7   8
ENDBRANCH   6   7
ENDBRANCH   5   6
ENDBRANCH   4   5
ENDBRANCH   3   4
ENDBRANCH   2   3
ENDBRANCH   1   2
BRANCH   1  30
ATOM     30  C   UNL     1      -1.072  11.407   3.076  1.00  0.00     0.188 C 
BRANCH  30  31
ATOM     31  C   UNL     1       0.186  11.736   3.911  1.00  0.00     0.188 C 
BRANCH  31  32
ATOM     32  O   UNL     1       0.816  10.587   4.483  1.00  0.00    -0.376 OA
BRANCH  32  33
ATOM     33  C   UNL     1       0.694  10.436   5.892  1.00  0.00     0.202 C 
BRANCH  33  34
ATOM     34  C   UNL     1      -0.655   9.856   6.333  1.00  0.00     0.261 C 
BRANCH  34  35
ATOM     35  O   UNL     1      -1.796  10.675   6.037  1.00  0.00    -0.460 OA
BRANCH  35  36
ATOM     36  C   UNL     1      -1.824  11.923   6.560  1.00  0.00     0.338 C 
ATOM     37  O   UNL     1      -1.012  12.416   7.321  1.00  0.00    -0.246 OA
BRANCH  36  38
ATOM     38  C   UNL     1      -2.910  12.657   5.877  1.00  0.00     0.060 A 
ATOM     39  C   UNL     1      -4.185  12.093   5.775  1.00  0.00     0.016 A 
ATOM     40  C   UNL     1      -2.635  13.902   5.298  1.00  0.00     0.016 A 
ATOM     41  C   UNL     1      -5.197  12.794   5.120  1.00  0.00     0.010 A 
ATOM     42  C   UNL     1      -3.649  14.599   4.635  1.00  0.00     0.010 A 
ATOM     43  C   UNL     1      -4.942  14.060   4.566  1.00  0.00    -0.014 A 
BRANCH  43  44
ATOM     44  C   UNL     1      -6.080  14.899   4.125  1.00  0.00     0.031 A 
ATOM     45  C   UNL     1      -6.454  15.063   2.685  1.00  0.00     0.074 A 
ATOM     46  C   UNL     1      -6.779  15.537   5.082  1.00  0.00     0.049 A 
ATOM     47  N   UNL     1      -7.492  15.679   2.182  1.00  0.00    -0.248 NA
ATOM     48  C   UNL     1      -5.555  14.474   1.682  1.00  0.00     0.031 C 
ATOM     49  C   UNL     1      -6.465  15.496   6.513  1.00  0.00     0.029 A 
ATOM     50  N   UNL     1      -7.887  16.340   5.005  1.00  0.00    -0.354 N 
ATOM     51  C   UNL     1      -7.377  15.560   0.804  1.00  0.00     0.074 A 
ATOM     52  C   UNL     1      -6.155  14.823   0.549  1.00  0.00     0.031 C 
ATOM     53  C   UNL     1      -7.366  16.231   7.179  1.00  0.00     0.029 A 
ATOM     54  C   UNL     1      -8.315  16.799   6.226  1.00  0.00     0.049 A 
ATOM     55  H   UNL     1      -8.332  16.567   4.156  1.00  0.00     0.167 HD
ATOM     56  C   UNL     1      -8.226  16.009  -0.152  1.00  0.00     0.034 A 
ATOM     57  C   UNL     1      -9.364  17.576   6.553  1.00  0.00     0.034 A 
ATOM     58  C   UNL     1      -9.445  16.729   0.114  1.00  0.00     0.049 A 
ATOM     59  C   UNL     1     -10.300  18.039   5.478  1.00  0.00     0.074 A 
ATOM     60  C   UNL     1     -10.407  17.148  -0.791  1.00  0.00     0.029 A 
ATOM     61  N   UNL     1      -9.864  17.152   1.365  1.00  0.00    -0.354 N 
ATOM     62  N   UNL     1     -10.262  17.780   4.194  1.00  0.00    -0.248 NA
ATOM     63  C   UNL     1     -11.439  18.869   5.895  1.00  0.00     0.031 C 
ATOM     64  C   UNL     1     -11.398  17.841  -0.088  1.00  0.00     0.029 A 
ATOM     65  C   UNL     1     -11.061  17.840   1.256  1.00  0.00     0.049 A 
ATOM     66  H   UNL     1      -9.382  16.988   2.207  1.00  0.00     0.167 HD
ATOM     67  C   UNL     1     -11.379  18.399   3.649  1.00  0.00     0.074 A 
ATOM     68  C   UNL     1     -12.083  19.035   4.745  1.00  0.00     0.031 C 
ATOM     69  C   UNL     1     -11.774  18.442   2.354  1.00  0.00     0.034 A 
BRANCH  56  70
ATOM     70  C   UNL     1      -7.914  15.684  -1.587  1.00  0.00     0.023 A 
ATOM     71  C   UNL     1      -8.204  14.394  -2.073  1.00  0.00     0.012 A 
ATOM     72  C   UNL     1      -7.458  16.676  -2.478  1.00  0.00     0.148 A 
ATOM     73  C   UNL     1      -8.037  14.091  -3.424  1.00  0.00     0.002 A 
ATOM     74  C   UNL     1      -7.319  16.374  -3.828  1.00  0.00     0.091 A 
ATOM     75  F   UNL     1      -7.179  17.893  -1.990  1.00  0.00    -0.205 F 
ATOM     76  C   UNL     1      -7.605  15.082  -4.301  1.00  0.00     0.022 A 
BRANCH  74  77
ATOM     77  S   UNL     1      -6.823  17.592  -5.052  1.00  0.00     0.127 S 
ATOM     78  O   UNL     1      -5.500  17.101  -5.437  1.00  0.00    -0.237 OA
ATOM     79  O   UNL     1      -7.854  17.436  -6.079  1.00  0.00    -0.237 OA
ATOM     80  O   UNL     1      -6.833  18.878  -4.369  1.00  0.00    -0.744 OA
ENDBRANCH  74  77
ENDBRANCH  56  70
BRANCH  57  81
ATOM     81  C   UNL     1      -9.612  17.870   7.988  1.00  0.00     0.023 A 
ATOM     82  C   UNL     1     -10.606  17.147   8.672  1.00  0.00     0.012 A 
ATOM     83  C   UNL     1      -8.789  18.765   8.698  1.00  0.00     0.148 A 
ATOM     84  C   UNL     1     -10.778  17.309  10.046  1.00  0.00     0.002 A 
ATOM     85  C   UNL     1      -8.940  18.893  10.072  1.00  0.00     0.091 A 
ATOM     86  F   UNL     1      -7.845  19.431   8.018  1.00  0.00    -0.205 F 
ATOM     87  C   UNL     1      -9.939  18.173  10.747  1.00  0.00     0.022 A 
BRANCH  85  88
ATOM     88  S   UNL     1      -7.839  19.891  11.080  1.00  0.00     0.127 S 
ATOM     89  O   UNL     1      -8.762  20.869  11.651  1.00  0.00    -0.237 OA
ATOM     90  O   UNL     1      -7.325  18.902  12.027  1.00  0.00    -0.237 OA
ATOM     91  O   UNL     1      -6.844  20.434  10.166  1.00  0.00    -0.744 OA
ENDBRANCH  85  88
ENDBRANCH  57  81
BRANCH  69  92
ATOM     92  C   UNL     1     -13.029  19.203   2.026  1.00  0.00     0.023 A 
ATOM     93  C   UNL     1     -12.981  20.608   1.944  1.00  0.00     0.012 A 
ATOM     94  C   UNL     1     -14.216  18.526   1.684  1.00  0.00     0.148 A 
ATOM     95  C   UNL     1     -14.100  21.331   1.534  1.00  0.00     0.002 A 
ATOM     96  C   UNL     1     -15.317  19.251   1.244  1.00  0.00     0.091 A 
ATOM     97  F   UNL     1     -14.238  17.189   1.780  1.00  0.00    -0.205 F 
ATOM     98  C   UNL     1     -15.262  20.653   1.173  1.00  0.00     0.022 A 
BRANCH  96  99
ATOM     99  S   UNL     1     -16.836  18.468   0.689  1.00  0.00     0.127 S 
ATOM    100  O   UNL     1     -17.787  18.906   1.709  1.00  0.00    -0.237 OA
ATOM    101  O   UNL     1     -17.031  19.073  -0.628  1.00  0.00    -0.237 OA
ATOM    102  O   UNL     1     -16.569  17.036   0.667  1.00  0.00    -0.744 OA
ENDBRANCH  96  99
ENDBRANCH  69  92
ENDBRANCH  43  44
ENDBRANCH  36  38
ENDBRANCH  35  36
ENDBRANCH  34  35
ENDBRANCH  33  34
ENDBRANCH  32  33
ENDBRANCH  31  32
ENDBRANCH  30  31
ENDBRANCH   1  30
TORSDOF 27
