REMARK SMILES CC[C@@](C)(Nc1c([N+](=O)[O-])c(C(C)C)nn1C)C(=O)OCCOCCOCCOCCOC(=O)c1ccc(-c2c3nc(c(-c4cccc(S(=O)(=O)[O-])c4F)c4ccc([nH]4)c(-c4cccc(S(=O)(=O)[O-])c4F)c4nc(c(-c5cccc(S(=O)(=O)[O-])c5F)c5ccc2[nH]5)C=C4)C=C3)cc1
REMARK SMILES IDX 26 1 25 2 24 3 23 4 22 5 21 6 20 7 18 8 19 9 3 10 4 11 2 12
REMARK SMILES IDX 1 13 5 14 6 16 7 17 16 18 11 19 15 20 17 21 8 22 9 23 10 24
REMARK SMILES IDX 12 25 13 26 14 27 27 28 28 29 29 30 30 31 31 32 32 33 33 34
REMARK SMILES IDX 34 35 35 36 36 37 97 38 37 39 96 40 38 41 39 42 40 43 90 44
REMARK SMILES IDX 41 45 95 46 89 47 91 48 42 49 94 50 88 51 87 52 43 54 75 55
REMARK SMILES IDX 55 56 74 57 56 58 59 59 73 60 92 61 57 62 58 63 72 65 93 66
REMARK SMILES IDX 60 67 44 68 45 69 53 70 46 71 48 72 54 73 47 74 49 75 50 76
REMARK SMILES IDX 51 77 52 78 76 79 77 80 85 81 78 82 80 83 86 84 79 85 81 86
REMARK SMILES IDX 82 87 83 88 84 89 61 90 62 91 70 92 63 93 65 94 71 95 64 96
REMARK SMILES IDX 66 97 67 98 68 99 69 100
REMARK H PARENT 5 15 91 53 59 64
REMARK Flexibility Score: inf
ROOT
ATOM      1  O   UNL     1       4.091  -2.733  -3.414  1.00  0.00    -0.377 OA
ENDROOT
BRANCH   1   2
ATOM      2  C   UNL     1       3.575  -1.473  -3.028  1.00  0.00     0.188 C 
BRANCH   2   3
ATOM      3  C   UNL     1       4.298  -0.658  -1.952  1.00  0.00     0.188 C 
BRANCH   3   4
ATOM      4  O   UNL     1       5.434  -1.283  -1.373  1.00  0.00    -0.376 OA
BRANCH   4   5
ATOM      5  C   UNL     1       5.197  -1.944  -0.133  1.00  0.00     0.202 C 
BRANCH   5   6
ATOM      6  C   UNL     1       4.466  -3.296  -0.212  1.00  0.00     0.261 C 
BRANCH   6   7
ATOM      7  O   UNL     1       3.165  -3.283  -0.838  1.00  0.00    -0.462 OA
BRANCH   7   8
ATOM      8  C   UNL     1       2.165  -2.702  -0.150  1.00  0.00     0.331 C 
ATOM      9  O   UNL     1       2.367  -2.131   0.924  1.00  0.00    -0.249 OA
BRANCH   8  10
ATOM     10  C   UNL     1       0.753  -2.769  -0.801  1.00  0.00     0.134 C 
ATOM     11  C   UNL     1      -0.142  -3.307   0.353  1.00  0.00     0.047 C 
BRANCH  10  12
ATOM     12  C   UNL     1       0.244  -1.349  -1.205  1.00  0.00     0.037 C 
ATOM     13  C   UNL     1       0.435  -0.223  -0.192  1.00  0.00     0.007 C 
ENDBRANCH  10  12
BRANCH  10  14
ATOM     14  N   UNL     1       0.433  -3.709  -1.933  1.00  0.00    -0.349 N 
ATOM     15  H   UNL     1      -0.416  -4.193  -1.814  1.00  0.00     0.163 HD
BRANCH  14  16
ATOM     16  C   UNL     1       1.090  -4.028  -3.100  1.00  0.00     0.205 A 
ATOM     17  C   UNL     1       0.721  -3.812  -4.436  1.00  0.00     0.334 A 
ATOM     18  N   UNL     1       2.034  -5.039  -3.191  1.00  0.00    -0.246 N 
ATOM     19  C   UNL     1       1.390  -4.802  -5.217  1.00  0.00     0.145 A 
ATOM     20  N   UNL     1       2.263  -5.470  -4.456  1.00  0.00    -0.169 NA
ATOM     21  C   UNL     1       2.594  -5.836  -2.124  1.00  0.00     0.176 C 
BRANCH  17  22
ATOM     22  N   UNL     1      -0.267  -2.888  -4.906  1.00  0.00     0.068 N 
ATOM     23  O   UNL     1      -0.249  -2.599  -6.111  1.00  0.00    -0.258 OA
ATOM     24  O   UNL     1      -1.069  -2.426  -4.081  1.00  0.00    -0.258 OA
ENDBRANCH  17  22
BRANCH  19  25
ATOM     25  C   UNL     1       1.106  -5.271  -6.640  1.00  0.00     0.041 C 
ATOM     26  C   UNL     1       1.865  -4.521  -7.731  1.00  0.00     0.014 C 
ATOM     27  C   UNL     1       1.317  -6.785  -6.824  1.00  0.00     0.014 C 
ENDBRANCH  19  25
ENDBRANCH  14  16
ENDBRANCH  10  14
ENDBRANCH   8  10
ENDBRANCH   7   8
ENDBRANCH   6   7
ENDBRANCH   5   6
ENDBRANCH   4   5
ENDBRANCH   3   4
ENDBRANCH   2   3
ENDBRANCH   1   2
BRANCH   1  28
ATOM     28  C   UNL     1       5.480  -2.879  -3.653  1.00  0.00     0.188 C 
BRANCH  28  29
ATOM     29  C   UNL     1       6.176  -1.806  -4.499  1.00  0.00     0.188 C 
BRANCH  29  30
ATOM     30  O   UNL     1       5.292  -0.832  -5.030  1.00  0.00    -0.376 OA
BRANCH  30  31
ATOM     31  C   UNL     1       4.879  -1.013  -6.375  1.00  0.00     0.202 C 
BRANCH  31  32
ATOM     32  C   UNL     1       4.193  -2.318  -6.794  1.00  0.00     0.261 C 
BRANCH  32  33
ATOM     33  O   UNL     1       4.732  -3.558  -6.312  1.00  0.00    -0.460 OA
BRANCH  33  34
ATOM     34  C   UNL     1       5.740  -4.140  -6.985  1.00  0.00     0.338 C 
ATOM     35  O   UNL     1       6.401  -3.636  -7.886  1.00  0.00    -0.246 OA
BRANCH  34  36
ATOM     36  C   UNL     1       5.934  -5.516  -6.471  1.00  0.00     0.060 A 
ATOM     37  C   UNL     1       6.987  -5.811  -5.600  1.00  0.00     0.016 A 
ATOM     38  C   UNL     1       5.101  -6.544  -6.919  1.00  0.00     0.016 A 
ATOM     39  C   UNL     1       7.234  -7.141  -5.224  1.00  0.00     0.010 A 
ATOM     40  C   UNL     1       5.324  -7.864  -6.512  1.00  0.00     0.010 A 
ATOM     41  C   UNL     1       6.428  -8.185  -5.708  1.00  0.00    -0.014 A 
BRANCH  41  42
ATOM     42  C   UNL     1       6.808  -9.613  -5.496  1.00  0.00     0.031 A 
ATOM     43  C   UNL     1       7.279 -10.440  -6.671  1.00  0.00     0.074 A 
ATOM     44  C   UNL     1       6.713 -10.187  -4.280  1.00  0.00     0.049 A 
ATOM     45  N   UNL     1       7.672 -11.689  -6.704  1.00  0.00    -0.248 NA
ATOM     46  C   UNL     1       7.291  -9.781  -7.987  1.00  0.00     0.031 C 
ATOM     47  C   UNL     1       6.205  -9.533  -3.075  1.00  0.00     0.029 A 
ATOM     48  N   UNL     1       7.019 -11.461  -3.865  1.00  0.00    -0.354 N 
ATOM     49  C   UNL     1       7.940 -11.972  -8.040  1.00  0.00     0.074 A 
ATOM     50  C   UNL     1       7.634 -10.775  -8.792  1.00  0.00     0.031 C 
ATOM     51  C   UNL     1       6.231 -10.410  -2.057  1.00  0.00     0.029 A 
ATOM     52  C   UNL     1       6.746 -11.693  -2.536  1.00  0.00     0.049 A 
ATOM     53  H   UNL     1       7.398 -12.145  -4.463  1.00  0.00     0.167 HD
ATOM     54  C   UNL     1       8.428 -13.109  -8.594  1.00  0.00     0.034 A 
ATOM     55  C   UNL     1       6.894 -12.807  -1.790  1.00  0.00     0.034 A 
ATOM     56  C   UNL     1       8.785 -14.283  -7.844  1.00  0.00     0.049 A 
ATOM     57  C   UNL     1       7.496 -14.041  -2.414  1.00  0.00     0.074 A 
ATOM     58  C   UNL     1       9.376 -15.448  -8.298  1.00  0.00     0.029 A 
ATOM     59  N   UNL     1       8.581 -14.442  -6.482  1.00  0.00    -0.354 N 
ATOM     60  N   UNL     1       7.902 -14.230  -3.646  1.00  0.00    -0.248 NA
ATOM     61  C   UNL     1       7.701 -15.203  -1.534  1.00  0.00     0.031 C 
ATOM     62  C   UNL     1       9.512 -16.322  -7.213  1.00  0.00     0.029 A 
ATOM     63  C   UNL     1       9.028 -15.689  -6.080  1.00  0.00     0.049 A 
ATOM     64  H   UNL     1       8.177 -13.769  -5.889  1.00  0.00     0.167 HD
ATOM     65  C   UNL     1       8.441 -15.512  -3.681  1.00  0.00     0.074 A 
ATOM     66  C   UNL     1       8.330 -16.048  -2.340  1.00  0.00     0.031 C 
ATOM     67  C   UNL     1       8.966 -16.190  -4.731  1.00  0.00     0.034 A 
BRANCH  54  68
ATOM     68  C   UNL     1       8.666 -13.121 -10.085  1.00  0.00     0.023 A 
ATOM     69  C   UNL     1       9.723 -12.359 -10.625  1.00  0.00     0.012 A 
ATOM     70  C   UNL     1       7.894 -13.932 -10.941  1.00  0.00     0.148 A 
ATOM     71  C   UNL     1       9.983 -12.372 -11.995  1.00  0.00     0.002 A 
ATOM     72  C   UNL     1       8.189 -13.975 -12.300  1.00  0.00     0.091 A 
ATOM     73  F   UNL     1       6.884 -14.638 -10.415  1.00  0.00    -0.205 F 
ATOM     74  C   UNL     1       9.224 -13.186 -12.830  1.00  0.00     0.022 A 
BRANCH  72  75
ATOM     75  S   UNL     1       7.325 -15.054 -13.448  1.00  0.00     0.127 S 
ATOM     76  O   UNL     1       6.546 -14.093 -14.228  1.00  0.00    -0.237 OA
ATOM     77  O   UNL     1       8.431 -15.675 -14.178  1.00  0.00    -0.237 OA
ATOM     78  O   UNL     1       6.547 -15.972 -12.629  1.00  0.00    -0.744 OA
ENDBRANCH  72  75
ENDBRANCH  54  68
BRANCH  55  79
ATOM     79  C   UNL     1       6.540 -12.783  -0.341  1.00  0.00     0.023 A 
ATOM     80  C   UNL     1       7.565 -12.835   0.625  1.00  0.00     0.012 A 
ATOM     81  C   UNL     1       5.202 -12.677   0.086  1.00  0.00     0.148 A 
ATOM     82  C   UNL     1       7.263 -12.810   1.987  1.00  0.00     0.002 A 
ATOM     83  C   UNL     1       4.912 -12.595   1.444  1.00  0.00     0.091 A 
ATOM     84  F   UNL     1       4.238 -12.648  -0.845  1.00  0.00    -0.205 F 
ATOM     85  C   UNL     1       5.940 -12.678   2.397  1.00  0.00     0.022 A 
BRANCH  83  86
ATOM     86  S   UNL     1       3.253 -12.280   2.056  1.00  0.00     0.127 S 
ATOM     87  O   UNL     1       2.893 -13.574   2.629  1.00  0.00    -0.237 OA
ATOM     88  O   UNL     1       3.488 -11.216   3.034  1.00  0.00    -0.237 OA
ATOM     89  O   UNL     1       2.480 -11.861   0.895  1.00  0.00    -0.744 OA
ENDBRANCH  83  86
ENDBRANCH  55  79
BRANCH  67  90
ATOM     90  C   UNL     1       9.500 -17.577  -4.479  1.00  0.00     0.023 A 
ATOM     91  C   UNL     1       8.605 -18.643  -4.259  1.00  0.00     0.012 A 
ATOM     92  C   UNL     1      10.883 -17.839  -4.543  1.00  0.00     0.148 A 
ATOM     93  C   UNL     1       9.079 -19.941  -4.075  1.00  0.00     0.002 A 
ATOM     94  C   UNL     1      11.346 -19.143  -4.406  1.00  0.00     0.091 A 
ATOM     95  F   UNL     1      11.721 -16.810  -4.737  1.00  0.00    -0.205 F 
ATOM     96  C   UNL     1      10.447 -20.193  -4.160  1.00  0.00     0.022 A 
BRANCH  94  97
ATOM     97  S   UNL     1      13.080 -19.574  -4.594  1.00  0.00     0.127 S 
ATOM     98  O   UNL     1      13.472 -19.841  -3.212  1.00  0.00    -0.237 OA
ATOM     99  O   UNL     1      13.015 -20.760  -5.450  1.00  0.00    -0.237 OA
ATOM    100  O   UNL     1      13.715 -18.418  -5.213  1.00  0.00    -0.744 OA
ENDBRANCH  94  97
ENDBRANCH  67  90
ENDBRANCH  41  42
ENDBRANCH  34  36
ENDBRANCH  33  34
ENDBRANCH  32  33
ENDBRANCH  31  32
ENDBRANCH  30  31
ENDBRANCH  29  30
ENDBRANCH  28  29
ENDBRANCH   1  28
TORSDOF 28
