REMARK SMILES Cc1ccccc1[C@@H](Cc1c(Cl)cccc1Cl)C(=O)OCCOCCOCCOCCOC(=O)c1ccc(-c2c3nc(c(-c4cccc(S(=O)(=O)[O-])c4F)c4ccc([nH]4)c(-c4cccc(S(=O)(=O)[O-])c4F)c4nc(c(-c5cccc(S(=O)(=O)[O-])c5F)c5ccc2[nH]5)C=C4)C=C3)cc1
REMARK SMILES IDX 27 1 26 2 25 3 24 4 23 5 22 6 21 7 20 8 18 9 19 10 8 11 7 12
REMARK SMILES IDX 1 13 2 14 3 15 4 16 6 17 5 18 9 19 10 20 11 21 16 22 12 23
REMARK SMILES IDX 13 24 15 25 17 26 14 27 28 28 29 29 30 30 31 31 32 32 33 33
REMARK SMILES IDX 34 34 35 35 36 36 97 37 37 38 96 39 38 40 39 41 40 42 90 43
REMARK SMILES IDX 41 44 95 45 89 46 91 47 42 48 94 49 88 50 87 51 43 53 75 54
REMARK SMILES IDX 55 55 74 56 56 57 59 58 73 59 92 60 57 61 58 62 72 64 93 65
REMARK SMILES IDX 60 66 44 67 45 68 53 69 46 70 48 71 54 72 47 73 49 74 50 75
REMARK SMILES IDX 51 76 52 77 76 78 77 79 85 80 78 81 80 82 86 83 79 84 81 85
REMARK SMILES IDX 82 86 83 87 84 88 61 89 62 90 70 91 63 92 65 93 71 94 64 95
REMARK SMILES IDX 66 96 67 97 68 98 69 99
REMARK H PARENT 91 52 59 63
REMARK Flexibility Score: inf
ROOT
ATOM      1  C   UNL     1       0.532   0.567   4.321  1.00  0.00     0.188 C 
ENDROOT
BRANCH   1   2
ATOM      2  O   UNL     1       0.486  -0.030   3.045  1.00  0.00    -0.377 OA
BRANCH   2   3
ATOM      3  C   UNL     1       1.301   0.596   2.074  1.00  0.00     0.188 C 
BRANCH   3   4
ATOM      4  C   UNL     1       2.737   0.941   2.479  1.00  0.00     0.188 C 
BRANCH   4   5
ATOM      5  O   UNL     1       2.931   2.142   3.220  1.00  0.00    -0.376 OA
BRANCH   5   6
ATOM      6  C   UNL     1       2.228   3.301   2.779  1.00  0.00     0.202 C 
BRANCH   6   7
ATOM      7  C   UNL     1       2.607   3.873   1.416  1.00  0.00     0.261 C 
BRANCH   7   8
ATOM      8  O   UNL     1       1.889   3.257   0.320  1.00  0.00    -0.463 OA
BRANCH   8   9
ATOM      9  C   UNL     1       2.647   2.480  -0.485  1.00  0.00     0.313 C 
ATOM     10  O   UNL     1       3.822   2.206  -0.254  1.00  0.00    -0.252 OA
BRANCH   9  11
ATOM     11  C   UNL     1       1.919   1.929  -1.707  1.00  0.00     0.134 C 
BRANCH  11  12
ATOM     12  C   UNL     1       0.964   0.771  -1.345  1.00  0.00    -0.031 A 
ATOM     13  C   UNL     1       2.909  -0.907  -1.037  1.00  0.00     0.044 C 
ATOM     14  C   UNL     1       1.447  -0.541  -1.097  1.00  0.00    -0.047 A 
ATOM     15  C   UNL     1       0.540  -1.577  -0.776  1.00  0.00     0.004 A 
ATOM     16  C   UNL     1      -0.821  -1.328  -0.636  1.00  0.00     0.000 A 
ATOM     17  C   UNL     1      -0.421   0.993  -1.171  1.00  0.00     0.005 A 
ATOM     18  C   UNL     1      -1.299  -0.040  -0.823  1.00  0.00     0.000 A 
ENDBRANCH  11  12
BRANCH  11  19
ATOM     19  C   UNL     1       1.328   3.013  -2.652  1.00  0.00     0.058 C 
BRANCH  19  20
ATOM     20  C   UNL     1       1.986   4.368  -2.886  1.00  0.00    -0.010 A 
ATOM     21  C   UNL     1       1.169   5.458  -3.269  1.00  0.00     0.045 A 
ATOM     22  C   UNL     1       3.353   4.649  -2.736  1.00  0.00     0.045 A 
ATOM     23  Cl  UNL     1      -0.480   5.244  -3.770  1.00  0.00    -0.084 Cl
ATOM     24  C   UNL     1       1.656   6.771  -3.290  1.00  0.00     0.021 A 
ATOM     25  C   UNL     1       3.817   5.969  -2.653  1.00  0.00     0.021 A 
ATOM     26  Cl  UNL     1       4.580   3.438  -2.843  1.00  0.00    -0.084 Cl
ATOM     27  C   UNL     1       2.961   7.034  -2.899  1.00  0.00     0.003 A 
ENDBRANCH  19  20
ENDBRANCH  11  19
ENDBRANCH   9  11
ENDBRANCH   8   9
ENDBRANCH   7   8
ENDBRANCH   6   7
ENDBRANCH   5   6
ENDBRANCH   4   5
ENDBRANCH   3   4
ENDBRANCH   2   3
ENDBRANCH   1   2
BRANCH   1  28
ATOM     28  C   UNL     1       1.419  -0.260   5.253  1.00  0.00     0.188 C 
BRANCH  28  29
ATOM     29  O   UNL     1       1.359  -1.674   5.103  1.00  0.00    -0.376 OA
BRANCH  29  30
ATOM     30  C   UNL     1       0.085  -2.278   4.890  1.00  0.00     0.202 C 
BRANCH  30  31
ATOM     31  C   UNL     1      -1.190  -1.680   5.539  1.00  0.00     0.261 C 
BRANCH  31  32
ATOM     32  O   UNL     1      -0.905  -0.887   6.714  1.00  0.00    -0.460 OA
BRANCH  32  33
ATOM     33  C   UNL     1      -1.957  -0.180   7.226  1.00  0.00     0.338 C 
ATOM     34  O   UNL     1      -3.004  -0.690   7.591  1.00  0.00    -0.246 OA
BRANCH  33  35
ATOM     35  C   UNL     1      -1.700   1.297   7.097  1.00  0.00     0.060 A 
ATOM     36  C   UNL     1      -2.736   2.150   6.716  1.00  0.00     0.016 A 
ATOM     37  C   UNL     1      -0.409   1.811   7.107  1.00  0.00     0.016 A 
ATOM     38  C   UNL     1      -2.453   3.388   6.102  1.00  0.00     0.010 A 
ATOM     39  C   UNL     1      -0.124   2.981   6.391  1.00  0.00     0.010 A 
ATOM     40  C   UNL     1      -1.138   3.742   5.788  1.00  0.00    -0.014 A 
BRANCH  40  41
ATOM     41  C   UNL     1      -0.778   4.680   4.680  1.00  0.00     0.031 A 
ATOM     42  C   UNL     1       0.354   5.686   4.777  1.00  0.00     0.074 A 
ATOM     43  C   UNL     1      -1.240   4.403   3.423  1.00  0.00     0.049 A 
ATOM     44  N   UNL     1       0.624   6.585   3.878  1.00  0.00    -0.248 NA
ATOM     45  C   UNL     1       1.303   5.750   5.883  1.00  0.00     0.031 C 
ATOM     46  C   UNL     1      -0.567   4.786   2.183  1.00  0.00     0.029 A 
ATOM     47  N   UNL     1      -2.380   3.730   2.950  1.00  0.00    -0.354 N 
ATOM     48  C   UNL     1       1.913   7.056   4.083  1.00  0.00     0.074 A 
ATOM     49  C   UNL     1       2.252   6.558   5.394  1.00  0.00     0.031 C 
ATOM     50  C   UNL     1      -1.277   4.425   1.114  1.00  0.00     0.029 A 
ATOM     51  C   UNL     1      -2.585   4.074   1.598  1.00  0.00     0.049 A 
ATOM     52  H   UNL     1      -2.943   3.118   3.477  1.00  0.00     0.167 HD
ATOM     53  C   UNL     1       2.594   7.680   3.067  1.00  0.00     0.034 A 
ATOM     54  C   UNL     1      -3.719   4.601   1.054  1.00  0.00     0.034 A 
ATOM     55  C   UNL     1       1.757   7.815   1.851  1.00  0.00     0.049 A 
ATOM     56  C   UNL     1      -3.525   6.032   0.581  1.00  0.00     0.074 A 
ATOM     57  C   UNL     1       1.859   7.286   0.573  1.00  0.00     0.029 A 
ATOM     58  N   UNL     1       0.516   8.459   1.896  1.00  0.00    -0.354 N 
ATOM     59  N   UNL     1      -2.412   6.689   0.761  1.00  0.00    -0.248 NA
ATOM     60  C   UNL     1      -4.516   6.851  -0.112  1.00  0.00     0.031 C 
ATOM     61  C   UNL     1       0.631   7.483  -0.089  1.00  0.00     0.029 A 
ATOM     62  C   UNL     1      -0.187   8.240   0.723  1.00  0.00     0.049 A 
ATOM     63  H   UNL     1       0.187   8.992   2.655  1.00  0.00     0.167 HD
ATOM     64  C   UNL     1      -2.515   7.968   0.297  1.00  0.00     0.074 A 
ATOM     65  C   UNL     1      -3.854   8.018  -0.261  1.00  0.00     0.031 C 
ATOM     66  C   UNL     1      -1.477   8.851   0.430  1.00  0.00     0.034 A 
BRANCH  53  67
ATOM     67  C   UNL     1       4.123   7.936   3.009  1.00  0.00     0.023 A 
ATOM     68  C   UNL     1       4.703   8.225   1.744  1.00  0.00     0.012 A 
ATOM     69  C   UNL     1       5.051   7.886   4.076  1.00  0.00     0.148 A 
ATOM     70  C   UNL     1       6.087   8.313   1.523  1.00  0.00     0.002 A 
ATOM     71  C   UNL     1       6.440   7.950   3.858  1.00  0.00     0.091 A 
ATOM     72  F   UNL     1       4.613   7.877   5.335  1.00  0.00    -0.205 F 
ATOM     73  C   UNL     1       6.961   8.140   2.578  1.00  0.00     0.022 A 
BRANCH  71  74
ATOM     74  S   UNL     1       7.641   7.759   5.192  1.00  0.00     0.127 S 
ATOM     75  O   UNL     1       8.615   6.833   4.609  1.00  0.00    -0.237 OA
ATOM     76  O   UNL     1       8.133   9.124   5.367  1.00  0.00    -0.237 OA
ATOM     77  O   UNL     1       6.898   7.207   6.319  1.00  0.00    -0.744 OA
ENDBRANCH  71  74
ENDBRANCH  53  67
BRANCH  54  78
ATOM     78  C   UNL     1      -4.956   3.920   1.486  1.00  0.00     0.023 A 
ATOM     79  C   UNL     1      -5.140   2.620   0.957  1.00  0.00     0.012 A 
ATOM     80  C   UNL     1      -5.545   4.253   2.710  1.00  0.00     0.148 A 
ATOM     81  C   UNL     1      -5.730   1.618   1.725  1.00  0.00     0.002 A 
ATOM     82  C   UNL     1      -6.083   3.237   3.494  1.00  0.00     0.091 A 
ATOM     83  F   UNL     1      -5.427   5.512   3.151  1.00  0.00    -0.205 F 
ATOM     84  C   UNL     1      -6.148   1.915   3.017  1.00  0.00     0.022 A 
BRANCH  82  85
ATOM     85  S   UNL     1      -6.426   3.508   5.237  1.00  0.00     0.127 S 
ATOM     86  O   UNL     1      -7.874   3.678   5.240  1.00  0.00    -0.237 OA
ATOM     87  O   UNL     1      -5.945   2.266   5.840  1.00  0.00    -0.237 OA
ATOM     88  O   UNL     1      -5.635   4.680   5.588  1.00  0.00    -0.744 OA
ENDBRANCH  82  85
ENDBRANCH  54  78
BRANCH  66  89
ATOM     89  C   UNL     1      -1.520  10.338   0.154  1.00  0.00     0.023 A 
ATOM     90  C   UNL     1      -2.721  11.068   0.180  1.00  0.00     0.012 A 
ATOM     91  C   UNL     1      -0.317  11.084   0.001  1.00  0.00     0.148 A 
ATOM     92  C   UNL     1      -2.736  12.460   0.028  1.00  0.00     0.002 A 
ATOM     93  C   UNL     1      -0.331  12.473  -0.043  1.00  0.00     0.091 A 
ATOM     94  F   UNL     1       0.854  10.447  -0.132  1.00  0.00    -0.205 F 
ATOM     95  C   UNL     1      -1.542  13.165  -0.057  1.00  0.00     0.022 A 
BRANCH  93  96
ATOM     96  S   UNL     1       1.184  13.440   0.050  1.00  0.00     0.127 S 
ATOM     97  O   UNL     1       1.315  13.920  -1.324  1.00  0.00    -0.237 OA
ATOM     98  O   UNL     1       0.826  14.468   1.028  1.00  0.00    -0.237 OA
ATOM     99  O   UNL     1       2.219  12.518   0.498  1.00  0.00    -0.744 OA
ENDBRANCH  93  96
ENDBRANCH  66  89
ENDBRANCH  40  41
ENDBRANCH  33  35
ENDBRANCH  32  33
ENDBRANCH  31  32
ENDBRANCH  30  31
ENDBRANCH  29  30
ENDBRANCH  28  29
ENDBRANCH   1  28
TORSDOF 26
