REMARK SMILES NC(=O)c1c(-c2ccc(Cl)cc2)csc1NC(=O)[C@H]1[C@@H](C(=O)OCCOCCOCCOCCOC(=O)c2ccc(-c3c4nc(c(-c5cccc(S(=O)(=O)[O-])c5F)c5ccc([nH]5)c(-c5cccc(S(=O)(=O)[O-])c5F)c5nc(c(-c6cccc(S(=O)(=O)[O-])c6F)c6ccc3[nH]6)C=C5)C=C4)cc2)[C@@H]2CC[C@H]1O2
REMARK SMILES IDX 29 1 28 2 27 3 26 4 25 5 24 6 23 7 21 8 22 9 20 10 19 11
REMARK SMILES IDX 104 12 101 13 103 14 105 15 102 16 17 17 16 18 18 20 15 21
REMARK SMILES IDX 4 22 5 23 13 24 14 25 2 26 1 27 3 30 6 31 7 32 12 33 8 34
REMARK SMILES IDX 11 35 9 36 10 37 30 38 31 39 32 40 33 41 34 42 35 43 36 44
REMARK SMILES IDX 37 45 38 46 39 47 100 48 40 49 99 50 41 51 42 52 43 53 93 54
REMARK SMILES IDX 44 55 98 56 92 57 94 58 45 59 97 60 91 61 90 62 46 64 78 65
REMARK SMILES IDX 58 66 77 67 59 68 62 69 76 70 95 71 60 72 61 73 75 75 96 76
REMARK SMILES IDX 63 77 47 78 48 79 56 80 49 81 51 82 57 83 50 84 52 85 53 86
REMARK SMILES IDX 54 87 55 88 79 89 80 90 88 91 81 92 83 93 89 94 82 95 84 96
REMARK SMILES IDX 85 97 86 98 87 99 64 100 65 101 73 102 66 103 68 104 74 105
REMARK SMILES IDX 67 106 69 107 70 108 71 109 72 110
REMARK H PARENT 16 19 1 28 1 29 94 63 62 74
REMARK Flexibility Score: inf
ROOT
ATOM      1  O   UNL     1       1.486  -9.166   0.114  1.00  0.00    -0.377 OA
ENDROOT
BRANCH   1   2
ATOM      2  C   UNL     1       2.830  -8.693   0.225  1.00  0.00     0.188 C 
BRANCH   2   3
ATOM      3  C   UNL     1       3.308  -8.568   1.676  1.00  0.00     0.188 C 
BRANCH   3   4
ATOM      4  O   UNL     1       3.602  -9.836   2.266  1.00  0.00    -0.376 OA
BRANCH   4   5
ATOM      5  C   UNL     1       2.489 -10.413   2.959  1.00  0.00     0.202 C 
BRANCH   5   6
ATOM      6  C   UNL     1       2.331  -9.881   4.381  1.00  0.00     0.261 C 
BRANCH   6   7
ATOM      7  O   UNL     1       1.353  -8.816   4.379  1.00  0.00    -0.463 OA
BRANCH   7   8
ATOM      8  C   UNL     1       1.629  -7.734   5.144  1.00  0.00     0.312 C 
ATOM      9  O   UNL     1       2.642  -7.629   5.826  1.00  0.00    -0.252 OA
BRANCH   8  10
ATOM     10  C   UNL     1       0.457  -6.756   5.187  1.00  0.00     0.143 C 
ATOM     11  C   UNL     1      -0.057  -6.136   3.868  1.00  0.00     0.124 C 
ATOM     12  C   UNL     1       0.615  -4.734   3.907  1.00  0.00     0.132 C 
ATOM     13  C   UNL     1       0.947  -5.497   5.912  1.00  0.00     0.133 C 
ATOM     14  C   UNL     1      -0.248  -3.790   4.745  1.00  0.00     0.035 C 
ATOM     15  O   UNL     1       1.708  -4.889   4.841  1.00  0.00    -0.373 OA
ATOM     16  C   UNL     1      -0.178  -4.471   6.116  1.00  0.00     0.036 C 
BRANCH  11  17
ATOM     17  C   UNL     1       0.132  -6.879   2.554  1.00  0.00     0.231 C 
ATOM     18  N   UNL     1      -0.480  -8.082   2.282  1.00  0.00    -0.317 N 
ATOM     19  H   UNL     1      -0.201  -8.496   1.434  1.00  0.00     0.170 HD
ATOM     20  O   UNL     1       0.857  -6.395   1.676  1.00  0.00    -0.274 OA
BRANCH  18  21
ATOM     21  C   UNL     1      -1.424  -8.815   2.994  1.00  0.00     0.108 A 
ATOM     22  C   UNL     1      -1.720 -10.169   2.912  1.00  0.00     0.082 A 
ATOM     23  C   UNL     1      -2.546 -10.594   4.023  1.00  0.00     0.007 A 
ATOM     24  C   UNL     1      -3.116  -9.517   4.660  1.00  0.00     0.076 A 
ATOM     25  S   UNL     1      -2.548  -8.046   4.022  1.00  0.00    -0.125 S 
BRANCH  22  26
ATOM     26  C   UNL     1      -1.211 -11.112   1.940  1.00  0.00     0.252 C 
ATOM     27  N   UNL     1      -2.114 -11.460   0.988  1.00  0.00    -0.365 N 
ATOM     28  H   UNL     1      -1.863 -12.098   0.281  1.00  0.00     0.159 HD
ATOM     29  H   UNL     1      -3.020 -11.076   1.004  1.00  0.00     0.159 HD
ATOM     30  O   UNL     1      -0.116 -11.662   2.013  1.00  0.00    -0.269 OA
ENDBRANCH  22  26
BRANCH  23  31
ATOM     31  C   UNL     1      -2.794 -11.976   4.430  1.00  0.00    -0.017 A 
ATOM     32  C   UNL     1      -4.069 -12.432   4.760  1.00  0.00     0.010 A 
ATOM     33  C   UNL     1      -1.720 -12.885   4.457  1.00  0.00     0.010 A 
ATOM     34  C   UNL     1      -4.266 -13.784   5.064  1.00  0.00     0.021 A 
ATOM     35  C   UNL     1      -1.931 -14.242   4.701  1.00  0.00     0.021 A 
ATOM     36  C   UNL     1      -3.213 -14.690   4.987  1.00  0.00     0.041 A 
ATOM     37  Cl  UNL     1      -3.491 -16.369   5.226  1.00  0.00    -0.084 Cl
ENDBRANCH  23  31
ENDBRANCH  18  21
ENDBRANCH  11  17
ENDBRANCH   8  10
ENDBRANCH   7   8
ENDBRANCH   6   7
ENDBRANCH   5   6
ENDBRANCH   4   5
ENDBRANCH   3   4
ENDBRANCH   2   3
ENDBRANCH   1   2
BRANCH   1  38
ATOM     38  C   UNL     1       1.328 -10.501  -0.366  1.00  0.00     0.188 C 
BRANCH  38  39
ATOM     39  C   UNL     1       2.031 -10.939  -1.659  1.00  0.00     0.188 C 
BRANCH  39  40
ATOM     40  O   UNL     1       2.181 -10.043  -2.751  1.00  0.00    -0.376 OA
BRANCH  40  41
ATOM     41  C   UNL     1       1.261  -8.980  -2.926  1.00  0.00     0.202 C 
BRANCH  41  42
ATOM     42  C   UNL     1      -0.083  -9.319  -3.568  1.00  0.00     0.261 C 
BRANCH  42  43
ATOM     43  O   UNL     1      -0.928 -10.163  -2.771  1.00  0.00    -0.460 OA
BRANCH  43  44
ATOM     44  C   UNL     1      -0.992 -11.449  -3.188  1.00  0.00     0.338 C 
ATOM     45  O   UNL     1      -0.297 -11.982  -4.039  1.00  0.00    -0.246 OA
BRANCH  44  46
ATOM     46  C   UNL     1      -2.038 -12.186  -2.451  1.00  0.00     0.060 A 
ATOM     47  C   UNL     1      -1.747 -13.485  -2.018  1.00  0.00     0.016 A 
ATOM     48  C   UNL     1      -3.332 -11.669  -2.315  1.00  0.00     0.016 A 
ATOM     49  C   UNL     1      -2.763 -14.289  -1.496  1.00  0.00     0.010 A 
ATOM     50  C   UNL     1      -4.352 -12.484  -1.808  1.00  0.00     0.010 A 
ATOM     51  C   UNL     1      -4.081 -13.811  -1.437  1.00  0.00    -0.014 A 
BRANCH  51  52
ATOM     52  C   UNL     1      -5.188 -14.765  -1.179  1.00  0.00     0.031 A 
ATOM     53  C   UNL     1      -5.740 -15.564  -2.325  1.00  0.00     0.074 A 
ATOM     54  C   UNL     1      -5.737 -14.903   0.040  1.00  0.00     0.049 A 
ATOM     55  N   UNL     1      -6.633 -16.518  -2.312  1.00  0.00    -0.248 NA
ATOM     56  C   UNL     1      -5.235 -15.221  -3.663  1.00  0.00     0.031 C 
ATOM     57  C   UNL     1      -5.377 -14.115   1.210  1.00  0.00     0.029 A 
ATOM     58  N   UNL     1      -6.727 -15.747   0.487  1.00  0.00    -0.354 N 
ATOM     59  C   UNL     1      -6.832 -16.863  -3.642  1.00  0.00     0.074 A 
ATOM     60  C   UNL     1      -5.951 -16.028  -4.432  1.00  0.00     0.031 C 
ATOM     61  C   UNL     1      -6.130 -14.522   2.244  1.00  0.00     0.029 A 
ATOM     62  C   UNL     1      -6.987 -15.628   1.832  1.00  0.00     0.049 A 
ATOM     63  H   UNL     1      -7.205 -16.377  -0.101  1.00  0.00     0.167 HD
ATOM     64  C   UNL     1      -7.678 -17.781  -4.165  1.00  0.00     0.034 A 
ATOM     65  C   UNL     1      -7.790 -16.346   2.645  1.00  0.00     0.034 A 
ATOM     66  C   UNL     1      -8.574 -18.599  -3.394  1.00  0.00     0.049 A 
ATOM     67  C   UNL     1      -8.628 -17.453   2.061  1.00  0.00     0.074 A 
ATOM     68  C   UNL     1      -9.456 -19.567  -3.842  1.00  0.00     0.029 A 
ATOM     69  N   UNL     1      -8.720 -18.532  -2.018  1.00  0.00    -0.354 N 
ATOM     70  N   UNL     1      -8.687 -17.876   0.822  1.00  0.00    -0.248 NA
ATOM     71  C   UNL     1      -9.505 -18.185   2.988  1.00  0.00     0.031 C 
ATOM     72  C   UNL     1     -10.150 -20.072  -2.736  1.00  0.00     0.029 A 
ATOM     73  C   UNL     1      -9.682 -19.435  -1.599  1.00  0.00     0.049 A 
ATOM     74  H   UNL     1      -8.215 -17.930  -1.425  1.00  0.00     0.167 HD
ATOM     75  C   UNL     1      -9.608 -18.917   0.819  1.00  0.00     0.074 A 
ATOM     76  C   UNL     1     -10.041 -19.099   2.189  1.00  0.00     0.031 C 
ATOM     77  C   UNL     1     -10.084 -19.631  -0.230  1.00  0.00     0.034 A 
BRANCH  64  78
ATOM     78  C   UNL     1      -7.670 -17.936  -5.659  1.00  0.00     0.023 A 
ATOM     79  C   UNL     1      -6.599 -18.608  -6.283  1.00  0.00     0.012 A 
ATOM     80  C   UNL     1      -8.720 -17.423  -6.441  1.00  0.00     0.148 A 
ATOM     81  C   UNL     1      -6.559 -18.738  -7.670  1.00  0.00     0.002 A 
ATOM     82  C   UNL     1      -8.691 -17.588  -7.820  1.00  0.00     0.091 A 
ATOM     83  F   UNL     1      -9.711 -16.761  -5.827  1.00  0.00    -0.205 F 
ATOM     84  C   UNL     1      -7.608 -18.235  -8.436  1.00  0.00     0.022 A 
BRANCH  82  85
ATOM     85  S   UNL     1     -10.021 -17.024  -8.886  1.00  0.00     0.127 S 
ATOM     86  O   UNL     1      -9.400 -15.880  -9.551  1.00  0.00    -0.237 OA
ATOM     87  O   UNL     1     -10.239 -18.187  -9.747  1.00  0.00    -0.237 OA
ATOM     88  O   UNL     1     -11.135 -16.706  -8.004  1.00  0.00    -0.744 OA
ENDBRANCH  82  85
ENDBRANCH  64  78
BRANCH  65  89
ATOM     89  C   UNL     1      -7.751 -16.129   4.123  1.00  0.00     0.023 A 
ATOM     90  C   UNL     1      -7.218 -17.143   4.945  1.00  0.00     0.012 A 
ATOM     91  C   UNL     1      -8.172 -14.929   4.719  1.00  0.00     0.148 A 
ATOM     92  C   UNL     1      -7.128 -16.974   6.328  1.00  0.00     0.002 A 
ATOM     93  C   UNL     1      -8.001 -14.734   6.087  1.00  0.00     0.091 A 
ATOM     94  F   UNL     1      -8.701 -13.974   3.940  1.00  0.00    -0.205 F 
ATOM     95  C   UNL     1      -7.502 -15.762   6.899  1.00  0.00     0.022 A 
BRANCH  93  96
ATOM     96  S   UNL     1      -8.206 -13.100   6.808  1.00  0.00     0.127 S 
ATOM     97  O   UNL     1      -9.603 -13.117   7.224  1.00  0.00    -0.237 OA
ATOM     98  O   UNL     1      -7.232 -13.109   7.900  1.00  0.00    -0.237 OA
ATOM     99  O   UNL     1      -7.853 -12.185   5.726  1.00  0.00    -0.744 OA
ENDBRANCH  93  96
ENDBRANCH  65  89
BRANCH  77 100
ATOM    100  C   UNL     1     -11.147 -20.661   0.051  1.00  0.00     0.023 A 
ATOM    101  C   UNL     1     -12.456 -20.238   0.357  1.00  0.00     0.012 A 
ATOM    102  C   UNL     1     -10.872 -22.038  -0.055  1.00  0.00     0.148 A 
ATOM    103  C   UNL     1     -13.469 -21.169   0.582  1.00  0.00     0.002 A 
ATOM    104  C   UNL     1     -11.896 -22.960   0.130  1.00  0.00     0.091 A 
ATOM    105  F   UNL     1      -9.616 -22.420  -0.328  1.00  0.00    -0.205 F 
ATOM    106  C   UNL     1     -13.192 -22.528   0.458  1.00  0.00     0.022 A 
BRANCH 104 107
ATOM    107  S   UNL     1     -11.652 -24.726  -0.089  1.00  0.00     0.127 S 
ATOM    108  O   UNL     1     -11.670 -25.202   1.293  1.00  0.00    -0.237 OA
ATOM    109  O   UNL     1     -12.822 -25.106  -0.880  1.00  0.00    -0.237 OA
ATOM    110  O   UNL     1     -10.381 -24.870  -0.785  1.00  0.00    -0.744 OA
ENDBRANCH 104 107
ENDBRANCH  77 100
ENDBRANCH  51  52
ENDBRANCH  44  46
ENDBRANCH  43  44
ENDBRANCH  42  43
ENDBRANCH  41  42
ENDBRANCH  40  41
ENDBRANCH  39  40
ENDBRANCH  38  39
ENDBRANCH   1  38
TORSDOF 27
