REMARK SMILES C[C@H](c1cccc(-c2cc(C(=O)OCCOCCOCCOCCOC(=O)c3ccc(-c4c5nc(c(-c6cccc(S(=O)(=O)[O-])c6F)c6ccc([nH]6)c(-c6cccc(S(=O)(=O)[O-])c6F)c6nc(c(-c7cccc(S(=O)(=O)[O-])c7F)c7ccc4[nH]7)C=C6)C=C5)cc3)cc(S(=O)(=O)N3CCOCC3)c2)c1)[NH+](C)C
REMARK SMILES IDX 19 1 18 2 17 3 16 4 15 5 14 6 13 7 11 8 12 9 10 10 8 11 9 12
REMARK SMILES IDX 102 13 92 14 91 15 7 16 3 17 4 18 103 19 5 20 6 21 2 22 1 23
REMARK SMILES IDX 104 24 105 25 106 26 93 28 94 29 95 30 96 31 97 32 101 33
REMARK SMILES IDX 98 34 100 35 99 36 20 37 21 38 22 39 23 40 24 41 25 42 26 43
REMARK SMILES IDX 27 44 28 45 29 46 90 47 30 48 89 49 31 50 32 51 33 52 83 53
REMARK SMILES IDX 34 54 88 55 82 56 84 57 35 58 87 59 81 60 80 61 36 63 68 64
REMARK SMILES IDX 48 65 67 66 49 67 52 68 66 69 85 70 50 71 51 72 65 74 86 75
REMARK SMILES IDX 53 76 37 77 38 78 46 79 39 80 41 81 47 82 40 83 42 84 43 85
REMARK SMILES IDX 44 86 45 87 69 88 70 89 78 90 71 91 73 92 79 93 72 94 74 95
REMARK SMILES IDX 75 96 76 97 77 98 54 99 55 100 63 101 56 102 58 103 64 104
REMARK SMILES IDX 57 105 59 106 60 107 61 108 62 109
REMARK H PARENT 104 27 84 62 52 73
REMARK Flexibility Score: inf
ROOT
ATOM      1  O   UNL     1       1.001   0.654  -8.747  1.00  0.00    -0.377 OA
ENDROOT
BRANCH   1   2
ATOM      2  C   UNL     1       0.916  -0.162  -7.597  1.00  0.00     0.188 C 
BRANCH   2   3
ATOM      3  C   UNL     1      -0.045  -1.365  -7.596  1.00  0.00     0.188 C 
BRANCH   3   4
ATOM      4  O   UNL     1      -0.725  -1.581  -8.826  1.00  0.00    -0.376 OA
BRANCH   4   5
ATOM      5  C   UNL     1      -2.142  -1.454  -8.788  1.00  0.00     0.202 C 
BRANCH   5   6
ATOM      6  C   UNL     1      -2.648  -0.007  -8.802  1.00  0.00     0.261 C 
BRANCH   6   7
ATOM      7  O   UNL     1      -2.162   0.791  -7.714  1.00  0.00    -0.460 OA
BRANCH   7   8
ATOM      8  C   UNL     1      -2.617   0.524  -6.470  1.00  0.00     0.338 C 
ATOM      9  O   UNL     1      -3.459  -0.293  -6.147  1.00  0.00    -0.246 OA
BRANCH   8  10
ATOM     10  C   UNL     1      -1.661   1.184  -5.550  1.00  0.00     0.062 A 
ATOM     11  C   UNL     1       0.067   0.851  -3.878  1.00  0.00    -0.016 A 
ATOM     12  C   UNL     1      -1.072   0.394  -4.548  1.00  0.00     0.024 A 
ATOM     13  C   UNL     1       0.584   2.106  -4.221  1.00  0.00     0.030 A 
ATOM     14  C   UNL     1      -0.074   2.942  -5.121  1.00  0.00     0.084 A 
ATOM     15  C   UNL     1      -1.201   2.484  -5.801  1.00  0.00     0.037 A 
BRANCH  11  16
ATOM     16  C   UNL     1       0.647   0.126  -2.748  1.00  0.00    -0.018 A 
ATOM     17  C   UNL     1       0.767  -0.059  -0.292  1.00  0.00     0.010 A 
ATOM     18  C   UNL     1       1.701  -1.092  -0.451  1.00  0.00     0.010 A 
ATOM     19  C   UNL     1       0.285   0.544  -1.458  1.00  0.00     0.018 A 
ATOM     20  C   UNL     1       2.106  -1.507  -1.728  1.00  0.00     0.001 A 
ATOM     21  C   UNL     1       1.573  -0.908  -2.874  1.00  0.00     0.009 A 
BRANCH  17  22
ATOM     22  C   UNL     1       0.385   0.459   1.097  1.00  0.00     0.211 C 
ATOM     23  C   UNL     1       1.107   1.792   1.363  1.00  0.00     0.081 C 
BRANCH  22  24
ATOM     24  N   UNL     1      -1.071   0.440   1.411  1.00  0.00    -0.334 N 
ATOM     25  C   UNL     1      -1.321   0.677   2.835  1.00  0.00     0.333 C 
ATOM     26  C   UNL     1      -1.920   1.339   0.630  1.00  0.00     0.333 C 
ATOM     27  H   UNL     1      -1.343  -0.505   1.138  1.00  0.00     0.348 HD
ENDBRANCH  22  24
ENDBRANCH  17  22
ENDBRANCH  11  16
BRANCH  14  28
ATOM     28  S   UNL     1       0.485   4.616  -5.361  1.00  0.00     0.243 S 
ATOM     29  O   UNL     1       1.573   4.555  -6.310  1.00  0.00    -0.207 OA
ATOM     30  O   UNL     1      -0.703   5.411  -5.569  1.00  0.00    -0.207 OA
BRANCH  28  31
ATOM     31  N   UNL     1       1.104   5.063  -3.869  1.00  0.00    -0.193 NA
ATOM     32  C   UNL     1       2.549   5.159  -3.591  1.00  0.00     0.131 C 
ATOM     33  C   UNL     1       0.240   5.341  -2.713  1.00  0.00     0.131 C 
ATOM     34  C   UNL     1       2.915   4.343  -2.342  1.00  0.00     0.177 C 
ATOM     35  C   UNL     1       0.674   4.444  -1.551  1.00  0.00     0.177 C 
ATOM     36  O   UNL     1       2.060   4.629  -1.222  1.00  0.00    -0.379 OA
ENDBRANCH  28  31
ENDBRANCH  14  28
ENDBRANCH   8  10
ENDBRANCH   7   8
ENDBRANCH   6   7
ENDBRANCH   5   6
ENDBRANCH   4   5
ENDBRANCH   3   4
ENDBRANCH   2   3
ENDBRANCH   1   2
BRANCH   1  37
ATOM     37  C   UNL     1       1.153   0.051 -10.025  1.00  0.00     0.188 C 
BRANCH  37  38
ATOM     38  C   UNL     1       1.830  -1.329 -10.168  1.00  0.00     0.188 C 
BRANCH  38  39
ATOM     39  O   UNL     1       2.564  -1.770  -9.031  1.00  0.00    -0.376 OA
BRANCH  39  40
ATOM     40  C   UNL     1       3.980  -1.736  -9.145  1.00  0.00     0.202 C 
BRANCH  40  41
ATOM     41  C   UNL     1       4.590  -0.330  -9.111  1.00  0.00     0.261 C 
BRANCH  41  42
ATOM     42  O   UNL     1       4.222   0.518 -10.207  1.00  0.00    -0.460 OA
BRANCH  42  43
ATOM     43  C   UNL     1       4.550   0.105 -11.452  1.00  0.00     0.338 C 
ATOM     44  O   UNL     1       5.161  -0.902 -11.760  1.00  0.00    -0.246 OA
BRANCH  43  45
ATOM     45  C   UNL     1       3.866   0.999 -12.403  1.00  0.00     0.060 A 
ATOM     46  C   UNL     1       2.952   0.452 -13.314  1.00  0.00     0.016 A 
ATOM     47  C   UNL     1       4.104   2.374 -12.367  1.00  0.00     0.016 A 
ATOM     48  C   UNL     1       2.287   1.287 -14.211  1.00  0.00     0.010 A 
ATOM     49  C   UNL     1       3.452   3.204 -13.279  1.00  0.00     0.010 A 
ATOM     50  C   UNL     1       2.562   2.661 -14.220  1.00  0.00    -0.014 A 
BRANCH  50  51
ATOM     51  C   UNL     1       2.050   3.514 -15.315  1.00  0.00     0.031 A 
ATOM     52  C   UNL     1       2.951   3.795 -16.484  1.00  0.00     0.074 A 
ATOM     53  C   UNL     1       0.826   4.064 -15.254  1.00  0.00     0.049 A 
ATOM     54  N   UNL     1       2.739   4.544 -17.532  1.00  0.00    -0.248 NA
ATOM     55  C   UNL     1       4.272   3.146 -16.461  1.00  0.00     0.031 C 
ATOM     56  C   UNL     1      -0.128   3.883 -14.162  1.00  0.00     0.029 A 
ATOM     57  N   UNL     1       0.195   4.922 -16.119  1.00  0.00    -0.354 N 
ATOM     58  C   UNL     1       3.904   4.476 -18.284  1.00  0.00     0.074 A 
ATOM     59  C   UNL     1       4.827   3.626 -17.563  1.00  0.00     0.031 C 
ATOM     60  C   UNL     1      -1.211   4.642 -14.403  1.00  0.00     0.029 A 
ATOM     61  C   UNL     1      -1.016   5.376 -15.653  1.00  0.00     0.049 A 
ATOM     62  H   UNL     1       0.572   5.187 -16.989  1.00  0.00     0.167 HD
ATOM     63  C   UNL     1       4.179   5.055 -19.477  1.00  0.00     0.034 A 
ATOM     64  C   UNL     1      -1.855   6.300 -16.163  1.00  0.00     0.034 A 
ATOM     65  C   UNL     1       3.263   5.902 -20.190  1.00  0.00     0.049 A 
ATOM     66  C   UNL     1      -1.519   6.958 -17.477  1.00  0.00     0.074 A 
ATOM     67  C   UNL     1       3.422   6.490 -21.431  1.00  0.00     0.029 A 
ATOM     68  N   UNL     1       2.024   6.304 -19.713  1.00  0.00    -0.354 N 
ATOM     69  N   UNL     1      -0.478   6.770 -18.253  1.00  0.00    -0.248 NA
ATOM     70  C   UNL     1      -2.487   7.932 -18.000  1.00  0.00     0.031 C 
ATOM     71  C   UNL     1       2.291   7.273 -21.692  1.00  0.00     0.029 A 
ATOM     72  C   UNL     1       1.416   7.150 -20.624  1.00  0.00     0.049 A 
ATOM     73  H   UNL     1       1.634   6.027 -18.852  1.00  0.00     0.167 HD
ATOM     74  C   UNL     1      -0.676   7.584 -19.364  1.00  0.00     0.074 A 
ATOM     75  C   UNL     1      -1.950   8.247 -19.172  1.00  0.00     0.031 C 
ATOM     76  C   UNL     1       0.130   7.777 -20.439  1.00  0.00     0.034 A 
BRANCH  63  77
ATOM     77  C   UNL     1       5.524   4.764 -20.087  1.00  0.00     0.023 A 
ATOM     78  C   UNL     1       5.787   3.480 -20.608  1.00  0.00     0.012 A 
ATOM     79  C   UNL     1       6.520   5.756 -20.156  1.00  0.00     0.148 A 
ATOM     80  C   UNL     1       7.035   3.176 -21.150  1.00  0.00     0.002 A 
ATOM     81  C   UNL     1       7.747   5.458 -20.738  1.00  0.00     0.091 A 
ATOM     82  F   UNL     1       6.263   6.962 -19.629  1.00  0.00    -0.205 F 
ATOM     83  C   UNL     1       8.011   4.166 -21.223  1.00  0.00     0.022 A 
BRANCH  81  84
ATOM     84  S   UNL     1       9.039   6.689 -20.941  1.00  0.00     0.127 S 
ATOM     85  O   UNL     1       9.975   6.312 -19.883  1.00  0.00    -0.237 OA
ATOM     86  O   UNL     1       9.514   6.418 -22.299  1.00  0.00    -0.237 OA
ATOM     87  O   UNL     1       8.386   7.980 -20.776  1.00  0.00    -0.744 OA
ENDBRANCH  81  84
ENDBRANCH  63  77
BRANCH  64  88
ATOM     88  C   UNL     1      -3.109   6.635 -15.433  1.00  0.00     0.023 A 
ATOM     89  C   UNL     1      -4.350   6.221 -15.954  1.00  0.00     0.012 A 
ATOM     90  C   UNL     1      -3.072   7.323 -14.204  1.00  0.00     0.148 A 
ATOM     91  C   UNL     1      -5.534   6.500 -15.271  1.00  0.00     0.002 A 
ATOM     92  C   UNL     1      -4.250   7.551 -13.504  1.00  0.00     0.091 A 
ATOM     93  F   UNL     1      -1.881   7.721 -13.736  1.00  0.00    -0.205 F 
ATOM     94  C   UNL     1      -5.484   7.153 -14.042  1.00  0.00     0.022 A 
BRANCH  92  95
ATOM     95  S   UNL     1      -4.277   8.273 -11.859  1.00  0.00     0.127 S 
ATOM     96  O   UNL     1      -4.986   9.528 -12.096  1.00  0.00    -0.237 OA
ATOM     97  O   UNL     1      -5.035   7.270 -11.109  1.00  0.00    -0.237 OA
ATOM     98  O   UNL     1      -2.883   8.404 -11.462  1.00  0.00    -0.744 OA
ENDBRANCH  92  95
ENDBRANCH  64  88
BRANCH  76  99
ATOM     99  C   UNL     1      -0.337   8.738 -21.503  1.00  0.00     0.023 A 
ATOM    100  C   UNL     1      -0.318  10.123 -21.248  1.00  0.00     0.012 A 
ATOM    101  C   UNL     1      -0.715   8.276 -22.780  1.00  0.00     0.148 A 
ATOM    102  C   UNL     1      -0.696  11.032 -22.236  1.00  0.00     0.002 A 
ATOM    103  C   UNL     1      -1.045   9.190 -23.774  1.00  0.00     0.091 A 
ATOM    104  F   UNL     1      -0.742   6.954 -23.000  1.00  0.00    -0.205 F 
ATOM    105  C   UNL     1      -1.047  10.567 -23.501  1.00  0.00     0.022 A 
BRANCH 103 106
ATOM    106  S   UNL     1      -1.420   8.690 -25.459  1.00  0.00     0.127 S 
ATOM    107  O   UNL     1      -2.861   8.926 -25.527  1.00  0.00    -0.237 OA
ATOM    108  O   UNL     1      -0.612   9.621 -26.247  1.00  0.00    -0.237 OA
ATOM    109  O   UNL     1      -1.010   7.296 -25.565  1.00  0.00    -0.744 OA
ENDBRANCH 103 106
ENDBRANCH  76  99
ENDBRANCH  50  51
ENDBRANCH  43  45
ENDBRANCH  42  43
ENDBRANCH  41  42
ENDBRANCH  40  41
ENDBRANCH  39  40
ENDBRANCH  38  39
ENDBRANCH  37  38
ENDBRANCH   1  37
TORSDOF 28
