REMARK SMILES CC(C)(C)c1csc(C[NH2+][C@H]2CCC[C@@H](C(=O)OCCOCCOCCOCCOC(=O)c3ccc(-c4c5nc(c(-c6cccc(S(=O)(=O)[O-])c6F)c6ccc([nH]6)c(-c6cccc(S(=O)(=O)[O-])c6F)c6nc(c(-c7cccc(S(=O)(=O)[O-])c7F)c7ccc4[nH]7)C=C6)C=C5)cc3)C2)n1
REMARK SMILES IDX 23 1 22 2 21 3 20 4 19 5 18 6 16 7 17 8 15 9 11 10 12 11
REMARK SMILES IDX 96 12 13 13 14 14 10 15 9 18 8 19 5 20 6 21 97 22 7 23 2 24
REMARK SMILES IDX 1 25 3 26 4 27 24 28 25 29 26 30 27 31 28 32 29 33 30 34
REMARK SMILES IDX 31 35 32 36 33 37 34 38 95 39 35 40 94 41 36 42 37 43 38 44
REMARK SMILES IDX 88 45 39 46 93 47 87 48 89 49 40 50 92 51 86 52 85 53 41 55
REMARK SMILES IDX 73 56 53 57 72 58 54 59 57 60 71 61 90 62 55 63 56 64 70 66
REMARK SMILES IDX 91 67 58 68 42 69 43 70 51 71 44 72 46 73 52 74 45 75 47 76
REMARK SMILES IDX 48 77 49 78 50 79 74 80 75 81 83 82 76 83 78 84 84 85 77 86
REMARK SMILES IDX 79 87 80 88 81 89 82 90 59 91 60 92 68 93 61 94 63 95 69 96
REMARK SMILES IDX 62 97 64 98 65 99 66 100 67 101
REMARK H PARENT 10 16 10 17 89 54 57 65
REMARK Flexibility Score: inf
ROOT
ATOM      1  C   UNL     1      -3.656  11.964  -0.576  1.00  0.00     0.188 C 
ENDROOT
BRANCH   1   2
ATOM      2  C   UNL     1      -2.869  11.489  -1.820  1.00  0.00     0.188 C 
BRANCH   2   3
ATOM      3  O   UNL     1      -3.677  11.116  -2.929  1.00  0.00    -0.376 OA
BRANCH   3   4
ATOM      4  C   UNL     1      -4.005   9.743  -3.089  1.00  0.00     0.202 C 
BRANCH   4   5
ATOM      5  C   UNL     1      -4.804   9.090  -1.945  1.00  0.00     0.261 C 
BRANCH   5   6
ATOM      6  O   UNL     1      -4.133   9.067  -0.663  1.00  0.00    -0.463 OA
BRANCH   6   7
ATOM      7  C   UNL     1      -2.965   8.390  -0.626  1.00  0.00     0.309 C 
ATOM      8  O   UNL     1      -2.531   7.786  -1.596  1.00  0.00    -0.252 OA
BRANCH   7   9
ATOM      9  C   UNL     1      -2.262   8.472   0.732  1.00  0.00     0.105 C 
ATOM     10  C   UNL     1       0.081   7.418   0.220  1.00  0.00     0.183 C 
ATOM     11  C   UNL     1       0.721   8.745   0.655  1.00  0.00     0.065 C 
ATOM     12  C   UNL     1      -1.305   7.277   0.921  1.00  0.00     0.080 C 
ATOM     13  C   UNL     1      -0.172   9.940   0.357  1.00  0.00     0.007 C 
ATOM     14  C   UNL     1      -1.523   9.780   1.052  1.00  0.00     0.016 C 
BRANCH  10  15
ATOM     15  N   UNL     1      -0.060   7.199  -1.217  1.00  0.00    -0.338 N 
ATOM     16  H   UNL     1      -0.176   6.194  -1.349  1.00  0.00     0.346 HD
ATOM     17  H   UNL     1      -0.843   7.804  -1.466  1.00  0.00     0.346 HD
BRANCH  15  18
ATOM     18  C   UNL     1       0.989   7.623  -2.139  1.00  0.00     0.329 C 
BRANCH  18  19
ATOM     19  C   UNL     1       0.493   7.822  -3.567  1.00  0.00     0.147 A 
ATOM     20  C   UNL     1       0.232   8.769  -5.580  1.00  0.00     0.057 A 
ATOM     21  C   UNL     1      -0.625   7.692  -5.717  1.00  0.00     0.091 A 
ATOM     22  N   UNL     1       0.865   8.827  -4.338  1.00  0.00    -0.240 NA
ATOM     23  S   UNL     1      -0.602   6.719  -4.308  1.00  0.00    -0.121 S 
BRANCH  20  24
ATOM     24  C   UNL     1       0.593   9.819  -6.624  1.00  0.00     0.005 C 
ATOM     25  C   UNL     1      -0.359   9.802  -7.839  1.00  0.00     0.017 C 
ATOM     26  C   UNL     1       2.023   9.545  -7.132  1.00  0.00     0.017 C 
ATOM     27  C   UNL     1       0.542  11.233  -6.012  1.00  0.00     0.017 C 
ENDBRANCH  20  24
ENDBRANCH  18  19
ENDBRANCH  15  18
ENDBRANCH  10  15
ENDBRANCH   7   9
ENDBRANCH   6   7
ENDBRANCH   5   6
ENDBRANCH   4   5
ENDBRANCH   3   4
ENDBRANCH   2   3
ENDBRANCH   1   2
BRANCH   1  28
ATOM     28  O   UNL     1      -4.648  12.961  -0.713  1.00  0.00    -0.377 OA
BRANCH  28  29
ATOM     29  C   UNL     1      -5.402  12.918  -1.904  1.00  0.00     0.188 C 
BRANCH  29  30
ATOM     30  C   UNL     1      -4.796  13.790  -3.017  1.00  0.00     0.188 C 
BRANCH  30  31
ATOM     31  O   UNL     1      -3.499  14.346  -2.872  1.00  0.00    -0.376 OA
BRANCH  31  32
ATOM     32  C   UNL     1      -3.086  15.056  -1.715  1.00  0.00     0.202 C 
BRANCH  32  33
ATOM     33  C   UNL     1      -3.992  15.850  -0.750  1.00  0.00     0.261 C 
BRANCH  33  34
ATOM     34  O   UNL     1      -5.386  15.563  -0.721  1.00  0.00    -0.460 OA
BRANCH  34  35
ATOM     35  C   UNL     1      -6.161  16.266  -1.572  1.00  0.00     0.338 C 
ATOM     36  O   UNL     1      -5.800  17.127  -2.358  1.00  0.00    -0.246 OA
BRANCH  35  37
ATOM     37  C   UNL     1      -7.507  15.658  -1.546  1.00  0.00     0.060 A 
ATOM     38  C   UNL     1      -8.034  15.154  -2.745  1.00  0.00     0.016 A 
ATOM     39  C   UNL     1      -8.211  15.521  -0.347  1.00  0.00     0.016 A 
ATOM     40  C   UNL     1      -9.274  14.525  -2.752  1.00  0.00     0.010 A 
ATOM     41  C   UNL     1      -9.478  14.936  -0.364  1.00  0.00     0.010 A 
ATOM     42  C   UNL     1     -10.023  14.468  -1.573  1.00  0.00    -0.014 A 
BRANCH  42  43
ATOM     43  C   UNL     1     -11.468  14.173  -1.667  1.00  0.00     0.031 A 
ATOM     44  C   UNL     1     -12.403  15.341  -1.811  1.00  0.00     0.074 A 
ATOM     45  C   UNL     1     -11.937  12.914  -1.646  1.00  0.00     0.049 A 
ATOM     46  N   UNL     1     -13.706  15.355  -1.893  1.00  0.00    -0.248 NA
ATOM     47  C   UNL     1     -11.780  16.676  -1.867  1.00  0.00     0.031 C 
ATOM     48  C   UNL     1     -11.122  11.707  -1.533  1.00  0.00     0.029 A 
ATOM     49  N   UNL     1     -13.227  12.450  -1.696  1.00  0.00    -0.354 N 
ATOM     50  C   UNL     1     -14.059  16.696  -1.982  1.00  0.00     0.074 A 
ATOM     51  C   UNL     1     -12.838  17.467  -1.935  1.00  0.00     0.031 C 
ATOM     52  C   UNL     1     -11.937  10.637  -1.487  1.00  0.00     0.029 A 
ATOM     53  C   UNL     1     -13.326  11.089  -1.543  1.00  0.00     0.049 A 
ATOM     54  H   UNL     1     -14.006  13.037  -1.829  1.00  0.00     0.167 HD
ATOM     55  C   UNL     1     -15.292  17.238  -2.103  1.00  0.00     0.034 A 
ATOM     56  C   UNL     1     -14.419  10.307  -1.434  1.00  0.00     0.034 A 
ATOM     57  C   UNL     1     -16.502  16.466  -2.151  1.00  0.00     0.049 A 
ATOM     58  C   UNL     1     -15.786  10.940  -1.530  1.00  0.00     0.074 A 
ATOM     59  C   UNL     1     -17.801  16.914  -2.309  1.00  0.00     0.029 A 
ATOM     60  N   UNL     1     -16.564  15.088  -2.023  1.00  0.00    -0.354 N 
ATOM     61  N   UNL     1     -16.105  12.197  -1.725  1.00  0.00    -0.248 NA
ATOM     62  C   UNL     1     -16.944  10.040  -1.421  1.00  0.00     0.031 C 
ATOM     63  C   UNL     1     -18.652  15.808  -2.236  1.00  0.00     0.029 A 
ATOM     64  C   UNL     1     -17.881  14.667  -2.080  1.00  0.00     0.049 A 
ATOM     65  H   UNL     1     -15.786  14.495  -1.907  1.00  0.00     0.167 HD
ATOM     66  C   UNL     1     -17.493  12.233  -1.805  1.00  0.00     0.074 A 
ATOM     67  C   UNL     1     -17.953  10.868  -1.653  1.00  0.00     0.031 C 
ATOM     68  C   UNL     1     -18.316  13.297  -1.978  1.00  0.00     0.034 A 
BRANCH  55  69
ATOM     69  C   UNL     1     -15.387  18.736  -2.189  1.00  0.00     0.023 A 
ATOM     70  C   UNL     1     -14.956  19.403  -3.354  1.00  0.00     0.012 A 
ATOM     71  C   UNL     1     -15.938  19.481  -1.129  1.00  0.00     0.148 A 
ATOM     72  C   UNL     1     -15.041  20.791  -3.450  1.00  0.00     0.002 A 
ATOM     73  C   UNL     1     -16.066  20.859  -1.251  1.00  0.00     0.091 A 
ATOM     74  F   UNL     1     -16.315  18.831  -0.019  1.00  0.00    -0.205 F 
ATOM     75  C   UNL     1     -15.606  21.517  -2.404  1.00  0.00     0.022 A 
BRANCH  73  76
ATOM     76  S   UNL     1     -16.853  21.872   0.005  1.00  0.00     0.127 S 
ATOM     77  O   UNL     1     -15.718  22.636   0.521  1.00  0.00    -0.237 OA
ATOM     78  O   UNL     1     -17.805  22.653  -0.785  1.00  0.00    -0.237 OA
ATOM     79  O   UNL     1     -17.460  20.945   0.949  1.00  0.00    -0.744 OA
ENDBRANCH  73  76
ENDBRANCH  55  69
BRANCH  56  80
ATOM     80  C   UNL     1     -14.273   8.836  -1.241  1.00  0.00     0.023 A 
ATOM     81  C   UNL     1     -14.673   7.955  -2.264  1.00  0.00     0.012 A 
ATOM     82  C   UNL     1     -13.740   8.308  -0.049  1.00  0.00     0.148 A 
ATOM     83  C   UNL     1     -14.579   6.573  -2.090  1.00  0.00     0.002 A 
ATOM     84  C   UNL     1     -13.596   6.933   0.096  1.00  0.00     0.091 A 
ATOM     85  F   UNL     1     -13.379   9.162   0.918  1.00  0.00    -0.205 F 
ATOM     86  C   UNL     1     -14.032   6.063  -0.915  1.00  0.00     0.022 A 
BRANCH  84  87
ATOM     87  S   UNL     1     -12.790   6.191   1.519  1.00  0.00     0.127 S 
ATOM     88  O   UNL     1     -13.902   5.499   2.166  1.00  0.00    -0.237 OA
ATOM     89  O   UNL     1     -11.805   5.316   0.882  1.00  0.00    -0.237 OA
ATOM     90  O   UNL     1     -12.215   7.299   2.270  1.00  0.00    -0.744 OA
ENDBRANCH  84  87
ENDBRANCH  56  80
BRANCH  68  91
ATOM     91  C   UNL     1     -19.798  13.035  -2.067  1.00  0.00     0.023 A 
ATOM     92  C   UNL     1     -20.520  12.657  -0.918  1.00  0.00     0.012 A 
ATOM     93  C   UNL     1     -20.487  13.244  -3.279  1.00  0.00     0.148 A 
ATOM     94  C   UNL     1     -21.898  12.456  -0.982  1.00  0.00     0.002 A 
ATOM     95  C   UNL     1     -21.868  13.094  -3.322  1.00  0.00     0.091 A 
ATOM     96  F   UNL     1     -19.781  13.589  -4.365  1.00  0.00    -0.205 F 
ATOM     97  C   UNL     1     -22.573  12.686  -2.179  1.00  0.00     0.022 A 
BRANCH  95  98
ATOM     98  S   UNL     1     -22.832  13.468  -4.791  1.00  0.00     0.127 S 
ATOM     99  O   UNL     1     -23.248  12.134  -5.221  1.00  0.00    -0.237 OA
ATOM    100  O   UNL     1     -23.909  14.298  -4.251  1.00  0.00    -0.237 OA
ATOM    101  O   UNL     1     -21.930  14.163  -5.699  1.00  0.00    -0.744 OA
ENDBRANCH  95  98
ENDBRANCH  68  91
ENDBRANCH  42  43
ENDBRANCH  35  37
ENDBRANCH  34  35
ENDBRANCH  33  34
ENDBRANCH  32  33
ENDBRANCH  31  32
ENDBRANCH  30  31
ENDBRANCH  29  30
ENDBRANCH  28  29
ENDBRANCH   1  28
TORSDOF 27
