REMARK SMILES O=C(OCCOCCOCCOCCOC(=O)c1ccc(-c2c3nc(c(-c4cccc(S(=O)(=O)[O-])c4F)c4ccc([nH]4)c(-c4cccc(S(=O)(=O)[O-])c4F)c4nc(c(-c5cccc(S(=O)(=O)[O-])c5F)c5ccc2[nH]5)C=C4)C=C3)cc1)C1=Cc2c(Cl)ccc(Cl)c2O[C@@H]1C(F)(F)F
REMARK SMILES IDX 10 1 9 2 8 3 7 4 6 5 5 6 4 7 3 8 2 9 1 10 81 11 82 12 92 13
REMARK SMILES IDX 83 14 91 15 84 16 90 17 85 18 86 19 88 20 87 21 89 22 93 23
REMARK SMILES IDX 94 24 95 25 96 26 11 27 12 28 13 29 14 30 15 31 16 32 17 33
REMARK SMILES IDX 18 34 19 35 80 36 20 37 79 38 21 39 22 40 23 41 73 42 24 43
REMARK SMILES IDX 78 44 72 45 74 46 25 47 77 48 71 49 70 50 26 52 58 53 38 54
REMARK SMILES IDX 57 55 39 56 42 57 56 58 75 59 40 60 41 61 55 63 76 64 43 65
REMARK SMILES IDX 27 66 28 67 36 68 29 69 31 70 37 71 30 72 32 73 33 74 34 75
REMARK SMILES IDX 35 76 59 77 60 78 68 79 61 80 63 81 69 82 62 83 64 84 65 85
REMARK SMILES IDX 66 86 67 87 44 88 45 89 53 90 46 91 48 92 54 93 47 94 49 95
REMARK SMILES IDX 50 96 51 97 52 98
REMARK H PARENT 74 51 42 62
REMARK Flexibility Score: inf
ROOT
ATOM      1  C   UNL     1       4.120  -2.594   2.531  1.00  0.00     0.188 C 
ENDROOT
BRANCH   1   2
ATOM      2  O   UNL     1       2.773  -2.988   2.635  1.00  0.00    -0.377 OA
BRANCH   2   3
ATOM      3  C   UNL     1       1.927  -2.183   1.851  1.00  0.00     0.188 C 
BRANCH   3   4
ATOM      4  C   UNL     1       2.219  -2.229   0.347  1.00  0.00     0.188 C 
BRANCH   4   5
ATOM      5  O   UNL     1       3.530  -1.957  -0.257  1.00  0.00    -0.376 OA
BRANCH   5   6
ATOM      6  C   UNL     1       4.288  -0.576  -0.756  1.00  0.00     0.202 C 
BRANCH   6   7
ATOM      7  C   UNL     1       3.587   1.479  -0.534  1.00  0.00     0.261 C 
BRANCH   7   8
ATOM      8  O   UNL     1       2.672   2.227  -1.482  1.00  0.00    -0.460 OA
BRANCH   8   9
ATOM      9  C   UNL     1       2.846   1.859  -2.756  1.00  0.00     0.338 C 
ATOM     10  O   UNL     1       2.171   2.141  -3.716  1.00  0.00    -0.246 OA
BRANCH   9  11
ATOM     11  C   UNL     1       3.698   0.710  -2.494  1.00  0.00     0.087 C 
ATOM     12  C   UNL     1       5.087   1.055  -2.163  1.00  0.00     0.029 C 
ATOM     13  C   UNL     1       2.446  -0.073  -1.269  1.00  0.00     0.316 C 
ATOM     14  C   UNL     1       5.788   1.015  -0.492  1.00  0.00     0.037 A 
ATOM     15  O   UNL     1       3.105   0.004   0.563  1.00  0.00    -0.474 OA
ATOM     16  C   UNL     1       7.095   1.379  -0.261  1.00  0.00     0.052 A 
ATOM     17  C   UNL     1       4.812   0.613   0.891  1.00  0.00     0.148 A 
ATOM     18  Cl  UNL     1       8.180   1.837  -1.506  1.00  0.00    -0.084 Cl
ATOM     19  C   UNL     1       7.516   1.368   1.082  1.00  0.00     0.023 A 
ATOM     20  C   UNL     1       5.297   0.709   2.175  1.00  0.00     0.083 A 
ATOM     21  C   UNL     1       6.669   1.063   2.226  1.00  0.00     0.026 A 
ATOM     22  Cl  UNL     1       4.395   0.557   3.609  1.00  0.00    -0.080 Cl
BRANCH  13  23
ATOM     23  C   UNL     1       2.118  -1.349  -2.295  1.00  0.00     0.430 C 
ATOM     24  F   UNL     1       1.220  -2.271  -1.903  1.00  0.00    -0.167 F 
ATOM     25  F   UNL     1       1.556  -0.806  -3.421  1.00  0.00    -0.167 F 
ATOM     26  F   UNL     1       3.208  -2.009  -2.760  1.00  0.00    -0.167 F 
ENDBRANCH  13  23
ENDBRANCH   9  11
ENDBRANCH   8   9
ENDBRANCH   7   8
ENDBRANCH   6   7
ENDBRANCH   5   6
ENDBRANCH   4   5
ENDBRANCH   3   4
ENDBRANCH   2   3
ENDBRANCH   1   2
BRANCH   1  27
ATOM     27  C   UNL     1       5.066  -3.581   1.841  1.00  0.00     0.188 C 
BRANCH  27  28
ATOM     28  O   UNL     1       4.609  -4.689   1.085  1.00  0.00    -0.376 OA
BRANCH  28  29
ATOM     29  C   UNL     1       3.395  -5.348   1.393  1.00  0.00     0.202 C 
BRANCH  29  30
ATOM     30  C   UNL     1       3.131  -5.984   2.767  1.00  0.00     0.261 C 
BRANCH  30  31
ATOM     31  O   UNL     1       3.432  -5.183   3.913  1.00  0.00    -0.460 OA
BRANCH  31  32
ATOM     32  C   UNL     1       4.687  -5.322   4.390  1.00  0.00     0.338 C 
ATOM     33  O   UNL     1       5.532  -6.109   3.995  1.00  0.00    -0.246 OA
BRANCH  32  34
ATOM     34  C   UNL     1       4.988  -4.245   5.359  1.00  0.00     0.060 A 
ATOM     35  C   UNL     1       6.220  -3.585   5.226  1.00  0.00     0.016 A 
ATOM     36  C   UNL     1       4.122  -3.918   6.404  1.00  0.00     0.016 A 
ATOM     37  C   UNL     1       6.632  -2.666   6.179  1.00  0.00     0.010 A 
ATOM     38  C   UNL     1       4.554  -3.025   7.389  1.00  0.00     0.010 A 
ATOM     39  C   UNL     1       5.840  -2.458   7.311  1.00  0.00    -0.014 A 
BRANCH  39  40
ATOM     40  C   UNL     1       6.500  -1.909   8.516  1.00  0.00     0.031 A 
ATOM     41  C   UNL     1       6.980  -2.884   9.560  1.00  0.00     0.074 A 
ATOM     42  C   UNL     1       6.748  -0.596   8.642  1.00  0.00     0.049 A 
ATOM     43  N   UNL     1       7.611  -2.656  10.681  1.00  0.00    -0.248 NA
ATOM     44  C   UNL     1       6.713  -4.311   9.302  1.00  0.00     0.031 C 
ATOM     45  C   UNL     1       6.377   0.432   7.671  1.00  0.00     0.029 A 
ATOM     46  N   UNL     1       7.366   0.095   9.651  1.00  0.00    -0.354 N 
ATOM     47  C   UNL     1       7.772  -3.900  11.282  1.00  0.00     0.074 A 
ATOM     48  C   UNL     1       7.169  -4.878  10.407  1.00  0.00     0.031 C 
ATOM     49  C   UNL     1       6.760   1.631   8.143  1.00  0.00     0.029 A 
ATOM     50  C   UNL     1       7.370   1.455   9.460  1.00  0.00     0.049 A 
ATOM     51  H   UNL     1       7.769  -0.341  10.437  1.00  0.00     0.167 HD
ATOM     52  C   UNL     1       8.370  -4.201  12.457  1.00  0.00     0.034 A 
ATOM     53  C   UNL     1       7.796   2.442  10.272  1.00  0.00     0.034 A 
ATOM     54  C   UNL     1       8.972  -3.222  13.320  1.00  0.00     0.049 A 
ATOM     55  C   UNL     1       8.410   2.084  11.601  1.00  0.00     0.074 A 
ATOM     56  C   UNL     1       9.643  -3.423  14.511  1.00  0.00     0.029 A 
ATOM     57  N   UNL     1       8.947  -1.853  13.099  1.00  0.00    -0.354 N 
ATOM     58  N   UNL     1       8.634   0.900  12.119  1.00  0.00    -0.248 NA
ATOM     59  C   UNL     1       8.861   3.201  12.443  1.00  0.00     0.031 C 
ATOM     60  C   UNL     1       9.963  -2.171  15.046  1.00  0.00     0.029 A 
ATOM     61  C   UNL     1       9.565  -1.195  14.147  1.00  0.00     0.049 A 
ATOM     62  H   UNL     1       8.549  -1.415  12.312  1.00  0.00     0.167 HD
ATOM     63  C   UNL     1       9.296   1.127  13.321  1.00  0.00     0.074 A 
ATOM     64  C   UNL     1       9.448   2.562  13.445  1.00  0.00     0.031 C 
ATOM     65  C   UNL     1       9.740   0.232  14.239  1.00  0.00     0.034 A 
BRANCH  52  66
ATOM     66  C   UNL     1       8.367  -5.643  12.896  1.00  0.00     0.023 A 
ATOM     67  C   UNL     1       9.124  -6.608  12.201  1.00  0.00     0.012 A 
ATOM     68  C   UNL     1       7.625  -6.033  14.029  1.00  0.00     0.148 A 
ATOM     69  C   UNL     1       9.107  -7.945  12.599  1.00  0.00     0.002 A 
ATOM     70  C   UNL     1       7.658  -7.355  14.453  1.00  0.00     0.091 A 
ATOM     71  F   UNL     1       6.893  -5.107  14.663  1.00  0.00    -0.205 F 
ATOM     72  C   UNL     1       8.383  -8.316  13.730  1.00  0.00     0.022 A 
BRANCH  70  73
ATOM     73  S   UNL     1       6.829  -7.912  15.945  1.00  0.00     0.127 S 
ATOM     74  O   UNL     1       5.788  -8.780  15.397  1.00  0.00    -0.237 OA
ATOM     75  O   UNL     1       7.904  -8.614  16.645  1.00  0.00    -0.237 OA
ATOM     76  O   UNL     1       6.348  -6.711  16.613  1.00  0.00    -0.744 OA
ENDBRANCH  70  73
ENDBRANCH  52  66
BRANCH  53  77
ATOM     77  C   UNL     1       7.677   3.865   9.848  1.00  0.00     0.023 A 
ATOM     78  C   UNL     1       8.841   4.619   9.601  1.00  0.00     0.012 A 
ATOM     79  C   UNL     1       6.417   4.475   9.697  1.00  0.00     0.148 A 
ATOM     80  C   UNL     1       8.753   5.966   9.251  1.00  0.00     0.002 A 
ATOM     81  C   UNL     1       6.335   5.800   9.291  1.00  0.00     0.091 A 
ATOM     82  F   UNL     1       5.323   3.741   9.945  1.00  0.00    -0.205 F 
ATOM     83  C   UNL     1       7.502   6.554   9.088  1.00  0.00     0.022 A 
BRANCH  81  84
ATOM     84  S   UNL     1       4.771   6.609   8.941  1.00  0.00     0.127 S 
ATOM     85  O   UNL     1       4.741   7.655   9.960  1.00  0.00    -0.237 OA
ATOM     86  O   UNL     1       4.985   7.085   7.574  1.00  0.00    -0.237 OA
ATOM     87  O   UNL     1       3.752   5.577   9.069  1.00  0.00    -0.744 OA
ENDBRANCH  81  84
ENDBRANCH  53  77
BRANCH  65  88
ATOM     88  C   UNL     1      10.502   0.767  15.426  1.00  0.00     0.023 A 
ATOM     89  C   UNL     1       9.852   1.536  16.412  1.00  0.00     0.012 A 
ATOM     90  C   UNL     1      11.868   0.459  15.582  1.00  0.00     0.148 A 
ATOM     91  C   UNL     1      10.563   2.034  17.504  1.00  0.00     0.002 A 
ATOM     92  C   UNL     1      12.555   0.905  16.704  1.00  0.00     0.091 A 
ATOM     93  F   UNL     1      12.474  -0.264  14.629  1.00  0.00    -0.205 F 
ATOM     94  C   UNL     1      11.909   1.710  17.655  1.00  0.00     0.022 A 
BRANCH  92  95
ATOM     95  S   UNL     1      14.260   0.451  17.032  1.00  0.00     0.127 S 
ATOM     96  O   UNL     1      14.948   1.727  16.846  1.00  0.00    -0.237 OA
ATOM     97  O   UNL     1      14.194  -0.011  18.419  1.00  0.00    -0.237 OA
ATOM     98  O   UNL     1      14.598  -0.584  16.065  1.00  0.00    -0.744 OA
ENDBRANCH  92  95
ENDBRANCH  65  88
ENDBRANCH  39  40
ENDBRANCH  32  34
ENDBRANCH  31  32
ENDBRANCH  30  31
ENDBRANCH  29  30
ENDBRANCH  28  29
ENDBRANCH  27  28
ENDBRANCH   1  27
TORSDOF 24
