REMARK SMILES O=C(N[C@@H](Cc1c[nH]c2ccccc12)C(=O)N[C@@H](CO)C(=O)OCCOCCOCCOCCOC(=O)c1ccc(-c2c3nc(c(-c4cccc(S(=O)(=O)[O-])c4F)c4ccc([nH]4)c(-c4cccc(S(=O)(=O)[O-])c4F)c4nc(c(-c5cccc(S(=O)(=O)[O-])c5F)c5ccc2[nH]5)C=C4)C=C3)cc1)c1ccc(F)cc1
REMARK SMILES IDX 28 1 27 2 26 3 25 4 24 5 23 6 21 7 22 8 18 9 17 10 15 11
REMARK SMILES IDX 16 12 4 14 3 15 1 16 2 17 101 19 102 20 107 21 103 22 106 23
REMARK SMILES IDX 104 24 105 25 5 26 6 27 7 28 14 29 8 30 9 31 13 32 10 34
REMARK SMILES IDX 12 35 11 36 19 37 20 38 29 40 30 41 31 42 32 43 33 44 34 45
REMARK SMILES IDX 35 46 36 47 37 48 38 49 39 50 100 51 40 52 99 53 41 54 42 55
REMARK SMILES IDX 43 56 93 57 44 58 98 59 92 60 94 61 45 62 97 63 91 64 90 65
REMARK SMILES IDX 46 67 78 68 58 69 77 70 59 71 62 72 76 73 95 74 60 75 61 76
REMARK SMILES IDX 75 78 96 79 63 80 47 81 48 82 56 83 49 84 51 85 57 86 50 87
REMARK SMILES IDX 52 88 53 89 54 90 55 91 79 92 80 93 88 94 81 95 83 96 89 97
REMARK SMILES IDX 82 98 84 99 85 100 86 101 87 102 64 103 65 104 73 105 66 106
REMARK SMILES IDX 68 107 74 108 67 109 69 110 70 111 71 112 72 113
REMARK H PARENT 17 13 3 18 8 33 20 39 94 66 62 77
REMARK Flexibility Score: inf
ROOT
ATOM      1  C   UNL     1       6.859  -3.104   3.727  1.00  0.00     0.188 C 
ENDROOT
BRANCH   1   2
ATOM      2  C   UNL     1       6.561  -2.877   5.213  1.00  0.00     0.188 C 
BRANCH   2   3
ATOM      3  O   UNL     1       6.838  -3.998   6.037  1.00  0.00    -0.376 OA
BRANCH   3   4
ATOM      4  C   UNL     1       5.715  -4.801   6.372  1.00  0.00     0.202 C 
BRANCH   4   5
ATOM      5  C   UNL     1       5.095  -5.671   5.256  1.00  0.00     0.261 C 
BRANCH   5   6
ATOM      6  O   UNL     1       4.635  -4.981   4.064  1.00  0.00    -0.462 OA
BRANCH   6   7
ATOM      7  C   UNL     1       3.295  -4.836   3.851  1.00  0.00     0.331 C 
ATOM      8  O   UNL     1       2.447  -5.069   4.709  1.00  0.00    -0.250 OA
BRANCH   7   9
ATOM      9  C   UNL     1       2.940  -4.209   2.436  1.00  0.00     0.218 C 
BRANCH   9  10
ATOM     10  N   UNL     1       4.073  -3.732   1.586  1.00  0.00    -0.339 N 
ATOM     11  C   UNL     1       4.562  -2.521   1.169  1.00  0.00     0.243 C 
ATOM     12  O   UNL     1       5.661  -2.584   0.591  1.00  0.00    -0.273 OA
ATOM     13  H   UNL     1       4.606  -4.481   1.234  1.00  0.00     0.164 HD
BRANCH  11  14
ATOM     14  C   UNL     1       3.941  -1.077   1.349  1.00  0.00     0.176 C 
BRANCH  14  15
ATOM     15  N   UNL     1       2.551  -0.984   0.911  1.00  0.00    -0.340 N 
ATOM     16  O   UNL     1       0.779  -0.130  -0.179  1.00  0.00    -0.269 OA
ATOM     17  C   UNL     1       2.002  -0.184  -0.064  1.00  0.00     0.251 C 
ATOM     18  H   UNL     1       1.919  -1.576   1.379  1.00  0.00     0.164 HD
BRANCH  17  19
ATOM     19  C   UNL     1       2.835   0.668  -0.955  1.00  0.00     0.040 A 
ATOM     20  C   UNL     1       3.876   0.151  -1.740  1.00  0.00     0.017 A 
ATOM     21  C   UNL     1       2.487   2.024  -1.075  1.00  0.00     0.017 A 
ATOM     22  C   UNL     1       4.591   0.997  -2.597  1.00  0.00     0.040 A 
ATOM     23  C   UNL     1       3.198   2.862  -1.939  1.00  0.00     0.040 A 
ATOM     24  C   UNL     1       4.247   2.342  -2.688  1.00  0.00     0.123 A 
ATOM     25  F   UNL     1       4.925   3.146  -3.518  1.00  0.00    -0.207 F 
ENDBRANCH  17  19
ENDBRANCH  14  15
BRANCH  14  26
ATOM     26  C   UNL     1       4.264  -0.183   2.603  1.00  0.00     0.072 C 
BRANCH  26  27
ATOM     27  C   UNL     1       3.610  -0.569   3.896  1.00  0.00    -0.020 A 
ATOM     28  C   UNL     1       3.540  -1.873   4.274  1.00  0.00     0.087 A 
ATOM     29  C   UNL     1       3.178   0.141   5.074  1.00  0.00     0.003 A 
ATOM     30  N   UNL     1       2.848  -2.041   5.418  1.00  0.00    -0.361 N 
ATOM     31  C   UNL     1       2.741  -0.817   6.008  1.00  0.00     0.046 A 
ATOM     32  C   UNL     1       3.176   1.484   5.499  1.00  0.00     0.010 A 
ATOM     33  H   UNL     1       2.487  -2.889   5.763  1.00  0.00     0.166 HD
ATOM     34  C   UNL     1       2.334  -0.533   7.309  1.00  0.00     0.026 A 
ATOM     35  C   UNL     1       2.785   1.789   6.818  1.00  0.00     0.001 A 
ATOM     36  C   UNL     1       2.379   0.795   7.708  1.00  0.00     0.002 A 
ENDBRANCH  26  27
ENDBRANCH  14  26
ENDBRANCH  11  14
ENDBRANCH   9  10
BRANCH   9  37
ATOM     37  C   UNL     1       2.078  -5.247   1.714  1.00  0.00     0.193 C 
BRANCH  37  38
ATOM     38  O   UNL     1       2.729  -6.507   1.637  1.00  0.00    -0.394 OA
ATOM     39  H   UNL     1       3.555  -6.414   1.137  1.00  0.00     0.210 HD
ENDBRANCH  37  38
ENDBRANCH   9  37
ENDBRANCH   7   9
ENDBRANCH   6   7
ENDBRANCH   5   6
ENDBRANCH   4   5
ENDBRANCH   3   4
ENDBRANCH   2   3
ENDBRANCH   1   2
BRANCH   1  40
ATOM     40  O   UNL     1       7.605  -4.248   3.362  1.00  0.00    -0.377 OA
BRANCH  40  41
ATOM     41  C   UNL     1       8.733  -4.585   4.151  1.00  0.00     0.188 C 
BRANCH  41  42
ATOM     42  C   UNL     1       9.575  -3.450   4.770  1.00  0.00     0.188 C 
BRANCH  42  43
ATOM     43  O   UNL     1       9.321  -2.151   4.244  1.00  0.00    -0.376 OA
BRANCH  43  44
ATOM     44  C   UNL     1      10.240  -1.653   3.282  1.00  0.00     0.202 C 
BRANCH  44  45
ATOM     45  C   UNL     1      10.226  -2.334   1.908  1.00  0.00     0.261 C 
BRANCH  45  46
ATOM     46  O   UNL     1      10.539  -3.734   1.896  1.00  0.00    -0.460 OA
BRANCH  46  47
ATOM     47  C   UNL     1      11.726  -4.134   2.403  1.00  0.00     0.338 C 
ATOM     48  O   UNL     1      12.617  -3.428   2.841  1.00  0.00    -0.246 OA
BRANCH  47  49
ATOM     49  C   UNL     1      11.658  -5.605   2.546  1.00  0.00     0.060 A 
ATOM     50  C   UNL     1      11.828  -6.170   3.819  1.00  0.00     0.016 A 
ATOM     51  C   UNL     1      11.326  -6.408   1.452  1.00  0.00     0.016 A 
ATOM     52  C   UNL     1      11.681  -7.546   3.995  1.00  0.00     0.010 A 
ATOM     53  C   UNL     1      11.216  -7.788   1.622  1.00  0.00     0.010 A 
ATOM     54  C   UNL     1      11.424  -8.365   2.888  1.00  0.00    -0.014 A 
BRANCH  54  55
ATOM     55  C   UNL     1      11.652  -9.825   2.992  1.00  0.00     0.031 A 
ATOM     56  C   UNL     1      13.028 -10.329   2.655  1.00  0.00     0.074 A 
ATOM     57  C   UNL     1      10.679 -10.681   3.348  1.00  0.00     0.049 A 
ATOM     58  N   UNL     1      13.480 -11.553   2.621  1.00  0.00    -0.248 NA
ATOM     59  C   UNL     1      14.031  -9.307   2.302  1.00  0.00     0.031 C 
ATOM     60  C   UNL     1       9.310 -10.314   3.702  1.00  0.00     0.029 A 
ATOM     61  N   UNL     1      10.697 -12.051   3.440  1.00  0.00    -0.354 N 
ATOM     62  C   UNL     1      14.806 -11.452   2.221  1.00  0.00     0.074 A 
ATOM     63  C   UNL     1      15.087 -10.050   2.013  1.00  0.00     0.031 C 
ATOM     64  C   UNL     1       8.607 -11.438   3.939  1.00  0.00     0.029 A 
ATOM     65  C   UNL     1       9.470 -12.600   3.732  1.00  0.00     0.049 A 
ATOM     66  H   UNL     1      11.511 -12.590   3.309  1.00  0.00     0.167 HD
ATOM     67  C   UNL     1      15.717 -12.436   2.050  1.00  0.00     0.034 A 
ATOM     68  C   UNL     1       9.090 -13.893   3.798  1.00  0.00     0.034 A 
ATOM     69  C   UNL     1      15.439 -13.829   2.255  1.00  0.00     0.049 A 
ATOM     70  C   UNL     1      10.117 -14.976   3.570  1.00  0.00     0.074 A 
ATOM     71  C   UNL     1      16.303 -14.902   2.144  1.00  0.00     0.029 A 
ATOM     72  N   UNL     1      14.198 -14.343   2.594  1.00  0.00    -0.354 N 
ATOM     73  N   UNL     1      11.398 -14.862   3.313  1.00  0.00    -0.248 NA
ATOM     74  C   UNL     1       9.652 -16.369   3.672  1.00  0.00     0.031 C 
ATOM     75  C   UNL     1      15.575 -16.071   2.387  1.00  0.00     0.029 A 
ATOM     76  C   UNL     1      14.268 -15.721   2.686  1.00  0.00     0.049 A 
ATOM     77  H   UNL     1      13.386 -13.807   2.748  1.00  0.00     0.167 HD
ATOM     78  C   UNL     1      11.899 -16.160   3.267  1.00  0.00     0.074 A 
ATOM     79  C   UNL     1      10.785 -17.046   3.536  1.00  0.00     0.031 C 
ATOM     80  C   UNL     1      13.163 -16.584   3.016  1.00  0.00     0.034 A 
BRANCH  67  81
ATOM     81  C   UNL     1      17.103 -12.032   1.630  1.00  0.00     0.023 A 
ATOM     82  C   UNL     1      17.953 -11.388   2.553  1.00  0.00     0.012 A 
ATOM     83  C   UNL     1      17.575 -12.320   0.336  1.00  0.00     0.148 A 
ATOM     84  C   UNL     1      19.242 -11.009   2.183  1.00  0.00     0.002 A 
ATOM     85  C   UNL     1      18.877 -11.982  -0.010  1.00  0.00     0.091 A 
ATOM     86  F   UNL     1      16.739 -12.905  -0.534  1.00  0.00    -0.205 F 
ATOM     87  C   UNL     1      19.707 -11.316   0.907  1.00  0.00     0.022 A 
BRANCH  85  88
ATOM     88  S   UNL     1      19.594 -12.403  -1.601  1.00  0.00     0.127 S 
ATOM     89  O   UNL     1      19.709 -11.088  -2.230  1.00  0.00    -0.237 OA
ATOM     90  O   UNL     1      20.868 -13.007  -1.212  1.00  0.00    -0.237 OA
ATOM     91  O   UNL     1      18.656 -13.318  -2.236  1.00  0.00    -0.744 OA
ENDBRANCH  85  88
ENDBRANCH  67  81
BRANCH  68  92
ATOM     92  C   UNL     1       7.677 -14.246   4.119  1.00  0.00     0.023 A 
ATOM     93  C   UNL     1       7.376 -14.872   5.344  1.00  0.00     0.012 A 
ATOM     94  C   UNL     1       6.632 -13.969   3.216  1.00  0.00     0.148 A 
ATOM     95  C   UNL     1       6.066 -15.247   5.650  1.00  0.00     0.002 A 
ATOM     96  C   UNL     1       5.322 -14.294   3.550  1.00  0.00     0.091 A 
ATOM     97  F   UNL     1       6.940 -13.392   2.046  1.00  0.00    -0.205 F 
ATOM     98  C   UNL     1       5.039 -14.949   4.758  1.00  0.00     0.022 A 
BRANCH  96  99
ATOM     99  S   UNL     1       3.923 -13.840   2.520  1.00  0.00     0.127 S 
ATOM    100  O   UNL     1       3.481 -15.141   2.024  1.00  0.00    -0.237 OA
ATOM    101  O   UNL     1       3.026 -13.214   3.492  1.00  0.00    -0.237 OA
ATOM    102  O   UNL     1       4.453 -12.928   1.516  1.00  0.00    -0.744 OA
ENDBRANCH  96  99
ENDBRANCH  68  92
BRANCH  80 103
ATOM    103  C   UNL     1      13.439 -18.064   3.072  1.00  0.00     0.023 A 
ATOM    104  C   UNL     1      12.975 -18.909   2.045  1.00  0.00     0.012 A 
ATOM    105  C   UNL     1      14.245 -18.599   4.097  1.00  0.00     0.148 A 
ATOM    106  C   UNL     1      13.284 -20.268   2.053  1.00  0.00     0.002 A 
ATOM    107  C   UNL     1      14.592 -19.945   4.071  1.00  0.00     0.091 A 
ATOM    108  F   UNL     1      14.665 -17.782   5.074  1.00  0.00    -0.205 F 
ATOM    109  C   UNL     1      14.102 -20.783   3.057  1.00  0.00     0.022 A 
BRANCH 107 110
ATOM    110  S   UNL     1      15.722 -20.671   5.263  1.00  0.00     0.127 S 
ATOM    111  O   UNL     1      14.819 -21.491   6.069  1.00  0.00    -0.237 OA
ATOM    112  O   UNL     1      16.633 -21.430   4.405  1.00  0.00    -0.237 OA
ATOM    113  O   UNL     1      16.342 -19.553   5.963  1.00  0.00    -0.744 OA
ENDBRANCH 107 110
ENDBRANCH  80 103
ENDBRANCH  54  55
ENDBRANCH  47  49
ENDBRANCH  46  47
ENDBRANCH  45  46
ENDBRANCH  44  45
ENDBRANCH  43  44
ENDBRANCH  42  43
ENDBRANCH  41  42
ENDBRANCH  40  41
ENDBRANCH   1  40
TORSDOF 31
