REMARK SMILES COC(=O)[C@H]1CCN(C(=O)N2CCC[C@@H]2C(=O)OCCOCCOCCOCCOC(=O)c2ccc(-c3c4nc(c(-c5cccc(S(=O)(=O)[O-])c5F)c5ccc([nH]5)c(-c5cccc(S(=O)(=O)[O-])c5F)c5nc(c(-c6cccc(S(=O)(=O)[O-])c6F)c6ccc3[nH]6)C=C5)C=C4)cc2)C1
REMARK SMILES IDX 23 1 22 2 21 3 20 4 19 5 18 6 16 7 17 8 15 9 11 10 12 11
REMARK SMILES IDX 13 12 14 13 9 14 10 15 8 16 5 17 6 18 96 19 7 20 3 21 4 22
REMARK SMILES IDX 2 23 1 24 24 25 25 26 26 27 27 28 28 29 29 30 30 31 31 32
REMARK SMILES IDX 32 33 33 34 34 35 95 36 35 37 94 38 36 39 37 40 38 41 88 42
REMARK SMILES IDX 39 43 93 44 87 45 89 46 40 47 92 48 86 49 85 50 41 52 73 53
REMARK SMILES IDX 53 54 72 55 54 56 57 57 71 58 90 59 55 60 56 61 70 63 91 64
REMARK SMILES IDX 58 65 42 66 43 67 51 68 44 69 46 70 52 71 45 72 47 73 48 74
REMARK SMILES IDX 49 75 50 76 74 77 75 78 83 79 76 80 78 81 84 82 77 83 79 84
REMARK SMILES IDX 80 85 81 86 82 87 59 88 60 89 68 90 61 91 63 92 69 93 62 94
REMARK SMILES IDX 64 95 65 96 66 97 67 98
REMARK H PARENT 89 51 57 62
REMARK Flexibility Score: inf
ROOT
ATOM      1  C   UNL     1      -0.554  -8.305  -5.714  1.00  0.00     0.188 C 
ENDROOT
BRANCH   1   2
ATOM      2  C   UNL     1      -1.657  -7.280  -6.010  1.00  0.00     0.188 C 
BRANCH   2   3
ATOM      3  O   UNL     1      -1.361  -5.957  -6.428  1.00  0.00    -0.376 OA
BRANCH   3   4
ATOM      4  C   UNL     1      -0.325  -5.176  -5.851  1.00  0.00     0.202 C 
BRANCH   4   5
ATOM      5  C   UNL     1      -0.062  -5.067  -4.338  1.00  0.00     0.261 C 
BRANCH   5   6
ATOM      6  O   UNL     1      -0.091  -6.282  -3.580  1.00  0.00    -0.462 OA
BRANCH   6   7
ATOM      7  C   UNL     1      -1.275  -6.543  -2.979  1.00  0.00     0.329 C 
ATOM      8  O   UNL     1      -2.249  -5.798  -3.056  1.00  0.00    -0.250 OA
BRANCH   7   9
ATOM      9  C   UNL     1      -1.283  -7.827  -2.127  1.00  0.00     0.197 C 
ATOM     10  N   UNL     1      -1.038  -7.506  -0.743  1.00  0.00    -0.311 N 
ATOM     11  C   UNL     1      -0.478  -8.624  -0.031  1.00  0.00     0.122 C 
ATOM     12  C   UNL     1       0.458  -9.211  -1.062  1.00  0.00     0.024 C 
ATOM     13  C   UNL     1      -0.249  -8.939  -2.396  1.00  0.00     0.039 C 
BRANCH  10  14
ATOM     14  C   UNL     1      -1.588  -6.411  -0.149  1.00  0.00     0.320 C 
ATOM     15  O   UNL     1      -2.798  -6.231  -0.079  1.00  0.00    -0.248 OA
BRANCH  14  16
ATOM     16  N   UNL     1      -0.643  -5.476   0.202  1.00  0.00    -0.324 N 
ATOM     17  C   UNL     1       0.290  -3.577   1.238  1.00  0.00     0.120 C 
ATOM     18  C   UNL     1       1.306  -4.725   1.174  1.00  0.00     0.039 C 
ATOM     19  C   UNL     1      -1.008  -4.162   0.676  1.00  0.00     0.136 C 
ATOM     20  C   UNL     1       0.797  -5.569   0.032  1.00  0.00     0.122 C 
BRANCH  17  21
ATOM     21  C   UNL     1       0.118  -3.105   2.656  1.00  0.00     0.310 C 
ATOM     22  O   UNL     1      -0.874  -3.272   3.351  1.00  0.00    -0.252 OA
BRANCH  21  23
ATOM     23  O   UNL     1       1.246  -2.457   3.056  1.00  0.00    -0.469 OA
ATOM     24  C   UNL     1       1.218  -2.042   4.418  1.00  0.00     0.282 C 
ENDBRANCH  21  23
ENDBRANCH  17  21
ENDBRANCH  14  16
ENDBRANCH  10  14
ENDBRANCH   7   9
ENDBRANCH   6   7
ENDBRANCH   5   6
ENDBRANCH   4   5
ENDBRANCH   3   4
ENDBRANCH   2   3
ENDBRANCH   1   2
BRANCH   1  25
ATOM     25  O   UNL     1       0.734  -7.758  -5.545  1.00  0.00    -0.377 OA
BRANCH  25  26
ATOM     26  C   UNL     1       1.606  -7.745  -6.667  1.00  0.00     0.188 C 
BRANCH  26  27
ATOM     27  C   UNL     1       0.989  -7.630  -8.076  1.00  0.00     0.188 C 
BRANCH  27  28
ATOM     28  O   UNL     1      -0.075  -8.540  -8.324  1.00  0.00    -0.376 OA
BRANCH  28  29
ATOM     29  C   UNL     1       0.218  -9.782  -8.945  1.00  0.00     0.202 C 
BRANCH  29  30
ATOM     30  C   UNL     1       1.153 -10.765  -8.218  1.00  0.00     0.261 C 
BRANCH  30  31
ATOM     31  O   UNL     1       2.485 -10.312  -7.930  1.00  0.00    -0.460 OA
BRANCH  31  32
ATOM     32  C   UNL     1       3.240  -9.849  -8.951  1.00  0.00     0.338 C 
ATOM     33  O   UNL     1       2.946  -9.837 -10.127  1.00  0.00    -0.246 OA
BRANCH  32  34
ATOM     34  C   UNL     1       4.414  -9.159  -8.366  1.00  0.00     0.060 A 
ATOM     35  C   UNL     1       4.622  -7.806  -8.667  1.00  0.00     0.016 A 
ATOM     36  C   UNL     1       5.306  -9.842  -7.537  1.00  0.00     0.016 A 
ATOM     37  C   UNL     1       5.749  -7.145  -8.178  1.00  0.00     0.010 A 
ATOM     38  C   UNL     1       6.446  -9.184  -7.066  1.00  0.00     0.010 A 
ATOM     39  C   UNL     1       6.694  -7.845  -7.418  1.00  0.00    -0.014 A 
BRANCH  39  40
ATOM     40  C   UNL     1       8.030  -7.246  -7.170  1.00  0.00     0.031 A 
ATOM     41  C   UNL     1       9.175  -7.673  -8.051  1.00  0.00     0.074 A 
ATOM     42  C   UNL     1       8.228  -6.338  -6.197  1.00  0.00     0.049 A 
ATOM     43  N   UNL     1      10.439  -7.346  -7.988  1.00  0.00    -0.248 NA
ATOM     44  C   UNL     1       8.849  -8.596  -9.154  1.00  0.00     0.031 C 
ATOM     45  C   UNL     1       7.200  -5.822  -5.295  1.00  0.00     0.029 A 
ATOM     46  N   UNL     1       9.379  -5.706  -5.790  1.00  0.00    -0.354 N 
ATOM     47  C   UNL     1      11.061  -8.035  -9.023  1.00  0.00     0.074 A 
ATOM     48  C   UNL     1      10.041  -8.814  -9.689  1.00  0.00     0.031 C 
ATOM     49  C   UNL     1       7.773  -4.980  -4.416  1.00  0.00     0.029 A 
ATOM     50  C   UNL     1       9.211  -4.921  -4.673  1.00  0.00     0.049 A 
ATOM     51  H   UNL     1      10.242  -5.807  -6.254  1.00  0.00     0.167 HD
ATOM     52  C   UNL     1      12.361  -8.009  -9.399  1.00  0.00     0.034 A 
ATOM     53  C   UNL     1      10.121  -4.260  -3.928  1.00  0.00     0.034 A 
ATOM     54  C   UNL     1      13.373  -7.227  -8.744  1.00  0.00     0.049 A 
ATOM     55  C   UNL     1      11.575  -4.298  -4.336  1.00  0.00     0.074 A 
ATOM     56  C   UNL     1      14.717  -7.125  -9.060  1.00  0.00     0.029 A 
ATOM     57  N   UNL     1      13.158  -6.421  -7.639  1.00  0.00    -0.354 N 
ATOM     58  N   UNL     1      12.131  -4.883  -5.369  1.00  0.00    -0.248 NA
ATOM     59  C   UNL     1      12.524  -3.555  -3.491  1.00  0.00     0.031 C 
ATOM     60  C   UNL     1      15.320  -6.277  -8.126  1.00  0.00     0.029 A 
ATOM     61  C   UNL     1      14.344  -5.819  -7.257  1.00  0.00     0.049 A 
ATOM     62  H   UNL     1      12.290  -6.294  -7.192  1.00  0.00     0.167 HD
ATOM     63  C   UNL     1      13.479  -4.537  -5.325  1.00  0.00     0.074 A 
ATOM     64  C   UNL     1      13.652  -3.676  -4.175  1.00  0.00     0.031 C 
ATOM     65  C   UNL     1      14.487  -4.908  -6.152  1.00  0.00     0.034 A 
BRANCH  52  66
ATOM     66  C   UNL     1      12.765  -8.829 -10.595  1.00  0.00     0.023 A 
ATOM     67  C   UNL     1      12.386  -8.409 -11.886  1.00  0.00     0.012 A 
ATOM     68  C   UNL     1      13.588  -9.962 -10.449  1.00  0.00     0.148 A 
ATOM     69  C   UNL     1      12.803  -9.116 -13.013  1.00  0.00     0.002 A 
ATOM     70  C   UNL     1      14.037 -10.635 -11.579  1.00  0.00     0.091 A 
ATOM     71  F   UNL     1      13.921 -10.354  -9.211  1.00  0.00    -0.205 F 
ATOM     72  C   UNL     1      13.638 -10.220 -12.860  1.00  0.00     0.022 A 
BRANCH  70  73
ATOM     73  S   UNL     1      15.177 -12.020 -11.496  1.00  0.00     0.127 S 
ATOM     74  O   UNL     1      14.355 -13.110 -12.021  1.00  0.00    -0.237 OA
ATOM     75  O   UNL     1      16.252 -11.583 -12.386  1.00  0.00    -0.237 OA
ATOM     76  O   UNL     1      15.555 -12.151 -10.096  1.00  0.00    -0.744 OA
ENDBRANCH  70  73
ENDBRANCH  52  66
BRANCH  53  77
ATOM     77  C   UNL     1       9.705  -3.498  -2.713  1.00  0.00     0.023 A 
ATOM     78  C   UNL     1       9.869  -2.099  -2.673  1.00  0.00     0.012 A 
ATOM     79  C   UNL     1       9.195  -4.159  -1.578  1.00  0.00     0.148 A 
ATOM     80  C   UNL     1       9.589  -1.381  -1.509  1.00  0.00     0.002 A 
ATOM     81  C   UNL     1       8.857  -3.429  -0.444  1.00  0.00     0.091 A 
ATOM     82  F   UNL     1       9.061  -5.492  -1.624  1.00  0.00    -0.205 F 
ATOM     83  C   UNL     1       9.078  -2.045  -0.397  1.00  0.00     0.022 A 
BRANCH  81  84
ATOM     84  S   UNL     1       8.069  -4.185   0.983  1.00  0.00     0.127 S 
ATOM     85  O   UNL     1       9.148  -4.165   1.967  1.00  0.00    -0.237 OA
ATOM     86  O   UNL     1       6.971  -3.255   1.250  1.00  0.00    -0.237 OA
ATOM     87  O   UNL     1       7.637  -5.503   0.539  1.00  0.00    -0.744 OA
ENDBRANCH  81  84
ENDBRANCH  53  77
BRANCH  65  88
ATOM     88  C   UNL     1      15.857  -4.333  -5.898  1.00  0.00     0.023 A 
ATOM     89  C   UNL     1      16.607  -4.750  -4.781  1.00  0.00     0.012 A 
ATOM     90  C   UNL     1      16.430  -3.428  -6.815  1.00  0.00     0.148 A 
ATOM     91  C   UNL     1      17.889  -4.246  -4.559  1.00  0.00     0.002 A 
ATOM     92  C   UNL     1      17.727  -2.973  -6.618  1.00  0.00     0.091 A 
ATOM     93  F   UNL     1      15.695  -3.033  -7.865  1.00  0.00    -0.205 F 
ATOM     94  C   UNL     1      18.452  -3.368  -5.483  1.00  0.00     0.022 A 
BRANCH  92  95
ATOM     95  S   UNL     1      18.572  -1.921  -7.804  1.00  0.00     0.127 S 
ATOM     96  O   UNL     1      18.657  -0.658  -7.072  1.00  0.00    -0.237 OA
ATOM     97  O   UNL     1      19.849  -2.614  -7.975  1.00  0.00    -0.237 OA
ATOM     98  O   UNL     1      17.731  -1.896  -8.993  1.00  0.00    -0.744 OA
ENDBRANCH  92  95
ENDBRANCH  65  88
ENDBRANCH  39  40
ENDBRANCH  32  34
ENDBRANCH  31  32
ENDBRANCH  30  31
ENDBRANCH  29  30
ENDBRANCH  28  29
ENDBRANCH  27  28
ENDBRANCH  26  27
ENDBRANCH  25  26
ENDBRANCH   1  25
TORSDOF 27
