REMARK SMILES C=C(C)C[C@@]1(C(=O)OCCOCCOCCOCCOC(=O)c2ccc(-c3c4nc(c(-c5cccc(S(=O)(=O)[O-])c5F)c5ccc([nH]5)c(-c5cccc(S(=O)(=O)[O-])c5F)c5nc(c(-c6cccc(S(=O)(=O)[O-])c6F)c6ccc3[nH]6)C=C5)C=C4)cc2)COc2ccccc2C1
REMARK SMILES IDX 15 1 14 2 13 3 12 4 11 5 10 6 9 7 8 8 6 9 7 10 5 11 86 12
REMARK SMILES IDX 94 13 87 14 93 15 88 16 92 17 89 18 91 19 90 20 4 21 2 22
REMARK SMILES IDX 1 23 3 24 16 25 17 26 18 27 19 28 20 29 21 30 22 31 23 32
REMARK SMILES IDX 24 33 85 34 25 35 84 36 26 37 27 38 28 39 78 40 29 41 83 42
REMARK SMILES IDX 77 43 79 44 30 45 82 46 76 47 75 48 31 50 63 51 43 52 62 53
REMARK SMILES IDX 44 54 47 55 61 56 80 57 45 58 46 59 60 61 81 62 48 63 32 64
REMARK SMILES IDX 33 65 41 66 34 67 36 68 42 69 35 70 37 71 38 72 39 73 40 74
REMARK SMILES IDX 64 75 65 76 73 77 66 78 68 79 74 80 67 81 69 82 70 83 71 84
REMARK SMILES IDX 72 85 49 86 50 87 58 88 51 89 53 90 59 91 52 92 54 93 55 94
REMARK SMILES IDX 56 95 57 96
REMARK H PARENT 79 49 47 60
REMARK Flexibility Score: inf
ROOT
ATOM      1  C   UNL     1      -1.482  -0.829   0.198  1.00  0.00     0.188 C 
ENDROOT
BRANCH   1   2
ATOM      2  O   UNL     1      -0.446   0.019  -0.254  1.00  0.00    -0.377 OA
BRANCH   2   3
ATOM      3  C   UNL     1      -0.747   1.350  -0.599  1.00  0.00     0.188 C 
BRANCH   3   4
ATOM      4  C   UNL     1      -1.421   1.594  -1.949  1.00  0.00     0.188 C 
BRANCH   4   5
ATOM      5  O   UNL     1      -1.765   0.484  -2.747  1.00  0.00    -0.376 OA
BRANCH   5   6
ATOM      6  C   UNL     1      -0.823  -0.516  -3.089  1.00  0.00     0.202 C 
BRANCH   6   7
ATOM      7  C   UNL     1       0.718  -0.389  -3.093  1.00  0.00     0.261 C 
BRANCH   7   8
ATOM      8  O   UNL     1       1.385   0.560  -2.247  1.00  0.00    -0.463 OA
BRANCH   8   9
ATOM      9  C   UNL     1       1.640   1.771  -2.792  1.00  0.00     0.316 C 
ATOM     10  O   UNL     1       1.256   2.088  -3.917  1.00  0.00    -0.251 OA
BRANCH   9  11
ATOM     11  C   UNL     1       2.544   2.692  -1.943  1.00  0.00     0.110 C 
ATOM     12  C   UNL     1       2.751   2.296  -0.457  1.00  0.00     0.249 C 
ATOM     13  C   UNL     1       1.960   4.124  -2.033  1.00  0.00     0.062 C 
ATOM     14  O   UNL     1       1.863   2.780   0.560  1.00  0.00    -0.492 OA
ATOM     15  C   UNL     1       1.067   4.535  -0.900  1.00  0.00    -0.005 A 
ATOM     16  C   UNL     1       1.140   3.906   0.333  1.00  0.00     0.122 A 
ATOM     17  C   UNL     1       0.180   5.614  -1.055  1.00  0.00     0.007 A 
ATOM     18  C   UNL     1       0.358   4.350   1.405  1.00  0.00     0.047 A 
ATOM     19  C   UNL     1      -0.616   6.047   0.008  1.00  0.00     0.001 A 
ATOM     20  C   UNL     1      -0.521   5.419   1.245  1.00  0.00     0.004 A 
BRANCH  11  21
ATOM     21  C   UNL     1       3.891   2.642  -2.767  1.00  0.00     0.052 C 
BRANCH  21  22
ATOM     22  C   UNL     1       5.135   2.139  -2.069  1.00  0.00    -0.079 C 
ATOM     23  C   UNL     1       5.921   2.970  -1.364  1.00  0.00     0.007 C 
ATOM     24  C   UNL     1       5.452   0.677  -2.221  1.00  0.00     0.039 C 
ENDBRANCH  21  22
ENDBRANCH  11  21
ENDBRANCH   9  11
ENDBRANCH   8   9
ENDBRANCH   7   8
ENDBRANCH   6   7
ENDBRANCH   5   6
ENDBRANCH   4   5
ENDBRANCH   3   4
ENDBRANCH   2   3
ENDBRANCH   1   2
BRANCH   1  25
ATOM     25  C   UNL     1      -2.954  -0.384   0.126  1.00  0.00     0.188 C 
BRANCH  25  26
ATOM     26  O   UNL     1      -3.188   1.008   0.261  1.00  0.00    -0.376 OA
BRANCH  26  27
ATOM     27  C   UNL     1      -3.520   1.551   1.528  1.00  0.00     0.202 C 
BRANCH  27  28
ATOM     28  C   UNL     1      -2.503   1.436   2.673  1.00  0.00     0.261 C 
BRANCH  28  29
ATOM     29  O   UNL     1      -2.063   0.117   3.003  1.00  0.00    -0.460 OA
BRANCH  29  30
ATOM     30  C   UNL     1      -3.003  -0.775   3.392  1.00  0.00     0.338 C 
ATOM     31  O   UNL     1      -4.190  -0.587   3.518  1.00  0.00    -0.246 OA
BRANCH  30  32
ATOM     32  C   UNL     1      -2.335  -2.092   3.451  1.00  0.00     0.060 A 
ATOM     33  C   UNL     1      -2.777  -3.111   2.599  1.00  0.00     0.016 A 
ATOM     34  C   UNL     1      -1.257  -2.297   4.315  1.00  0.00     0.016 A 
ATOM     35  C   UNL     1      -2.161  -4.359   2.636  1.00  0.00     0.010 A 
ATOM     36  C   UNL     1      -0.658  -3.555   4.371  1.00  0.00     0.010 A 
ATOM     37  C   UNL     1      -1.137  -4.599   3.560  1.00  0.00    -0.014 A 
BRANCH  37  38
ATOM     38  C   UNL     1      -0.742  -5.994   3.850  1.00  0.00     0.031 A 
ATOM     39  C   UNL     1      -1.393  -6.672   5.023  1.00  0.00     0.074 A 
ATOM     40  C   UNL     1       0.149  -6.646   3.085  1.00  0.00     0.049 A 
ATOM     41  N   UNL     1      -1.209  -7.875   5.495  1.00  0.00    -0.248 NA
ATOM     42  C   UNL     1      -2.390  -5.880   5.766  1.00  0.00     0.031 C 
ATOM     43  C   UNL     1       0.819  -6.094   1.909  1.00  0.00     0.029 A 
ATOM     44  N   UNL     1       0.654  -7.915   3.199  1.00  0.00    -0.354 N 
ATOM     45  C   UNL     1      -2.043  -7.976   6.601  1.00  0.00     0.074 A 
ATOM     46  C   UNL     1      -2.720  -6.707   6.744  1.00  0.00     0.031 C 
ATOM     47  C   UNL     1       1.665  -7.018   1.419  1.00  0.00     0.029 A 
ATOM     48  C   UNL     1       1.617  -8.210   2.264  1.00  0.00     0.049 A 
ATOM     49  H   UNL     1       0.355  -8.555   3.886  1.00  0.00     0.167 HD
ATOM     50  C   UNL     1      -2.241  -9.037   7.418  1.00  0.00     0.034 A 
ATOM     51  C   UNL     1       2.381  -9.311   2.126  1.00  0.00     0.034 A 
ATOM     52  C   UNL     1      -1.560 -10.293   7.270  1.00  0.00     0.049 A 
ATOM     53  C   UNL     1       2.187 -10.458   3.086  1.00  0.00     0.074 A 
ATOM     54  C   UNL     1      -1.697 -11.441   8.027  1.00  0.00     0.029 A 
ATOM     55  N   UNL     1      -0.598 -10.558   6.307  1.00  0.00    -0.354 N 
ATOM     56  N   UNL     1       1.331 -10.576   4.073  1.00  0.00    -0.248 NA
ATOM     57  C   UNL     1       3.045 -11.636   2.893  1.00  0.00     0.031 C 
ATOM     58  C   UNL     1      -0.787 -12.388   7.546  1.00  0.00     0.029 A 
ATOM     59  C   UNL     1      -0.120 -11.847   6.458  1.00  0.00     0.049 A 
ATOM     60  H   UNL     1      -0.299  -9.922   5.617  1.00  0.00     0.167 HD
ATOM     61  C   UNL     1       1.514 -11.856   4.588  1.00  0.00     0.074 A 
ATOM     62  C   UNL     1       2.555 -12.477   3.795  1.00  0.00     0.031 C 
ATOM     63  C   UNL     1       0.884 -12.462   5.626  1.00  0.00     0.034 A 
BRANCH  50  64
ATOM     64  C   UNL     1      -3.232  -8.870   8.540  1.00  0.00     0.023 A 
ATOM     65  C   UNL     1      -4.609  -8.759   8.253  1.00  0.00     0.012 A 
ATOM     66  C   UNL     1      -2.804  -8.836   9.881  1.00  0.00     0.148 A 
ATOM     67  C   UNL     1      -5.537  -8.569   9.277  1.00  0.00     0.002 A 
ATOM     68  C   UNL     1      -3.739  -8.699  10.899  1.00  0.00     0.091 A 
ATOM     69  F   UNL     1      -1.490  -8.917  10.135  1.00  0.00    -0.205 F 
ATOM     70  C   UNL     1      -5.103  -8.549  10.599  1.00  0.00     0.022 A 
BRANCH  68  71
ATOM     71  S   UNL     1      -3.290  -8.740  12.638  1.00  0.00     0.127 S 
ATOM     72  O   UNL     1      -3.526  -7.353  13.037  1.00  0.00    -0.237 OA
ATOM     73  O   UNL     1      -4.250  -9.703  13.178  1.00  0.00    -0.237 OA
ATOM     74  O   UNL     1      -1.901  -9.175  12.684  1.00  0.00    -0.744 OA
ENDBRANCH  68  71
ENDBRANCH  50  64
BRANCH  51  75
ATOM     75  C   UNL     1       3.374  -9.401   1.018  1.00  0.00     0.023 A 
ATOM     76  C   UNL     1       3.167 -10.325  -0.025  1.00  0.00     0.012 A 
ATOM     77  C   UNL     1       4.514  -8.575   0.986  1.00  0.00     0.148 A 
ATOM     78  C   UNL     1       4.094 -10.447  -1.062  1.00  0.00     0.002 A 
ATOM     79  C   UNL     1       5.405  -8.663  -0.078  1.00  0.00     0.091 A 
ATOM     80  F   UNL     1       4.700  -7.711   1.994  1.00  0.00    -0.205 F 
ATOM     81  C   UNL     1       5.206  -9.611  -1.093  1.00  0.00     0.022 A 
BRANCH  79  82
ATOM     82  S   UNL     1       6.801  -7.549  -0.267  1.00  0.00     0.127 S 
ATOM     83  O   UNL     1       7.933  -8.461  -0.124  1.00  0.00    -0.237 OA
ATOM     84  O   UNL     1       6.591  -7.035  -1.621  1.00  0.00    -0.237 OA
ATOM     85  O   UNL     1       6.660  -6.553   0.786  1.00  0.00    -0.744 OA
ENDBRANCH  79  82
ENDBRANCH  51  75
BRANCH  63  86
ATOM     86  C   UNL     1       1.256 -13.890   5.934  1.00  0.00     0.023 A 
ATOM     87  C   UNL     1       2.508 -14.189   6.507  1.00  0.00     0.012 A 
ATOM     88  C   UNL     1       0.325 -14.928   5.725  1.00  0.00     0.148 A 
ATOM     89  C   UNL     1       2.841 -15.504   6.831  1.00  0.00     0.002 A 
ATOM     90  C   UNL     1       0.643 -16.226   6.102  1.00  0.00     0.091 A 
ATOM     91  F   UNL     1      -0.855 -14.624   5.165  1.00  0.00    -0.205 F 
ATOM     92  C   UNL     1       1.906 -16.519   6.641  1.00  0.00     0.022 A 
BRANCH  90  93
ATOM     93  S   UNL     1      -0.535 -17.578   5.991  1.00  0.00     0.127 S 
ATOM     94  O   UNL     1       0.038 -18.383   4.913  1.00  0.00    -0.237 OA
ATOM     95  O   UNL     1      -0.439 -18.180   7.321  1.00  0.00    -0.237 OA
ATOM     96  O   UNL     1      -1.824 -16.967   5.695  1.00  0.00    -0.744 OA
ENDBRANCH  90  93
ENDBRANCH  63  86
ENDBRANCH  37  38
ENDBRANCH  30  32
ENDBRANCH  29  30
ENDBRANCH  28  29
ENDBRANCH  27  28
ENDBRANCH  26  27
ENDBRANCH  25  26
ENDBRANCH   1  25
TORSDOF 25
