REMARK SMILES CC(=O)c1c(C)nn(CC(=O)N2CCC[C@H](c3cccc(C(=O)OCCOCCOCCOCCOC(=O)c4ccc(-c5c6nc(c(-c7cccc(S(=O)(=O)[O-])c7F)c7ccc([nH]7)c(-c7cccc(S(=O)(=O)[O-])c7F)c7nc(c(-c8cccc(S(=O)(=O)[O-])c8F)c8ccc5[nH]8)C=C7)C=C6)cc4)c3)C2)c1C
REMARK SMILES IDX 29 1 28 2 27 3 26 4 25 5 24 6 22 7 23 8 21 9 17 10 18 11
REMARK SMILES IDX 102 12 19 13 20 14 16 15 12 16 13 17 103 18 14 19 15 20
REMARK SMILES IDX 10 21 11 22 9 23 8 24 4 25 5 26 104 27 6 28 7 29 105 30 2 31
REMARK SMILES IDX 1 32 3 33 30 34 31 35 32 36 33 37 34 38 35 39 36 40 37 41
REMARK SMILES IDX 38 42 39 43 40 44 101 45 41 46 100 47 42 48 43 49 44 50
REMARK SMILES IDX 94 51 45 52 99 53 93 54 95 55 46 56 98 57 92 58 91 59 47 61
REMARK SMILES IDX 79 62 59 63 78 64 60 65 63 66 77 67 96 68 61 69 62 70 76 72
REMARK SMILES IDX 97 73 64 74 48 75 49 76 57 77 50 78 52 79 58 80 51 81 53 82
REMARK SMILES IDX 54 83 55 84 56 85 80 86 81 87 89 88 82 89 84 90 90 91 83 92
REMARK SMILES IDX 85 93 86 94 87 95 88 96 65 97 66 98 74 99 67 100 69 101
REMARK SMILES IDX 75 102 68 103 70 104 71 105 72 106 73 107
REMARK H PARENT 95 60 63 71
REMARK Flexibility Score: inf
ROOT
ATOM      1  C   UNL     1      -1.784  -9.447  -1.859  1.00  0.00     0.188 C 
ENDROOT
BRANCH   1   2
ATOM      2  C   UNL     1      -1.853 -10.138  -3.239  1.00  0.00     0.188 C 
BRANCH   2   3
ATOM      3  O   UNL     1      -1.913 -11.552  -3.406  1.00  0.00    -0.376 OA
BRANCH   3   4
ATOM      4  C   UNL     1      -1.445 -12.436  -2.404  1.00  0.00     0.202 C 
BRANCH   4   5
ATOM      5  C   UNL     1       0.021 -12.382  -1.951  1.00  0.00     0.261 C 
BRANCH   5   6
ATOM      6  O   UNL     1       0.654 -11.108  -2.067  1.00  0.00    -0.460 OA
BRANCH   6   7
ATOM      7  C   UNL     1       1.308 -10.872  -3.229  1.00  0.00     0.338 C 
ATOM      8  O   UNL     1       1.511 -11.654  -4.139  1.00  0.00    -0.246 OA
BRANCH   7   9
ATOM      9  C   UNL     1       1.568  -9.417  -3.297  1.00  0.00     0.060 A 
ATOM     10  C   UNL     1       2.163  -7.309  -2.225  1.00  0.00    -0.042 A 
ATOM     11  C   UNL     1       1.700  -6.660  -3.379  1.00  0.00     0.004 A 
ATOM     12  C   UNL     1       2.017  -8.705  -2.176  1.00  0.00     0.019 A 
ATOM     13  C   UNL     1       1.250  -7.362  -4.497  1.00  0.00     0.001 A 
ATOM     14  C   UNL     1       1.228  -8.748  -4.475  1.00  0.00     0.016 A 
BRANCH  10  15
ATOM     15  C   UNL     1       2.817  -6.555  -1.060  1.00  0.00     0.039 C 
ATOM     16  N   UNL     1       4.305  -5.003  -2.373  1.00  0.00    -0.340 N 
ATOM     17  C   UNL     1       5.495  -5.802  -2.043  1.00  0.00     0.119 C 
ATOM     18  C   UNL     1       3.229  -5.087  -1.368  1.00  0.00     0.127 C 
ATOM     19  C   UNL     1       5.174  -7.238  -1.636  1.00  0.00     0.022 C 
ATOM     20  C   UNL     1       4.090  -7.272  -0.559  1.00  0.00     0.012 C 
BRANCH  16  21
ATOM     21  C   UNL     1       4.291  -4.331  -3.586  1.00  0.00     0.244 C 
ATOM     22  O   UNL     1       5.117  -4.656  -4.460  1.00  0.00    -0.273 OA
BRANCH  21  23
ATOM     23  C   UNL     1       3.458  -3.100  -3.923  1.00  0.00     0.244 C 
BRANCH  23  24
ATOM     24  N   UNL     1       2.300  -2.736  -3.133  1.00  0.00    -0.259 N 
ATOM     25  C   UNL     1       0.936  -1.995  -1.578  1.00  0.00     0.061 A 
ATOM     26  C   UNL     1       0.276  -2.833  -2.519  1.00  0.00     0.070 A 
ATOM     27  C   UNL     1       2.239  -1.886  -2.051  1.00  0.00     0.047 A 
ATOM     28  C   UNL     1      -1.126  -3.327  -2.501  1.00  0.00     0.069 C 
ATOM     29  N   UNL     1       1.094  -3.197  -3.513  1.00  0.00    -0.177 NA
ATOM     30  C   UNL     1       3.437  -1.176  -1.536  1.00  0.00     0.067 C 
BRANCH  25  31
ATOM     31  C   UNL     1       0.354  -1.468  -0.350  1.00  0.00     0.163 C 
ATOM     32  C   UNL     1       0.591  -0.028   0.020  1.00  0.00     0.093 C 
ATOM     33  O   UNL     1      -0.305  -2.212   0.373  1.00  0.00    -0.294 OA
ENDBRANCH  25  31
ENDBRANCH  23  24
ENDBRANCH  21  23
ENDBRANCH  16  21
ENDBRANCH  10  15
ENDBRANCH   7   9
ENDBRANCH   6   7
ENDBRANCH   5   6
ENDBRANCH   4   5
ENDBRANCH   3   4
ENDBRANCH   2   3
ENDBRANCH   1   2
BRANCH   1  34
ATOM     34  O   UNL     1      -1.948 -10.316  -0.747  1.00  0.00    -0.377 OA
BRANCH  34  35
ATOM     35  C   UNL     1      -3.251 -10.285  -0.173  1.00  0.00     0.188 C 
BRANCH  35  36
ATOM     36  C   UNL     1      -4.399 -10.700  -1.117  1.00  0.00     0.188 C 
BRANCH  36  37
ATOM     37  O   UNL     1      -4.459  -9.927  -2.317  1.00  0.00    -0.376 OA
BRANCH  37  38
ATOM     38  C   UNL     1      -5.565  -9.055  -2.503  1.00  0.00     0.202 C 
BRANCH  38  39
ATOM     39  C   UNL     1      -5.353  -7.684  -1.867  1.00  0.00     0.261 C 
BRANCH  39  40
ATOM     40  O   UNL     1      -5.044  -7.753  -0.483  1.00  0.00    -0.460 OA
BRANCH  40  41
ATOM     41  C   UNL     1      -5.969  -8.347   0.296  1.00  0.00     0.338 C 
ATOM     42  O   UNL     1      -6.997  -8.893  -0.059  1.00  0.00    -0.246 OA
BRANCH  41  43
ATOM     43  C   UNL     1      -5.585  -8.162   1.697  1.00  0.00     0.060 A 
ATOM     44  C   UNL     1      -6.457  -8.712   2.636  1.00  0.00     0.016 A 
ATOM     45  C   UNL     1      -4.614  -7.206   2.031  1.00  0.00     0.016 A 
ATOM     46  C   UNL     1      -6.563  -8.080   3.847  1.00  0.00     0.010 A 
ATOM     47  C   UNL     1      -4.726  -6.570   3.239  1.00  0.00     0.010 A 
ATOM     48  C   UNL     1      -5.779  -6.945   4.068  1.00  0.00    -0.014 A 
BRANCH  48  49
ATOM     49  C   UNL     1      -6.164  -6.095   5.167  1.00  0.00     0.031 A 
ATOM     50  C   UNL     1      -5.721  -6.574   6.483  1.00  0.00     0.074 A 
ATOM     51  C   UNL     1      -6.818  -4.939   4.953  1.00  0.00     0.049 A 
ATOM     52  N   UNL     1      -6.456  -6.954   7.473  1.00  0.00    -0.248 NA
ATOM     53  C   UNL     1      -4.280  -6.789   6.665  1.00  0.00     0.031 C 
ATOM     54  C   UNL     1      -7.021  -4.254   3.670  1.00  0.00     0.029 A 
ATOM     55  N   UNL     1      -7.303  -4.055   5.865  1.00  0.00    -0.354 N 
ATOM     56  C   UNL     1      -5.556  -7.224   8.495  1.00  0.00     0.074 A 
ATOM     57  C   UNL     1      -4.252  -7.305   7.892  1.00  0.00     0.031 C 
ATOM     58  C   UNL     1      -7.344  -2.965   3.913  1.00  0.00     0.029 A 
ATOM     59  C   UNL     1      -7.487  -2.781   5.347  1.00  0.00     0.049 A 
ATOM     60  H   UNL     1      -7.504  -4.295   6.798  1.00  0.00     0.167 HD
ATOM     61  C   UNL     1      -5.910  -7.070   9.796  1.00  0.00     0.034 A 
ATOM     62  C   UNL     1      -7.641  -1.644   6.061  1.00  0.00     0.034 A 
ATOM     63  C   UNL     1      -7.339  -7.070   9.971  1.00  0.00     0.049 A 
ATOM     64  C   UNL     1      -8.041  -2.026   7.436  1.00  0.00     0.074 A 
ATOM     65  C   UNL     1      -8.363  -7.949   9.681  1.00  0.00     0.029 A 
ATOM     66  N   UNL     1      -7.935  -5.862  10.237  1.00  0.00    -0.354 N 
ATOM     67  N   UNL     1      -9.194  -2.548   7.748  1.00  0.00    -0.248 NA
ATOM     68  C   UNL     1      -7.005  -2.157   8.450  1.00  0.00     0.031 C 
ATOM     69  C   UNL     1      -9.494  -7.132   9.394  1.00  0.00     0.029 A 
ATOM     70  C   UNL     1      -9.105  -5.798   9.530  1.00  0.00     0.049 A 
ATOM     71  H   UNL     1      -7.582  -5.162  10.833  1.00  0.00     0.167 HD
ATOM     72  C   UNL     1      -8.914  -3.430   8.785  1.00  0.00     0.074 A 
ATOM     73  C   UNL     1      -7.596  -3.032   9.267  1.00  0.00     0.031 C 
ATOM     74  C   UNL     1      -9.638  -4.577   8.954  1.00  0.00     0.034 A 
BRANCH  61  75
ATOM     75  C   UNL     1      -4.975  -6.535  10.854  1.00  0.00     0.023 A 
ATOM     76  C   UNL     1      -5.424  -6.580  12.191  1.00  0.00     0.012 A 
ATOM     77  C   UNL     1      -3.826  -5.751  10.591  1.00  0.00     0.148 A 
ATOM     78  C   UNL     1      -4.798  -5.841  13.199  1.00  0.00     0.002 A 
ATOM     79  C   UNL     1      -3.154  -5.092  11.613  1.00  0.00     0.091 A 
ATOM     80  F   UNL     1      -3.440  -5.508   9.335  1.00  0.00    -0.205 F 
ATOM     81  C   UNL     1      -3.654  -5.104  12.913  1.00  0.00     0.022 A 
BRANCH  79  82
ATOM     82  S   UNL     1      -1.636  -4.193  11.274  1.00  0.00     0.127 S 
ATOM     83  O   UNL     1      -2.136  -2.840  11.059  1.00  0.00    -0.237 OA
ATOM     84  O   UNL     1      -0.879  -4.386  12.511  1.00  0.00    -0.237 OA
ATOM     85  O   UNL     1      -1.055  -4.866  10.117  1.00  0.00    -0.744 OA
ENDBRANCH  79  82
ENDBRANCH  61  75
BRANCH  62  86
ATOM     86  C   UNL     1      -7.265  -0.260   5.698  1.00  0.00     0.023 A 
ATOM     87  C   UNL     1      -7.893   0.820   6.347  1.00  0.00     0.012 A 
ATOM     88  C   UNL     1      -6.140   0.014   4.886  1.00  0.00     0.148 A 
ATOM     89  C   UNL     1      -7.407   2.125   6.209  1.00  0.00     0.002 A 
ATOM     90  C   UNL     1      -5.675   1.317   4.732  1.00  0.00     0.091 A 
ATOM     91  F   UNL     1      -5.467  -1.007   4.339  1.00  0.00    -0.205 F 
ATOM     92  C   UNL     1      -6.300   2.374   5.402  1.00  0.00     0.022 A 
BRANCH  90  93
ATOM     93  S   UNL     1      -4.263   1.704   3.686  1.00  0.00     0.127 S 
ATOM     94  O   UNL     1      -4.689   2.944   3.035  1.00  0.00    -0.237 OA
ATOM     95  O   UNL     1      -3.192   1.867   4.664  1.00  0.00    -0.237 OA
ATOM     96  O   UNL     1      -4.132   0.575   2.774  1.00  0.00    -0.744 OA
ENDBRANCH  90  93
ENDBRANCH  62  86
BRANCH  74  97
ATOM     97  C   UNL     1     -10.948  -4.710   8.214  1.00  0.00     0.023 A 
ATOM     98  C   UNL     1     -11.005  -4.704   6.805  1.00  0.00     0.012 A 
ATOM     99  C   UNL     1     -12.114  -5.027   8.936  1.00  0.00     0.148 A 
ATOM    100  C   UNL     1     -12.199  -4.974   6.132  1.00  0.00     0.002 A 
ATOM    101  C   UNL     1     -13.289  -5.344   8.261  1.00  0.00     0.091 A 
ATOM    102  F   UNL     1     -12.050  -5.041  10.277  1.00  0.00    -0.205 F 
ATOM    103  C   UNL     1     -13.338  -5.308   6.859  1.00  0.00     0.022 A 
BRANCH 101 104
ATOM    104  S   UNL     1     -14.746  -5.921   9.140  1.00  0.00     0.127 S 
ATOM    105  O   UNL     1     -15.554  -4.707   9.228  1.00  0.00    -0.237 OA
ATOM    106  O   UNL     1     -15.280  -6.945   8.239  1.00  0.00    -0.237 OA
ATOM    107  O   UNL     1     -14.255  -6.450  10.407  1.00  0.00    -0.744 OA
ENDBRANCH 101 104
ENDBRANCH  74  97
ENDBRANCH  48  49
ENDBRANCH  41  43
ENDBRANCH  40  41
ENDBRANCH  39  40
ENDBRANCH  38  39
ENDBRANCH  37  38
ENDBRANCH  36  37
ENDBRANCH  35  36
ENDBRANCH  34  35
ENDBRANCH   1  34
TORSDOF 28
