REMARK SMILES O=C(CCC(=O)OCCOCCOCCOCCOC(=O)c1ccc(-c2c3nc(c(-c4cccc(S(=O)(=O)[O-])c4F)c4ccc([nH]4)c(-c4cccc(S(=O)(=O)[O-])c4F)c4nc(c(-c5cccc(S(=O)(=O)[O-])c5F)c5ccc2[nH]5)C=C4)C=C3)cc1)Nc1ccc2nc(-c3ccccc3)oc2c1
REMARK SMILES IDX 12 1 11 2 10 3 9 4 8 5 7 6 5 7 6 8 4 9 3 10 2 11 1 12 85 13
REMARK SMILES IDX 86 15 87 16 100 17 88 18 99 19 89 20 98 21 90 22 91 23 92 24
REMARK SMILES IDX 93 25 97 26 94 27 96 28 95 29 13 30 14 31 15 32 16 33 17 34
REMARK SMILES IDX 18 35 19 36 20 37 21 38 22 39 23 40 84 41 24 42 83 43 25 44
REMARK SMILES IDX 26 45 27 46 77 47 28 48 82 49 76 50 78 51 29 52 81 53 75 54
REMARK SMILES IDX 74 55 30 57 62 58 42 59 61 60 43 61 46 62 60 63 79 64 44 65
REMARK SMILES IDX 45 66 59 68 80 69 47 70 31 71 32 72 40 73 33 74 35 75 41 76
REMARK SMILES IDX 34 77 36 78 37 79 38 80 39 81 63 82 64 83 72 84 65 85 67 86
REMARK SMILES IDX 73 87 66 88 68 89 69 90 70 91 71 92 48 93 49 94 57 95 50 96
REMARK SMILES IDX 52 97 58 98 51 99 53 100 54 101 55 102 56 103
REMARK H PARENT 85 14 78 56 46 67
REMARK Flexibility Score: inf
ROOT
ATOM      1  C   UNL     1       5.387  -0.933  -0.160  1.00  0.00     0.188 C 
ENDROOT
BRANCH   1   2
ATOM      2  C   UNL     1       6.507   0.056  -0.495  1.00  0.00     0.188 C 
BRANCH   2   3
ATOM      3  O   UNL     1       7.311   0.554   0.553  1.00  0.00    -0.376 OA
BRANCH   3   4
ATOM      4  C   UNL     1       6.779   1.439   1.528  1.00  0.00     0.202 C 
BRANCH   4   5
ATOM      5  C   UNL     1       5.521   2.314   1.343  1.00  0.00     0.261 C 
BRANCH   5   6
ATOM      6  O   UNL     1       4.441   1.797   0.536  1.00  0.00    -0.463 OA
BRANCH   6   7
ATOM      7  C   UNL     1       4.180   2.478  -0.601  1.00  0.00     0.306 C 
ATOM      8  O   UNL     1       4.819   3.463  -0.964  1.00  0.00    -0.252 OA
BRANCH   7   9
ATOM      9  C   UNL     1       3.045   1.948  -1.459  1.00  0.00     0.132 C 
BRANCH   9  10
ATOM     10  C   UNL     1       2.287   0.632  -1.294  1.00  0.00     0.112 C 
BRANCH  10  11
ATOM     11  C   UNL     1       1.423   0.348  -0.077  1.00  0.00     0.224 C 
ATOM     12  O   UNL     1       0.282  -0.082  -0.227  1.00  0.00    -0.275 OA
ATOM     13  N   UNL     1       2.047   0.554   1.119  1.00  0.00    -0.326 N 
ATOM     14  H   UNL     1       2.999   0.802   1.075  1.00  0.00     0.169 HD
BRANCH  13  15
ATOM     15  C   UNL     1       1.490   0.454   2.406  1.00  0.00     0.045 A 
ATOM     16  C   UNL     1       2.172   1.208   3.374  1.00  0.00     0.028 A 
ATOM     17  C   UNL     1       0.338  -0.295   2.730  1.00  0.00     0.075 A 
ATOM     18  C   UNL     1       1.719   1.279   4.680  1.00  0.00     0.034 A 
ATOM     19  C   UNL     1      -0.073  -0.226   4.063  1.00  0.00     0.157 A 
ATOM     20  C   UNL     1       0.595   0.528   5.011  1.00  0.00     0.110 A 
ATOM     21  O   UNL     1      -1.162  -0.810   4.695  1.00  0.00    -0.436 OA
ATOM     22  N   UNL     1       0.002   0.398   6.208  1.00  0.00    -0.209 NA
ATOM     23  C   UNL     1      -1.062  -0.334   5.987  1.00  0.00     0.227 A 
BRANCH  23  24
ATOM     24  C   UNL     1      -2.119  -0.536   6.971  1.00  0.00     0.037 A 
ATOM     25  C   UNL     1      -2.098  -1.629   7.846  1.00  0.00     0.014 A 
ATOM     26  C   UNL     1      -2.914   0.574   7.306  1.00  0.00     0.014 A 
ATOM     27  C   UNL     1      -2.814  -1.583   9.051  1.00  0.00     0.001 A 
ATOM     28  C   UNL     1      -3.601   0.634   8.521  1.00  0.00     0.001 A 
ATOM     29  C   UNL     1      -3.543  -0.444   9.399  1.00  0.00     0.000 A 
ENDBRANCH  23  24
ENDBRANCH  13  15
ENDBRANCH  10  11
ENDBRANCH   9  10
ENDBRANCH   7   9
ENDBRANCH   6   7
ENDBRANCH   5   6
ENDBRANCH   4   5
ENDBRANCH   3   4
ENDBRANCH   2   3
ENDBRANCH   1   2
BRANCH   1  30
ATOM     30  O   UNL     1       4.729  -0.709   1.068  1.00  0.00    -0.377 OA
BRANCH  30  31
ATOM     31  C   UNL     1       5.215  -1.343   2.248  1.00  0.00     0.188 C 
BRANCH  31  32
ATOM     32  C   UNL     1       6.614  -1.997   2.298  1.00  0.00     0.188 C 
BRANCH  32  33
ATOM     33  O   UNL     1       7.031  -2.651   1.109  1.00  0.00    -0.376 OA
BRANCH  33  34
ATOM     34  C   UNL     1       6.841  -4.058   1.025  1.00  0.00     0.202 C 
BRANCH  34  35
ATOM     35  C   UNL     1       5.386  -4.556   0.994  1.00  0.00     0.261 C 
BRANCH  35  36
ATOM     36  O   UNL     1       4.615  -4.290   2.176  1.00  0.00    -0.460 OA
BRANCH  36  37
ATOM     37  C   UNL     1       5.070  -4.797   3.340  1.00  0.00     0.338 C 
ATOM     38  O   UNL     1       6.046  -5.518   3.492  1.00  0.00    -0.246 OA
BRANCH  37  39
ATOM     39  C   UNL     1       4.318  -4.175   4.448  1.00  0.00     0.060 A 
ATOM     40  C   UNL     1       5.025  -3.431   5.401  1.00  0.00     0.016 A 
ATOM     41  C   UNL     1       2.937  -4.341   4.564  1.00  0.00     0.016 A 
ATOM     42  C   UNL     1       4.361  -2.895   6.505  1.00  0.00     0.010 A 
ATOM     43  C   UNL     1       2.275  -3.809   5.677  1.00  0.00     0.010 A 
ATOM     44  C   UNL     1       2.990  -3.118   6.677  1.00  0.00    -0.014 A 
BRANCH  44  45
ATOM     45  C   UNL     1       2.351  -2.834   7.993  1.00  0.00     0.031 A 
ATOM     46  C   UNL     1       2.066  -4.006   8.896  1.00  0.00     0.074 A 
ATOM     47  C   UNL     1       2.092  -1.579   8.414  1.00  0.00     0.049 A 
ATOM     48  N   UNL     1       1.456  -4.037  10.050  1.00  0.00    -0.248 NA
ATOM     49  C   UNL     1       2.579  -5.319   8.458  1.00  0.00     0.031 C 
ATOM     50  C   UNL     1       2.487  -0.359   7.715  1.00  0.00     0.029 A 
ATOM     51  N   UNL     1       1.403  -1.113   9.511  1.00  0.00    -0.354 N 
ATOM     52  C   UNL     1       1.530  -5.356  10.483  1.00  0.00     0.074 A 
ATOM     53  C   UNL     1       2.192  -6.112   9.446  1.00  0.00     0.031 C 
ATOM     54  C   UNL     1       1.961   0.708   8.346  1.00  0.00     0.029 A 
ATOM     55  C   UNL     1       1.158   0.249   9.469  1.00  0.00     0.049 A 
ATOM     56  H   UNL     1       1.113  -1.692  10.252  1.00  0.00     0.167 HD
ATOM     57  C   UNL     1       1.121  -5.878  11.663  1.00  0.00     0.034 A 
ATOM     58  C   UNL     1       0.339   1.016  10.221  1.00  0.00     0.034 A 
ATOM     59  C   UNL     1       0.469  -5.102  12.682  1.00  0.00     0.049 A 
ATOM     60  C   UNL     1      -0.354   0.330  11.382  1.00  0.00     0.074 A 
ATOM     61  C   UNL     1       0.029  -5.509  13.927  1.00  0.00     0.029 A 
ATOM     62  N   UNL     1       0.145  -3.758  12.559  1.00  0.00    -0.354 N 
ATOM     63  N   UNL     1      -0.207  -0.898  11.829  1.00  0.00    -0.248 NA
ATOM     64  C   UNL     1      -1.280   1.142  12.186  1.00  0.00     0.031 C 
ATOM     65  C   UNL     1      -0.611  -4.423  14.534  1.00  0.00     0.029 A 
ATOM     66  C   UNL     1      -0.524  -3.327  13.689  1.00  0.00     0.049 A 
ATOM     67  H   UNL     1       0.361  -3.194  11.781  1.00  0.00     0.167 HD
ATOM     68  C   UNL     1      -0.920  -0.964  13.021  1.00  0.00     0.074 A 
ATOM     69  C   UNL     1      -1.530   0.336  13.209  1.00  0.00     0.031 C 
ATOM     70  C   UNL     1      -1.042  -1.996  13.893  1.00  0.00     0.034 A 
BRANCH  57  71
ATOM     71  C   UNL     1       1.378  -7.343  11.911  1.00  0.00     0.023 A 
ATOM     72  C   UNL     1       2.697  -7.802  12.113  1.00  0.00     0.012 A 
ATOM     73  C   UNL     1       0.314  -8.263  11.971  1.00  0.00     0.148 A 
ATOM     74  C   UNL     1       2.956  -9.157  12.327  1.00  0.00     0.002 A 
ATOM     75  C   UNL     1       0.575  -9.604  12.231  1.00  0.00     0.091 A 
ATOM     76  F   UNL     1      -0.931  -7.815  11.756  1.00  0.00    -0.205 F 
ATOM     77  C   UNL     1       1.895 -10.055  12.395  1.00  0.00     0.022 A 
BRANCH  75  78
ATOM     78  S   UNL     1      -0.729 -10.827  12.408  1.00  0.00     0.127 S 
ATOM     79  O   UNL     1      -0.549 -11.627  11.197  1.00  0.00    -0.237 OA
ATOM     80  O   UNL     1      -0.348 -11.505  13.647  1.00  0.00    -0.237 OA
ATOM     81  O   UNL     1      -1.975 -10.078  12.482  1.00  0.00    -0.744 OA
ENDBRANCH  75  78
ENDBRANCH  57  71
BRANCH  58  82
ATOM     82  C   UNL     1       0.110   2.487   9.961  1.00  0.00     0.023 A 
ATOM     83  C   UNL     1       0.412   3.437  10.954  1.00  0.00     0.012 A 
ATOM     84  C   UNL     1      -0.513   2.959   8.787  1.00  0.00     0.148 A 
ATOM     85  C   UNL     1       0.028   4.779  10.816  1.00  0.00     0.002 A 
ATOM     86  C   UNL     1      -0.887   4.292   8.640  1.00  0.00     0.091 A 
ATOM     87  F   UNL     1      -0.749   2.093   7.811  1.00  0.00    -0.205 F 
ATOM     88  C   UNL     1      -0.632   5.204   9.666  1.00  0.00     0.022 A 
BRANCH  86  89
ATOM     89  S   UNL     1      -1.738   4.917   7.180  1.00  0.00     0.127 S 
ATOM     90  O   UNL     1      -3.021   5.339   7.742  1.00  0.00    -0.237 OA
ATOM     91  O   UNL     1      -0.859   6.009   6.763  1.00  0.00    -0.237 OA
ATOM     92  O   UNL     1      -1.817   3.809   6.238  1.00  0.00    -0.744 OA
ENDBRANCH  86  89
ENDBRANCH  58  82
BRANCH  70  93
ATOM     93  C   UNL     1      -1.751  -1.731  15.198  1.00  0.00     0.023 A 
ATOM     94  C   UNL     1      -3.147  -1.560  15.234  1.00  0.00     0.012 A 
ATOM     95  C   UNL     1      -1.021  -1.734  16.406  1.00  0.00     0.148 A 
ATOM     96  C   UNL     1      -3.802  -1.360  16.449  1.00  0.00     0.002 A 
ATOM     97  C   UNL     1      -1.688  -1.593  17.616  1.00  0.00     0.091 A 
ATOM     98  F   UNL     1       0.310  -1.884  16.349  1.00  0.00    -0.205 F 
ATOM     99  C   UNL     1      -3.076  -1.390  17.638  1.00  0.00     0.022 A 
BRANCH  97 100
ATOM    100  S   UNL     1      -0.850  -1.731  19.199  1.00  0.00     0.127 S 
ATOM    101  O   UNL     1      -0.882  -0.348  19.674  1.00  0.00    -0.237 OA
ATOM    102  O   UNL     1      -1.723  -2.648  19.931  1.00  0.00    -0.237 OA
ATOM    103  O   UNL     1       0.476  -2.260  18.909  1.00  0.00    -0.744 OA
ENDBRANCH  97 100
ENDBRANCH  70  93
ENDBRANCH  44  45
ENDBRANCH  37  39
ENDBRANCH  36  37
ENDBRANCH  35  36
ENDBRANCH  34  35
ENDBRANCH  33  34
ENDBRANCH  32  33
ENDBRANCH  31  32
ENDBRANCH  30  31
ENDBRANCH   1  30
TORSDOF 27
