REMARK SMILES CS(=O)(=O)c1ccc(C2=NN(c3ccc(C(=O)OCCOCCOCCOCCOC(=O)c4ccc(-c5c6nc(c(-c7cccc(S(=O)(=O)[O-])c7F)c7ccc([nH]7)c(-c7cccc(S(=O)(=O)[O-])c7F)c7nc(c(-c8cccc(S(=O)(=O)[O-])c8F)c8ccc5[nH]8)C=C7)C=C6)cc4)cc3)[C@H](c3ccc(F)cc3)C2)cc1
REMARK SMILES IDX 24 1 23 2 22 3 21 4 20 5 19 6 18 7 16 8 17 9 15 10 12 11
REMARK SMILES IDX 13 12 97 13 14 14 96 15 11 16 9 17 10 18 106 19 98 20 8 21
REMARK SMILES IDX 5 22 6 23 108 24 7 25 107 26 2 27 1 28 3 29 4 30 99 31
REMARK SMILES IDX 100 32 105 33 101 34 104 35 102 36 103 37 25 38 26 39 27 40
REMARK SMILES IDX 28 41 29 42 30 43 31 44 32 45 33 46 34 47 95 48 35 49 94 50
REMARK SMILES IDX 36 51 37 52 38 53 88 54 39 55 93 56 87 57 89 58 40 59 92 60
REMARK SMILES IDX 86 61 85 62 41 64 73 65 53 66 72 67 54 68 57 69 71 70 90 71
REMARK SMILES IDX 55 72 56 73 70 75 91 76 58 77 42 78 43 79 51 80 44 81 46 82
REMARK SMILES IDX 52 83 45 84 47 85 48 86 49 87 50 88 74 89 75 90 83 91 76 92
REMARK SMILES IDX 78 93 84 94 77 95 79 96 80 97 81 98 82 99 59 100 60 101
REMARK SMILES IDX 68 102 61 103 63 104 69 105 62 106 64 107 65 108 66 109
REMARK SMILES IDX 67 110
REMARK H PARENT 89 63 57 74
REMARK Flexibility Score: inf
ROOT
ATOM      1  O   UNL     1      -2.214 -12.983  -6.716  1.00  0.00    -0.377 OA
ENDROOT
BRANCH   1   2
ATOM      2  C   UNL     1      -2.453 -11.634  -7.068  1.00  0.00     0.188 C 
BRANCH   2   3
ATOM      3  C   UNL     1      -2.478 -11.362  -8.584  1.00  0.00     0.188 C 
BRANCH   3   4
ATOM      4  O   UNL     1      -2.724 -12.498  -9.389  1.00  0.00    -0.376 OA
BRANCH   4   5
ATOM      5  C   UNL     1      -1.687 -13.353  -9.840  1.00  0.00     0.202 C 
BRANCH   5   6
ATOM      6  C   UNL     1      -0.322 -13.565  -9.160  1.00  0.00     0.261 C 
BRANCH   6   7
ATOM      7  O   UNL     1       0.100 -12.596  -8.209  1.00  0.00    -0.460 OA
BRANCH   7   8
ATOM      8  C   UNL     1       0.689 -11.479  -8.673  1.00  0.00     0.338 C 
ATOM      9  O   UNL     1       0.923 -11.198  -9.835  1.00  0.00    -0.246 OA
BRANCH   8  10
ATOM     10  C   UNL     1       0.849 -10.543  -7.531  1.00  0.00     0.060 A 
ATOM     11  C   UNL     1       1.320  -8.721  -5.461  1.00  0.00     0.060 A 
ATOM     12  C   UNL     1       1.000  -8.261  -6.743  1.00  0.00     0.029 A 
ATOM     13  C   UNL     1       1.238 -10.094  -5.193  1.00  0.00     0.029 A 
ATOM     14  C   UNL     1       0.770  -9.168  -7.779  1.00  0.00     0.018 A 
ATOM     15  C   UNL     1       1.031 -11.007  -6.223  1.00  0.00     0.018 A 
BRANCH  11  16
ATOM     16  N   UNL     1       1.925  -7.886  -4.521  1.00  0.00    -0.257 N 
ATOM     17  C   UNL     1       2.077  -6.039  -3.488  1.00  0.00     0.071 C 
ATOM     18  N   UNL     1       1.216  -6.922  -3.887  1.00  0.00    -0.176 NA
ATOM     19  C   UNL     1       3.485  -6.227  -3.985  1.00  0.00     0.091 C 
ATOM     20  C   UNL     1       3.367  -7.612  -4.636  1.00  0.00     0.144 C 
BRANCH  17  21
ATOM     21  C   UNL     1       1.716  -4.926  -2.590  1.00  0.00    -0.002 A 
ATOM     22  C   UNL     1       1.022  -2.913  -0.787  1.00  0.00     0.067 A 
ATOM     23  C   UNL     1       0.420  -4.172  -0.691  1.00  0.00     0.021 A 
ATOM     24  C   UNL     1       1.965  -2.651  -1.786  1.00  0.00     0.021 A 
ATOM     25  C   UNL     1       0.762  -5.174  -1.597  1.00  0.00     0.011 A 
ATOM     26  C   UNL     1       2.319  -3.667  -2.686  1.00  0.00     0.011 A 
BRANCH  22  27
ATOM     27  S   UNL     1       0.519  -1.689   0.402  1.00  0.00     0.175 S 
ATOM     28  C   UNL     1       1.123  -0.123  -0.152  1.00  0.00     0.163 C 
ATOM     29  O   UNL     1       1.208  -2.010   1.636  1.00  0.00    -0.224 OA
ATOM     30  O   UNL     1      -0.929  -1.626   0.342  1.00  0.00    -0.224 OA
ENDBRANCH  22  27
ENDBRANCH  17  21
BRANCH  20  31
ATOM     31  C   UNL     1       4.192  -8.761  -4.057  1.00  0.00    -0.023 A 
ATOM     32  C   UNL     1       4.750  -8.755  -2.770  1.00  0.00     0.009 A 
ATOM     33  C   UNL     1       4.353  -9.931  -4.835  1.00  0.00     0.009 A 
ATOM     34  C   UNL     1       5.424  -9.880  -2.279  1.00  0.00     0.039 A 
ATOM     35  C   UNL     1       4.973 -11.072  -4.323  1.00  0.00     0.039 A 
ATOM     36  C   UNL     1       5.510 -11.033  -3.049  1.00  0.00     0.123 A 
ATOM     37  F   UNL     1       6.119 -12.116  -2.551  1.00  0.00    -0.207 F 
ENDBRANCH  20  31
ENDBRANCH  11  16
ENDBRANCH   8  10
ENDBRANCH   7   8
ENDBRANCH   6   7
ENDBRANCH   5   6
ENDBRANCH   4   5
ENDBRANCH   3   4
ENDBRANCH   2   3
ENDBRANCH   1   2
BRANCH   1  38
ATOM     38  C   UNL     1      -3.276 -13.928  -6.833  1.00  0.00     0.188 C 
BRANCH  38  39
ATOM     39  C   UNL     1      -4.592 -13.613  -7.586  1.00  0.00     0.188 C 
BRANCH  39  40
ATOM     40  O   UNL     1      -5.006 -12.255  -7.548  1.00  0.00    -0.376 OA
BRANCH  40  41
ATOM     41  C   UNL     1      -6.072 -11.895  -6.687  1.00  0.00     0.202 C 
BRANCH  41  42
ATOM     42  C   UNL     1      -5.811 -12.018  -5.179  1.00  0.00     0.261 C 
BRANCH  42  43
ATOM     43  O   UNL     1      -5.429 -13.322  -4.721  1.00  0.00    -0.460 OA
BRANCH  43  44
ATOM     44  C   UNL     1      -6.339 -14.310  -4.876  1.00  0.00     0.338 C 
ATOM     45  O   UNL     1      -7.458 -14.209  -5.333  1.00  0.00    -0.246 OA
BRANCH  44  46
ATOM     46  C   UNL     1      -5.670 -15.592  -4.569  1.00  0.00     0.060 A 
ATOM     47  C   UNL     1      -5.630 -16.579  -5.561  1.00  0.00     0.016 A 
ATOM     48  C   UNL     1      -5.096 -15.819  -3.316  1.00  0.00     0.016 A 
ATOM     49  C   UNL     1      -5.061 -17.820  -5.283  1.00  0.00     0.010 A 
ATOM     50  C   UNL     1      -4.538 -17.070  -3.035  1.00  0.00     0.010 A 
ATOM     51  C   UNL     1      -4.558 -18.089  -4.003  1.00  0.00    -0.014 A 
BRANCH  51  52
ATOM     52  C   UNL     1      -4.226 -19.488  -3.638  1.00  0.00     0.031 A 
ATOM     53  C   UNL     1      -5.230 -20.284  -2.847  1.00  0.00     0.074 A 
ATOM     54  C   UNL     1      -3.075 -20.057  -4.037  1.00  0.00     0.049 A 
ATOM     55  N   UNL     1      -5.176 -21.530  -2.456  1.00  0.00    -0.248 NA
ATOM     56  C   UNL     1      -6.459 -19.580  -2.444  1.00  0.00     0.031 C 
ATOM     57  C   UNL     1      -2.026 -19.392  -4.808  1.00  0.00     0.029 A 
ATOM     58  N   UNL     1      -2.593 -21.326  -3.834  1.00  0.00    -0.354 N 
ATOM     59  C   UNL     1      -6.348 -21.754  -1.743  1.00  0.00     0.074 A 
ATOM     60  C   UNL     1      -7.086 -20.510  -1.739  1.00  0.00     0.031 C 
ATOM     61  C   UNL     1      -1.013 -20.255  -4.999  1.00  0.00     0.029 A 
ATOM     62  C   UNL     1      -1.333 -21.524  -4.346  1.00  0.00     0.049 A 
ATOM     63  H   UNL     1      -3.101 -22.027  -3.367  1.00  0.00     0.167 HD
ATOM     64  C   UNL     1      -6.780 -22.895  -1.157  1.00  0.00     0.034 A 
ATOM     65  C   UNL     1      -0.525 -22.601  -4.281  1.00  0.00     0.034 A 
ATOM     66  C   UNL     1      -6.049 -24.134  -1.169  1.00  0.00     0.049 A 
ATOM     67  C   UNL     1      -1.019 -23.852  -3.601  1.00  0.00     0.074 A 
ATOM     68  C   UNL     1      -6.422 -25.357  -0.642  1.00  0.00     0.029 A 
ATOM     69  N   UNL     1      -4.788 -24.303  -1.718  1.00  0.00    -0.354 N 
ATOM     70  N   UNL     1      -2.179 -24.084  -3.034  1.00  0.00    -0.248 NA
ATOM     71  C   UNL     1      -0.106 -25.005  -3.586  1.00  0.00     0.031 C 
ATOM     72  C   UNL     1      -5.369 -26.256  -0.836  1.00  0.00     0.029 A 
ATOM     73  C   UNL     1      -4.361 -25.606  -1.530  1.00  0.00     0.049 A 
ATOM     74  H   UNL     1      -4.272 -23.600  -2.176  1.00  0.00     0.167 HD
ATOM     75  C   UNL     1      -2.151 -25.416  -2.634  1.00  0.00     0.074 A 
ATOM     76  C   UNL     1      -0.866 -25.945  -3.042  1.00  0.00     0.031 C 
ATOM     77  C   UNL     1      -3.098 -26.135  -1.980  1.00  0.00     0.034 A 
BRANCH  64  78
ATOM     78  C   UNL     1      -8.115 -22.860  -0.458  1.00  0.00     0.023 A 
ATOM     79  C   UNL     1      -9.302 -22.762  -1.212  1.00  0.00     0.012 A 
ATOM     80  C   UNL     1      -8.195 -22.976   0.944  1.00  0.00     0.148 A 
ATOM     81  C   UNL     1     -10.545 -22.744  -0.581  1.00  0.00     0.002 A 
ATOM     82  C   UNL     1      -9.439 -23.008   1.562  1.00  0.00     0.091 A 
ATOM     83  F   UNL     1      -7.054 -23.046   1.645  1.00  0.00    -0.205 F 
ATOM     84  C   UNL     1     -10.614 -22.878   0.804  1.00  0.00     0.022 A 
BRANCH  82  85
ATOM     85  S   UNL     1      -9.636 -23.260   3.329  1.00  0.00     0.127 S 
ATOM     86  O   UNL     1     -10.138 -21.956   3.759  1.00  0.00    -0.237 OA
ATOM     87  O   UNL     1     -10.624 -24.338   3.375  1.00  0.00    -0.237 OA
ATOM     88  O   UNL     1      -8.319 -23.619   3.835  1.00  0.00    -0.744 OA
ENDBRANCH  82  85
ENDBRANCH  64  78
BRANCH  65  89
ATOM     89  C   UNL     1       0.830 -22.558  -4.902  1.00  0.00     0.023 A 
ATOM     90  C   UNL     1       1.111 -23.356  -6.028  1.00  0.00     0.012 A 
ATOM     91  C   UNL     1       1.840 -21.727  -4.381  1.00  0.00     0.148 A 
ATOM     92  C   UNL     1       2.383 -23.354  -6.602  1.00  0.00     0.002 A 
ATOM     93  C   UNL     1       3.087 -21.685  -4.992  1.00  0.00     0.091 A 
ATOM     94  F   UNL     1       1.558 -20.988  -3.299  1.00  0.00    -0.205 F 
ATOM     95  C   UNL     1       3.367 -22.512  -6.091  1.00  0.00     0.022 A 
BRANCH  93  96
ATOM     96  S   UNL     1       4.373 -20.541  -4.483  1.00  0.00     0.127 S 
ATOM     97  O   UNL     1       5.382 -21.447  -3.941  1.00  0.00    -0.237 OA
ATOM     98  O   UNL     1       4.730 -19.909  -5.754  1.00  0.00    -0.237 OA
ATOM     99  O   UNL     1       3.746 -19.645  -3.520  1.00  0.00    -0.744 OA
ENDBRANCH  93  96
ENDBRANCH  65  89
BRANCH  77 100
ATOM    100  C   UNL     1      -2.810 -27.590  -1.708  1.00  0.00     0.023 A 
ATOM    101  C   UNL     1      -1.833 -27.956  -0.761  1.00  0.00     0.012 A 
ATOM    102  C   UNL     1      -3.554 -28.598  -2.355  1.00  0.00     0.148 A 
ATOM    103  C   UNL     1      -1.569 -29.301  -0.497  1.00  0.00     0.002 A 
ATOM    104  C   UNL     1      -3.324 -29.933  -2.046  1.00  0.00     0.091 A 
ATOM    105  F   UNL     1      -4.470 -28.233  -3.264  1.00  0.00    -0.205 F 
ATOM    106  C   UNL     1      -2.321 -30.287  -1.131  1.00  0.00     0.022 A 
BRANCH 104 107
ATOM    107  S   UNL     1      -4.312 -31.265  -2.737  1.00  0.00     0.127 S 
ATOM    108  O   UNL     1      -3.368 -31.886  -3.665  1.00  0.00    -0.237 OA
ATOM    109  O   UNL     1      -4.621 -32.068  -1.554  1.00  0.00    -0.237 OA
ATOM    110  O   UNL     1      -5.468 -30.630  -3.355  1.00  0.00    -0.744 OA
ENDBRANCH 104 107
ENDBRANCH  77 100
ENDBRANCH  51  52
ENDBRANCH  44  46
ENDBRANCH  43  44
ENDBRANCH  42  43
ENDBRANCH  41  42
ENDBRANCH  40  41
ENDBRANCH  39  40
ENDBRANCH  38  39
ENDBRANCH   1  38
TORSDOF 27
