REMARK SMILES CC(C)Cc1cc2c(cc1Cl)C=C(C(=O)OCCOCCOCCOCCOC(=O)c1ccc(-c3c4nc(c(-c5cccc(S(=O)(=O)[O-])c5F)c5ccc([nH]5)c(-c5cccc(S(=O)(=O)[O-])c5F)c5nc(c(-c6cccc(S(=O)(=O)[O-])c6F)c6ccc3[nH]6)C=C5)C=C4)cc1)[C@@H](C(F)(F)F)O2
REMARK SMILES IDX 23 1 22 2 21 3 20 4 19 5 18 6 17 7 16 8 14 9 15 10 13 11
REMARK SMILES IDX 5 12 6 13 10 14 7 15 9 16 11 17 8 18 99 19 12 20 94 21 4 22
REMARK SMILES IDX 2 23 1 24 3 25 95 26 96 27 97 28 98 29 24 30 25 31 26 32
REMARK SMILES IDX 27 33 28 34 29 35 30 36 31 37 32 38 93 39 33 40 92 41 34 42
REMARK SMILES IDX 35 43 36 44 86 45 37 46 91 47 85 48 87 49 38 50 90 51 84 52
REMARK SMILES IDX 83 53 39 55 71 56 51 57 70 58 52 59 55 60 69 61 88 62 53 63
REMARK SMILES IDX 54 64 68 66 89 67 56 68 40 69 41 70 49 71 42 72 44 73 50 74
REMARK SMILES IDX 43 75 45 76 46 77 47 78 48 79 72 80 73 81 81 82 74 83 76 84
REMARK SMILES IDX 82 85 75 86 77 87 78 88 79 89 80 90 57 91 58 92 66 93 59 94
REMARK SMILES IDX 61 95 67 96 60 97 62 98 63 99 64 100 65 101
REMARK H PARENT 87 54 55 65
REMARK Flexibility Score: inf
ROOT
ATOM      1  C   UNL     1      -1.868  -9.377   4.243  1.00  0.00     0.188 C 
ENDROOT
BRANCH   1   2
ATOM      2  O   UNL     1      -1.827  -8.391   3.211  1.00  0.00    -0.377 OA
BRANCH   2   3
ATOM      3  C   UNL     1      -2.763  -7.329   3.303  1.00  0.00     0.188 C 
BRANCH   3   4
ATOM      4  C   UNL     1      -4.104  -7.674   2.629  1.00  0.00     0.188 C 
BRANCH   4   5
ATOM      5  O   UNL     1      -4.242  -9.063   2.350  1.00  0.00    -0.376 OA
BRANCH   5   6
ATOM      6  C   UNL     1      -3.980  -9.517   1.027  1.00  0.00     0.202 C 
BRANCH   6   7
ATOM      7  C   UNL     1      -2.581  -9.310   0.419  1.00  0.00     0.261 C 
BRANCH   7   8
ATOM      8  O   UNL     1      -2.071  -7.971   0.466  1.00  0.00    -0.460 OA
BRANCH   8   9
ATOM      9  C   UNL     1      -2.700  -7.020  -0.246  1.00  0.00     0.338 C 
ATOM     10  O   UNL     1      -3.639  -7.171  -1.008  1.00  0.00    -0.246 OA
BRANCH   9  11
ATOM     11  C   UNL     1      -2.177  -5.709   0.205  1.00  0.00     0.087 C 
ATOM     12  C   UNL     1      -1.496  -0.867   1.314  1.00  0.00    -0.025 A 
ATOM     13  C   UNL     1      -0.687  -2.012   1.373  1.00  0.00     0.052 A 
ATOM     14  C   UNL     1      -2.883  -1.060   1.167  1.00  0.00     0.045 A 
ATOM     15  C   UNL     1      -1.208  -3.278   1.096  1.00  0.00     0.128 A 
ATOM     16  C   UNL     1      -3.413  -2.333   0.929  1.00  0.00     0.032 A 
ATOM     17  Cl  UNL     1      -4.001   0.259   1.241  1.00  0.00    -0.084 Cl
ATOM     18  C   UNL     1      -2.564  -3.436   0.826  1.00  0.00     0.019 A 
ATOM     19  O   UNL     1      -0.309  -4.303   1.092  1.00  0.00    -0.475 OA
ATOM     20  C   UNL     1      -3.068  -4.726   0.391  1.00  0.00     0.027 C 
ATOM     21  C   UNL     1      -0.703  -5.576   0.509  1.00  0.00     0.316 C 
BRANCH  12  22
ATOM     22  C   UNL     1      -0.913   0.533   1.373  1.00  0.00     0.040 C 
BRANCH  22  23
ATOM     23  C   UNL     1       0.609   0.715   1.161  1.00  0.00    -0.013 C 
ATOM     24  C   UNL     1       1.085   0.261  -0.225  1.00  0.00     0.008 C 
ATOM     25  C   UNL     1       0.973   2.194   1.338  1.00  0.00     0.008 C 
ENDBRANCH  22  23
ENDBRANCH  12  22
BRANCH  21  26
ATOM     26  C   UNL     1       0.164  -5.844  -0.727  1.00  0.00     0.430 C 
ATOM     27  F   UNL     1       1.478  -5.659  -0.457  1.00  0.00    -0.167 F 
ATOM     28  F   UNL     1       0.026  -7.111  -1.176  1.00  0.00    -0.167 F 
ATOM     29  F   UNL     1      -0.157  -5.016  -1.750  1.00  0.00    -0.167 F 
ENDBRANCH  21  26
ENDBRANCH   9  11
ENDBRANCH   8   9
ENDBRANCH   7   8
ENDBRANCH   6   7
ENDBRANCH   5   6
ENDBRANCH   4   5
ENDBRANCH   3   4
ENDBRANCH   2   3
ENDBRANCH   1   2
BRANCH   1  30
ATOM     30  C   UNL     1      -3.198  -9.733   4.947  1.00  0.00     0.188 C 
BRANCH  30  31
ATOM     31  O   UNL     1      -3.904  -8.596   5.449  1.00  0.00    -0.376 OA
BRANCH  31  32
ATOM     32  C   UNL     1      -3.914  -8.423   6.860  1.00  0.00     0.202 C 
BRANCH  32  33
ATOM     33  C   UNL     1      -2.615  -7.837   7.426  1.00  0.00     0.261 C 
BRANCH  33  34
ATOM     34  O   UNL     1      -1.448  -8.654   7.253  1.00  0.00    -0.460 OA
BRANCH  34  35
ATOM     35  C   UNL     1      -1.469  -9.902   7.774  1.00  0.00     0.338 C 
ATOM     36  O   UNL     1      -2.354 -10.399   8.448  1.00  0.00    -0.246 OA
BRANCH  35  37
ATOM     37  C   UNL     1      -0.317 -10.631   7.205  1.00  0.00     0.060 A 
ATOM     38  C   UNL     1       0.960 -10.065   7.239  1.00  0.00     0.016 A 
ATOM     39  C   UNL     1      -0.527 -11.874   6.594  1.00  0.00     0.016 A 
ATOM     40  C   UNL     1       2.037 -10.760   6.690  1.00  0.00     0.010 A 
ATOM     41  C   UNL     1       0.552 -12.566   6.037  1.00  0.00     0.010 A 
ATOM     42  C   UNL     1       1.844 -12.024   6.105  1.00  0.00    -0.014 A 
BRANCH  42  43
ATOM     43  C   UNL     1       3.025 -12.856   5.774  1.00  0.00     0.031 A 
ATOM     44  C   UNL     1       3.535 -13.014   4.376  1.00  0.00     0.074 A 
ATOM     45  C   UNL     1       3.636 -13.489   6.794  1.00  0.00     0.049 A 
ATOM     46  N   UNL     1       4.622 -13.619   3.973  1.00  0.00    -0.248 NA
ATOM     47  C   UNL     1       2.731 -12.430   3.293  1.00  0.00     0.031 C 
ATOM     48  C   UNL     1       3.188 -13.453   8.188  1.00  0.00     0.029 A 
ATOM     49  N   UNL     1       4.754 -14.281   6.821  1.00  0.00    -0.354 N 
ATOM     50  C   UNL     1       4.638 -13.499   2.591  1.00  0.00     0.074 A 
ATOM     51  C   UNL     1       3.439 -12.772   2.221  1.00  0.00     0.031 C 
ATOM     52  C   UNL     1       4.032 -14.176   8.938  1.00  0.00     0.029 A 
ATOM     53  C   UNL     1       5.073 -14.732   8.078  1.00  0.00     0.049 A 
ATOM     54  H   UNL     1       5.277 -14.505   6.018  1.00  0.00     0.167 HD
ATOM     55  C   UNL     1       5.577 -13.938   1.720  1.00  0.00     0.034 A 
ATOM     56  C   UNL     1       6.097 -15.495   8.503  1.00  0.00     0.034 A 
ATOM     57  C   UNL     1       6.773 -14.646   2.099  1.00  0.00     0.049 A 
ATOM     58  C   UNL     1       7.133 -15.950   7.520  1.00  0.00     0.074 A 
ATOM     59  C   UNL     1       7.819 -15.056   1.289  1.00  0.00     0.029 A 
ATOM     60  N   UNL     1       7.076 -15.066   3.384  1.00  0.00    -0.354 N 
ATOM     61  N   UNL     1       7.214 -15.690   6.238  1.00  0.00    -0.248 NA
ATOM     62  C   UNL     1       8.234 -16.772   8.040  1.00  0.00     0.031 C 
ATOM     63  C   UNL     1       8.746 -15.739   2.082  1.00  0.00     0.029 A 
ATOM     64  C   UNL     1       8.284 -15.743   3.388  1.00  0.00     0.049 A 
ATOM     65  H   UNL     1       6.515 -14.907   4.178  1.00  0.00     0.167 HD
ATOM     66  C   UNL     1       8.381 -16.301   5.800  1.00  0.00     0.074 A 
ATOM     67  C   UNL     1       8.984 -16.932   6.957  1.00  0.00     0.031 C 
ATOM     68  C   UNL     1       8.896 -16.340   4.548  1.00  0.00     0.034 A 
BRANCH  55  69
ATOM     69  C   UNL     1       5.402 -13.615   0.261  1.00  0.00     0.023 A 
ATOM     70  C   UNL     1       5.732 -12.325  -0.197  1.00  0.00     0.012 A 
ATOM     71  C   UNL     1       5.043 -14.612  -0.668  1.00  0.00     0.148 A 
ATOM     72  C   UNL     1       5.703 -12.026  -1.558  1.00  0.00     0.002 A 
ATOM     73  C   UNL     1       5.042 -14.314  -2.027  1.00  0.00     0.091 A 
ATOM     74  F   UNL     1       4.726 -15.829  -0.207  1.00  0.00    -0.205 F 
ATOM     75  C   UNL     1       5.368 -13.022  -2.472  1.00  0.00     0.022 A 
BRANCH  73  76
ATOM     76  S   UNL     1       4.680 -15.537  -3.292  1.00  0.00     0.127 S 
ATOM     77  O   UNL     1       3.417 -15.036  -3.833  1.00  0.00    -0.237 OA
ATOM     78  O   UNL     1       5.826 -15.399  -4.191  1.00  0.00    -0.237 OA
ATOM     79  O   UNL     1       4.594 -16.817  -2.604  1.00  0.00    -0.744 OA
ENDBRANCH  73  76
ENDBRANCH  55  69
BRANCH  56  80
ATOM     80  C   UNL     1       6.219 -15.784   9.955  1.00  0.00     0.023 A 
ATOM     81  C   UNL     1       7.149 -15.057  10.720  1.00  0.00     0.012 A 
ATOM     82  C   UNL     1       5.346 -16.686  10.593  1.00  0.00     0.148 A 
ATOM     83  C   UNL     1       7.210 -15.225  12.103  1.00  0.00     0.002 A 
ATOM     84  C   UNL     1       5.387 -16.820  11.974  1.00  0.00     0.091 A 
ATOM     85  F   UNL     1       4.467 -17.357   9.836  1.00  0.00    -0.205 F 
ATOM     86  C   UNL     1       6.324 -16.096  12.730  1.00  0.00     0.022 A 
BRANCH  84  87
ATOM     87  S   UNL     1       4.217 -17.833  12.886  1.00  0.00     0.127 S 
ATOM     88  O   UNL     1       5.099 -18.817  13.510  1.00  0.00    -0.237 OA
ATOM     89  O   UNL     1       3.633 -16.857  13.805  1.00  0.00    -0.237 OA
ATOM     90  O   UNL     1       3.293 -18.364  11.894  1.00  0.00    -0.744 OA
ENDBRANCH  84  87
ENDBRANCH  56  80
BRANCH  68  91
ATOM     91  C   UNL     1      10.182 -17.092   4.337  1.00  0.00     0.023 A 
ATOM     92  C   UNL     1      10.152 -18.497   4.253  1.00  0.00     0.012 A 
ATOM     93  C   UNL     1      11.390 -16.405   4.105  1.00  0.00     0.148 A 
ATOM     94  C   UNL     1      11.309 -19.211   3.945  1.00  0.00     0.002 A 
ATOM     95  C   UNL     1      12.531 -17.121   3.765  1.00  0.00     0.091 A 
ATOM     96  F   UNL     1      11.392 -15.068   4.201  1.00  0.00    -0.205 F 
ATOM     97  C   UNL     1      12.494 -18.524   3.689  1.00  0.00     0.022 A 
BRANCH  95  98
ATOM     98  S   UNL     1      14.088 -16.326   3.348  1.00  0.00     0.127 S 
ATOM     99  O   UNL     1      14.949 -16.765   4.446  1.00  0.00    -0.237 OA
ATOM    100  O   UNL     1      14.401 -16.924   2.050  1.00  0.00    -0.237 OA
ATOM    101  O   UNL     1      13.815 -14.896   3.311  1.00  0.00    -0.744 OA
ENDBRANCH  95  98
ENDBRANCH  68  91
ENDBRANCH  42  43
ENDBRANCH  35  37
ENDBRANCH  34  35
ENDBRANCH  33  34
ENDBRANCH  32  33
ENDBRANCH  31  32
ENDBRANCH  30  31
ENDBRANCH   1  30
TORSDOF 26
