REMARK SMILES CC(C)(C)c1cc2c(cc1Cl)C=C(C(=O)OCCOCCOCCOCCOC(=O)c1ccc(-c3c4nc(c(-c5cccc(S(=O)(=O)[O-])c5F)c5ccc([nH]5)c(-c5cccc(S(=O)(=O)[O-])c5F)c5nc(c(-c6cccc(S(=O)(=O)[O-])c6F)c6ccc3[nH]6)C=C5)C=C4)cc1)[C@H](C(F)(F)F)O2
REMARK SMILES IDX 23 1 22 2 21 3 20 4 19 5 18 6 17 7 16 8 14 9 15 10 13 11
REMARK SMILES IDX 5 12 6 13 10 14 7 15 9 16 11 17 8 18 99 19 12 20 94 21 2 22
REMARK SMILES IDX 1 23 3 24 4 25 95 26 96 27 97 28 98 29 24 30 25 31 26 32
REMARK SMILES IDX 27 33 28 34 29 35 30 36 31 37 32 38 93 39 33 40 92 41 34 42
REMARK SMILES IDX 35 43 36 44 86 45 37 46 91 47 85 48 87 49 38 50 90 51 84 52
REMARK SMILES IDX 83 53 39 55 71 56 51 57 70 58 52 59 55 60 69 61 88 62 53 63
REMARK SMILES IDX 54 64 68 66 89 67 56 68 40 69 41 70 49 71 42 72 44 73 50 74
REMARK SMILES IDX 43 75 45 76 46 77 47 78 48 79 72 80 73 81 81 82 74 83 76 84
REMARK SMILES IDX 82 85 75 86 77 87 78 88 79 89 80 90 57 91 58 92 66 93 59 94
REMARK SMILES IDX 61 95 67 96 60 97 62 98 63 99 64 100 65 101
REMARK H PARENT 87 54 55 65
REMARK Flexibility Score: inf
ROOT
ATOM      1  C   UNL     1       3.520  10.460  -0.416  1.00  0.00     0.188 C 
ENDROOT
BRANCH   1   2
ATOM      2  O   UNL     1       2.749   9.644  -1.288  1.00  0.00    -0.377 OA
BRANCH   2   3
ATOM      3  C   UNL     1       3.390   8.489  -1.780  1.00  0.00     0.188 C 
BRANCH   3   4
ATOM      4  C   UNL     1       3.894   8.597  -3.230  1.00  0.00     0.188 C 
BRANCH   4   5
ATOM      5  O   UNL     1       3.682   9.747  -4.042  1.00  0.00    -0.376 OA
BRANCH   5   6
ATOM      6  C   UNL     1       2.584  10.625  -3.828  1.00  0.00     0.202 C 
BRANCH   6   7
ATOM      7  C   UNL     1       1.161  10.084  -4.017  1.00  0.00     0.261 C 
BRANCH   7   8
ATOM      8  O   UNL     1       0.874   8.900  -3.255  1.00  0.00    -0.460 OA
BRANCH   8   9
ATOM      9  C   UNL     1       0.681   7.779  -3.975  1.00  0.00     0.338 C 
ATOM     10  O   UNL     1       0.625   7.691  -5.192  1.00  0.00    -0.246 OA
BRANCH   9  11
ATOM     11  C   UNL     1       0.696   6.594  -3.102  1.00  0.00     0.087 C 
ATOM     12  C   UNL     1       0.975   1.700  -1.883  1.00  0.00    -0.020 A 
ATOM     13  C   UNL     1       0.150   2.797  -1.521  1.00  0.00     0.053 A 
ATOM     14  C   UNL     1       2.125   2.016  -2.639  1.00  0.00     0.045 A 
ATOM     15  C   UNL     1       0.360   4.089  -2.003  1.00  0.00     0.128 A 
ATOM     16  C   UNL     1       2.335   3.317  -3.126  1.00  0.00     0.032 A 
ATOM     17  Cl  UNL     1       3.388   0.903  -3.031  1.00  0.00    -0.084 Cl
ATOM     18  C   UNL     1       1.434   4.340  -2.842  1.00  0.00     0.019 A 
ATOM     19  O   UNL     1      -0.589   5.026  -1.692  1.00  0.00    -0.475 OA
ATOM     20  C   UNL     1       1.525   5.622  -3.509  1.00  0.00     0.027 C 
ATOM     21  C   UNL     1      -0.267   6.429  -1.956  1.00  0.00     0.316 C 
BRANCH  12  22
ATOM     22  C   UNL     1       0.541   0.282  -1.431  1.00  0.00    -0.012 C 
ATOM     23  C   UNL     1       1.106   0.021  -0.024  1.00  0.00     0.016 C 
ATOM     24  C   UNL     1       0.975  -0.873  -2.365  1.00  0.00     0.016 C 
ATOM     25  C   UNL     1      -1.009   0.162  -1.370  1.00  0.00     0.016 C 
ENDBRANCH  12  22
BRANCH  21  26
ATOM     26  C   UNL     1       0.139   7.090  -0.623  1.00  0.00     0.430 C 
ATOM     27  F   UNL     1       0.163   8.436  -0.702  1.00  0.00    -0.167 F 
ATOM     28  F   UNL     1      -0.752   6.781   0.354  1.00  0.00    -0.167 F 
ATOM     29  F   UNL     1       1.351   6.669  -0.189  1.00  0.00    -0.167 F 
ENDBRANCH  21  26
ENDBRANCH   9  11
ENDBRANCH   8   9
ENDBRANCH   7   8
ENDBRANCH   6   7
ENDBRANCH   5   6
ENDBRANCH   4   5
ENDBRANCH   3   4
ENDBRANCH   2   3
ENDBRANCH   1   2
BRANCH   1  30
ATOM     30  C   UNL     1       4.949  10.778  -0.883  1.00  0.00     0.188 C 
BRANCH  30  31
ATOM     31  O   UNL     1       5.790   9.621  -0.877  1.00  0.00    -0.376 OA
BRANCH  31  32
ATOM     32  C   UNL     1       6.666   9.487   0.241  1.00  0.00     0.202 C 
BRANCH  32  33
ATOM     33  C   UNL     1       5.999   9.009   1.542  1.00  0.00     0.261 C 
BRANCH  33  34
ATOM     34  O   UNL     1       5.051   9.909   2.142  1.00  0.00    -0.460 OA
BRANCH  34  35
ATOM     35  C   UNL     1       5.427  11.184   2.387  1.00  0.00     0.338 C 
ATOM     36  O   UNL     1       6.542  11.654   2.252  1.00  0.00    -0.246 OA
BRANCH  35  37
ATOM     37  C   UNL     1       4.197  11.974   2.638  1.00  0.00     0.060 A 
ATOM     38  C   UNL     1       3.217  11.517   3.524  1.00  0.00     0.016 A 
ATOM     39  C   UNL     1       4.016  13.180   1.948  1.00  0.00     0.016 A 
ATOM     40  C   UNL     1       2.076  12.290   3.752  1.00  0.00     0.010 A 
ATOM     41  C   UNL     1       2.867  13.947   2.169  1.00  0.00     0.010 A 
ATOM     42  C   UNL     1       1.904  13.523   3.096  1.00  0.00    -0.014 A 
BRANCH  42  43
ATOM     43  C   UNL     1       0.849  14.459   3.557  1.00  0.00     0.031 A 
ATOM     44  C   UNL     1      -0.435  14.670   2.814  1.00  0.00     0.074 A 
ATOM     45  C   UNL     1       1.096  15.161   4.681  1.00  0.00     0.049 A 
ATOM     46  N   UNL     1      -1.468  15.392   3.166  1.00  0.00    -0.248 NA
ATOM     47  C   UNL     1      -0.583  13.999   1.514  1.00  0.00     0.031 C 
ATOM     48  C   UNL     1       2.340  15.091   5.452  1.00  0.00     0.029 A 
ATOM     49  N   UNL     1       0.328  16.066   5.366  1.00  0.00    -0.354 N 
ATOM     50  C   UNL     1      -2.392  15.269   2.137  1.00  0.00     0.074 A 
ATOM     51  C   UNL     1      -1.788  14.415   1.134  1.00  0.00     0.031 C 
ATOM     52  C   UNL     1       2.245  15.909   6.510  1.00  0.00     0.029 A 
ATOM     53  C   UNL     1       0.941  16.564   6.490  1.00  0.00     0.049 A 
ATOM     54  H   UNL     1      -0.576  16.334   5.080  1.00  0.00     0.167 HD
ATOM     55  C   UNL     1      -3.636  15.801   2.054  1.00  0.00     0.034 A 
ATOM     56  C   UNL     1       0.504  17.438   7.417  1.00  0.00     0.034 A 
ATOM     57  C   UNL     1      -4.236  16.638   3.061  1.00  0.00     0.049 A 
ATOM     58  C   UNL     1      -0.885  17.991   7.313  1.00  0.00     0.074 A 
ATOM     59  C   UNL     1      -5.520  17.157   3.090  1.00  0.00     0.029 A 
ATOM     60  N   UNL     1      -3.599  17.090   4.206  1.00  0.00    -0.354 N 
ATOM     61  N   UNL     1      -1.801  17.739   6.411  1.00  0.00    -0.248 NA
ATOM     62  C   UNL     1      -1.316  18.921   8.367  1.00  0.00     0.031 C 
ATOM     63  C   UNL     1      -5.655  17.933   4.244  1.00  0.00     0.029 A 
ATOM     64  C   UNL     1      -4.460  17.888   4.942  1.00  0.00     0.049 A 
ATOM     65  H   UNL     1      -2.672  16.876   4.458  1.00  0.00     0.167 HD
ATOM     66  C   UNL     1      -2.924  18.459   6.798  1.00  0.00     0.074 A 
ATOM     67  C   UNL     1      -2.579  19.150   8.023  1.00  0.00     0.031 C 
ATOM     68  C   UNL     1      -4.127  18.541   6.182  1.00  0.00     0.034 A 
BRANCH  55  69
ATOM     69  C   UNL     1      -4.487  15.442   0.866  1.00  0.00     0.023 A 
ATOM     70  C   UNL     1      -5.133  14.189   0.849  1.00  0.00     0.012 A 
ATOM     71  C   UNL     1      -4.763  16.379  -0.149  1.00  0.00     0.148 A 
ATOM     72  C   UNL     1      -6.036  13.870  -0.163  1.00  0.00     0.002 A 
ATOM     73  C   UNL     1      -5.685  16.063  -1.142  1.00  0.00     0.091 A 
ATOM     74  F   UNL     1      -4.134  17.562  -0.114  1.00  0.00    -0.205 F 
ATOM     75  C   UNL     1      -6.320  14.809  -1.151  1.00  0.00     0.022 A 
BRANCH  73  76
ATOM     76  S   UNL     1      -6.167  17.219  -2.431  1.00  0.00     0.127 S 
ATOM     77  O   UNL     1      -5.622  16.571  -3.624  1.00  0.00    -0.237 OA
ATOM     78  O   UNL     1      -7.626  17.194  -2.337  1.00  0.00    -0.237 OA
ATOM     79  O   UNL     1      -5.552  18.492  -2.082  1.00  0.00    -0.744 OA
ENDBRANCH  73  76
ENDBRANCH  55  69
BRANCH  56  80
ATOM     80  C   UNL     1       1.382  17.751   8.574  1.00  0.00     0.023 A 
ATOM     81  C   UNL     1       1.126  17.133   9.812  1.00  0.00     0.012 A 
ATOM     82  C   UNL     1       2.522  18.562   8.424  1.00  0.00     0.148 A 
ATOM     83  C   UNL     1       1.993  17.322  10.888  1.00  0.00     0.002 A 
ATOM     84  C   UNL     1       3.402  18.715   9.488  1.00  0.00     0.091 A 
ATOM     85  F   UNL     1       2.741  19.131   7.230  1.00  0.00    -0.205 F 
ATOM     86  C   UNL     1       3.134  18.102  10.723  1.00  0.00     0.022 A 
BRANCH  84  87
ATOM     87  S   UNL     1       4.952  19.609   9.345  1.00  0.00     0.127 S 
ATOM     88  O   UNL     1       4.758  20.698  10.299  1.00  0.00    -0.237 OA
ATOM     89  O   UNL     1       5.920  18.593   9.758  1.00  0.00    -0.237 OA
ATOM     90  O   UNL     1       5.052  20.012   7.949  1.00  0.00    -0.744 OA
ENDBRANCH  84  87
ENDBRANCH  56  80
BRANCH  68  91
ATOM     91  C   UNL     1      -5.187  19.404   6.809  1.00  0.00     0.023 A 
ATOM     92  C   UNL     1      -5.139  20.799   6.625  1.00  0.00     0.012 A 
ATOM     93  C   UNL     1      -6.295  18.825   7.460  1.00  0.00     0.148 A 
ATOM     94  C   UNL     1      -6.177  21.608   7.084  1.00  0.00     0.002 A 
ATOM     95  C   UNL     1      -7.341  19.634   7.885  1.00  0.00     0.091 A 
ATOM     96  F   UNL     1      -6.311  17.495   7.628  1.00  0.00    -0.205 F 
ATOM     97  C   UNL     1      -7.282  21.026   7.702  1.00  0.00     0.022 A 
BRANCH  95  98
ATOM     98  S   UNL     1      -8.840  18.976   8.626  1.00  0.00     0.127 S 
ATOM     99  O   UNL     1      -8.779  19.541   9.974  1.00  0.00    -0.237 OA
ATOM    100  O   UNL     1      -9.881  19.546   7.772  1.00  0.00    -0.237 OA
ATOM    101  O   UNL     1      -8.722  17.526   8.560  1.00  0.00    -0.744 OA
ENDBRANCH  95  98
ENDBRANCH  68  91
ENDBRANCH  42  43
ENDBRANCH  35  37
ENDBRANCH  34  35
ENDBRANCH  33  34
ENDBRANCH  32  33
ENDBRANCH  31  32
ENDBRANCH  30  31
ENDBRANCH   1  30
TORSDOF 25
