REMARK SMILES CCNC(=O)c1ccc(N2C[C@@H](C)[C@H](C(=O)OCCOCCOCCOCCOC(=O)c3ccc(-c4c5nc(c(-c6cccc(S(=O)(=O)[O-])c6F)c6ccc([nH]6)c(-c6cccc(S(=O)(=O)[O-])c6F)c6nc(c(-c7cccc(S(=O)(=O)[O-])c7F)c7ccc4[nH]7)C=C6)C=C5)cc3)C2)nn1
REMARK SMILES IDX 23 1 22 2 21 3 20 4 19 5 18 6 17 7 15 8 16 9 14 10 10 11
REMARK SMILES IDX 11 12 95 13 12 14 13 15 9 16 6 17 7 18 97 19 8 20 96 21 4 22
REMARK SMILES IDX 3 23 5 25 2 26 1 27 24 28 25 29 26 30 27 31 28 32 29 33
REMARK SMILES IDX 30 34 31 35 32 36 33 37 94 38 34 39 93 40 35 41 36 42 37 43
REMARK SMILES IDX 87 44 38 45 92 46 86 47 88 48 39 49 91 50 85 51 84 52 40 54
REMARK SMILES IDX 72 55 52 56 71 57 53 58 56 59 70 60 89 61 54 62 55 63 69 65
REMARK SMILES IDX 90 66 57 67 41 68 42 69 50 70 43 71 45 72 51 73 44 74 46 75
REMARK SMILES IDX 47 76 48 77 49 78 73 79 74 80 82 81 75 82 77 83 83 84 76 85
REMARK SMILES IDX 78 86 79 87 80 88 81 89 58 90 59 91 67 92 60 93 62 94 68 95
REMARK SMILES IDX 61 96 63 97 64 98 65 99 66 100
REMARK H PARENT 3 24 88 53 56 64
REMARK Flexibility Score: inf
ROOT
ATOM      1  O   UNL     1      -6.052  -2.415   2.182  1.00  0.00    -0.377 OA
ENDROOT
BRANCH   1   2
ATOM      2  C   UNL     1      -7.292  -2.364   1.510  1.00  0.00     0.188 C 
BRANCH   2   3
ATOM      3  C   UNL     1      -7.254  -2.738   0.024  1.00  0.00     0.188 C 
BRANCH   3   4
ATOM      4  O   UNL     1      -6.139  -3.417  -0.532  1.00  0.00    -0.376 OA
BRANCH   4   5
ATOM      5  C   UNL     1      -4.810  -3.015  -0.228  1.00  0.00     0.202 C 
BRANCH   5   6
ATOM      6  C   UNL     1      -4.364  -1.539  -0.240  1.00  0.00     0.261 C 
BRANCH   6   7
ATOM      7  O   UNL     1      -5.184  -0.602   0.485  1.00  0.00    -0.463 OA
BRANCH   7   8
ATOM      8  C   UNL     1      -5.936   0.234  -0.265  1.00  0.00     0.311 C 
ATOM      9  O   UNL     1      -5.967   0.212  -1.494  1.00  0.00    -0.252 OA
BRANCH   8  10
ATOM     10  C   UNL     1      -6.788   1.226   0.512  1.00  0.00     0.123 C 
ATOM     11  N   UNL     1      -5.464   2.718   1.705  1.00  0.00    -0.354 N 
ATOM     12  C   UNL     1      -6.327   2.193   2.734  1.00  0.00     0.122 C 
ATOM     13  C   UNL     1      -6.101   2.583   0.403  1.00  0.00     0.133 C 
ATOM     14  C   UNL     1      -7.057   1.046   2.030  1.00  0.00     0.021 C 
ATOM     15  C   UNL     1      -8.556   1.106   2.342  1.00  0.00     0.010 C 
BRANCH  11  16
ATOM     16  C   UNL     1      -4.091   2.662   1.727  1.00  0.00     0.151 A 
ATOM     17  C   UNL     1      -1.358   2.696   1.660  1.00  0.00     0.150 A 
ATOM     18  C   UNL     1      -1.981   1.898   2.601  1.00  0.00     0.040 A 
ATOM     19  N   UNL     1      -2.058   3.438   0.778  1.00  0.00    -0.143 NA
ATOM     20  C   UNL     1      -3.372   1.871   2.618  1.00  0.00     0.051 A 
ATOM     21  N   UNL     1      -3.425   3.407   0.816  1.00  0.00    -0.132 NA
BRANCH  17  22
ATOM     22  C   UNL     1       0.110   2.852   1.614  1.00  0.00     0.271 C 
ATOM     23  N   UNL     1       0.917   1.747   1.745  1.00  0.00    -0.351 N 
ATOM     24  H   UNL     1       1.818   1.924   2.099  1.00  0.00     0.163 HD
ATOM     25  O   UNL     1       0.591   3.975   1.471  1.00  0.00    -0.267 OA
BRANCH  23  26
ATOM     26  C   UNL     1       0.636   0.359   1.438  1.00  0.00     0.113 C 
ATOM     27  C   UNL     1       1.196  -0.020   0.077  1.00  0.00     0.027 C 
ENDBRANCH  23  26
ENDBRANCH  17  22
ENDBRANCH  11  16
ENDBRANCH   8  10
ENDBRANCH   7   8
ENDBRANCH   6   7
ENDBRANCH   5   6
ENDBRANCH   4   5
ENDBRANCH   3   4
ENDBRANCH   2   3
ENDBRANCH   1   2
BRANCH   1  28
ATOM     28  C   UNL     1      -5.753  -3.585   2.933  1.00  0.00     0.188 C 
BRANCH  28  29
ATOM     29  C   UNL     1      -6.342  -4.926   2.454  1.00  0.00     0.188 C 
BRANCH  29  30
ATOM     30  O   UNL     1      -7.741  -4.894   2.207  1.00  0.00    -0.376 OA
BRANCH  30  31
ATOM     31  C   UNL     1      -8.633  -5.263   3.249  1.00  0.00     0.202 C 
BRANCH  31  32
ATOM     32  C   UNL     1      -8.646  -4.428   4.542  1.00  0.00     0.261 C 
BRANCH  32  33
ATOM     33  O   UNL     1      -7.423  -4.363   5.292  1.00  0.00    -0.460 OA
BRANCH  33  34
ATOM     34  C   UNL     1      -6.832  -5.523   5.655  1.00  0.00     0.338 C 
ATOM     35  O   UNL     1      -7.261  -6.644   5.488  1.00  0.00    -0.246 OA
BRANCH  34  36
ATOM     36  C   UNL     1      -5.457  -5.203   6.104  1.00  0.00     0.060 A 
ATOM     37  C   UNL     1      -4.378  -5.798   5.438  1.00  0.00     0.016 A 
ATOM     38  C   UNL     1      -5.235  -4.331   7.172  1.00  0.00     0.016 A 
ATOM     39  C   UNL     1      -3.073  -5.562   5.870  1.00  0.00     0.010 A 
ATOM     40  C   UNL     1      -3.929  -4.112   7.617  1.00  0.00     0.010 A 
ATOM     41  C   UNL     1      -2.846  -4.761   6.995  1.00  0.00    -0.014 A 
BRANCH  41  42
ATOM     42  C   UNL     1      -1.512  -4.772   7.641  1.00  0.00     0.031 A 
ATOM     43  C   UNL     1      -1.308  -5.639   8.853  1.00  0.00     0.074 A 
ATOM     44  C   UNL     1      -0.495  -4.031   7.170  1.00  0.00     0.049 A 
ATOM     45  N   UNL     1      -0.249  -5.780   9.604  1.00  0.00    -0.248 NA
ATOM     46  C   UNL     1      -2.462  -6.448   9.277  1.00  0.00     0.031 C 
ATOM     47  C   UNL     1      -0.556  -3.148   6.008  1.00  0.00     0.029 A 
ATOM     48  N   UNL     1       0.785  -3.883   7.645  1.00  0.00    -0.354 N 
ATOM     49  C   UNL     1      -0.618  -6.658  10.616  1.00  0.00     0.074 A 
ATOM     50  C   UNL     1      -2.002  -7.011  10.383  1.00  0.00     0.031 C 
ATOM     51  C   UNL     1       0.625  -2.516   5.884  1.00  0.00     0.029 A 
ATOM     52  C   UNL     1       1.510  -2.932   6.972  1.00  0.00     0.049 A 
ATOM     53  H   UNL     1       1.146  -4.408   8.396  1.00  0.00     0.167 HD
ATOM     54  C   UNL     1       0.124  -7.135  11.643  1.00  0.00     0.034 A 
ATOM     55  C   UNL     1       2.733  -2.427   7.228  1.00  0.00     0.034 A 
ATOM     56  C   UNL     1       1.501  -6.790  11.873  1.00  0.00     0.049 A 
ATOM     57  C   UNL     1       3.534  -2.943   8.390  1.00  0.00     0.074 A 
ATOM     58  C   UNL     1       2.358  -7.277  12.843  1.00  0.00     0.029 A 
ATOM     59  N   UNL     1       2.213  -5.848  11.148  1.00  0.00    -0.354 N 
ATOM     60  N   UNL     1       3.217  -3.864   9.265  1.00  0.00    -0.248 NA
ATOM     61  C   UNL     1       4.875  -2.368   8.579  1.00  0.00     0.031 C 
ATOM     62  C   UNL     1       3.572  -6.589  12.739  1.00  0.00     0.029 A 
ATOM     63  C   UNL     1       3.489  -5.715  11.668  1.00  0.00     0.049 A 
ATOM     64  H   UNL     1       1.862  -5.346  10.377  1.00  0.00     0.167 HD
ATOM     65  C   UNL     1       4.327  -4.002  10.091  1.00  0.00     0.074 A 
ATOM     66  C   UNL     1       5.331  -3.080   9.601  1.00  0.00     0.031 C 
ATOM     67  C   UNL     1       4.496  -4.817  11.161  1.00  0.00     0.034 A 
BRANCH  54  68
ATOM     68  C   UNL     1      -0.555  -8.070  12.609  1.00  0.00     0.023 A 
ATOM     69  C   UNL     1      -0.930  -9.366  12.201  1.00  0.00     0.012 A 
ATOM     70  C   UNL     1      -0.811  -7.662  13.933  1.00  0.00     0.148 A 
ATOM     71  C   UNL     1      -1.597 -10.221  13.078  1.00  0.00     0.002 A 
ATOM     72  C   UNL     1      -1.427  -8.539  14.816  1.00  0.00     0.091 A 
ATOM     73  F   UNL     1      -0.470  -6.417  14.297  1.00  0.00    -0.205 F 
ATOM     74  C   UNL     1      -1.836  -9.811  14.386  1.00  0.00     0.022 A 
BRANCH  72  75
ATOM     75  S   UNL     1      -1.699  -8.130  16.543  1.00  0.00     0.127 S 
ATOM     76  O   UNL     1      -3.146  -7.916  16.570  1.00  0.00    -0.237 OA
ATOM     77  O   UNL     1      -1.250  -9.347  17.221  1.00  0.00    -0.237 OA
ATOM     78  O   UNL     1      -0.885  -6.953  16.809  1.00  0.00    -0.744 OA
ENDBRANCH  72  75
ENDBRANCH  54  68
BRANCH  55  79
ATOM     79  C   UNL     1       3.270  -1.347   6.364  1.00  0.00     0.023 A 
ATOM     80  C   UNL     1       4.317  -1.617   5.463  1.00  0.00     0.012 A 
ATOM     81  C   UNL     1       2.716  -0.057   6.417  1.00  0.00     0.148 A 
ATOM     82  C   UNL     1       4.820  -0.610   4.640  1.00  0.00     0.002 A 
ATOM     83  C   UNL     1       3.180   0.922   5.553  1.00  0.00     0.091 A 
ATOM     84  F   UNL     1       1.734   0.183   7.298  1.00  0.00    -0.205 F 
ATOM     85  C   UNL     1       4.244   0.656   4.677  1.00  0.00     0.022 A 
BRANCH  83  86
ATOM     86  S   UNL     1       2.346   2.496   5.380  1.00  0.00     0.127 S 
ATOM     87  O   UNL     1       3.219   3.385   6.138  1.00  0.00    -0.237 OA
ATOM     88  O   UNL     1       2.383   2.663   3.927  1.00  0.00    -0.237 OA
ATOM     89  O   UNL     1       1.008   2.279   5.919  1.00  0.00    -0.744 OA
ENDBRANCH  83  86
ENDBRANCH  55  79
BRANCH  67  90
ATOM     90  C   UNL     1       5.832  -4.793  11.859  1.00  0.00     0.023 A 
ATOM     91  C   UNL     1       6.211  -3.680  12.634  1.00  0.00     0.012 A 
ATOM     92  C   UNL     1       6.686  -5.913  11.795  1.00  0.00     0.148 A 
ATOM     93  C   UNL     1       7.433  -3.668  13.307  1.00  0.00     0.002 A 
ATOM     94  C   UNL     1       7.875  -5.916  12.512  1.00  0.00     0.091 A 
ATOM     95  F   UNL     1       6.317  -6.954  11.036  1.00  0.00    -0.205 F 
ATOM     96  C   UNL     1       8.258  -4.789  13.257  1.00  0.00     0.022 A 
BRANCH  94  97
ATOM     97  S   UNL     1       8.952  -7.352  12.585  1.00  0.00     0.127 S 
ATOM     98  O   UNL     1      10.110  -6.895  11.818  1.00  0.00    -0.237 OA
ATOM     99  O   UNL     1       9.186  -7.489  14.023  1.00  0.00    -0.237 OA
ATOM    100  O   UNL     1       8.202  -8.449  11.987  1.00  0.00    -0.744 OA
ENDBRANCH  94  97
ENDBRANCH  67  90
ENDBRANCH  41  42
ENDBRANCH  34  36
ENDBRANCH  33  34
ENDBRANCH  32  33
ENDBRANCH  31  32
ENDBRANCH  30  31
ENDBRANCH  29  30
ENDBRANCH  28  29
ENDBRANCH   1  28
TORSDOF 26
