REMARK SMILES Cc1nc(CC(=O)N2Cc3nc[nH]c3C[C@H]2C(=O)OCCOCCOCCOCCOC(=O)c2ccc(-c3c4nc(c(-c5cccc(S(=O)(=O)[O-])c5F)c5ccc([nH]5)c(-c5cccc(S(=O)(=O)[O-])c5F)c5nc(c(-c6cccc(S(=O)(=O)[O-])c6F)c6ccc3[nH]6)C=C5)C=C4)cc2)cs1
REMARK SMILES IDX 25 1 24 2 23 3 22 4 21 5 20 6 19 7 17 8 18 9 16 10 8 11 9 12
REMARK SMILES IDX 10 13 15 14 11 15 14 16 12 17 13 18 6 20 7 21 5 22 4 23 1 24
REMARK SMILES IDX 2 25 3 26 98 27 97 28 26 29 27 30 28 31 29 32 30 33 31 34
REMARK SMILES IDX 32 35 33 36 34 37 35 38 96 39 36 40 95 41 37 42 38 43 39 44
REMARK SMILES IDX 89 45 40 46 94 47 88 48 90 49 41 50 93 51 87 52 86 53 42 55
REMARK SMILES IDX 74 56 54 57 73 58 55 59 58 60 72 61 91 62 56 63 57 64 71 66
REMARK SMILES IDX 92 67 59 68 43 69 44 70 52 71 45 72 47 73 53 74 46 75 48 76
REMARK SMILES IDX 49 77 50 78 51 79 75 80 76 81 84 82 77 83 79 84 85 85 78 86
REMARK SMILES IDX 80 87 81 88 82 89 83 90 60 91 61 92 69 93 62 94 64 95 70 96
REMARK SMILES IDX 63 97 65 98 66 99 67 100 68 101
REMARK H PARENT 13 19 90 54 58 65
REMARK Flexibility Score: inf
ROOT
ATOM      1  O   UNL     1       0.467  -5.216  -3.896  1.00  0.00    -0.377 OA
ENDROOT
BRANCH   1   2
ATOM      2  C   UNL     1       0.194  -4.527  -2.693  1.00  0.00     0.188 C 
BRANCH   2   3
ATOM      3  C   UNL     1      -1.201  -3.876  -2.585  1.00  0.00     0.188 C 
BRANCH   3   4
ATOM      4  O   UNL     1      -2.190  -4.072  -3.591  1.00  0.00    -0.376 OA
BRANCH   4   5
ATOM      5  C   UNL     1      -1.809  -4.169  -4.955  1.00  0.00     0.202 C 
BRANCH   5   6
ATOM      6  C   UNL     1      -0.912  -3.092  -5.583  1.00  0.00     0.261 C 
BRANCH   6   7
ATOM      7  O   UNL     1       0.200  -2.656  -4.783  1.00  0.00    -0.462 OA
BRANCH   7   8
ATOM      8  C   UNL     1       0.111  -1.422  -4.239  1.00  0.00     0.329 C 
ATOM      9  O   UNL     1      -0.838  -0.658  -4.415  1.00  0.00    -0.250 OA
BRANCH   8  10
ATOM     10  C   UNL     1       1.360  -0.991  -3.436  1.00  0.00     0.201 C 
ATOM     11  N   UNL     1       2.450  -1.950  -3.016  1.00  0.00    -0.322 N 
ATOM     12  C   UNL     1       3.228  -2.624  -4.095  1.00  0.00     0.178 C 
ATOM     13  C   UNL     1       3.333  -1.730  -5.281  1.00  0.00     0.081 A 
ATOM     14  C   UNL     1       1.994   0.163  -4.272  1.00  0.00     0.093 C 
ATOM     15  N   UNL     1       3.878  -2.083  -6.484  1.00  0.00    -0.240 NA
ATOM     16  C   UNL     1       2.775  -0.474  -5.359  1.00  0.00     0.042 A 
ATOM     17  C   UNL     1       3.651  -1.060  -7.278  1.00  0.00     0.197 A 
ATOM     18  N   UNL     1       2.978  -0.053  -6.637  1.00  0.00    -0.348 N 
ATOM     19  H   UNL     1       2.696   0.806  -7.025  1.00  0.00     0.167 HD
BRANCH  11  20
ATOM     20  C   UNL     1       2.991  -2.012  -1.733  1.00  0.00     0.229 C 
ATOM     21  O   UNL     1       4.205  -2.176  -1.564  1.00  0.00    -0.274 OA
BRANCH  20  22
ATOM     22  C   UNL     1       2.094  -2.100  -0.504  1.00  0.00     0.157 C 
BRANCH  22  23
ATOM     23  C   UNL     1       1.204  -0.947  -0.228  1.00  0.00     0.061 A 
ATOM     24  C   UNL     1      -2.299   0.059   0.014  1.00  0.00     0.079 C 
ATOM     25  C   UNL     1      -0.816  -0.054  -0.008  1.00  0.00     0.090 A 
ATOM     26  N   UNL     1      -0.166  -1.163  -0.282  1.00  0.00    -0.246 NA
ATOM     27  S   UNL     1       0.172   1.314   0.313  1.00  0.00    -0.127 S 
ATOM     28  C   UNL     1       1.571   0.344   0.101  1.00  0.00     0.091 A 
ENDBRANCH  22  23
ENDBRANCH  20  22
ENDBRANCH  11  20
ENDBRANCH   8  10
ENDBRANCH   7   8
ENDBRANCH   6   7
ENDBRANCH   5   6
ENDBRANCH   4   5
ENDBRANCH   3   4
ENDBRANCH   2   3
ENDBRANCH   1   2
BRANCH   1  29
ATOM     29  C   UNL     1       0.320  -6.630  -3.875  1.00  0.00     0.188 C 
BRANCH  29  30
ATOM     30  C   UNL     1      -0.891  -7.214  -3.117  1.00  0.00     0.188 C 
BRANCH  30  31
ATOM     31  O   UNL     1      -1.146  -6.637  -1.837  1.00  0.00    -0.376 OA
BRANCH  31  32
ATOM     32  C   UNL     1      -0.714  -7.317  -0.667  1.00  0.00     0.202 C 
BRANCH  32  33
ATOM     33  C   UNL     1       0.789  -7.304  -0.385  1.00  0.00     0.261 C 
BRANCH  33  34
ATOM     34  O   UNL     1       1.601  -7.812  -1.430  1.00  0.00    -0.460 OA
BRANCH  34  35
ATOM     35  C   UNL     1       1.357  -9.092  -1.773  1.00  0.00     0.338 C 
ATOM     36  O   UNL     1       0.381  -9.765  -1.506  1.00  0.00    -0.246 OA
BRANCH  35  37
ATOM     37  C   UNL     1       2.538  -9.634  -2.429  1.00  0.00     0.060 A 
ATOM     38  C   UNL     1       2.364 -10.822  -3.140  1.00  0.00     0.016 A 
ATOM     39  C   UNL     1       3.797  -9.144  -2.057  1.00  0.00     0.016 A 
ATOM     40  C   UNL     1       3.459 -11.629  -3.316  1.00  0.00     0.010 A 
ATOM     41  C   UNL     1       4.885  -9.962  -2.215  1.00  0.00     0.010 A 
ATOM     42  C   UNL     1       4.684 -11.220  -2.777  1.00  0.00    -0.014 A 
BRANCH  42  43
ATOM     43  C   UNL     1       5.805 -12.118  -2.915  1.00  0.00     0.031 A 
ATOM     44  C   UNL     1       6.352 -12.116  -4.284  1.00  0.00     0.074 A 
ATOM     45  C   UNL     1       6.311 -12.791  -1.867  1.00  0.00     0.049 A 
ATOM     46  N   UNL     1       6.291 -13.069  -5.152  1.00  0.00    -0.248 NA
ATOM     47  C   UNL     1       6.828 -10.833  -4.825  1.00  0.00     0.031 C 
ATOM     48  C   UNL     1       5.974 -12.596  -0.452  1.00  0.00     0.029 A 
ATOM     49  N   UNL     1       7.338 -13.683  -1.827  1.00  0.00    -0.354 N 
ATOM     50  C   UNL     1       6.983 -12.581  -6.257  1.00  0.00     0.074 A 
ATOM     51  C   UNL     1       7.043 -11.157  -6.099  1.00  0.00     0.031 C 
ATOM     52  C   UNL     1       6.941 -13.154   0.309  1.00  0.00     0.029 A 
ATOM     53  C   UNL     1       7.883 -13.840  -0.558  1.00  0.00     0.049 A 
ATOM     54  H   UNL     1       7.663 -14.170  -2.619  1.00  0.00     0.167 HD
ATOM     55  C   UNL     1       7.745 -13.421  -7.006  1.00  0.00     0.034 A 
ATOM     56  C   UNL     1       9.069 -14.420  -0.259  1.00  0.00     0.034 A 
ATOM     57  C   UNL     1       7.392 -14.796  -6.747  1.00  0.00     0.049 A 
ATOM     58  C   UNL     1       9.451 -15.272  -1.407  1.00  0.00     0.074 A 
ATOM     59  C   UNL     1       6.296 -15.601  -6.959  1.00  0.00     0.029 A 
ATOM     60  N   UNL     1       8.181 -15.411  -5.808  1.00  0.00    -0.354 N 
ATOM     61  N   UNL     1       8.828 -16.370  -1.731  1.00  0.00    -0.248 NA
ATOM     62  C   UNL     1      10.353 -14.743  -2.422  1.00  0.00     0.031 C 
ATOM     63  C   UNL     1       6.349 -16.604  -5.949  1.00  0.00     0.029 A 
ATOM     64  C   UNL     1       7.488 -16.398  -5.168  1.00  0.00     0.049 A 
ATOM     65  H   UNL     1       9.117 -15.173  -5.621  1.00  0.00     0.167 HD
ATOM     66  C   UNL     1       8.901 -16.401  -3.114  1.00  0.00     0.074 A 
ATOM     67  C   UNL     1       9.997 -15.507  -3.458  1.00  0.00     0.031 C 
ATOM     68  C   UNL     1       7.859 -16.881  -3.852  1.00  0.00     0.034 A 
BRANCH  55  69
ATOM     69  C   UNL     1       9.119 -13.077  -7.565  1.00  0.00     0.023 A 
ATOM     70  C   UNL     1       9.774 -14.106  -8.283  1.00  0.00     0.012 A 
ATOM     71  C   UNL     1       9.916 -11.972  -7.182  1.00  0.00     0.148 A 
ATOM     72  C   UNL     1      11.152 -14.083  -8.518  1.00  0.00     0.002 A 
ATOM     73  C   UNL     1      11.275 -11.922  -7.474  1.00  0.00     0.091 A 
ATOM     74  F   UNL     1       9.412 -10.998  -6.427  1.00  0.00    -0.205 F 
ATOM     75  C   UNL     1      11.905 -12.992  -8.110  1.00  0.00     0.022 A 
BRANCH  73  76
ATOM     76  S   UNL     1      12.295 -10.519  -6.994  1.00  0.00     0.127 S 
ATOM     77  O   UNL     1      13.127 -11.108  -5.949  1.00  0.00    -0.237 OA
ATOM     78  O   UNL     1      12.989 -10.218  -8.246  1.00  0.00    -0.237 OA
ATOM     79  O   UNL     1      11.369  -9.481  -6.558  1.00  0.00    -0.744 OA
ENDBRANCH  73  76
ENDBRANCH  55  69
BRANCH  56  80
ATOM     80  C   UNL     1      10.001 -14.179   0.865  1.00  0.00     0.023 A 
ATOM     81  C   UNL     1      10.960 -15.161   1.185  1.00  0.00     0.012 A 
ATOM     82  C   UNL     1      10.141 -12.898   1.442  1.00  0.00     0.148 A 
ATOM     83  C   UNL     1      12.049 -14.866   2.012  1.00  0.00     0.002 A 
ATOM     84  C   UNL     1      11.220 -12.611   2.273  1.00  0.00     0.091 A 
ATOM     85  F   UNL     1       9.274 -11.935   1.102  1.00  0.00    -0.205 F 
ATOM     86  C   UNL     1      12.184 -13.589   2.548  1.00  0.00     0.022 A 
BRANCH  84  87
ATOM     87  S   UNL     1      11.473 -10.980   2.985  1.00  0.00     0.127 S 
ATOM     88  O   UNL     1      11.777 -11.301   4.380  1.00  0.00    -0.237 OA
ATOM     89  O   UNL     1      12.606 -10.485   2.209  1.00  0.00    -0.237 OA
ATOM     90  O   UNL     1      10.216 -10.267   2.798  1.00  0.00    -0.744 OA
ENDBRANCH  84  87
ENDBRANCH  56  80
BRANCH  68  91
ATOM     91  C   UNL     1       6.899 -17.820  -3.179  1.00  0.00     0.023 A 
ATOM     92  C   UNL     1       6.071 -17.432  -2.108  1.00  0.00     0.012 A 
ATOM     93  C   UNL     1       6.738 -19.098  -3.741  1.00  0.00     0.148 A 
ATOM     94  C   UNL     1       5.114 -18.313  -1.596  1.00  0.00     0.002 A 
ATOM     95  C   UNL     1       5.748 -19.947  -3.269  1.00  0.00     0.091 A 
ATOM     96  F   UNL     1       7.546 -19.454  -4.752  1.00  0.00    -0.205 F 
ATOM     97  C   UNL     1       4.941 -19.563  -2.188  1.00  0.00     0.022 A 
BRANCH  95  98
ATOM     98  S   UNL     1       5.392 -21.500  -4.092  1.00  0.00     0.127 S 
ATOM     99  O   UNL     1       6.054 -22.468  -3.221  1.00  0.00    -0.237 OA
ATOM    100  O   UNL     1       3.929 -21.548  -4.060  1.00  0.00    -0.237 OA
ATOM    101  O   UNL     1       5.948 -21.373  -5.434  1.00  0.00    -0.744 OA
ENDBRANCH  95  98
ENDBRANCH  68  91
ENDBRANCH  42  43
ENDBRANCH  35  37
ENDBRANCH  34  35
ENDBRANCH  33  34
ENDBRANCH  32  33
ENDBRANCH  31  32
ENDBRANCH  30  31
ENDBRANCH  29  30
ENDBRANCH   1  29
TORSDOF 26
