REMARK SMILES Cc1cc(C)n(C)c(=O)c1C(=O)[NH+]1CCC2(CC1)C[NH2+][C@@H](C(=O)OCCOCCOCCOCCOC(=O)c1ccc(-c3c4nc(c(-c5cccc(S(=O)(=O)[O-])c5F)c5ccc([nH]5)c(-c5cccc(S(=O)(=O)[O-])c5F)c5nc(c(-c6cccc(S(=O)(=O)[O-])c6F)c6ccc3[nH]6)C=C5)C=C4)cc1)C2
REMARK SMILES IDX 31 1 30 2 29 3 28 4 27 5 26 6 25 7 24 8 22 9 23 10 21 11
REMARK SMILES IDX 13 12 14 13 18 14 15 16 17 17 16 18 19 19 102 20 20 21 11 24
REMARK SMILES IDX 12 25 10 26 1 27 2 28 3 29 4 30 8 31 5 32 6 33 9 34 7 35
REMARK SMILES IDX 32 36 33 37 34 38 35 39 36 40 37 41 38 42 39 43 40 44 101 45
REMARK SMILES IDX 41 46 100 47 42 48 43 49 44 50 94 51 45 52 99 53 93 54 95 55
REMARK SMILES IDX 46 56 98 57 92 58 91 59 47 61 79 62 59 63 78 64 60 65 63 66
REMARK SMILES IDX 77 67 96 68 61 69 62 70 76 72 97 73 64 74 48 75 49 76 57 77
REMARK SMILES IDX 50 78 52 79 58 80 51 81 53 82 54 83 55 84 56 85 80 86 81 87
REMARK SMILES IDX 89 88 82 89 84 90 90 91 83 92 85 93 86 94 87 95 88 96 65 97
REMARK SMILES IDX 66 98 74 99 67 100 69 101 75 102 68 103 70 104 71 105 72 106
REMARK SMILES IDX 73 107
REMARK H PARENT 13 15 20 22 20 23 95 60 63 71
REMARK Flexibility Score: inf
ROOT
ATOM      1  C   UNL     1      -0.698   6.692  -4.873  1.00  0.00     0.188 C 
ENDROOT
BRANCH   1   2
ATOM      2  O   UNL     1      -0.278   6.520  -3.526  1.00  0.00    -0.377 OA
BRANCH   2   3
ATOM      3  C   UNL     1      -1.322   6.400  -2.589  1.00  0.00     0.188 C 
BRANCH   3   4
ATOM      4  C   UNL     1      -1.447   7.591  -1.627  1.00  0.00     0.188 C 
BRANCH   4   5
ATOM      5  O   UNL     1      -0.853   8.851  -1.927  1.00  0.00    -0.376 OA
BRANCH   5   6
ATOM      6  C   UNL     1       0.453   8.923  -2.489  1.00  0.00     0.202 C 
BRANCH   6   7
ATOM      7  C   UNL     1       1.637   8.194  -1.832  1.00  0.00     0.261 C 
BRANCH   7   8
ATOM      8  O   UNL     1       1.309   6.945  -1.213  1.00  0.00    -0.459 OA
BRANCH   8   9
ATOM      9  C   UNL     1       1.324   6.915   0.142  1.00  0.00     0.364 C 
ATOM     10  O   UNL     1       1.631   7.859   0.865  1.00  0.00    -0.245 OA
BRANCH   9  11
ATOM     11  C   UNL     1       0.890   5.559   0.713  1.00  0.00     0.294 C 
ATOM     12  N   UNL     1      -1.032   0.820  -0.664  1.00  0.00    -0.267 N 
ATOM     13  C   UNL     1      -1.774   1.877   0.005  1.00  0.00     0.271 C 
ATOM     14  C   UNL     1       0.015   1.319  -1.548  1.00  0.00     0.271 C 
ATOM     15  H   UNL     1      -0.921   1.537   0.002  1.00  0.00     0.357 HD
ATOM     16  C   UNL     1      -0.836   2.566   0.986  1.00  0.00     0.075 C 
ATOM     17  C   UNL     1       0.985   2.305  -0.857  1.00  0.00     0.075 C 
ATOM     18  C   UNL     1       0.419   3.175   0.315  1.00  0.00     0.036 C 
ATOM     19  C   UNL     1       1.493   3.438   1.403  1.00  0.00     0.268 C 
ATOM     20  C   UNL     1       0.124   4.601  -0.191  1.00  0.00     0.090 C 
ATOM     21  N   UNL     1       2.053   4.747   1.094  1.00  0.00    -0.334 N 
ATOM     22  H   UNL     1       2.717   4.683   0.323  1.00  0.00     0.347 HD
ATOM     23  H   UNL     1       2.566   5.147   1.880  1.00  0.00     0.347 HD
BRANCH  12  24
ATOM     24  C   UNL     1      -1.485  -0.489  -0.510  1.00  0.00     0.350 C 
ATOM     25  O   UNL     1      -2.657  -0.687  -0.169  1.00  0.00    -0.225 OA
BRANCH  24  26
ATOM     26  C   UNL     1      -0.559  -1.684  -0.582  1.00  0.00     0.147 A 
ATOM     27  C   UNL     1       1.462  -0.586   0.551  1.00  0.00     0.045 C 
ATOM     28  C   UNL     1       0.694  -1.707  -0.071  1.00  0.00    -0.027 A 
ATOM     29  C   UNL     1       1.441  -2.942   0.024  1.00  0.00     0.026 A 
ATOM     30  C   UNL     1       0.878  -4.136  -0.184  1.00  0.00     0.018 A 
ATOM     31  C   UNL     1      -1.166  -3.031  -0.961  1.00  0.00     0.267 A 
ATOM     32  C   UNL     1       1.702  -5.367   0.078  1.00  0.00     0.064 C 
ATOM     33  N   UNL     1      -0.432  -4.194  -0.639  1.00  0.00    -0.315 N 
ATOM     34  O   UNL     1      -2.263  -3.094  -1.519  1.00  0.00    -0.268 OA
ATOM     35  C   UNL     1      -1.075  -5.486  -0.848  1.00  0.00     0.153 C 
ENDBRANCH  24  26
ENDBRANCH  12  24
ENDBRANCH   9  11
ENDBRANCH   8   9
ENDBRANCH   7   8
ENDBRANCH   6   7
ENDBRANCH   5   6
ENDBRANCH   4   5
ENDBRANCH   3   4
ENDBRANCH   2   3
ENDBRANCH   1   2
BRANCH   1  36
ATOM     36  C   UNL     1      -1.826   7.721  -5.120  1.00  0.00     0.188 C 
BRANCH  36  37
ATOM     37  O   UNL     1      -3.008   7.514  -4.350  1.00  0.00    -0.376 OA
BRANCH  37  38
ATOM     38  C   UNL     1      -4.079   6.775  -4.927  1.00  0.00     0.202 C 
BRANCH  38  39
ATOM     39  C   UNL     1      -3.864   5.277  -5.218  1.00  0.00     0.261 C 
BRANCH  39  40
ATOM     40  O   UNL     1      -2.800   4.942  -6.121  1.00  0.00    -0.460 OA
BRANCH  40  41
ATOM     41  C   UNL     1      -2.813   5.499  -7.350  1.00  0.00     0.338 C 
ATOM     42  O   UNL     1      -3.688   6.204  -7.824  1.00  0.00    -0.246 OA
BRANCH  41  43
ATOM     43  C   UNL     1      -1.474   5.306  -7.946  1.00  0.00     0.060 A 
ATOM     44  C   UNL     1      -0.734   6.440  -8.311  1.00  0.00     0.016 A 
ATOM     45  C   UNL     1      -0.939   4.027  -8.123  1.00  0.00     0.016 A 
ATOM     46  C   UNL     1       0.528   6.298  -8.884  1.00  0.00     0.010 A 
ATOM     47  C   UNL     1       0.312   3.885  -8.732  1.00  0.00     0.010 A 
ATOM     48  C   UNL     1       1.031   5.019  -9.148  1.00  0.00    -0.014 A 
BRANCH  48  49
ATOM     49  C   UNL     1       2.180   4.876 -10.074  1.00  0.00     0.031 A 
ATOM     50  C   UNL     1       1.882   4.648 -11.531  1.00  0.00     0.074 A 
ATOM     51  C   UNL     1       3.451   4.981  -9.648  1.00  0.00     0.049 A 
ATOM     52  N   UNL     1       2.707   4.483 -12.530  1.00  0.00    -0.248 NA
ATOM     53  C   UNL     1       0.459   4.605 -11.912  1.00  0.00     0.031 C 
ATOM     54  C   UNL     1       3.864   5.238  -8.271  1.00  0.00     0.029 A 
ATOM     55  N   UNL     1       4.631   4.869 -10.341  1.00  0.00    -0.354 N 
ATOM     56  C   UNL     1       1.907   4.300 -13.651  1.00  0.00     0.074 A 
ATOM     57  C   UNL     1       0.531   4.355 -13.210  1.00  0.00     0.031 C 
ATOM     58  C   UNL     1       5.208   5.245  -8.215  1.00  0.00     0.029 A 
ATOM     59  C   UNL     1       5.749   4.967  -9.546  1.00  0.00     0.049 A 
ATOM     60  H   UNL     1       4.674   4.731 -11.315  1.00  0.00     0.167 HD
ATOM     61  C   UNL     1       2.282   4.123 -14.938  1.00  0.00     0.034 A 
ATOM     62  C   UNL     1       7.054   4.831  -9.857  1.00  0.00     0.034 A 
ATOM     63  C   UNL     1       3.649   4.079 -15.377  1.00  0.00     0.049 A 
ATOM     64  C   UNL     1       7.447   4.569 -11.290  1.00  0.00     0.074 A 
ATOM     65  C   UNL     1       4.131   3.921 -16.663  1.00  0.00     0.029 A 
ATOM     66  N   UNL     1       4.752   4.181 -14.543  1.00  0.00    -0.354 N 
ATOM     67  N   UNL     1       6.685   4.488 -12.355  1.00  0.00    -0.248 NA
ATOM     68  C   UNL     1       8.883   4.408 -11.572  1.00  0.00     0.031 C 
ATOM     69  C   UNL     1       5.527   3.894 -16.603  1.00  0.00     0.029 A 
ATOM     70  C   UNL     1       5.915   4.074 -15.285  1.00  0.00     0.049 A 
ATOM     71  H   UNL     1       4.713   4.311 -13.568  1.00  0.00     0.167 HD
ATOM     72  C   UNL     1       7.546   4.299 -13.432  1.00  0.00     0.074 A 
ATOM     73  C   UNL     1       8.891   4.300 -12.894  1.00  0.00     0.031 C 
ATOM     74  C   UNL     1       7.250   4.126 -14.745  1.00  0.00     0.034 A 
BRANCH  61  75
ATOM     75  C   UNL     1       1.198   3.992 -15.975  1.00  0.00     0.023 A 
ATOM     76  C   UNL     1       0.441   5.124 -16.338  1.00  0.00     0.012 A 
ATOM     77  C   UNL     1       0.980   2.770 -16.641  1.00  0.00     0.148 A 
ATOM     78  C   UNL     1      -0.531   5.038 -17.334  1.00  0.00     0.002 A 
ATOM     79  C   UNL     1       0.045   2.704 -17.666  1.00  0.00     0.091 A 
ATOM     80  F   UNL     1       1.693   1.700 -16.262  1.00  0.00    -0.205 F 
ATOM     81  C   UNL     1      -0.719   3.833 -18.006  1.00  0.00     0.022 A 
BRANCH  79  82
ATOM     82  S   UNL     1      -0.212   1.226 -18.653  1.00  0.00     0.127 S 
ATOM     83  O   UNL     1      -1.571   0.848 -18.269  1.00  0.00    -0.237 OA
ATOM     84  O   UNL     1      -0.084   1.743 -20.015  1.00  0.00    -0.237 OA
ATOM     85  O   UNL     1       0.829   0.289 -18.255  1.00  0.00    -0.744 OA
ENDBRANCH  79  82
ENDBRANCH  61  75
BRANCH  62  86
ATOM     86  C   UNL     1       8.091   4.983  -8.794  1.00  0.00     0.023 A 
ATOM     87  C   UNL     1       8.961   6.090  -8.828  1.00  0.00     0.012 A 
ATOM     88  C   UNL     1       8.198   4.060  -7.735  1.00  0.00     0.148 A 
ATOM     89  C   UNL     1       9.930   6.265  -7.838  1.00  0.00     0.002 A 
ATOM     90  C   UNL     1       9.126   4.271  -6.721  1.00  0.00     0.091 A 
ATOM     91  F   UNL     1       7.375   3.002  -7.730  1.00  0.00    -0.205 F 
ATOM     92  C   UNL     1      10.004   5.364  -6.779  1.00  0.00     0.022 A 
BRANCH  90  93
ATOM     93  S   UNL     1       9.207   3.240  -5.252  1.00  0.00     0.127 S 
ATOM     94  O   UNL     1      10.525   2.626  -5.388  1.00  0.00    -0.237 OA
ATOM     95  O   UNL     1       9.098   4.235  -4.184  1.00  0.00    -0.237 OA
ATOM     96  O   UNL     1       8.076   2.327  -5.344  1.00  0.00    -0.744 OA
ENDBRANCH  90  93
ENDBRANCH  62  86
BRANCH  74  97
ATOM     97  C   UNL     1       8.389   3.939 -15.717  1.00  0.00     0.023 A 
ATOM     98  C   UNL     1       9.112   2.730 -15.722  1.00  0.00     0.012 A 
ATOM     99  C   UNL     1       8.658   4.908 -16.706  1.00  0.00     0.148 A 
ATOM    100  C   UNL     1      10.099   2.498 -16.679  1.00  0.00     0.002 A 
ATOM    101  C   UNL     1       9.605   4.647 -17.689  1.00  0.00     0.091 A 
ATOM    102  F   UNL     1       7.968   6.058 -16.679  1.00  0.00    -0.205 F 
ATOM    103  C   UNL     1      10.335   3.447 -17.670  1.00  0.00     0.022 A 
BRANCH 101 104
ATOM    104  S   UNL     1       9.900   5.758 -19.070  1.00  0.00     0.127 S 
ATOM    105  O   UNL     1      11.246   6.247 -18.776  1.00  0.00    -0.237 OA
ATOM    106  O   UNL     1       9.817   4.854 -20.218  1.00  0.00    -0.237 OA
ATOM    107  O   UNL     1       8.848   6.763 -19.012  1.00  0.00    -0.744 OA
ENDBRANCH 101 104
ENDBRANCH  74  97
ENDBRANCH  48  49
ENDBRANCH  41  43
ENDBRANCH  40  41
ENDBRANCH  39  40
ENDBRANCH  38  39
ENDBRANCH  37  38
ENDBRANCH  36  37
ENDBRANCH   1  36
TORSDOF 25
