REMARK SMILES C[C@H]1CC[C@H]([NH2+]Cc2c(C(=O)OCCOCCOCCOCCOC(=O)c3ccc(-c4c5nc(c(-c6cccc(S(=O)(=O)[O-])c6F)c6ccc([nH]6)c(-c6cccc(S(=O)(=O)[O-])c6F)c6nc(c(-c7cccc(S(=O)(=O)[O-])c7F)c7ccc4[nH]7)C=C6)C=C5)cc3)n(Cc3ccccc3F)c3ccccc23)CC1
REMARK SMILES IDX 18 1 17 2 16 3 15 4 14 5 13 6 12 7 10 8 11 9 9 10 8 11
REMARK SMILES IDX 104 12 90 13 99 14 103 15 100 16 102 17 101 18 7 19 6 20
REMARK SMILES IDX 5 23 1 24 2 25 3 26 106 27 4 28 105 29 91 30 92 31 93 32
REMARK SMILES IDX 97 33 94 34 96 35 98 36 95 37 19 38 20 39 21 40 22 41 23 42
REMARK SMILES IDX 24 43 25 44 26 45 27 46 28 47 89 48 29 49 88 50 30 51 31 52
REMARK SMILES IDX 32 53 82 54 33 55 87 56 81 57 83 58 34 59 86 60 80 61 79 62
REMARK SMILES IDX 35 64 67 65 47 66 66 67 48 68 51 69 65 70 84 71 49 72 50 73
REMARK SMILES IDX 64 75 85 76 52 77 36 78 37 79 45 80 38 81 40 82 46 83 39 84
REMARK SMILES IDX 41 85 42 86 43 87 44 88 68 89 69 90 77 91 70 92 72 93 78 94
REMARK SMILES IDX 71 95 73 96 74 97 75 98 76 99 53 100 54 101 62 102 55 103
REMARK SMILES IDX 57 104 63 105 56 106 58 107 59 108 60 109 61 110
REMARK H PARENT 6 21 6 22 83 63 51 74
REMARK Flexibility Score: inf
ROOT
ATOM      1  O   UNL     1      -2.892  -0.738   3.685  1.00  0.00    -0.377 OA
ENDROOT
BRANCH   1   2
ATOM      2  C   UNL     1      -2.396  -1.882   4.341  1.00  0.00     0.188 C 
BRANCH   2   3
ATOM      3  C   UNL     1      -0.884  -1.937   4.610  1.00  0.00     0.188 C 
BRANCH   3   4
ATOM      4  O   UNL     1      -0.178  -0.750   4.881  1.00  0.00    -0.376 OA
BRANCH   4   5
ATOM      5  C   UNL     1       0.177   0.148   3.847  1.00  0.00     0.202 C 
BRANCH   5   6
ATOM      6  C   UNL     1      -0.017  -0.108   2.350  1.00  0.00     0.261 C 
BRANCH   6   7
ATOM      7  O   UNL     1      -1.075  -0.980   1.910  1.00  0.00    -0.459 OA
BRANCH   7   8
ATOM      8  C   UNL     1      -0.714  -2.193   1.414  1.00  0.00     0.355 C 
ATOM      9  O   UNL     1       0.452  -2.595   1.387  1.00  0.00    -0.244 OA
BRANCH   8  10
ATOM     10  C   UNL     1      -1.850  -3.011   1.006  1.00  0.00     0.137 A 
ATOM     11  C   UNL     1      -3.026  -2.696   0.293  1.00  0.00     0.047 A 
ATOM     12  C   UNL     1      -3.660  -3.947  -0.038  1.00  0.00     0.009 A 
ATOM     13  N   UNL     1      -1.871  -4.396   1.202  1.00  0.00    -0.330 N 
ATOM     14  C   UNL     1      -2.824  -4.973   0.381  1.00  0.00     0.050 A 
ATOM     15  C   UNL     1      -4.830  -4.282  -0.759  1.00  0.00     0.011 A 
ATOM     16  C   UNL     1      -3.038  -6.306  -0.009  1.00  0.00     0.027 A 
ATOM     17  C   UNL     1      -5.094  -5.616  -1.082  1.00  0.00     0.001 A 
ATOM     18  C   UNL     1      -4.192  -6.612  -0.732  1.00  0.00     0.002 A 
BRANCH  11  19
ATOM     19  C   UNL     1      -3.595  -1.408  -0.259  1.00  0.00     0.300 C 
BRANCH  19  20
ATOM     20  N   UNL     1      -2.714  -0.272  -0.206  1.00  0.00    -0.340 N 
ATOM     21  H   UNL     1      -3.292   0.545  -0.010  1.00  0.00     0.346 HD
ATOM     22  H   UNL     1      -2.029  -0.526   0.505  1.00  0.00     0.346 HD
BRANCH  20  23
ATOM     23  C   UNL     1      -1.896   0.051  -1.386  1.00  0.00     0.182 C 
ATOM     24  C   UNL     1       2.441  -0.127  -0.674  1.00  0.00     0.007 C 
ATOM     25  C   UNL     1       0.936  -0.078  -0.894  1.00  0.00    -0.014 C 
ATOM     26  C   UNL     1       0.458  -0.951  -2.036  1.00  0.00     0.009 C 
ATOM     27  C   UNL     1       0.374   1.317  -1.096  1.00  0.00     0.009 C 
ATOM     28  C   UNL     1      -1.058  -1.119  -1.968  1.00  0.00     0.065 C 
ATOM     29  C   UNL     1      -1.145   1.353  -1.022  1.00  0.00     0.065 C 
ENDBRANCH  20  23
ENDBRANCH  19  20
ENDBRANCH  11  19
BRANCH  13  30
ATOM     30  C   UNL     1      -0.955  -5.178   2.051  1.00  0.00     0.161 C 
BRANCH  30  31
ATOM     31  C   UNL     1      -1.581  -5.714   3.327  1.00  0.00     0.008 A 
ATOM     32  C   UNL     1      -2.639  -6.633   3.336  1.00  0.00     0.008 A 
ATOM     33  C   UNL     1      -1.053  -5.355   4.572  1.00  0.00     0.128 A 
ATOM     34  C   UNL     1      -3.178  -7.120   4.533  1.00  0.00     0.001 A 
ATOM     35  C   UNL     1      -1.608  -5.798   5.774  1.00  0.00     0.039 A 
ATOM     36  F   UNL     1       0.044  -4.592   4.636  1.00  0.00    -0.207 F 
ATOM     37  C   UNL     1      -2.677  -6.685   5.755  1.00  0.00     0.003 A 
ENDBRANCH  30  31
ENDBRANCH  13  30
ENDBRANCH   8  10
ENDBRANCH   7   8
ENDBRANCH   6   7
ENDBRANCH   5   6
ENDBRANCH   4   5
ENDBRANCH   3   4
ENDBRANCH   2   3
ENDBRANCH   1   2
BRANCH   1  38
ATOM     38  C   UNL     1      -2.979   0.486   4.398  1.00  0.00     0.188 C 
BRANCH  38  39
ATOM     39  C   UNL     1      -2.619   0.552   5.893  1.00  0.00     0.188 C 
BRANCH  39  40
ATOM     40  O   UNL     1      -3.221  -0.492   6.646  1.00  0.00    -0.376 OA
BRANCH  40  41
ATOM     41  C   UNL     1      -4.356  -0.137   7.420  1.00  0.00     0.202 C 
BRANCH  41  42
ATOM     42  C   UNL     1      -5.593   0.330   6.637  1.00  0.00     0.261 C 
BRANCH  42  43
ATOM     43  O   UNL     1      -5.400   1.522   5.853  1.00  0.00    -0.460 OA
BRANCH  43  44
ATOM     44  C   UNL     1      -5.152   2.696   6.474  1.00  0.00     0.338 C 
ATOM     45  O   UNL     1      -5.345   2.936   7.662  1.00  0.00    -0.246 OA
BRANCH  44  46
ATOM     46  C   UNL     1      -4.299   3.500   5.551  1.00  0.00     0.060 A 
ATOM     47  C   UNL     1      -4.480   3.443   4.164  1.00  0.00     0.016 A 
ATOM     48  C   UNL     1      -3.138   4.090   6.075  1.00  0.00     0.016 A 
ATOM     49  C   UNL     1      -3.461   3.888   3.319  1.00  0.00     0.010 A 
ATOM     50  C   UNL     1      -2.118   4.532   5.223  1.00  0.00     0.010 A 
ATOM     51  C   UNL     1      -2.260   4.407   3.840  1.00  0.00    -0.014 A 
BRANCH  51  52
ATOM     52  C   UNL     1      -1.307   4.995   2.880  1.00  0.00     0.031 A 
ATOM     53  C   UNL     1      -1.888   6.109   2.077  1.00  0.00     0.074 A 
ATOM     54  C   UNL     1       0.025   4.802   2.755  1.00  0.00     0.049 A 
ATOM     55  N   UNL     1      -2.037   6.182   0.794  1.00  0.00    -0.248 NA
ATOM     56  C   UNL     1      -2.436   7.248   2.828  1.00  0.00     0.031 C 
ATOM     57  C   UNL     1       0.918   4.063   3.645  1.00  0.00     0.029 A 
ATOM     58  N   UNL     1       0.889   5.362   1.839  1.00  0.00    -0.354 N 
ATOM     59  C   UNL     1      -2.535   7.458   0.559  1.00  0.00     0.074 A 
ATOM     60  C   UNL     1      -2.885   8.020   1.841  1.00  0.00     0.031 C 
ATOM     61  C   UNL     1       2.198   4.405   3.368  1.00  0.00     0.029 A 
ATOM     62  C   UNL     1       2.224   5.305   2.223  1.00  0.00     0.049 A 
ATOM     63  H   UNL     1       0.589   5.764   0.992  1.00  0.00     0.167 HD
ATOM     64  C   UNL     1      -2.455   8.079  -0.646  1.00  0.00     0.034 A 
ATOM     65  C   UNL     1       3.259   6.010   1.700  1.00  0.00     0.034 A 
ATOM     66  C   UNL     1      -2.055   7.221  -1.720  1.00  0.00     0.049 A 
ATOM     67  C   UNL     1       2.865   6.559   0.383  1.00  0.00     0.074 A 
ATOM     68  C   UNL     1      -2.531   6.066  -2.300  1.00  0.00     0.029 A 
ATOM     69  N   UNL     1      -0.796   7.414  -2.229  1.00  0.00    -0.354 N 
ATOM     70  N   UNL     1       2.854   5.894  -0.735  1.00  0.00    -0.248 NA
ATOM     71  C   UNL     1       2.311   7.901   0.315  1.00  0.00     0.031 C 
ATOM     72  C   UNL     1      -1.385   5.400  -2.820  1.00  0.00     0.029 A 
ATOM     73  C   UNL     1      -0.266   6.189  -2.546  1.00  0.00     0.049 A 
ATOM     74  H   UNL     1      -0.349   8.283  -2.347  1.00  0.00     0.167 HD
ATOM     75  C   UNL     1       1.933   6.550  -1.534  1.00  0.00     0.074 A 
ATOM     76  C   UNL     1       1.770   7.853  -0.902  1.00  0.00     0.031 C 
ATOM     77  C   UNL     1       1.150   5.873  -2.433  1.00  0.00     0.034 A 
BRANCH  64  78
ATOM     78  C   UNL     1      -2.431   9.572  -0.787  1.00  0.00     0.023 A 
ATOM     79  C   UNL     1      -2.891  10.150  -1.985  1.00  0.00     0.012 A 
ATOM     80  C   UNL     1      -1.748  10.403   0.129  1.00  0.00     0.148 A 
ATOM     81  C   UNL     1      -2.691  11.508  -2.253  1.00  0.00     0.002 A 
ATOM     82  C   UNL     1      -1.619  11.764  -0.109  1.00  0.00     0.091 A 
ATOM     83  F   UNL     1      -1.122   9.850   1.177  1.00  0.00    -0.205 F 
ATOM     84  C   UNL     1      -2.072  12.320  -1.307  1.00  0.00     0.022 A 
BRANCH  82  85
ATOM     85  S   UNL     1      -0.883  12.847   1.118  1.00  0.00     0.127 S 
ATOM     86  O   UNL     1       0.489  12.949   0.634  1.00  0.00    -0.237 OA
ATOM     87  O   UNL     1      -1.685  14.063   0.976  1.00  0.00    -0.237 OA
ATOM     88  O   UNL     1      -1.078  12.154   2.386  1.00  0.00    -0.744 OA
ENDBRANCH  82  85
ENDBRANCH  64  78
BRANCH  65  89
ATOM     89  C   UNL     1       4.567   6.421   2.274  1.00  0.00     0.023 A 
ATOM     90  C   UNL     1       5.606   6.808   1.395  1.00  0.00     0.012 A 
ATOM     91  C   UNL     1       4.712   6.734   3.640  1.00  0.00     0.148 A 
ATOM     92  C   UNL     1       6.708   7.540   1.846  1.00  0.00     0.002 A 
ATOM     93  C   UNL     1       5.821   7.450   4.088  1.00  0.00     0.091 A 
ATOM     94  F   UNL     1       3.720   6.428   4.487  1.00  0.00    -0.205 F 
ATOM     95  C   UNL     1       6.811   7.873   3.192  1.00  0.00     0.022 A 
BRANCH  93  96
ATOM     96  S   UNL     1       6.000   7.899   5.818  1.00  0.00     0.127 S 
ATOM     97  O   UNL     1       7.452   7.870   6.006  1.00  0.00    -0.237 OA
ATOM     98  O   UNL     1       5.405   9.230   5.853  1.00  0.00    -0.237 OA
ATOM     99  O   UNL     1       5.290   6.856   6.551  1.00  0.00    -0.744 OA
ENDBRANCH  93  96
ENDBRANCH  65  89
BRANCH  77 100
ATOM    100  C   UNL     1       1.658   4.583  -3.070  1.00  0.00     0.023 A 
ATOM    101  C   UNL     1       2.479   3.651  -2.405  1.00  0.00     0.012 A 
ATOM    102  C   UNL     1       1.269   4.261  -4.391  1.00  0.00     0.148 A 
ATOM    103  C   UNL     1       2.940   2.489  -3.031  1.00  0.00     0.002 A 
ATOM    104  C   UNL     1       1.653   3.055  -4.980  1.00  0.00     0.091 A 
ATOM    105  F   UNL     1       0.498   5.127  -5.068  1.00  0.00    -0.205 F 
ATOM    106  C   UNL     1       2.504   2.173  -4.308  1.00  0.00     0.022 A 
BRANCH 104 107
ATOM    107  S   UNL     1       1.066   2.580  -6.608  1.00  0.00     0.127 S 
ATOM    108  O   UNL     1       2.176   1.780  -7.132  1.00  0.00    -0.237 OA
ATOM    109  O   UNL     1      -0.136   1.813  -6.288  1.00  0.00    -0.237 OA
ATOM    110  O   UNL     1       0.853   3.832  -7.324  1.00  0.00    -0.744 OA
ENDBRANCH 104 107
ENDBRANCH  77 100
ENDBRANCH  51  52
ENDBRANCH  44  46
ENDBRANCH  43  44
ENDBRANCH  42  43
ENDBRANCH  41  42
ENDBRANCH  40  41
ENDBRANCH  39  40
ENDBRANCH  38  39
ENDBRANCH   1  38
TORSDOF 28
