REMARK SMILES C[C@H]1[C@H](C(=O)OCCOCCOCCOCCOC(=O)c2ccc(-c3c4nc(c(-c5cccc(S(=O)(=O)[O-])c5F)c5ccc([nH]5)c(-c5cccc(S(=O)(=O)[O-])c5F)c5nc(c(-c6cccc(S(=O)(=O)[O-])c6F)c6ccc3[nH]6)C=C5)C=C4)cc2)CCN1C(=O)NCc1ccncc1
REMARK SMILES IDX 12 1 11 2 10 3 9 4 8 5 7 6 6 7 4 8 5 9 3 10 1 11 2 12 86 13
REMARK SMILES IDX 84 14 85 15 87 16 88 17 89 18 90 20 91 21 92 22 96 23 93 24
REMARK SMILES IDX 95 25 94 26 13 27 14 28 15 29 16 30 17 31 18 32 19 33 20 34
REMARK SMILES IDX 21 35 22 36 83 37 23 38 82 39 24 40 25 41 26 42 76 43 27 44
REMARK SMILES IDX 81 45 75 46 77 47 28 48 80 49 74 50 73 51 29 53 61 54 41 55
REMARK SMILES IDX 60 56 42 57 45 58 59 59 78 60 43 61 44 62 58 64 79 65 46 66
REMARK SMILES IDX 30 67 31 68 39 69 32 70 34 71 40 72 33 73 35 74 36 75 37 76
REMARK SMILES IDX 38 77 62 78 63 79 71 80 64 81 66 82 72 83 65 84 67 85 68 86
REMARK SMILES IDX 69 87 70 88 47 89 48 90 56 91 49 92 51 93 57 94 50 95 52 96
REMARK SMILES IDX 53 97 54 98 55 99
REMARK H PARENT 89 19 77 52 45 63
REMARK Flexibility Score: inf
ROOT
ATOM      1  O   UNL     1       1.546   2.254   3.267  1.00  0.00    -0.377 OA
ENDROOT
BRANCH   1   2
ATOM      2  C   UNL     1       1.986   2.549   1.959  1.00  0.00     0.188 C 
BRANCH   2   3
ATOM      3  C   UNL     1       1.543   3.908   1.394  1.00  0.00     0.188 C 
BRANCH   3   4
ATOM      4  O   UNL     1       0.732   4.794   2.151  1.00  0.00    -0.376 OA
BRANCH   4   5
ATOM      5  C   UNL     1      -0.249   4.293   3.046  1.00  0.00     0.202 C 
BRANCH   5   6
ATOM      6  C   UNL     1      -1.311   3.283   2.574  1.00  0.00     0.261 C 
BRANCH   6   7
ATOM      7  O   UNL     1      -0.868   2.158   1.786  1.00  0.00    -0.463 OA
BRANCH   7   8
ATOM      8  C   UNL     1      -1.150   2.219   0.463  1.00  0.00     0.311 C 
ATOM      9  O   UNL     1      -1.632   3.200  -0.095  1.00  0.00    -0.252 OA
BRANCH   8  10
ATOM     10  C   UNL     1      -0.921   0.927  -0.297  1.00  0.00     0.123 C 
ATOM     11  C   UNL     1       1.378   0.105  -0.888  1.00  0.00     0.032 C 
ATOM     12  C   UNL     1       0.209  -0.059   0.100  1.00  0.00     0.098 C 
ATOM     13  N   UNL     1      -0.382  -1.399  -0.034  1.00  0.00    -0.321 N 
ATOM     14  C   UNL     1      -2.191   0.089  -0.242  1.00  0.00     0.039 C 
ATOM     15  C   UNL     1      -1.708  -1.293  -0.618  1.00  0.00     0.122 C 
BRANCH  13  16
ATOM     16  C   UNL     1       0.060  -2.639   0.298  1.00  0.00     0.317 C 
ATOM     17  O   UNL     1      -0.604  -3.644   0.017  1.00  0.00    -0.249 OA
ATOM     18  N   UNL     1       1.215  -2.895   0.921  1.00  0.00    -0.334 N 
ATOM     19  H   UNL     1       1.334  -3.864   1.052  1.00  0.00     0.165 HD
BRANCH  18  20
ATOM     20  C   UNL     1       2.340  -2.165   1.459  1.00  0.00     0.153 C 
BRANCH  20  21
ATOM     21  C   UNL     1       2.451  -2.359   2.944  1.00  0.00    -0.026 A 
ATOM     22  C   UNL     1       2.863  -3.576   3.498  1.00  0.00     0.025 A 
ATOM     23  C   UNL     1       2.093  -1.321   3.805  1.00  0.00     0.025 A 
ATOM     24  C   UNL     1       2.904  -3.695   4.878  1.00  0.00     0.111 A 
ATOM     25  C   UNL     1       2.160  -1.539   5.167  1.00  0.00     0.111 A 
ATOM     26  N   UNL     1       2.575  -2.697   5.720  1.00  0.00    -0.265 NA
ENDBRANCH  20  21
ENDBRANCH  18  20
ENDBRANCH  13  16
ENDBRANCH   8  10
ENDBRANCH   7   8
ENDBRANCH   6   7
ENDBRANCH   5   6
ENDBRANCH   4   5
ENDBRANCH   3   4
ENDBRANCH   2   3
ENDBRANCH   1   2
BRANCH   1  27
ATOM     27  C   UNL     1       2.445   2.497   4.341  1.00  0.00     0.188 C 
BRANCH  27  28
ATOM     28  C   UNL     1       3.393   3.700   4.238  1.00  0.00     0.188 C 
BRANCH  28  29
ATOM     29  O   UNL     1       4.172   3.723   3.043  1.00  0.00    -0.376 OA
BRANCH  29  30
ATOM     30  C   UNL     1       5.500   3.213   3.113  1.00  0.00     0.202 C 
BRANCH  30  31
ATOM     31  C   UNL     1       5.624   1.684   3.190  1.00  0.00     0.261 C 
BRANCH  31  32
ATOM     32  O   UNL     1       5.157   1.091   4.409  1.00  0.00    -0.460 OA
BRANCH  32  33
ATOM     33  C   UNL     1       5.720   1.509   5.562  1.00  0.00     0.338 C 
ATOM     34  O   UNL     1       6.625   2.313   5.694  1.00  0.00    -0.246 OA
BRANCH  33  35
ATOM     35  C   UNL     1       4.928   0.946   6.666  1.00  0.00     0.060 A 
ATOM     36  C   UNL     1       4.257   1.811   7.537  1.00  0.00     0.016 A 
ATOM     37  C   UNL     1       4.854  -0.436   6.833  1.00  0.00     0.016 A 
ATOM     38  C   UNL     1       3.541   1.287   8.615  1.00  0.00     0.010 A 
ATOM     39  C   UNL     1       4.130  -0.955   7.907  1.00  0.00     0.010 A 
ATOM     40  C   UNL     1       3.510  -0.098   8.830  1.00  0.00    -0.014 A 
BRANCH  40  41
ATOM     41  C   UNL     1       3.045  -0.634  10.132  1.00  0.00     0.031 A 
ATOM     42  C   UNL     1       4.090  -1.079  11.122  1.00  0.00     0.074 A 
ATOM     43  C   UNL     1       1.738  -0.722  10.444  1.00  0.00     0.049 A 
ATOM     44  N   UNL     1       3.942  -1.534  12.338  1.00  0.00    -0.248 NA
ATOM     45  C   UNL     1       5.493  -1.013  10.674  1.00  0.00     0.031 C 
ATOM     46  C   UNL     1       0.626  -0.374   9.562  1.00  0.00     0.029 A 
ATOM     47  N   UNL     1       1.130  -1.149  11.598  1.00  0.00    -0.354 N 
ATOM     48  C   UNL     1       5.224  -1.835  12.784  1.00  0.00     0.074 A 
ATOM     49  C   UNL     1       6.133  -1.553  11.697  1.00  0.00     0.031 C 
ATOM     50  C   UNL     1      -0.532  -0.607  10.207  1.00  0.00     0.029 A 
ATOM     51  C   UNL     1      -0.243  -1.123  11.545  1.00  0.00     0.049 A 
ATOM     52  H   UNL     1       1.632  -1.447  12.392  1.00  0.00     0.167 HD
ATOM     53  C   UNL     1       5.622  -2.269  14.002  1.00  0.00     0.034 A 
ATOM     54  C   UNL     1      -1.157  -1.471  12.474  1.00  0.00     0.034 A 
ATOM     55  C   UNL     1       4.730  -2.511  15.098  1.00  0.00     0.049 A 
ATOM     56  C   UNL     1      -0.687  -1.927  13.835  1.00  0.00     0.074 A 
ATOM     57  C   UNL     1       5.038  -2.892  16.390  1.00  0.00     0.029 A 
ATOM     58  N   UNL     1       3.351  -2.402  15.027  1.00  0.00    -0.354 N 
ATOM     59  N   UNL     1       0.536  -2.049  14.294  1.00  0.00    -0.248 NA
ATOM     60  C   UNL     1      -1.728  -2.249  14.824  1.00  0.00     0.031 C 
ATOM     61  C   UNL     1       3.841  -3.027  17.100  1.00  0.00     0.029 A 
ATOM     62  C   UNL     1       2.791  -2.707  16.254  1.00  0.00     0.049 A 
ATOM     63  H   UNL     1       2.845  -2.144  14.223  1.00  0.00     0.167 HD
ATOM     64  C   UNL     1       0.410  -2.416  15.631  1.00  0.00     0.074 A 
ATOM     65  C   UNL     1      -1.008  -2.476  15.915  1.00  0.00     0.031 C 
ATOM     66  C   UNL     1       1.379  -2.692  16.540  1.00  0.00     0.034 A 
BRANCH  53  67
ATOM     67  C   UNL     1       7.100  -2.456  14.213  1.00  0.00     0.023 A 
ATOM     68  C   UNL     1       7.939  -1.325  14.291  1.00  0.00     0.012 A 
ATOM     69  C   UNL     1       7.656  -3.742  14.345  1.00  0.00     0.148 A 
ATOM     70  C   UNL     1       9.315  -1.471  14.452  1.00  0.00     0.002 A 
ATOM     71  C   UNL     1       9.023  -3.878  14.554  1.00  0.00     0.091 A 
ATOM     72  F   UNL     1       6.846  -4.804  14.240  1.00  0.00    -0.205 F 
ATOM     73  C   UNL     1       9.855  -2.746  14.594  1.00  0.00     0.022 A 
BRANCH  71  74
ATOM     74  S   UNL     1       9.806  -5.471  14.824  1.00  0.00     0.127 S 
ATOM     75  O   UNL     1      10.553  -5.647  13.579  1.00  0.00    -0.237 OA
ATOM     76  O   UNL     1      10.635  -5.210  16.001  1.00  0.00    -0.237 OA
ATOM     77  O   UNL     1       8.723  -6.419  15.043  1.00  0.00    -0.744 OA
ENDBRANCH  71  74
ENDBRANCH  53  67
BRANCH  54  78
ATOM     78  C   UNL     1      -2.615  -1.329  12.193  1.00  0.00     0.023 A 
ATOM     79  C   UNL     1      -3.356  -0.341  12.872  1.00  0.00     0.012 A 
ATOM     80  C   UNL     1      -3.275  -2.174  11.280  1.00  0.00     0.148 A 
ATOM     81  C   UNL     1      -4.734  -0.225  12.682  1.00  0.00     0.002 A 
ATOM     82  C   UNL     1      -4.639  -2.020  11.057  1.00  0.00     0.091 A 
ATOM     83  F   UNL     1      -2.557  -3.115  10.653  1.00  0.00    -0.205 F 
ATOM     84  C   UNL     1      -5.374  -1.060  11.771  1.00  0.00     0.022 A 
BRANCH  82  85
ATOM     85  S   UNL     1      -5.534  -2.973   9.826  1.00  0.00     0.127 S 
ATOM     86  O   UNL     1      -6.388  -3.815  10.661  1.00  0.00    -0.237 OA
ATOM     87  O   UNL     1      -6.237  -1.923   9.087  1.00  0.00    -0.237 OA
ATOM     88  O   UNL     1      -4.517  -3.674   9.055  1.00  0.00    -0.744 OA
ENDBRANCH  82  85
ENDBRANCH  54  78
BRANCH  66  89
ATOM     89  C   UNL     1       0.954  -3.034  17.945  1.00  0.00     0.023 A 
ATOM     90  C   UNL     1       0.346  -4.276  18.214  1.00  0.00     0.012 A 
ATOM     91  C   UNL     1       1.237  -2.159  19.012  1.00  0.00     0.148 A 
ATOM     92  C   UNL     1      -0.006  -4.626  19.517  1.00  0.00     0.002 A 
ATOM     93  C   UNL     1       0.930  -2.535  20.314  1.00  0.00     0.091 A 
ATOM     94  F   UNL     1       1.800  -0.973  18.737  1.00  0.00    -0.205 F 
ATOM     95  C   UNL     1       0.297  -3.762  20.568  1.00  0.00     0.022 A 
BRANCH  93  96
ATOM     96  S   UNL     1       1.382  -1.529  21.733  1.00  0.00     0.127 S 
ATOM     97  O   UNL     1       0.102  -0.920  22.088  1.00  0.00    -0.237 OA
ATOM     98  O   UNL     1       1.867  -2.529  22.686  1.00  0.00    -0.237 OA
ATOM     99  O   UNL     1       2.407  -0.609  21.256  1.00  0.00    -0.744 OA
ENDBRANCH  93  96
ENDBRANCH  66  89
ENDBRANCH  40  41
ENDBRANCH  33  35
ENDBRANCH  32  33
ENDBRANCH  31  32
ENDBRANCH  30  31
ENDBRANCH  29  30
ENDBRANCH  28  29
ENDBRANCH  27  28
ENDBRANCH   1  27
TORSDOF 26
