REMARK SMILES COc1c[nH]c(C[N@H+]2CCC[C@@H](c3ccc(C(=O)OCCOCCOCCOCCOC(=O)c4ccc(-c5c6nc(c(-c7cccc(S(=O)(=O)[O-])c7F)c7ccc([nH]7)c(-c7cccc(S(=O)(=O)[O-])c7F)c7nc(c(-c8cccc(S(=O)(=O)[O-])c8F)c8ccc5[nH]8)C=C7)C=C6)cc4)cc3)C2)cc1=O
REMARK SMILES IDX 24 1 23 2 22 3 21 4 20 5 19 6 17 7 18 8 16 9 13 10 14 11
REMARK SMILES IDX 98 12 15 13 97 14 12 15 8 16 9 17 99 18 10 20 11 21 7 22
REMARK SMILES IDX 6 23 3 24 4 25 101 26 5 27 100 28 102 29 2 31 1 32 25 33
REMARK SMILES IDX 26 34 27 35 28 36 29 37 30 38 31 39 32 40 33 41 34 42 35 43
REMARK SMILES IDX 96 44 36 45 95 46 37 47 38 48 39 49 89 50 40 51 94 52 88 53
REMARK SMILES IDX 90 54 41 55 93 56 87 57 86 58 42 60 74 61 54 62 73 63 55 64
REMARK SMILES IDX 58 65 72 66 91 67 56 68 57 69 71 71 92 72 59 73 43 74 44 75
REMARK SMILES IDX 52 76 45 77 47 78 53 79 46 80 48 81 49 82 50 83 51 84 75 85
REMARK SMILES IDX 76 86 84 87 77 88 79 89 85 90 78 91 80 92 81 93 82 94 83 95
REMARK SMILES IDX 60 96 61 97 69 98 62 99 64 100 70 101 63 102 65 103 66 104
REMARK SMILES IDX 67 105 68 106
REMARK H PARENT 8 19 5 30 90 59 58 70
REMARK Flexibility Score: inf
ROOT
ATOM      1  C   UNL     1      -5.635   7.650   5.714  1.00  0.00     0.188 C 
ENDROOT
BRANCH   1   2
ATOM      2  C   UNL     1      -6.379   6.919   4.577  1.00  0.00     0.188 C 
BRANCH   2   3
ATOM      3  O   UNL     1      -7.789   7.010   4.656  1.00  0.00    -0.376 OA
BRANCH   3   4
ATOM      4  C   UNL     1      -8.548   5.897   5.089  1.00  0.00     0.202 C 
BRANCH   4   5
ATOM      5  C   UNL     1      -8.217   5.167   6.401  1.00  0.00     0.261 C 
BRANCH   5   6
ATOM      6  O   UNL     1      -6.832   5.043   6.730  1.00  0.00    -0.460 OA
BRANCH   6   7
ATOM      7  C   UNL     1      -6.131   4.091   6.083  1.00  0.00     0.338 C 
ATOM      8  O   UNL     1      -6.550   3.313   5.243  1.00  0.00    -0.246 OA
BRANCH   7   9
ATOM      9  C   UNL     1      -4.696   4.304   6.378  1.00  0.00     0.060 A 
ATOM     10  C   UNL     1      -1.950   4.655   6.827  1.00  0.00    -0.039 A 
ATOM     11  C   UNL     1      -2.450   4.513   5.520  1.00  0.00     0.005 A 
ATOM     12  C   UNL     1      -2.859   4.728   7.894  1.00  0.00     0.005 A 
ATOM     13  C   UNL     1      -3.808   4.303   5.299  1.00  0.00     0.016 A 
ATOM     14  C   UNL     1      -4.231   4.567   7.670  1.00  0.00     0.016 A 
BRANCH  10  15
ATOM     15  C   UNL     1      -0.455   4.522   7.103  1.00  0.00     0.074 C 
ATOM     16  N   UNL     1       1.400   2.823   6.709  1.00  0.00    -0.329 N 
ATOM     17  C   UNL     1       2.203   3.855   6.043  1.00  0.00     0.262 C 
ATOM     18  C   UNL     1      -0.031   3.118   6.616  1.00  0.00     0.270 C 
ATOM     19  H   UNL     1       1.657   2.844   7.696  1.00  0.00     0.348 HD
ATOM     20  C   UNL     1       1.890   5.254   6.587  1.00  0.00     0.062 C 
ATOM     21  C   UNL     1       0.407   5.600   6.436  1.00  0.00     0.020 C 
BRANCH  16  22
ATOM     22  C   UNL     1       1.713   1.456   6.231  1.00  0.00     0.317 C 
BRANCH  22  23
ATOM     23  C   UNL     1       1.512   1.177   4.740  1.00  0.00     0.074 A 
ATOM     24  C   UNL     1       0.912   0.975   1.951  1.00  0.00     0.182 A 
ATOM     25  C   UNL     1      -0.035   1.079   2.893  1.00  0.00     0.133 A 
ATOM     26  C   UNL     1       2.330   0.861   2.449  1.00  0.00     0.223 A 
ATOM     27  N   UNL     1       0.226   1.097   4.236  1.00  0.00    -0.357 N 
ATOM     28  C   UNL     1       2.564   1.025   3.914  1.00  0.00     0.083 A 
ATOM     29  O   UNL     1       3.288   0.668   1.704  1.00  0.00    -0.286 OA
ATOM     30  H   UNL     1      -0.529   1.052   4.866  1.00  0.00     0.166 HD
BRANCH  24  31
ATOM     31  O   UNL     1       0.586   1.060   0.612  1.00  0.00    -0.491 OA
ATOM     32  C   UNL     1       1.062  -0.044  -0.148  1.00  0.00     0.278 C 
ENDBRANCH  24  31
ENDBRANCH  22  23
ENDBRANCH  16  22
ENDBRANCH  10  15
ENDBRANCH   7   9
ENDBRANCH   6   7
ENDBRANCH   5   6
ENDBRANCH   4   5
ENDBRANCH   3   4
ENDBRANCH   2   3
ENDBRANCH   1   2
BRANCH   1  33
ATOM     33  O   UNL     1      -6.369   8.069   6.853  1.00  0.00    -0.377 OA
BRANCH  33  34
ATOM     34  C   UNL     1      -7.562   8.833   6.699  1.00  0.00     0.188 C 
BRANCH  34  35
ATOM     35  C   UNL     1      -7.864   9.636   5.411  1.00  0.00     0.188 C 
BRANCH  35  36
ATOM     36  O   UNL     1      -6.783   9.741   4.498  1.00  0.00    -0.376 OA
BRANCH  36  37
ATOM     37  C   UNL     1      -6.126  10.991   4.398  1.00  0.00     0.202 C 
BRANCH  37  38
ATOM     38  C   UNL     1      -5.401  11.497   5.652  1.00  0.00     0.261 C 
BRANCH  38  39
ATOM     39  O   UNL     1      -6.195  11.589   6.844  1.00  0.00    -0.460 OA
BRANCH  39  40
ATOM     40  C   UNL     1      -7.202  12.488   6.841  1.00  0.00     0.338 C 
ATOM     41  O   UNL     1      -7.505  13.247   5.931  1.00  0.00    -0.246 OA
BRANCH  40  42
ATOM     42  C   UNL     1      -8.012  12.269   8.055  1.00  0.00     0.060 A 
ATOM     43  C   UNL     1      -9.364  11.930   7.913  1.00  0.00     0.016 A 
ATOM     44  C   UNL     1      -7.442  12.392   9.325  1.00  0.00     0.016 A 
ATOM     45  C   UNL     1     -10.159  11.755   9.044  1.00  0.00     0.010 A 
ATOM     46  C   UNL     1      -8.246  12.232  10.457  1.00  0.00     0.010 A 
ATOM     47  C   UNL     1      -9.616  11.950  10.321  1.00  0.00    -0.014 A 
BRANCH  47  48
ATOM     48  C   UNL     1     -10.526  12.019  11.491  1.00  0.00     0.031 A 
ATOM     49  C   UNL     1     -10.912  13.370  12.031  1.00  0.00     0.074 A 
ATOM     50  C   UNL     1     -11.034  10.902  12.041  1.00  0.00     0.049 A 
ATOM     51  N   UNL     1     -11.726  13.669  13.009  1.00  0.00    -0.248 NA
ATOM     52  C   UNL     1     -10.299  14.540  11.381  1.00  0.00     0.031 C 
ATOM     53  C   UNL     1     -10.735   9.537  11.610  1.00  0.00     0.029 A 
ATOM     54  N   UNL     1     -11.900  10.742  13.093  1.00  0.00    -0.354 N 
ATOM     55  C   UNL     1     -11.706  15.055  13.109  1.00  0.00     0.074 A 
ATOM     56  C   UNL     1     -10.785  15.538  12.103  1.00  0.00     0.031 C 
ATOM     57  C   UNL     1     -11.395   8.676  12.403  1.00  0.00     0.029 A 
ATOM     58  C   UNL     1     -12.144   9.427  13.410  1.00  0.00     0.049 A 
ATOM     59  H   UNL     1     -12.308  11.497  13.575  1.00  0.00     0.167 HD
ATOM     60  C   UNL     1     -12.400  15.856  13.951  1.00  0.00     0.034 A 
ATOM     61  C   UNL     1     -12.875   8.891  14.408  1.00  0.00     0.034 A 
ATOM     62  C   UNL     1     -13.319  15.375  14.947  1.00  0.00     0.049 A 
ATOM     63  C   UNL     1     -13.625   9.804  15.344  1.00  0.00     0.074 A 
ATOM     64  C   UNL     1     -14.104  16.108  15.819  1.00  0.00     0.029 A 
ATOM     65  N   UNL     1     -13.563  14.038  15.220  1.00  0.00    -0.354 N 
ATOM     66  N   UNL     1     -13.685  11.114  15.351  1.00  0.00    -0.248 NA
ATOM     67  C   UNL     1     -14.441   9.162  16.385  1.00  0.00     0.031 C 
ATOM     68  C   UNL     1     -14.790  15.214  16.648  1.00  0.00     0.029 A 
ATOM     69  C   UNL     1     -14.475  13.924  16.256  1.00  0.00     0.049 A 
ATOM     70  H   UNL     1     -13.149  13.280  14.747  1.00  0.00     0.167 HD
ATOM     71  C   UNL     1     -14.577  11.451  16.365  1.00  0.00     0.074 A 
ATOM     72  C   UNL     1     -15.046  10.205  16.936  1.00  0.00     0.031 C 
ATOM     73  C   UNL     1     -14.968  12.679  16.789  1.00  0.00     0.034 A 
BRANCH  60  74
ATOM     74  C   UNL     1     -12.195  17.345  13.828  1.00  0.00     0.023 A 
ATOM     75  C   UNL     1     -12.696  18.035  12.705  1.00  0.00     0.012 A 
ATOM     76  C   UNL     1     -11.552  18.067  14.852  1.00  0.00     0.148 A 
ATOM     77  C   UNL     1     -12.527  19.414  12.586  1.00  0.00     0.002 A 
ATOM     78  C   UNL     1     -11.432  19.448  14.750  1.00  0.00     0.091 A 
ATOM     79  F   UNL     1     -11.063  17.391  15.901  1.00  0.00    -0.205 F 
ATOM     80  C   UNL     1     -11.907  20.121  13.613  1.00  0.00     0.022 A 
BRANCH  78  81
ATOM     81  S   UNL     1     -10.724  20.457  16.056  1.00  0.00     0.127 S 
ATOM     82  O   UNL     1      -9.483  20.916  15.434  1.00  0.00    -0.237 OA
ATOM     83  O   UNL     1     -11.741  21.495  16.225  1.00  0.00    -0.237 OA
ATOM     84  O   UNL     1     -10.557  19.575  17.202  1.00  0.00    -0.744 OA
ENDBRANCH  78  81
ENDBRANCH  60  74
BRANCH  61  85
ATOM     85  C   UNL     1     -12.961   7.411  14.558  1.00  0.00     0.023 A 
ATOM     86  C   UNL     1     -14.182   6.750  14.319  1.00  0.00     0.012 A 
ATOM     87  C   UNL     1     -11.834   6.655  14.932  1.00  0.00     0.148 A 
ATOM     88  C   UNL     1     -14.287   5.368  14.484  1.00  0.00     0.002 A 
ATOM     89  C   UNL     1     -11.929   5.273  15.036  1.00  0.00     0.091 A 
ATOM     90  F   UNL     1     -10.686   7.305  15.170  1.00  0.00    -0.205 F 
ATOM     91  C   UNL     1     -13.159   4.629  14.832  1.00  0.00     0.022 A 
BRANCH  89  92
ATOM     92  S   UNL     1     -10.502   4.229  15.351  1.00  0.00     0.127 S 
ATOM     93  O   UNL     1     -10.804   3.703  16.680  1.00  0.00    -0.237 OA
ATOM     94  O   UNL     1     -10.600   3.255  14.264  1.00  0.00    -0.237 OA
ATOM     95  O   UNL     1      -9.344   5.108  15.269  1.00  0.00    -0.744 OA
ENDBRANCH  89  92
ENDBRANCH  61  85
BRANCH  73  96
ATOM     96  C   UNL     1     -15.998  12.743  17.890  1.00  0.00     0.023 A 
ATOM     97  C   UNL     1     -15.667  12.345  19.201  1.00  0.00     0.012 A 
ATOM     98  C   UNL     1     -17.291  13.241  17.627  1.00  0.00     0.148 A 
ATOM     99  C   UNL     1     -16.620  12.393  20.219  1.00  0.00     0.002 A 
ATOM    100  C   UNL     1     -18.216  13.340  18.659  1.00  0.00     0.091 A 
ATOM    101  F   UNL     1     -17.595  13.601  16.372  1.00  0.00    -0.205 F 
ATOM    102  C   UNL     1     -17.890  12.899  19.951  1.00  0.00     0.022 A 
BRANCH 100 103
ATOM    103  S   UNL     1     -19.840  14.073  18.425  1.00  0.00     0.127 S 
ATOM    104  O   UNL     1     -20.706  12.896  18.463  1.00  0.00    -0.237 OA
ATOM    105  O   UNL     1     -19.954  14.951  19.591  1.00  0.00    -0.237 OA
ATOM    106  O   UNL     1     -19.785  14.770  17.148  1.00  0.00    -0.744 OA
ENDBRANCH 100 103
ENDBRANCH  73  96
ENDBRANCH  47  48
ENDBRANCH  40  42
ENDBRANCH  39  40
ENDBRANCH  38  39
ENDBRANCH  37  38
ENDBRANCH  36  37
ENDBRANCH  35  36
ENDBRANCH  34  35
ENDBRANCH  33  34
ENDBRANCH   1  33
TORSDOF 27
