REMARK SMILES COc1cc(/C=N/NC(=O)c2cc(Cl)ccc2O)ccc1OCC(=O)OCCOCCOCCOCCOC(=O)c1ccc(-c2c3nc(c(-c4cccc(S(=O)(=O)[O-])c4F)c4ccc([nH]4)c(-c4cccc(S(=O)(=O)[O-])c4F)c4nc(c(-c5cccc(S(=O)(=O)[O-])c5F)c5ccc2[nH]5)C=C4)C=C3)cc1
REMARK SMILES IDX 30 1 29 2 28 3 27 4 26 5 24 6 25 7 23 8 22 9 21 10 3 11 4 12
REMARK SMILES IDX 5 13 20 14 19 15 2 16 1 17 6 18 7 19 8 20 9 21 10 23 11 24
REMARK SMILES IDX 12 25 17 26 13 27 16 28 14 29 15 30 18 31 31 33 32 34 33 35
REMARK SMILES IDX 34 36 35 37 36 38 37 39 38 40 39 41 40 42 41 43 42 44 103 45
REMARK SMILES IDX 43 46 102 47 44 48 45 49 46 50 96 51 47 52 101 53 95 54
REMARK SMILES IDX 97 55 48 56 100 57 94 58 93 59 49 61 81 62 61 63 80 64 62 65
REMARK SMILES IDX 65 66 79 67 98 68 63 69 64 70 78 72 99 73 66 74 50 75 51 76
REMARK SMILES IDX 59 77 52 78 54 79 60 80 53 81 55 82 56 83 57 84 58 85 82 86
REMARK SMILES IDX 83 87 91 88 84 89 86 90 92 91 85 92 87 93 88 94 89 95 90 96
REMARK SMILES IDX 67 97 68 98 76 99 69 100 71 101 77 102 70 103 72 104 73 105
REMARK SMILES IDX 74 106 75 107
REMARK H PARENT 8 22 18 32 97 60 65 71
REMARK Flexibility Score: inf
ROOT
ATOM      1  C   UNL     1      -0.006  -1.591  -0.547  1.00  0.00     0.188 C 
ENDROOT
BRANCH   1   2
ATOM      2  O   UNL     1      -0.548  -0.946  -1.694  1.00  0.00    -0.376 OA
BRANCH   2   3
ATOM      3  C   UNL     1       0.051  -1.176  -2.956  1.00  0.00     0.202 C 
BRANCH   3   4
ATOM      4  C   UNL     1       1.518  -0.762  -3.150  1.00  0.00     0.261 C 
BRANCH   4   5
ATOM      5  O   UNL     1       2.349  -0.807  -1.974  1.00  0.00    -0.461 OA
BRANCH   5   6
ATOM      6  C   UNL     1       2.517   0.362  -1.301  1.00  0.00     0.344 C 
ATOM      7  O   UNL     1       2.013   1.433  -1.627  1.00  0.00    -0.248 OA
BRANCH   6   8
ATOM      8  C   UNL     1       3.490   0.226  -0.110  1.00  0.00     0.352 C 
BRANCH   8   9
ATOM      9  O   UNL     1       3.509  -0.773   0.875  1.00  0.00    -0.478 OA
BRANCH   9  10
ATOM     10  C   UNL     1       2.568  -1.134   1.780  1.00  0.00     0.162 A 
ATOM     11  C   UNL     1       1.505  -0.476   2.414  1.00  0.00     0.161 A 
ATOM     12  C   UNL     1       0.650  -1.214   3.282  1.00  0.00     0.060 A 
ATOM     13  C   UNL     1       0.878  -2.565   3.562  1.00  0.00    -0.002 A 
ATOM     14  C   UNL     1       2.820  -2.473   2.159  1.00  0.00     0.051 A 
ATOM     15  C   UNL     1       2.000  -3.185   3.034  1.00  0.00     0.014 A 
BRANCH  11  16
ATOM     16  O   UNL     1       1.283   0.870   2.511  1.00  0.00    -0.493 OA
ATOM     17  C   UNL     1       1.033   1.629   1.343  1.00  0.00     0.278 C 
ENDBRANCH  11  16
BRANCH  13  18
ATOM     18  C   UNL     1      -0.046  -3.406   4.357  1.00  0.00     0.141 C 
ATOM     19  N   UNL     1      -1.012  -2.940   5.084  1.00  0.00    -0.180 NA
BRANCH  19  20
ATOM     20  N   UNL     1      -1.863  -3.807   5.729  1.00  0.00    -0.243 N 
ATOM     21  C   UNL     1      -1.709  -5.089   6.236  1.00  0.00     0.275 C 
ATOM     22  H   UNL     1      -2.768  -3.442   5.858  1.00  0.00     0.194 HD
ATOM     23  O   UNL     1      -2.701  -5.727   6.590  1.00  0.00    -0.267 OA
BRANCH  21  24
ATOM     24  C   UNL     1      -0.379  -5.710   6.397  1.00  0.00     0.084 A 
ATOM     25  C   UNL     1      -0.259  -7.069   6.070  1.00  0.00     0.038 A 
ATOM     26  C   UNL     1       0.742  -5.007   6.854  1.00  0.00     0.128 A 
ATOM     27  C   UNL     1       0.990  -7.684   6.122  1.00  0.00     0.042 A 
ATOM     28  C   UNL     1       1.989  -5.626   6.894  1.00  0.00     0.048 A 
ATOM     29  Cl  UNL     1       1.146  -9.340   5.684  1.00  0.00    -0.084 Cl
ATOM     30  C   UNL     1       2.118  -6.963   6.509  1.00  0.00     0.024 A 
BRANCH  26  31
ATOM     31  O   UNL     1       0.703  -3.699   7.252  1.00  0.00    -0.507 OA
ATOM     32  H   UNL     1      -0.109  -3.232   7.246  1.00  0.00     0.293 HD
ENDBRANCH  26  31
ENDBRANCH  21  24
ENDBRANCH  19  20
ENDBRANCH  13  18
ENDBRANCH   9  10
ENDBRANCH   8   9
ENDBRANCH   6   8
ENDBRANCH   5   6
ENDBRANCH   4   5
ENDBRANCH   3   4
ENDBRANCH   2   3
ENDBRANCH   1   2
BRANCH   1  33
ATOM     33  C   UNL     1       0.798  -2.899  -0.642  1.00  0.00     0.188 C 
BRANCH  33  34
ATOM     34  O   UNL     1       0.499  -3.674  -1.787  1.00  0.00    -0.377 OA
BRANCH  34  35
ATOM     35  C   UNL     1      -0.364  -4.768  -1.535  1.00  0.00     0.188 C 
BRANCH  35  36
ATOM     36  C   UNL     1      -1.770  -4.370  -1.070  1.00  0.00     0.188 C 
BRANCH  36  37
ATOM     37  O   UNL     1      -1.762  -3.782   0.233  1.00  0.00    -0.376 OA
BRANCH  37  38
ATOM     38  C   UNL     1      -2.308  -4.561   1.290  1.00  0.00     0.202 C 
BRANCH  38  39
ATOM     39  C   UNL     1      -1.276  -5.485   1.938  1.00  0.00     0.261 C 
BRANCH  39  40
ATOM     40  O   UNL     1      -0.728  -6.503   1.099  1.00  0.00    -0.460 OA
BRANCH  40  41
ATOM     41  C   UNL     1      -1.575  -7.369   0.506  1.00  0.00     0.338 C 
ATOM     42  O   UNL     1      -2.775  -7.465   0.679  1.00  0.00    -0.246 OA
BRANCH  41  43
ATOM     43  C   UNL     1      -0.801  -7.979  -0.594  1.00  0.00     0.060 A 
ATOM     44  C   UNL     1      -1.334  -7.922  -1.887  1.00  0.00     0.016 A 
ATOM     45  C   UNL     1       0.501  -8.444  -0.374  1.00  0.00     0.016 A 
ATOM     46  C   UNL     1      -0.553  -8.316  -2.972  1.00  0.00     0.010 A 
ATOM     47  C   UNL     1       1.271  -8.861  -1.456  1.00  0.00     0.010 A 
ATOM     48  C   UNL     1       0.740  -8.810  -2.754  1.00  0.00    -0.014 A 
BRANCH  48  49
ATOM     49  C   UNL     1       1.452  -9.498  -3.849  1.00  0.00     0.031 A 
ATOM     50  C   UNL     1       1.215 -10.973  -3.996  1.00  0.00     0.074 A 
ATOM     51  C   UNL     1       2.314  -8.848  -4.649  1.00  0.00     0.049 A 
ATOM     52  N   UNL     1       1.727 -11.812  -4.852  1.00  0.00    -0.248 NA
ATOM     53  C   UNL     1       0.272 -11.582  -3.039  1.00  0.00     0.031 C 
ATOM     54  C   UNL     1       2.632  -7.423  -4.576  1.00  0.00     0.029 A 
ATOM     55  N   UNL     1       3.108  -9.321  -5.663  1.00  0.00    -0.354 N 
ATOM     56  C   UNL     1       1.186 -13.049  -4.527  1.00  0.00     0.074 A 
ATOM     57  C   UNL     1       0.313 -12.856  -3.392  1.00  0.00     0.031 C 
ATOM     58  C   UNL     1       3.588  -7.145  -5.480  1.00  0.00     0.029 A 
ATOM     59  C   UNL     1       3.960  -8.374  -6.181  1.00  0.00     0.049 A 
ATOM     60  H   UNL     1       3.072 -10.249  -5.989  1.00  0.00     0.167 HD
ATOM     61  C   UNL     1       1.390 -14.241  -5.130  1.00  0.00     0.034 A 
ATOM     62  C   UNL     1       4.943  -8.500  -7.096  1.00  0.00     0.034 A 
ATOM     63  C   UNL     1       2.268 -14.426  -6.248  1.00  0.00     0.049 A 
ATOM     64  C   UNL     1       5.177  -9.848  -7.732  1.00  0.00     0.074 A 
ATOM     65  C   UNL     1       2.503 -15.576  -6.975  1.00  0.00     0.029 A 
ATOM     66  N   UNL     1       3.084 -13.437  -6.777  1.00  0.00    -0.354 N 
ATOM     67  N   UNL     1       4.537 -10.977  -7.535  1.00  0.00    -0.248 NA
ATOM     68  C   UNL     1       6.249  -9.938  -8.734  1.00  0.00     0.031 C 
ATOM     69  C   UNL     1       3.490 -15.292  -7.924  1.00  0.00     0.029 A 
ATOM     70  C   UNL     1       3.848 -13.957  -7.804  1.00  0.00     0.049 A 
ATOM     71  H   UNL     1       3.113 -12.503  -6.467  1.00  0.00     0.167 HD
ATOM     72  C   UNL     1       5.113 -11.903  -8.398  1.00  0.00     0.074 A 
ATOM     73  C   UNL     1       6.137 -11.196  -9.140  1.00  0.00     0.031 C 
ATOM     74  C   UNL     1       4.835 -13.222  -8.553  1.00  0.00     0.034 A 
BRANCH  61  75
ATOM     75  C   UNL     1       0.640 -15.424  -4.586  1.00  0.00     0.023 A 
ATOM     76  C   UNL     1      -0.746 -15.537  -4.816  1.00  0.00     0.012 A 
ATOM     77  C   UNL     1       1.308 -16.427  -3.859  1.00  0.00     0.148 A 
ATOM     78  C   UNL     1      -1.463 -16.618  -4.304  1.00  0.00     0.002 A 
ATOM     79  C   UNL     1       0.594 -17.521  -3.388  1.00  0.00     0.091 A 
ATOM     80  F   UNL     1       2.619 -16.279  -3.622  1.00  0.00    -0.205 F 
ATOM     81  C   UNL     1      -0.791 -17.613  -3.600  1.00  0.00     0.022 A 
BRANCH  79  82
ATOM     82  S   UNL     1       1.379 -18.886  -2.526  1.00  0.00     0.127 S 
ATOM     83  O   UNL     1       0.891 -18.692  -1.161  1.00  0.00    -0.237 OA
ATOM     84  O   UNL     1       0.817 -20.048  -3.216  1.00  0.00    -0.237 OA
ATOM     85  O   UNL     1       2.812 -18.706  -2.709  1.00  0.00    -0.744 OA
ENDBRANCH  79  82
ENDBRANCH  61  75
BRANCH  62  86
ATOM     86  C   UNL     1       5.767  -7.316  -7.474  1.00  0.00     0.023 A 
ATOM     87  C   UNL     1       5.641  -6.758  -8.761  1.00  0.00     0.012 A 
ATOM     88  C   UNL     1       6.658  -6.726  -6.556  1.00  0.00     0.148 A 
ATOM     89  C   UNL     1       6.403  -5.649  -9.133  1.00  0.00     0.002 A 
ATOM     90  C   UNL     1       7.374  -5.589  -6.915  1.00  0.00     0.091 A 
ATOM     91  F   UNL     1       6.782  -7.284  -5.343  1.00  0.00    -0.205 F 
ATOM     92  C   UNL     1       7.260  -5.058  -8.208  1.00  0.00     0.022 A 
BRANCH  90  93
ATOM     93  S   UNL     1       8.402  -4.688  -5.748  1.00  0.00     0.127 S 
ATOM     94  O   UNL     1       9.743  -4.956  -6.261  1.00  0.00    -0.237 OA
ATOM     95  O   UNL     1       7.934  -3.313  -5.934  1.00  0.00    -0.237 OA
ATOM     96  O   UNL     1       8.100  -5.251  -4.439  1.00  0.00    -0.744 OA
ENDBRANCH  90  93
ENDBRANCH  62  86
BRANCH  74  97
ATOM     97  C   UNL     1       5.642 -13.996  -9.562  1.00  0.00     0.023 A 
ATOM     98  C   UNL     1       6.974 -14.344  -9.266  1.00  0.00     0.012 A 
ATOM     99  C   UNL     1       5.047 -14.472 -10.748  1.00  0.00     0.148 A 
ATOM    100  C   UNL     1       7.710 -15.138 -10.145  1.00  0.00     0.002 A 
ATOM    101  C   UNL     1       5.770 -15.303 -11.594  1.00  0.00     0.091 A 
ATOM    102  F   UNL     1       3.782 -14.117 -11.014  1.00  0.00    -0.205 F 
ATOM    103  C   UNL     1       7.104 -15.628 -11.300  1.00  0.00     0.022 A 
BRANCH 101 104
ATOM    104  S   UNL     1       5.045 -16.062 -13.052  1.00  0.00     0.127 S 
ATOM    105  O   UNL     1       5.733 -15.354 -14.130  1.00  0.00    -0.237 OA
ATOM    106  O   UNL     1       5.434 -17.464 -12.896  1.00  0.00    -0.237 OA
ATOM    107  O   UNL     1       3.612 -15.818 -12.963  1.00  0.00    -0.744 OA
ENDBRANCH 101 104
ENDBRANCH  74  97
ENDBRANCH  48  49
ENDBRANCH  41  43
ENDBRANCH  40  41
ENDBRANCH  39  40
ENDBRANCH  38  39
ENDBRANCH  37  38
ENDBRANCH  36  37
ENDBRANCH  35  36
ENDBRANCH  34  35
ENDBRANCH  33  34
ENDBRANCH   1  33
TORSDOF 30
