REMARK SMILES CCc1ncc(C[N@H+]2CCC[C@@H](c3cccc(C(=O)OCCOCCOCCOCCOC(=O)c4ccc(-c5c6nc(c(-c7cccc(S(=O)(=O)[O-])c7F)c7ccc([nH]7)c(-c7cccc(S(=O)(=O)[O-])c7F)c7nc(c(-c8cccc(S(=O)(=O)[O-])c8F)c8ccc5[nH]8)C=C7)C=C6)cc4)c3)C2)cn1
REMARK SMILES IDX 25 1 24 2 23 3 22 4 21 5 20 6 18 7 19 8 17 9 13 10 14 11
REMARK SMILES IDX 98 12 15 13 16 14 12 15 8 16 9 17 99 18 10 20 11 21 7 22
REMARK SMILES IDX 6 23 3 24 4 25 101 26 5 27 100 28 2 29 1 30 26 31 27 32
REMARK SMILES IDX 28 33 29 34 30 35 31 36 32 37 33 38 34 39 35 40 36 41 97 42
REMARK SMILES IDX 37 43 96 44 38 45 39 46 40 47 90 48 41 49 95 50 89 51 91 52
REMARK SMILES IDX 42 53 94 54 88 55 87 56 43 58 75 59 55 60 74 61 56 62 59 63
REMARK SMILES IDX 73 64 92 65 57 66 58 67 72 69 93 70 60 71 44 72 45 73 53 74
REMARK SMILES IDX 46 75 48 76 54 77 47 78 49 79 50 80 51 81 52 82 76 83 77 84
REMARK SMILES IDX 85 85 78 86 80 87 86 88 79 89 81 90 82 91 83 92 84 93 61 94
REMARK SMILES IDX 62 95 70 96 63 97 65 98 71 99 64 100 66 101 67 102 68 103
REMARK SMILES IDX 69 104
REMARK H PARENT 8 19 91 57 59 68
REMARK Flexibility Score: inf
ROOT
ATOM      1  C   UNL     1       3.424 -10.451  -1.411  1.00  0.00     0.188 C 
ENDROOT
BRANCH   1   2
ATOM      2  C   UNL     1       2.185 -11.161  -0.825  1.00  0.00     0.188 C 
BRANCH   2   3
ATOM      3  O   UNL     1       1.904 -12.414  -1.418  1.00  0.00    -0.376 OA
BRANCH   3   4
ATOM      4  C   UNL     1       0.802 -12.549  -2.296  1.00  0.00     0.202 C 
BRANCH   4   5
ATOM      5  C   UNL     1       0.634 -11.613  -3.504  1.00  0.00     0.261 C 
BRANCH   5   6
ATOM      6  O   UNL     1       1.014 -10.251  -3.306  1.00  0.00    -0.460 OA
BRANCH   6   7
ATOM      7  C   UNL     1       0.149  -9.444  -2.656  1.00  0.00     0.338 C 
ATOM      8  O   UNL     1      -0.951  -9.742  -2.225  1.00  0.00    -0.246 OA
BRANCH   7   9
ATOM      9  C   UNL     1       0.887  -8.203  -2.314  1.00  0.00     0.060 A 
ATOM     10  C   UNL     1       2.534  -6.487  -2.839  1.00  0.00    -0.038 A 
ATOM     11  C   UNL     1       2.431  -6.027  -1.514  1.00  0.00     0.004 A 
ATOM     12  C   UNL     1       1.763  -7.597  -3.226  1.00  0.00     0.020 A 
ATOM     13  C   UNL     1       1.565  -6.637  -0.605  1.00  0.00     0.001 A 
ATOM     14  C   UNL     1       0.779  -7.712  -1.008  1.00  0.00     0.016 A 
BRANCH  10  15
ATOM     15  C   UNL     1       3.294  -5.705  -3.906  1.00  0.00     0.074 C 
ATOM     16  N   UNL     1       2.928  -3.600  -5.281  1.00  0.00    -0.331 N 
ATOM     17  C   UNL     1       4.214  -3.067  -4.827  1.00  0.00     0.262 C 
ATOM     18  C   UNL     1       2.360  -4.554  -4.327  1.00  0.00     0.270 C 
ATOM     19  H   UNL     1       3.137  -4.111  -6.138  1.00  0.00     0.348 HD
ATOM     20  C   UNL     1       5.211  -4.193  -4.527  1.00  0.00     0.062 C 
ATOM     21  C   UNL     1       4.663  -5.158  -3.474  1.00  0.00     0.020 C 
BRANCH  16  22
ATOM     22  C   UNL     1       1.954  -2.561  -5.670  1.00  0.00     0.302 C 
BRANCH  22  23
ATOM     23  C   UNL     1       1.477  -1.650  -4.572  1.00  0.00     0.043 A 
ATOM     24  C   UNL     1       0.779  -0.096  -2.451  1.00  0.00     0.127 A 
ATOM     25  N   UNL     1       1.699   0.389  -3.307  1.00  0.00    -0.241 NA
ATOM     26  N   UNL     1       0.141  -1.270  -2.599  1.00  0.00    -0.241 NA
ATOM     27  C   UNL     1       2.020  -0.403  -4.353  1.00  0.00     0.124 A 
ATOM     28  C   UNL     1       0.501  -2.014  -3.664  1.00  0.00     0.124 A 
BRANCH  24  29
ATOM     29  C   UNL     1       0.476   0.705  -1.216  1.00  0.00     0.074 C 
ATOM     30  C   UNL     1       1.058   0.054   0.031  1.00  0.00     0.012 C 
ENDBRANCH  24  29
ENDBRANCH  22  23
ENDBRANCH  16  22
ENDBRANCH  10  15
ENDBRANCH   7   9
ENDBRANCH   6   7
ENDBRANCH   5   6
ENDBRANCH   4   5
ENDBRANCH   3   4
ENDBRANCH   2   3
ENDBRANCH   1   2
BRANCH   1  31
ATOM     31  O   UNL     1       3.961 -10.917  -2.637  1.00  0.00    -0.377 OA
BRANCH  31  32
ATOM     32  C   UNL     1       4.264 -12.299  -2.805  1.00  0.00     0.188 C 
BRANCH  32  33
ATOM     33  C   UNL     1       4.503 -13.240  -1.598  1.00  0.00     0.188 C 
BRANCH  33  34
ATOM     34  O   UNL     1       4.603 -12.595  -0.339  1.00  0.00    -0.376 OA
BRANCH  34  35
ATOM     35  C   UNL     1       5.883 -12.499   0.255  1.00  0.00     0.202 C 
BRANCH  35  36
ATOM     36  C   UNL     1       6.949 -11.690  -0.497  1.00  0.00     0.261 C 
BRANCH  36  37
ATOM     37  O   UNL     1       7.185 -12.068  -1.860  1.00  0.00    -0.460 OA
BRANCH  37  38
ATOM     38  C   UNL     1       7.710 -13.296  -2.077  1.00  0.00     0.338 C 
ATOM     39  O   UNL     1       8.010 -14.123  -1.243  1.00  0.00    -0.246 OA
BRANCH  38  40
ATOM     40  C   UNL     1       7.675 -13.536  -3.537  1.00  0.00     0.060 A 
ATOM     41  C   UNL     1       6.919 -14.607  -4.033  1.00  0.00     0.016 A 
ATOM     42  C   UNL     1       8.374 -12.697  -4.407  1.00  0.00     0.016 A 
ATOM     43  C   UNL     1       6.892 -14.863  -5.404  1.00  0.00     0.010 A 
ATOM     44  C   UNL     1       8.363 -12.968  -5.777  1.00  0.00     0.010 A 
ATOM     45  C   UNL     1       7.652 -14.074  -6.277  1.00  0.00    -0.014 A 
BRANCH  45  46
ATOM     46  C   UNL     1       7.861 -14.519  -7.675  1.00  0.00     0.031 A 
ATOM     47  C   UNL     1       9.145 -15.228  -8.013  1.00  0.00     0.074 A 
ATOM     48  C   UNL     1       6.936 -14.302  -8.626  1.00  0.00     0.049 A 
ATOM     49  N   UNL     1       9.566 -15.677  -9.165  1.00  0.00    -0.248 NA
ATOM     50  C   UNL     1      10.081 -15.457  -6.898  1.00  0.00     0.031 C 
ATOM     51  C   UNL     1       5.652 -13.635  -8.422  1.00  0.00     0.029 A 
ATOM     52  N   UNL     1       6.953 -14.602  -9.966  1.00  0.00    -0.354 N 
ATOM     53  C   UNL     1      10.827 -16.210  -8.924  1.00  0.00     0.074 A 
ATOM     54  C   UNL     1      11.107 -16.019  -7.518  1.00  0.00     0.031 C 
ATOM     55  C   UNL     1       5.015 -13.549  -9.603  1.00  0.00     0.029 A 
ATOM     56  C   UNL     1       5.858 -14.127 -10.649  1.00  0.00     0.049 A 
ATOM     57  H   UNL     1       7.679 -15.108 -10.397  1.00  0.00     0.167 HD
ATOM     58  C   UNL     1      11.672 -16.814  -9.791  1.00  0.00     0.034 A 
ATOM     59  C   UNL     1       5.584 -14.135 -11.969  1.00  0.00     0.034 A 
ATOM     60  C   UNL     1      11.388 -17.010 -11.186  1.00  0.00     0.049 A 
ATOM     61  C   UNL     1       6.556 -14.786 -12.920  1.00  0.00     0.074 A 
ATOM     62  C   UNL     1      12.159 -17.653 -12.138  1.00  0.00     0.029 A 
ATOM     63  N   UNL     1      10.254 -16.547 -11.835  1.00  0.00    -0.354 N 
ATOM     64  N   UNL     1       7.692 -15.387 -12.661  1.00  0.00    -0.248 NA
ATOM     65  C   UNL     1       6.190 -14.790 -14.345  1.00  0.00     0.031 C 
ATOM     66  C   UNL     1      11.511 -17.541 -13.372  1.00  0.00     0.029 A 
ATOM     67  C   UNL     1      10.312 -16.874 -13.179  1.00  0.00     0.049 A 
ATOM     68  H   UNL     1       9.516 -16.059 -11.404  1.00  0.00     0.167 HD
ATOM     69  C   UNL     1       8.155 -15.874 -13.879  1.00  0.00     0.074 A 
ATOM     70  C   UNL     1       7.167 -15.515 -14.874  1.00  0.00     0.031 C 
ATOM     71  C   UNL     1       9.299 -16.551 -14.152  1.00  0.00     0.034 A 
BRANCH  58  72
ATOM     72  C   UNL     1      12.989 -17.308  -9.253  1.00  0.00     0.023 A 
ATOM     73  C   UNL     1      13.025 -18.425  -8.393  1.00  0.00     0.012 A 
ATOM     74  C   UNL     1      14.197 -16.693  -9.638  1.00  0.00     0.148 A 
ATOM     75  C   UNL     1      14.239 -18.900  -7.897  1.00  0.00     0.002 A 
ATOM     76  C   UNL     1      15.405 -17.203  -9.180  1.00  0.00     0.091 A 
ATOM     77  F   UNL     1      14.139 -15.618 -10.437  1.00  0.00    -0.205 F 
ATOM     78  C   UNL     1      15.428 -18.297  -8.299  1.00  0.00     0.022 A 
BRANCH  76  79
ATOM     79  S   UNL     1      16.993 -16.549  -9.705  1.00  0.00     0.127 S 
ATOM     80  O   UNL     1      17.485 -15.943  -8.468  1.00  0.00    -0.237 OA
ATOM     81  O   UNL     1      17.702 -17.761 -10.115  1.00  0.00    -0.237 OA
ATOM     82  O   UNL     1      16.708 -15.615 -10.785  1.00  0.00    -0.744 OA
ENDBRANCH  76  79
ENDBRANCH  58  72
BRANCH  59  83
ATOM     83  C   UNL     1       4.323 -13.519 -12.474  1.00  0.00     0.023 A 
ATOM     84  C   UNL     1       3.319 -14.336 -13.028  1.00  0.00     0.012 A 
ATOM     85  C   UNL     1       4.117 -12.127 -12.407  1.00  0.00     0.148 A 
ATOM     86  C   UNL     1       2.147 -13.774 -13.538  1.00  0.00     0.002 A 
ATOM     87  C   UNL     1       2.924 -11.581 -12.863  1.00  0.00     0.091 A 
ATOM     88  F   UNL     1       5.092 -11.366 -11.890  1.00  0.00    -0.205 F 
ATOM     89  C   UNL     1       1.945 -12.400 -13.447  1.00  0.00     0.022 A 
BRANCH  87  90
ATOM     90  S   UNL     1       2.523  -9.841 -12.673  1.00  0.00     0.127 S 
ATOM     91  O   UNL     1       2.503  -9.385 -14.060  1.00  0.00    -0.237 OA
ATOM     92  O   UNL     1       1.213  -9.905 -12.025  1.00  0.00    -0.237 OA
ATOM     93  O   UNL     1       3.580  -9.280 -11.842  1.00  0.00    -0.744 OA
ENDBRANCH  87  90
ENDBRANCH  59  83
BRANCH  71  94
ATOM     94  C   UNL     1       9.529 -17.000 -15.573  1.00  0.00     0.023 A 
ATOM     95  C   UNL     1       9.822 -16.057 -16.578  1.00  0.00     0.012 A 
ATOM     96  C   UNL     1       9.520 -18.372 -15.897  1.00  0.00     0.148 A 
ATOM     97  C   UNL     1      10.062 -16.468 -17.889  1.00  0.00     0.002 A 
ATOM     98  C   UNL     1       9.814 -18.779 -17.193  1.00  0.00     0.091 A 
ATOM     99  F   UNL     1       9.225 -19.255 -14.932  1.00  0.00    -0.205 F 
ATOM    100  C   UNL     1      10.069 -17.828 -18.194  1.00  0.00     0.022 A 
BRANCH  98 101
ATOM    101  S   UNL     1       9.946 -20.510 -17.654  1.00  0.00     0.127 S 
ATOM    102  O   UNL     1       8.756 -20.688 -18.484  1.00  0.00    -0.237 OA
ATOM    103  O   UNL     1      11.212 -20.538 -18.388  1.00  0.00    -0.237 OA
ATOM    104  O   UNL     1       9.954 -21.260 -16.406  1.00  0.00    -0.744 OA
ENDBRANCH  98 101
ENDBRANCH  71  94
ENDBRANCH  45  46
ENDBRANCH  38  40
ENDBRANCH  37  38
ENDBRANCH  36  37
ENDBRANCH  35  36
ENDBRANCH  34  35
ENDBRANCH  33  34
ENDBRANCH  32  33
ENDBRANCH  31  32
ENDBRANCH   1  31
TORSDOF 27
