REMARK SMILES COc1cc(OC)cc(-c2ccc([C@@H](C)C(=O)OCCOCCOCCOCCOC(=O)c3ccc(-c4c5nc(c(-c6cccc(S(=O)(=O)[O-])c6F)c6ccc([nH]6)c(-c6cccc(S(=O)(=O)[O-])c6F)c6nc(c(-c7cccc(S(=O)(=O)[O-])c7F)c7ccc4[nH]7)C=C6)C=C5)cc3)cc2F)c1
REMARK SMILES IDX 24 1 23 2 22 3 21 4 20 5 19 6 18 7 16 8 17 9 14 10 15 11
REMARK SMILES IDX 13 12 10 13 11 14 97 15 12 16 96 17 98 18 9 19 3 20 4 21
REMARK SMILES IDX 99 22 5 23 8 24 2 25 1 26 6 27 7 28 25 29 26 30 27 31 28 32
REMARK SMILES IDX 29 33 30 34 31 35 32 36 33 37 34 38 95 39 35 40 94 41 36 42
REMARK SMILES IDX 37 43 38 44 88 45 39 46 93 47 87 48 89 49 40 50 92 51 86 52
REMARK SMILES IDX 85 53 41 55 73 56 53 57 72 58 54 59 57 60 71 61 90 62 55 63
REMARK SMILES IDX 56 64 70 66 91 67 58 68 42 69 43 70 51 71 44 72 46 73 52 74
REMARK SMILES IDX 45 75 47 76 48 77 49 78 50 79 74 80 75 81 83 82 76 83 78 84
REMARK SMILES IDX 84 85 77 86 79 87 80 88 81 89 82 90 59 91 60 92 68 93 61 94
REMARK SMILES IDX 63 95 69 96 62 97 64 98 65 99 66 100 67 101
REMARK H PARENT 89 54 57 65
REMARK Flexibility Score: inf
ROOT
ATOM      1  O   UNL     1       6.960   4.265   1.528  1.00  0.00    -0.377 OA
ENDROOT
BRANCH   1   2
ATOM      2  C   UNL     1       7.538   3.304   0.673  1.00  0.00     0.188 C 
BRANCH   2   3
ATOM      3  C   UNL     1       9.045   3.076   0.855  1.00  0.00     0.188 C 
BRANCH   3   4
ATOM      4  O   UNL     1       9.757   3.672   1.929  1.00  0.00    -0.376 OA
BRANCH   4   5
ATOM      5  C   UNL     1       9.429   4.981   2.378  1.00  0.00     0.202 C 
BRANCH   5   6
ATOM      6  C   UNL     1       9.354   6.164   1.393  1.00  0.00     0.261 C 
BRANCH   6   7
ATOM      7  O   UNL     1       8.556   5.975   0.206  1.00  0.00    -0.463 OA
BRANCH   7   8
ATOM      8  C   UNL     1       9.229   5.807  -0.954  1.00  0.00     0.313 C 
ATOM      9  O   UNL     1      10.457   5.808  -1.035  1.00  0.00    -0.252 OA
BRANCH   8  10
ATOM     10  C   UNL     1       8.367   5.625  -2.204  1.00  0.00     0.126 C 
ATOM     11  C   UNL     1       8.481   6.881  -3.060  1.00  0.00     0.025 C 
BRANCH  10  12
ATOM     12  C   UNL     1       6.918   5.147  -2.101  1.00  0.00    -0.031 A 
ATOM     13  C   UNL     1       4.236   4.127  -1.946  1.00  0.00     0.018 A 
ATOM     14  C   UNL     1       4.610   5.326  -1.311  1.00  0.00     0.012 A 
ATOM     15  C   UNL     1       5.237   3.448  -2.648  1.00  0.00     0.131 A 
ATOM     16  C   UNL     1       5.925   5.831  -1.389  1.00  0.00     0.005 A 
ATOM     17  C   UNL     1       6.542   3.948  -2.742  1.00  0.00     0.044 A 
ATOM     18  F   UNL     1       4.959   2.297  -3.280  1.00  0.00    -0.206 F 
BRANCH  13  19
ATOM     19  C   UNL     1       2.830   3.674  -1.972  1.00  0.00    -0.008 A 
ATOM     20  C   UNL     1       1.083   2.006  -1.621  1.00  0.00     0.123 A 
ATOM     21  C   UNL     1       0.155   2.845  -2.239  1.00  0.00     0.092 A 
ATOM     22  C   UNL     1       2.419   2.411  -1.501  1.00  0.00     0.055 A 
ATOM     23  C   UNL     1       0.538   4.094  -2.720  1.00  0.00     0.123 A 
ATOM     24  C   UNL     1       1.862   4.508  -2.565  1.00  0.00     0.055 A 
BRANCH  20  25
ATOM     25  O   UNL     1       0.601   0.774  -1.265  1.00  0.00    -0.497 OA
ATOM     26  C   UNL     1       1.102   0.254  -0.040  1.00  0.00     0.278 C 
ENDBRANCH  20  25
BRANCH  23  27
ATOM     27  O   UNL     1      -0.454   4.810  -3.334  1.00  0.00    -0.497 OA
ATOM     28  C   UNL     1      -0.046   5.976  -4.041  1.00  0.00     0.278 C 
ENDBRANCH  23  27
ENDBRANCH  13  19
ENDBRANCH  10  12
ENDBRANCH   8  10
ENDBRANCH   7   8
ENDBRANCH   6   7
ENDBRANCH   5   6
ENDBRANCH   4   5
ENDBRANCH   3   4
ENDBRANCH   2   3
ENDBRANCH   1   2
BRANCH   1  29
ATOM     29  C   UNL     1       6.232   3.780   2.644  1.00  0.00     0.188 C 
BRANCH  29  30
ATOM     30  C   UNL     1       6.796   2.540   3.361  1.00  0.00     0.188 C 
BRANCH  30  31
ATOM     31  O   UNL     1       7.044   1.433   2.500  1.00  0.00    -0.376 OA
BRANCH  31  32
ATOM     32  C   UNL     1       6.034   0.444   2.357  1.00  0.00     0.202 C 
BRANCH  32  33
ATOM     33  C   UNL     1       4.705   0.849   1.692  1.00  0.00     0.261 C 
BRANCH  33  34
ATOM     34  O   UNL     1       3.939   1.879   2.339  1.00  0.00    -0.460 OA
BRANCH  34  35
ATOM     35  C   UNL     1       3.586   1.688   3.626  1.00  0.00     0.338 C 
ATOM     36  O   UNL     1       3.759   0.672   4.283  1.00  0.00    -0.246 OA
BRANCH  35  37
ATOM     37  C   UNL     1       3.147   2.982   4.191  1.00  0.00     0.060 A 
ATOM     38  C   UNL     1       3.834   3.488   5.302  1.00  0.00     0.016 A 
ATOM     39  C   UNL     1       2.071   3.691   3.647  1.00  0.00     0.016 A 
ATOM     40  C   UNL     1       3.420   4.677   5.899  1.00  0.00     0.010 A 
ATOM     41  C   UNL     1       1.643   4.873   4.264  1.00  0.00     0.010 A 
ATOM     42  C   UNL     1       2.292   5.351   5.417  1.00  0.00    -0.014 A 
BRANCH  42  43
ATOM     43  C   UNL     1       1.719   6.454   6.230  1.00  0.00     0.031 A 
ATOM     44  C   UNL     1       0.540   6.167   7.121  1.00  0.00     0.074 A 
ATOM     45  C   UNL     1       2.272   7.680   6.225  1.00  0.00     0.049 A 
ATOM     46  N   UNL     1      -0.068   6.955   7.969  1.00  0.00    -0.248 NA
ATOM     47  C   UNL     1      -0.026   4.811   7.048  1.00  0.00     0.031 C 
ATOM     48  C   UNL     1       3.414   8.087   5.408  1.00  0.00     0.029 A 
ATOM     49  N   UNL     1       1.936   8.811   6.925  1.00  0.00    -0.354 N 
ATOM     50  C   UNL     1      -1.104   6.202   8.511  1.00  0.00     0.074 A 
ATOM     51  C   UNL     1      -1.047   4.898   7.887  1.00  0.00     0.031 C 
ATOM     52  C   UNL     1       3.670   9.387   5.638  1.00  0.00     0.029 A 
ATOM     53  C   UNL     1       2.701   9.906   6.602  1.00  0.00     0.049 A 
ATOM     54  H   UNL     1       1.215   8.836   7.595  1.00  0.00     0.167 HD
ATOM     55  C   UNL     1      -2.013   6.558   9.450  1.00  0.00     0.034 A 
ATOM     56  C   UNL     1       2.618  11.185   7.021  1.00  0.00     0.034 A 
ATOM     57  C   UNL     1      -2.067   7.852  10.075  1.00  0.00     0.049 A 
ATOM     58  C   UNL     1       1.591  11.559   8.058  1.00  0.00     0.074 A 
ATOM     59  C   UNL     1      -2.916   8.288  11.078  1.00  0.00     0.029 A 
ATOM     60  N   UNL     1      -1.261   8.929   9.742  1.00  0.00    -0.354 N 
ATOM     61  N   UNL     1       0.705  10.800   8.657  1.00  0.00    -0.248 NA
ATOM     62  C   UNL     1       1.583  12.959   8.508  1.00  0.00     0.031 C 
ATOM     63  C   UNL     1      -2.654   9.642  11.317  1.00  0.00     0.029 A 
ATOM     64  C   UNL     1      -1.606  10.036  10.501  1.00  0.00     0.049 A 
ATOM     65  H   UNL     1      -0.547   8.911   9.064  1.00  0.00     0.167 HD
ATOM     66  C   UNL     1       0.055  11.621   9.573  1.00  0.00     0.074 A 
ATOM     67  C   UNL     1       0.673  12.927   9.472  1.00  0.00     0.031 C 
ATOM     68  C   UNL     1      -0.970  11.326  10.414  1.00  0.00     0.034 A 
BRANCH  55  69
ATOM     69  C   UNL     1      -3.034   5.525   9.858  1.00  0.00     0.023 A 
ATOM     70  C   UNL     1      -2.642   4.404  10.617  1.00  0.00     0.012 A 
ATOM     71  C   UNL     1      -4.392   5.693   9.524  1.00  0.00     0.148 A 
ATOM     72  C   UNL     1      -3.579   3.447  11.006  1.00  0.00     0.002 A 
ATOM     73  C   UNL     1      -5.328   4.762   9.958  1.00  0.00     0.091 A 
ATOM     74  F   UNL     1      -4.742   6.752   8.781  1.00  0.00    -0.205 F 
ATOM     75  C   UNL     1      -4.922   3.632  10.686  1.00  0.00     0.022 A 
BRANCH  73  76
ATOM     76  S   UNL     1      -7.090   4.954   9.669  1.00  0.00     0.127 S 
ATOM     77  O   UNL     1      -7.349   3.884   8.708  1.00  0.00    -0.237 OA
ATOM     78  O   UNL     1      -7.645   4.724  11.003  1.00  0.00    -0.237 OA
ATOM     79  O   UNL     1      -7.269   6.307   9.161  1.00  0.00    -0.744 OA
ENDBRANCH  73  76
ENDBRANCH  55  69
BRANCH  56  80
ATOM     80  C   UNL     1       3.551  12.207   6.468  1.00  0.00     0.023 A 
ATOM     81  C   UNL     1       4.533  12.787   7.294  1.00  0.00     0.012 A 
ATOM     82  C   UNL     1       3.472  12.595   5.117  1.00  0.00     0.148 A 
ATOM     83  C   UNL     1       5.401  13.758   6.790  1.00  0.00     0.002 A 
ATOM     84  C   UNL     1       4.379  13.515   4.606  1.00  0.00     0.091 A 
ATOM     85  F   UNL     1       2.518  12.044   4.353  1.00  0.00    -0.205 F 
ATOM     86  C   UNL     1       5.332  14.113   5.446  1.00  0.00     0.022 A 
BRANCH  84  87
ATOM     87  S   UNL     1       4.452  13.928   2.860  1.00  0.00     0.127 S 
ATOM     88  O   UNL     1       4.038  15.328   2.865  1.00  0.00    -0.237 OA
ATOM     89  O   UNL     1       5.866  13.702   2.560  1.00  0.00    -0.237 OA
ATOM     90  O   UNL     1       3.542  13.004   2.196  1.00  0.00    -0.744 OA
ENDBRANCH  84  87
ENDBRANCH  56  80
BRANCH  68  91
ATOM     91  C   UNL     1      -1.468  12.429  11.316  1.00  0.00     0.023 A 
ATOM     92  C   UNL     1      -2.142  13.541  10.770  1.00  0.00     0.012 A 
ATOM     93  C   UNL     1      -1.290  12.353  12.712  1.00  0.00     0.148 A 
ATOM     94  C   UNL     1      -2.576  14.583  11.590  1.00  0.00     0.002 A 
ATOM     95  C   UNL     1      -1.776  13.368  13.528  1.00  0.00     0.091 A 
ATOM     96  F   UNL     1      -0.634  11.298  13.218  1.00  0.00    -0.205 F 
ATOM     97  C   UNL     1      -2.401  14.493  12.968  1.00  0.00     0.022 A 
BRANCH  95  98
ATOM     98  S   UNL     1      -1.682  13.287  15.321  1.00  0.00     0.127 S 
ATOM     99  O   UNL     1      -0.616  14.245  15.607  1.00  0.00    -0.237 OA
ATOM    100  O   UNL     1      -3.019  13.725  15.723  1.00  0.00    -0.237 OA
ATOM    101  O   UNL     1      -1.381  11.899  15.643  1.00  0.00    -0.744 OA
ENDBRANCH  95  98
ENDBRANCH  68  91
ENDBRANCH  42  43
ENDBRANCH  35  37
ENDBRANCH  34  35
ENDBRANCH  33  34
ENDBRANCH  32  33
ENDBRANCH  31  32
ENDBRANCH  30  31
ENDBRANCH  29  30
ENDBRANCH   1  29
TORSDOF 27
