REMARK SMILES CC(C)(C)OC(=O)N1CC(Cc2ccc(C(=O)OCCOCCOCCOCCOC(=O)c3ccc(-c4c5nc(c(-c6cccc(S(=O)(=O)[O-])c6F)c6ccc([nH]6)c(-c6cccc(S(=O)(=O)[O-])c6F)c6nc(c(-c7cccc(S(=O)(=O)[O-])c7F)c7ccc4[nH]7)C=C6)C=C5)cc3)cc2)C1
REMARK SMILES IDX 23 1 22 2 21 3 20 4 19 5 18 6 16 7 17 8 15 9 12 10 13 11
REMARK SMILES IDX 97 12 14 13 96 14 11 15 10 16 6 17 7 18 8 19 9 20 98 21 5 22
REMARK SMILES IDX 2 23 1 24 3 25 4 26 24 27 25 28 26 29 27 30 28 31 29 32
REMARK SMILES IDX 30 33 31 34 32 35 33 36 34 37 95 38 35 39 94 40 36 41 37 42
REMARK SMILES IDX 38 43 88 44 39 45 93 46 87 47 89 48 40 49 92 50 86 51 85 52
REMARK SMILES IDX 41 54 73 55 53 56 72 57 54 58 57 59 71 60 90 61 55 62 56 63
REMARK SMILES IDX 70 65 91 66 58 67 42 68 43 69 51 70 44 71 46 72 52 73 45 74
REMARK SMILES IDX 47 75 48 76 49 77 50 78 74 79 75 80 83 81 76 82 78 83 84 84
REMARK SMILES IDX 77 85 79 86 80 87 81 88 82 89 59 90 60 91 68 92 61 93 63 94
REMARK SMILES IDX 69 95 62 96 64 97 65 98 66 99 67 100
REMARK H PARENT 89 53 57 64
REMARK Flexibility Score: inf
ROOT
ATOM      1  C   UNL     1       7.982 -10.688  -1.890  1.00  0.00     0.188 C 
ENDROOT
BRANCH   1   2
ATOM      2  C   UNL     1       9.033  -9.842  -2.632  1.00  0.00     0.188 C 
BRANCH   2   3
ATOM      3  O   UNL     1      10.306  -9.800  -2.001  1.00  0.00    -0.376 OA
BRANCH   3   4
ATOM      4  C   UNL     1      10.697  -8.570  -1.409  1.00  0.00     0.202 C 
BRANCH   4   5
ATOM      5  C   UNL     1       9.941  -8.165  -0.138  1.00  0.00     0.261 C 
BRANCH   5   6
ATOM      6  O   UNL     1       8.520  -8.075  -0.291  1.00  0.00    -0.460 OA
BRANCH   6   7
ATOM      7  C   UNL     1       8.045  -7.122  -1.119  1.00  0.00     0.338 C 
ATOM      8  O   UNL     1       8.695  -6.296  -1.740  1.00  0.00    -0.246 OA
BRANCH   7   9
ATOM      9  C   UNL     1       6.596  -7.355  -1.312  1.00  0.00     0.060 A 
ATOM     10  C   UNL     1       3.852  -7.684  -1.720  1.00  0.00    -0.048 A 
ATOM     11  C   UNL     1       4.672  -7.271  -2.777  1.00  0.00     0.004 A 
ATOM     12  C   UNL     1       4.431  -8.021  -0.487  1.00  0.00     0.004 A 
ATOM     13  C   UNL     1       6.041  -7.102  -2.572  1.00  0.00     0.016 A 
ATOM     14  C   UNL     1       5.796  -7.848  -0.278  1.00  0.00     0.016 A 
BRANCH  10  15
ATOM     15  C   UNL     1       2.351  -7.658  -1.862  1.00  0.00     0.042 C 
BRANCH  15  16
ATOM     16  C   UNL     1       1.812  -6.544  -0.973  1.00  0.00     0.033 C 
ATOM     17  C   UNL     1       0.192  -3.873  -0.124  1.00  0.00     0.410 C 
ATOM     18  O   UNL     1      -0.811  -4.076   0.560  1.00  0.00    -0.224 OA
ATOM     19  N   UNL     1       0.732  -4.825  -0.929  1.00  0.00    -0.307 N 
ATOM     20  C   UNL     1       0.322  -6.203  -1.127  1.00  0.00     0.128 C 
ATOM     21  C   UNL     1       2.098  -5.064  -1.356  1.00  0.00     0.128 C 
BRANCH  17  22
ATOM     22  O   UNL     1       0.857  -2.694  -0.206  1.00  0.00    -0.444 OA
BRANCH  22  23
ATOM     23  C   UNL     1       0.419  -1.538   0.561  1.00  0.00     0.106 C 
ATOM     24  C   UNL     1       1.116  -0.331  -0.085  1.00  0.00     0.056 C 
ATOM     25  C   UNL     1       0.898  -1.679   2.008  1.00  0.00     0.056 C 
ATOM     26  C   UNL     1      -1.096  -1.290   0.490  1.00  0.00     0.056 C 
ENDBRANCH  22  23
ENDBRANCH  17  22
ENDBRANCH  15  16
ENDBRANCH  10  15
ENDBRANCH   7   9
ENDBRANCH   6   7
ENDBRANCH   5   6
ENDBRANCH   4   5
ENDBRANCH   3   4
ENDBRANCH   2   3
ENDBRANCH   1   2
BRANCH   1  27
ATOM     27  O   UNL     1       8.311 -11.184  -0.605  1.00  0.00    -0.377 OA
BRANCH  27  28
ATOM     28  C   UNL     1       9.508 -11.932  -0.415  1.00  0.00     0.188 C 
BRANCH  28  29
ATOM     29  C   UNL     1      10.265 -12.588  -1.593  1.00  0.00     0.188 C 
BRANCH  29  30
ATOM     30  O   UNL     1       9.508 -12.751  -2.785  1.00  0.00    -0.376 OA
BRANCH  30  31
ATOM     31  C   UNL     1       9.140 -14.080  -3.119  1.00  0.00     0.202 C 
BRANCH  31  32
ATOM     32  C   UNL     1       8.033 -14.666  -2.235  1.00  0.00     0.261 C 
BRANCH  32  33
ATOM     33  O   UNL     1       8.377 -14.809  -0.848  1.00  0.00    -0.460 OA
BRANCH  33  34
ATOM     34  C   UNL     1       9.415 -15.620  -0.554  1.00  0.00     0.338 C 
ATOM     35  O   UNL     1      10.080 -16.280  -1.337  1.00  0.00    -0.246 OA
BRANCH  34  36
ATOM     36  C   UNL     1       9.744 -15.436   0.871  1.00  0.00     0.060 A 
ATOM     37  C   UNL     1      11.040 -15.039   1.222  1.00  0.00     0.016 A 
ATOM     38  C   UNL     1       8.774 -15.656   1.852  1.00  0.00     0.016 A 
ATOM     39  C   UNL     1      11.383 -14.906   2.567  1.00  0.00     0.010 A 
ATOM     40  C   UNL     1       9.123 -15.536   3.197  1.00  0.00     0.010 A 
ATOM     41  C   UNL     1      10.439 -15.200   3.561  1.00  0.00    -0.014 A 
BRANCH  41  42
ATOM     42  C   UNL     1      10.879 -15.349   4.967  1.00  0.00     0.031 A 
ATOM     43  C   UNL     1      11.166 -16.733   5.481  1.00  0.00     0.074 A 
ATOM     44  C   UNL     1      11.022 -14.282   5.773  1.00  0.00     0.049 A 
ATOM     45  N   UNL     1      11.562 -17.112   6.667  1.00  0.00    -0.248 NA
ATOM     46  C   UNL     1      10.979 -17.840   4.527  1.00  0.00     0.031 C 
ATOM     47  C   UNL     1      10.764 -12.894   5.395  1.00  0.00     0.029 A 
ATOM     48  N   UNL     1      11.400 -14.210   7.091  1.00  0.00    -0.354 N 
ATOM     49  C   UNL     1      11.655 -18.497   6.609  1.00  0.00     0.074 A 
ATOM     50  C   UNL     1      11.253 -18.896   5.278  1.00  0.00     0.031 C 
ATOM     51  C   UNL     1      10.964 -12.108   6.468  1.00  0.00     0.029 A 
ATOM     52  C   UNL     1      11.347 -12.938   7.609  1.00  0.00     0.049 A 
ATOM     53  H   UNL     1      11.681 -14.995   7.615  1.00  0.00     0.167 HD
ATOM     54  C   UNL     1      12.060 -19.361   7.569  1.00  0.00     0.034 A 
ATOM     55  C   UNL     1      11.568 -12.501   8.865  1.00  0.00     0.034 A 
ATOM     56  C   UNL     1      12.466 -18.966   8.889  1.00  0.00     0.049 A 
ATOM     57  C   UNL     1      11.998 -13.486   9.924  1.00  0.00     0.074 A 
ATOM     58  C   UNL     1      12.926 -19.762   9.923  1.00  0.00     0.029 A 
ATOM     59  N   UNL     1      12.448 -17.664   9.364  1.00  0.00    -0.354 N 
ATOM     60  N   UNL     1      12.206 -14.777   9.818  1.00  0.00    -0.248 NA
ATOM     61  C   UNL     1      12.262 -12.947  11.267  1.00  0.00     0.031 C 
ATOM     62  C   UNL     1      13.164 -18.943  11.032  1.00  0.00     0.029 A 
ATOM     63  C   UNL     1      12.882 -17.633  10.678  1.00  0.00     0.049 A 
ATOM     64  H   UNL     1      12.169 -16.876   8.843  1.00  0.00     0.167 HD
ATOM     65  C   UNL     1      12.660 -15.195  11.065  1.00  0.00     0.074 A 
ATOM     66  C   UNL     1      12.717 -14.016  11.905  1.00  0.00     0.031 C 
ATOM     67  C   UNL     1      12.986 -16.444  11.484  1.00  0.00     0.034 A 
BRANCH  54  68
ATOM     68  C   UNL     1      12.112 -20.822   7.210  1.00  0.00     0.023 A 
ATOM     69  C   UNL     1      13.119 -21.289   6.340  1.00  0.00     0.012 A 
ATOM     70  C   UNL     1      11.195 -21.738   7.761  1.00  0.00     0.148 A 
ATOM     71  C   UNL     1      13.194 -22.638   5.999  1.00  0.00     0.002 A 
ATOM     72  C   UNL     1      11.304 -23.089   7.451  1.00  0.00     0.091 A 
ATOM     73  F   UNL     1      10.230 -21.271   8.565  1.00  0.00    -0.205 F 
ATOM     74  C   UNL     1      12.294 -23.538   6.563  1.00  0.00     0.022 A 
BRANCH  72  75
ATOM     75  S   UNL     1      10.241 -24.338   8.183  1.00  0.00     0.127 S 
ATOM     76  O   UNL     1       9.418 -24.731   7.040  1.00  0.00    -0.237 OA
ATOM     77  O   UNL     1      11.206 -25.348   8.615  1.00  0.00    -0.237 OA
ATOM     78  O   UNL     1       9.529 -23.675   9.266  1.00  0.00    -0.744 OA
ENDBRANCH  72  75
ENDBRANCH  54  68
BRANCH  55  79
ATOM     79  C   UNL     1      11.423 -11.053   9.189  1.00  0.00     0.023 A 
ATOM     80  C   UNL     1      12.563 -10.292   9.513  1.00  0.00     0.012 A 
ATOM     81  C   UNL     1      10.162 -10.426   9.174  1.00  0.00     0.148 A 
ATOM     82  C   UNL     1      12.446  -8.943   9.850  1.00  0.00     0.002 A 
ATOM     83  C   UNL     1      10.059  -9.069   9.456  1.00  0.00     0.091 A 
ATOM     84  F   UNL     1       9.086 -11.171   8.883  1.00  0.00    -0.205 F 
ATOM     85  C   UNL     1      11.197  -8.329   9.812  1.00  0.00     0.022 A 
BRANCH  83  86
ATOM     86  S   UNL     1       8.511  -8.170   9.307  1.00  0.00     0.127 S 
ATOM     87  O   UNL     1       8.190  -7.894  10.705  1.00  0.00    -0.237 OA
ATOM     88  O   UNL     1       8.916  -7.001   8.525  1.00  0.00    -0.237 OA
ATOM     89  O   UNL     1       7.600  -9.069   8.613  1.00  0.00    -0.744 OA
ENDBRANCH  83  86
ENDBRANCH  55  79
BRANCH  67  90
ATOM     90  C   UNL     1      13.476 -16.603  12.901  1.00  0.00     0.023 A 
ATOM     91  C   UNL     1      12.574 -16.473  13.976  1.00  0.00     0.012 A 
ATOM     92  C   UNL     1      14.816 -16.953  13.163  1.00  0.00     0.148 A 
ATOM     93  C   UNL     1      13.006 -16.651  15.290  1.00  0.00     0.002 A 
ATOM     94  C   UNL     1      15.227 -17.178  14.472  1.00  0.00     0.091 A 
ATOM     95  F   UNL     1      15.665 -17.056  12.130  1.00  0.00    -0.205 F 
ATOM     96  C   UNL     1      14.328 -17.015  15.537  1.00  0.00     0.022 A 
BRANCH  94  97
ATOM     97  S   UNL     1      16.885 -17.744  14.874  1.00  0.00     0.127 S 
ATOM     98  O   UNL     1      17.488 -16.532  15.426  1.00  0.00    -0.237 OA
ATOM     99  O   UNL     1      16.625 -18.798  15.856  1.00  0.00    -0.237 OA
ATOM    100  O   UNL     1      17.461 -18.216  13.622  1.00  0.00    -0.744 OA
ENDBRANCH  94  97
ENDBRANCH  67  90
ENDBRANCH  41  42
ENDBRANCH  34  36
ENDBRANCH  33  34
ENDBRANCH  32  33
ENDBRANCH  31  32
ENDBRANCH  30  31
ENDBRANCH  29  30
ENDBRANCH  28  29
ENDBRANCH  27  28
ENDBRANCH   1  27
TORSDOF 27
