REMARK SMILES CC[NH+]1CCC2(CC1)OC[C@H](C(=O)OCCOCCOCCOCCOC(=O)c1ccc(-c3c4nc(c(-c5cccc(S(=O)(=O)[O-])c5F)c5ccc([nH]5)c(-c5cccc(S(=O)(=O)[O-])c5F)c5nc(c(-c6cccc(S(=O)(=O)[O-])c6F)c6ccc3[nH]6)C=C5)C=C4)cc1)N2C(=O)c1ccccc1
REMARK SMILES IDX 21 1 20 2 19 3 18 4 17 5 16 6 15 7 14 8 12 9 13 10 11 11
REMARK SMILES IDX 3 12 4 13 8 14 5 16 7 17 6 18 9 19 92 20 10 21 2 22 1 23
REMARK SMILES IDX 93 24 94 25 95 26 96 27 100 28 97 29 99 30 98 31 22 32 23 33
REMARK SMILES IDX 24 34 25 35 26 36 27 37 28 38 29 39 30 40 91 41 31 42 90 43
REMARK SMILES IDX 32 44 33 45 34 46 84 47 35 48 89 49 83 50 85 51 36 52 88 53
REMARK SMILES IDX 82 54 81 55 37 57 69 58 49 59 68 60 50 61 53 62 67 63 86 64
REMARK SMILES IDX 51 65 52 66 66 68 87 69 54 70 38 71 39 72 47 73 40 74 42 75
REMARK SMILES IDX 48 76 41 77 43 78 44 79 45 80 46 81 70 82 71 83 79 84 72 85
REMARK SMILES IDX 74 86 80 87 73 88 75 89 76 90 77 91 78 92 55 93 56 94 64 95
REMARK SMILES IDX 57 96 59 97 65 98 58 99 60 100 61 101 62 102 63 103
REMARK H PARENT 3 15 85 56 53 67
REMARK Flexibility Score: inf
ROOT
ATOM      1  C   UNL     1       0.096  -9.678   2.956  1.00  0.00     0.188 C 
ENDROOT
BRANCH   1   2
ATOM      2  O   UNL     1       1.286  -8.923   2.889  1.00  0.00    -0.377 OA
BRANCH   2   3
ATOM      3  C   UNL     1       1.301  -7.755   2.083  1.00  0.00     0.188 C 
BRANCH   3   4
ATOM      4  C   UNL     1       0.024  -7.140   1.454  1.00  0.00     0.188 C 
BRANCH   4   5
ATOM      5  O   UNL     1      -0.991  -8.061   1.091  1.00  0.00    -0.376 OA
BRANCH   5   6
ATOM      6  C   UNL     1      -1.089  -8.483  -0.259  1.00  0.00     0.202 C 
BRANCH   6   7
ATOM      7  C   UNL     1       0.129  -9.184  -0.881  1.00  0.00     0.261 C 
BRANCH   7   8
ATOM      8  O   UNL     1       1.377  -8.483  -0.741  1.00  0.00    -0.462 OA
BRANCH   8   9
ATOM      9  C   UNL     1       1.485  -7.288  -1.377  1.00  0.00     0.331 C 
ATOM     10  O   UNL     1       0.628  -6.867  -2.145  1.00  0.00    -0.250 OA
BRANCH   9  11
ATOM     11  C   UNL     1       2.757  -6.519  -0.916  1.00  0.00     0.224 C 
ATOM     12  N   UNL     1       0.860  -1.730   0.010  1.00  0.00    -0.335 N 
ATOM     13  C   UNL     1       0.163  -3.009  -0.050  1.00  0.00     0.267 C 
ATOM     14  C   UNL     1       2.314  -1.795  -0.127  1.00  0.00     0.267 C 
ATOM     15  H   UNL     1       0.744  -1.436   0.980  1.00  0.00     0.348 HD
ATOM     16  C   UNL     1       0.658  -3.956  -1.119  1.00  0.00     0.120 C 
ATOM     17  C   UNL     1       2.913  -2.876  -1.014  1.00  0.00     0.120 C 
ATOM     18  C   UNL     1       2.168  -4.206  -1.044  1.00  0.00     0.155 C 
ATOM     19  O   UNL     1       2.554  -4.738  -2.365  1.00  0.00    -0.352 OA
ATOM     20  N   UNL     1       2.575  -5.283  -0.119  1.00  0.00    -0.293 N 
ATOM     21  C   UNL     1       3.340  -5.929  -2.168  1.00  0.00     0.200 C 
BRANCH  12  22
ATOM     22  C   UNL     1       0.227  -0.689  -0.792  1.00  0.00     0.258 C 
ATOM     23  C   UNL     1       0.592   0.702  -0.279  1.00  0.00     0.071 C 
ENDBRANCH  12  22
BRANCH  20  24
ATOM     24  C   UNL     1       3.183  -5.222   1.143  1.00  0.00     0.256 C 
ATOM     25  O   UNL     1       3.886  -6.142   1.565  1.00  0.00    -0.269 OA
BRANCH  24  26
ATOM     26  C   UNL     1       3.078  -4.067   2.064  1.00  0.00     0.040 A 
ATOM     27  C   UNL     1       4.237  -3.337   2.368  1.00  0.00     0.014 A 
ATOM     28  C   UNL     1       1.892  -3.762   2.738  1.00  0.00     0.014 A 
ATOM     29  C   UNL     1       4.166  -2.209   3.197  1.00  0.00     0.001 A 
ATOM     30  C   UNL     1       1.813  -2.615   3.542  1.00  0.00     0.001 A 
ATOM     31  C   UNL     1       2.943  -1.824   3.748  1.00  0.00     0.000 A 
ENDBRANCH  24  26
ENDBRANCH  20  24
ENDBRANCH   9  11
ENDBRANCH   8   9
ENDBRANCH   7   8
ENDBRANCH   6   7
ENDBRANCH   5   6
ENDBRANCH   4   5
ENDBRANCH   3   4
ENDBRANCH   2   3
ENDBRANCH   1   2
BRANCH   1  32
ATOM     32  C   UNL     1      -1.001  -9.015   3.807  1.00  0.00     0.188 C 
BRANCH  32  33
ATOM     33  O   UNL     1      -0.770  -7.636   4.057  1.00  0.00    -0.376 OA
BRANCH  33  34
ATOM     34  C   UNL     1      -0.086  -7.238   5.235  1.00  0.00     0.202 C 
BRANCH  34  35
ATOM     35  C   UNL     1       1.209  -7.910   5.734  1.00  0.00     0.261 C 
BRANCH  35  36
ATOM     36  O   UNL     1       1.317  -9.332   5.644  1.00  0.00    -0.460 OA
BRANCH  36  37
ATOM     37  C   UNL     1       0.517 -10.093   6.413  1.00  0.00     0.338 C 
ATOM     38  O   UNL     1      -0.318  -9.708   7.215  1.00  0.00    -0.246 OA
BRANCH  37  39
ATOM     39  C   UNL     1       0.686 -11.487   5.947  1.00  0.00     0.060 A 
ATOM     40  C   UNL     1      -0.426 -12.170   5.431  1.00  0.00     0.016 A 
ATOM     41  C   UNL     1       1.946 -12.090   5.953  1.00  0.00     0.016 A 
ATOM     42  C   UNL     1      -0.282 -13.465   4.937  1.00  0.00     0.010 A 
ATOM     43  C   UNL     1       2.082 -13.402   5.495  1.00  0.00     0.010 A 
ATOM     44  C   UNL     1       0.962 -14.104   5.016  1.00  0.00    -0.014 A 
BRANCH  44  45
ATOM     45  C   UNL     1       1.034 -15.569   4.826  1.00  0.00     0.031 A 
ATOM     46  C   UNL     1       0.956 -16.435   6.053  1.00  0.00     0.074 A 
ATOM     47  C   UNL     1       1.161 -16.120   3.606  1.00  0.00     0.049 A 
ATOM     48  N   UNL     1       1.025 -17.735   6.157  1.00  0.00    -0.248 NA
ATOM     49  C   UNL     1       0.777 -15.735   7.337  1.00  0.00     0.031 C 
ATOM     50  C   UNL     1       1.229 -15.384   2.346  1.00  0.00     0.029 A 
ATOM     51  N   UNL     1       1.280 -17.437   3.237  1.00  0.00    -0.354 N 
ATOM     52  C   UNL     1       0.933 -18.006   7.517  1.00  0.00     0.074 A 
ATOM     53  C   UNL     1       0.809 -16.738   8.200  1.00  0.00     0.031 C 
ATOM     54  C   UNL     1       1.408 -16.260   1.341  1.00  0.00     0.029 A 
ATOM     55  C   UNL     1       1.495 -17.612   1.891  1.00  0.00     0.049 A 
ATOM     56  H   UNL     1       1.217 -18.184   3.875  1.00  0.00     0.167 HD
ATOM     57  C   UNL     1       0.944 -19.206   8.142  1.00  0.00     0.034 A 
ATOM     58  C   UNL     1       1.758 -18.735   1.193  1.00  0.00     0.034 A 
ATOM     59  C   UNL     1       1.062 -20.463   7.458  1.00  0.00     0.049 A 
ATOM     60  C   UNL     1       1.804 -20.057   1.919  1.00  0.00     0.074 A 
ATOM     61  C   UNL     1       1.036 -21.738   7.994  1.00  0.00     0.029 A 
ATOM     62  N   UNL     1       1.251 -20.605   6.092  1.00  0.00    -0.354 N 
ATOM     63  N   UNL     1       1.601 -20.312   3.189  1.00  0.00    -0.248 NA
ATOM     64  C   UNL     1       2.086 -21.252   1.108  1.00  0.00     0.031 C 
ATOM     65  C   UNL     1       1.254 -22.649   6.956  1.00  0.00     0.029 A 
ATOM     66  C   UNL     1       1.365 -21.945   5.768  1.00  0.00     0.049 A 
ATOM     67  H   UNL     1       1.298 -19.861   5.449  1.00  0.00     0.167 HD
ATOM     68  C   UNL     1       1.688 -21.695   3.322  1.00  0.00     0.074 A 
ATOM     69  C   UNL     1       1.947 -22.224   1.999  1.00  0.00     0.031 C 
ATOM     70  C   UNL     1       1.573 -22.458   4.438  1.00  0.00     0.034 A 
BRANCH  57  71
ATOM     71  C   UNL     1       0.826 -19.210   9.642  1.00  0.00     0.023 A 
ATOM     72  C   UNL     1      -0.397 -18.871  10.255  1.00  0.00     0.012 A 
ATOM     73  C   UNL     1       1.921 -19.589  10.443  1.00  0.00     0.148 A 
ATOM     74  C   UNL     1      -0.519 -18.876  11.645  1.00  0.00     0.002 A 
ATOM     75  C   UNL     1       1.777 -19.640  11.824  1.00  0.00     0.091 A 
ATOM     76  F   UNL     1       3.083 -19.881   9.842  1.00  0.00    -0.205 F 
ATOM     77  C   UNL     1       0.563 -19.271  12.427  1.00  0.00     0.022 A 
BRANCH  75  78
ATOM     78  S   UNL     1       3.085 -20.214  12.912  1.00  0.00     0.127 S 
ATOM     79  O   UNL     1       3.453 -18.981  13.607  1.00  0.00    -0.237 OA
ATOM     80  O   UNL     1       2.384 -21.194  13.741  1.00  0.00    -0.237 OA
ATOM     81  O   UNL     1       4.114 -20.773  12.047  1.00  0.00    -0.744 OA
ENDBRANCH  75  78
ENDBRANCH  57  71
BRANCH  58  82
ATOM     82  C   UNL     1       1.976 -18.669  -0.281  1.00  0.00     0.023 A 
ATOM     83  C   UNL     1       1.032 -19.250  -1.150  1.00  0.00     0.012 A 
ATOM     84  C   UNL     1       3.110 -18.035  -0.824  1.00  0.00     0.148 A 
ATOM     85  C   UNL     1       1.231 -19.231  -2.531  1.00  0.00     0.002 A 
ATOM     86  C   UNL     1       3.273 -17.970  -2.203  1.00  0.00     0.091 A 
ATOM     87  F   UNL     1       4.004 -17.502   0.020  1.00  0.00    -0.205 F 
ATOM     88  C   UNL     1       2.345 -18.583  -3.058  1.00  0.00     0.022 A 
BRANCH  86  89
ATOM     89  S   UNL     1       4.611 -17.054  -2.976  1.00  0.00     0.127 S 
ATOM     90  O   UNL     1       5.386 -18.124  -3.600  1.00  0.00    -0.237 OA
ATOM     91  O   UNL     1       3.882 -16.195  -3.911  1.00  0.00    -0.237 OA
ATOM     92  O   UNL     1       5.278 -16.339  -1.897  1.00  0.00    -0.744 OA
ENDBRANCH  86  89
ENDBRANCH  58  82
BRANCH  70  93
ATOM     93  C   UNL     1       1.672 -23.955   4.281  1.00  0.00     0.023 A 
ATOM     94  C   UNL     1       2.911 -24.556   3.988  1.00  0.00     0.012 A 
ATOM     95  C   UNL     1       0.544 -24.770   4.507  1.00  0.00     0.148 A 
ATOM     96  C   UNL     1       3.019 -25.943   3.886  1.00  0.00     0.002 A 
ATOM     97  C   UNL     1       0.671 -26.153   4.457  1.00  0.00     0.091 A 
ATOM     98  F   UNL     1      -0.630 -24.179   4.771  1.00  0.00    -0.205 F 
ATOM     99  C   UNL     1       1.904 -26.741   4.132  1.00  0.00     0.022 A 
BRANCH  97 100
ATOM    100  S   UNL     1      -0.684 -27.261   4.860  1.00  0.00     0.127 S 
ATOM    101  O   UNL     1      -1.004 -27.829   3.551  1.00  0.00    -0.237 OA
ATOM    102  O   UNL     1      -0.053 -28.195   5.793  1.00  0.00    -0.237 OA
ATOM    103  O   UNL     1      -1.725 -26.429   5.449  1.00  0.00    -0.744 OA
ENDBRANCH  97 100
ENDBRANCH  70  93
ENDBRANCH  44  45
ENDBRANCH  37  39
ENDBRANCH  36  37
ENDBRANCH  35  36
ENDBRANCH  34  35
ENDBRANCH  33  34
ENDBRANCH  32  33
ENDBRANCH   1  32
TORSDOF 26
