REMARK SMILES C[C@@]1(C(=O)c2ccccc2N)[C@H](C(=O)OCCOCCOCCOCCOC(=O)c2ccc(-c3c4nc(c(-c5cccc(S(=O)(=O)[O-])c5F)c5ccc([nH]5)c(-c5cccc(S(=O)(=O)[O-])c5F)c5nc(c(-c6cccc(S(=O)(=O)[O-])c6F)c6ccc3[nH]6)C=C5)C=C4)cc2)[C@@H]1C(=O)N1CCOCC1
REMARK SMILES IDX 21 1 20 2 19 3 18 4 17 5 16 6 15 7 13 8 14 9 12 10 1 11 2 12
REMARK SMILES IDX 93 13 3 14 4 15 5 16 6 17 10 18 7 19 9 20 8 21 11 22 94 25
REMARK SMILES IDX 95 26 96 27 97 28 101 29 98 30 100 31 99 32 22 33 23 34
REMARK SMILES IDX 24 35 25 36 26 37 27 38 28 39 29 40 30 41 31 42 92 43 32 44
REMARK SMILES IDX 91 45 33 46 34 47 35 48 85 49 36 50 90 51 84 52 86 53 37 54
REMARK SMILES IDX 89 55 83 56 82 57 38 59 70 60 50 61 69 62 51 63 54 64 68 65
REMARK SMILES IDX 87 66 52 67 53 68 67 70 88 71 55 72 39 73 40 74 48 75 41 76
REMARK SMILES IDX 43 77 49 78 42 79 44 80 45 81 46 82 47 83 71 84 72 85 80 86
REMARK SMILES IDX 73 87 75 88 81 89 74 90 76 91 77 92 78 93 79 94 56 95 57 96
REMARK SMILES IDX 65 97 58 98 60 99 66 100 59 101 61 102 62 103 63 104 64 105
REMARK H PARENT 11 23 11 24 86 58 54 69
REMARK Flexibility Score: inf
ROOT
ATOM      1  O   UNL     1       2.071   3.361   3.598  1.00  0.00    -0.377 OA
ENDROOT
BRANCH   1   2
ATOM      2  C   UNL     1       1.777   3.471   2.224  1.00  0.00     0.188 C 
BRANCH   2   3
ATOM      3  C   UNL     1       0.663   4.486   1.911  1.00  0.00     0.188 C 
BRANCH   3   4
ATOM      4  O   UNL     1      -0.065   5.171   2.929  1.00  0.00    -0.376 OA
BRANCH   4   5
ATOM      5  C   UNL     1      -0.113   4.692   4.264  1.00  0.00     0.202 C 
BRANCH   5   6
ATOM      6  C   UNL     1      -0.766   3.331   4.540  1.00  0.00     0.261 C 
BRANCH   6   7
ATOM      7  O   UNL     1      -0.388   2.252   3.665  1.00  0.00    -0.463 OA
BRANCH   7   8
ATOM      8  C   UNL     1      -1.269   2.021   2.663  1.00  0.00     0.310 C 
ATOM      9  O   UNL     1      -2.325   2.599   2.502  1.00  0.00    -0.252 OA
BRANCH   8  10
ATOM     10  C   UNL     1      -0.822   1.074   1.617  1.00  0.00     0.127 C 
ATOM     11  C   UNL     1       0.507  -0.338  -0.026  1.00  0.00     0.022 C 
ATOM     12  C   UNL     1       0.152  -0.088   1.468  1.00  0.00     0.057 C 
ATOM     13  C   UNL     1      -1.310  -0.351   1.735  1.00  0.00     0.108 C 
BRANCH  12  14
ATOM     14  C   UNL     1       1.397  -0.258   2.326  1.00  0.00     0.172 C 
ATOM     15  O   UNL     1       2.469  -0.190   1.710  1.00  0.00    -0.293 OA
BRANCH  14  16
ATOM     16  C   UNL     1       1.575  -0.422   3.786  1.00  0.00     0.041 A 
ATOM     17  C   UNL     1       2.566   0.425   4.337  1.00  0.00     0.014 A 
ATOM     18  C   UNL     1       1.099  -1.475   4.575  1.00  0.00     0.042 A 
ATOM     19  C   UNL     1       2.984   0.333   5.662  1.00  0.00     0.001 A 
ATOM     20  C   UNL     1       1.514  -1.541   5.925  1.00  0.00     0.026 A 
ATOM     21  C   UNL     1       2.426  -0.637   6.473  1.00  0.00     0.002 A 
BRANCH  18  22
ATOM     22  N   UNL     1       0.492  -2.619   4.064  1.00  0.00    -0.398 N 
ATOM     23  H   UNL     1       0.181  -2.636   3.130  1.00  0.00     0.156 HD
ATOM     24  H   UNL     1       0.375  -3.411   4.637  1.00  0.00     0.156 HD
ENDBRANCH  18  22
ENDBRANCH  14  16
ENDBRANCH  12  14
BRANCH  13  25
ATOM     25  C   UNL     1      -1.894  -0.944   2.951  1.00  0.00     0.227 C 
ATOM     26  O   UNL     1      -1.814  -2.155   3.109  1.00  0.00    -0.275 OA
ATOM     27  N   UNL     1      -2.766  -0.141   3.653  1.00  0.00    -0.338 N 
ATOM     28  C   UNL     1      -4.153  -0.163   3.201  1.00  0.00     0.148 C 
ATOM     29  C   UNL     1      -2.627  -0.049   5.105  1.00  0.00     0.148 C 
ATOM     30  C   UNL     1      -4.968   0.970   3.819  1.00  0.00     0.181 C 
ATOM     31  C   UNL     1      -3.511   1.071   5.671  1.00  0.00     0.181 C 
ATOM     32  O   UNL     1      -4.880   0.931   5.252  1.00  0.00    -0.378 OA
ENDBRANCH  13  25
ENDBRANCH   8  10
ENDBRANCH   7   8
ENDBRANCH   6   7
ENDBRANCH   5   6
ENDBRANCH   4   5
ENDBRANCH   3   4
ENDBRANCH   2   3
ENDBRANCH   1   2
BRANCH   1  33
ATOM     33  C   UNL     1       3.255   3.978   4.070  1.00  0.00     0.188 C 
BRANCH  33  34
ATOM     34  C   UNL     1       3.506   5.412   3.596  1.00  0.00     0.188 C 
BRANCH  34  35
ATOM     35  O   UNL     1       3.681   5.509   2.183  1.00  0.00    -0.376 OA
BRANCH  35  36
ATOM     36  C   UNL     1       5.026   5.492   1.708  1.00  0.00     0.202 C 
BRANCH  36  37
ATOM     37  C   UNL     1       5.721   4.118   1.712  1.00  0.00     0.261 C 
BRANCH  37  38
ATOM     38  O   UNL     1       6.039   3.560   3.001  1.00  0.00    -0.460 OA
BRANCH  38  39
ATOM     39  C   UNL     1       6.710   4.326   3.884  1.00  0.00     0.338 C 
ATOM     40  O   UNL     1       7.194   5.425   3.680  1.00  0.00    -0.246 OA
BRANCH  39  41
ATOM     41  C   UNL     1       6.592   3.714   5.226  1.00  0.00     0.060 A 
ATOM     42  C   UNL     1       6.147   4.519   6.282  1.00  0.00     0.016 A 
ATOM     43  C   UNL     1       6.952   2.383   5.456  1.00  0.00     0.016 A 
ATOM     44  C   UNL     1       6.135   4.020   7.583  1.00  0.00     0.010 A 
ATOM     45  C   UNL     1       6.953   1.887   6.765  1.00  0.00     0.010 A 
ATOM     46  C   UNL     1       6.596   2.722   7.839  1.00  0.00    -0.014 A 
BRANCH  46  47
ATOM     47  C   UNL     1       6.913   2.332   9.235  1.00  0.00     0.031 A 
ATOM     48  C   UNL     1       8.334   2.480   9.714  1.00  0.00     0.074 A 
ATOM     49  C   UNL     1       5.963   1.886  10.075  1.00  0.00     0.049 A 
ATOM     50  N   UNL     1       8.837   2.260  10.900  1.00  0.00    -0.248 NA
ATOM     51  C   UNL     1       9.319   2.942   8.721  1.00  0.00     0.031 C 
ATOM     52  C   UNL     1       4.555   1.692   9.736  1.00  0.00     0.029 A 
ATOM     53  N   UNL     1       6.051   1.502  11.390  1.00  0.00    -0.354 N 
ATOM     54  C   UNL     1      10.194   2.539  10.794  1.00  0.00     0.074 A 
ATOM     55  C   UNL     1      10.442   2.925   9.423  1.00  0.00     0.031 C 
ATOM     56  C   UNL     1       3.913   1.202  10.812  1.00  0.00     0.029 A 
ATOM     57  C   UNL     1       4.865   1.042  11.912  1.00  0.00     0.049 A 
ATOM     58  H   UNL     1       6.885   1.551  11.911  1.00  0.00     0.167 HD
ATOM     59  C   UNL     1      11.149   2.501  11.753  1.00  0.00     0.034 A 
ATOM     60  C   UNL     1       4.585   0.544  13.133  1.00  0.00     0.034 A 
ATOM     61  C   UNL     1      10.906   2.134  13.121  1.00  0.00     0.049 A 
ATOM     62  C   UNL     1       5.669   0.498  14.182  1.00  0.00     0.074 A 
ATOM     63  C   UNL     1      11.799   2.110  14.177  1.00  0.00     0.029 A 
ATOM     64  N   UNL     1       9.684   1.713  13.620  1.00  0.00    -0.354 N 
ATOM     65  N   UNL     1       6.914   0.902  14.103  1.00  0.00    -0.248 NA
ATOM     66  C   UNL     1       5.297  -0.036  15.501  1.00  0.00     0.031 C 
ATOM     67  C   UNL     1      11.120   1.654  15.312  1.00  0.00     0.029 A 
ATOM     68  C   UNL     1       9.800   1.417  14.967  1.00  0.00     0.049 A 
ATOM     69  H   UNL     1       8.855   1.637  13.094  1.00  0.00     0.167 HD
ATOM     70  C   UNL     1       7.461   0.706  15.368  1.00  0.00     0.074 A 
ATOM     71  C   UNL     1       6.405   0.168  16.200  1.00  0.00     0.031 C 
ATOM     72  C   UNL     1       8.727   0.937  15.799  1.00  0.00     0.034 A 
BRANCH  59  73
ATOM     73  C   UNL     1      12.544   2.904  11.360  1.00  0.00     0.023 A 
ATOM     74  C   UNL     1      12.836   4.265  11.136  1.00  0.00     0.012 A 
ATOM     75  C   UNL     1      13.573   1.949  11.255  1.00  0.00     0.148 A 
ATOM     76  C   UNL     1      14.125   4.666  10.786  1.00  0.00     0.002 A 
ATOM     77  C   UNL     1      14.864   2.361  10.945  1.00  0.00     0.091 A 
ATOM     78  F   UNL     1      13.268   0.657  11.444  1.00  0.00    -0.205 F 
ATOM     79  C   UNL     1      15.139   3.717  10.701  1.00  0.00     0.022 A 
BRANCH  77  80
ATOM     80  S   UNL     1      16.252   1.223  10.883  1.00  0.00     0.127 S 
ATOM     81  O   UNL     1      16.505   1.146   9.445  1.00  0.00    -0.237 OA
ATOM     82  O   UNL     1      17.274   1.942  11.644  1.00  0.00    -0.237 OA
ATOM     83  O   UNL     1      15.787  -0.009  11.505  1.00  0.00    -0.744 OA
ENDBRANCH  77  80
ENDBRANCH  59  73
BRANCH  60  84
ATOM     84  C   UNL     1       3.201   0.091  13.453  1.00  0.00     0.023 A 
ATOM     85  C   UNL     1       2.425   0.818  14.377  1.00  0.00     0.012 A 
ATOM     86  C   UNL     1       2.646  -1.048  12.838  1.00  0.00     0.148 A 
ATOM     87  C   UNL     1       1.134   0.401  14.706  1.00  0.00     0.002 A 
ATOM     88  C   UNL     1       1.340  -1.424  13.126  1.00  0.00     0.091 A 
ATOM     89  F   UNL     1       3.407  -1.740  11.978  1.00  0.00    -0.205 F 
ATOM     90  C   UNL     1       0.588  -0.712  14.073  1.00  0.00     0.022 A 
BRANCH  88  91
ATOM     91  S   UNL     1       0.513  -2.758  12.252  1.00  0.00     0.127 S 
ATOM     92  O   UNL     1       0.478  -3.806  13.268  1.00  0.00    -0.237 OA
ATOM     93  O   UNL     1      -0.783  -2.157  11.937  1.00  0.00    -0.237 OA
ATOM     94  O   UNL     1       1.342  -3.029  11.084  1.00  0.00    -0.744 OA
ENDBRANCH  88  91
ENDBRANCH  60  84
BRANCH  72  95
ATOM     95  C   UNL     1       9.043   0.642  17.243  1.00  0.00     0.023 A 
ATOM     96  C   UNL     1       9.146  -0.694  17.678  1.00  0.00     0.012 A 
ATOM     97  C   UNL     1       9.312   1.686  18.150  1.00  0.00     0.148 A 
ATOM     98  C   UNL     1       9.479  -0.986  19.001  1.00  0.00     0.002 A 
ATOM     99  C   UNL     1       9.690   1.387  19.455  1.00  0.00     0.091 A 
ATOM    100  F   UNL     1       9.191   2.952  17.725  1.00  0.00    -0.205 F 
ATOM    101  C   UNL     1       9.762   0.053  19.885  1.00  0.00     0.022 A 
BRANCH  99 102
ATOM    102  S   UNL     1      10.164   2.662  20.630  1.00  0.00     0.127 S 
ATOM    103  O   UNL     1       8.969   2.756  21.466  1.00  0.00    -0.237 OA
ATOM    104  O   UNL     1      11.325   2.064  21.291  1.00  0.00    -0.237 OA
ATOM    105  O   UNL     1      10.469   3.842  19.832  1.00  0.00    -0.744 OA
ENDBRANCH  99 102
ENDBRANCH  72  95
ENDBRANCH  46  47
ENDBRANCH  39  41
ENDBRANCH  38  39
ENDBRANCH  37  38
ENDBRANCH  36  37
ENDBRANCH  35  36
ENDBRANCH  34  35
ENDBRANCH  33  34
ENDBRANCH   1  33
TORSDOF 27
