REMARK SMILES O=C(OCCOCCOCCOCCOC(=O)c1ccc2c(c1O)C(=O)c1ccccc1C2=O)c1ccc(-c2c3nc(c(-c4cccc(S(=O)(=O)[O-])c4F)c4ccc([nH]4)c(-c4cccc(S(=O)(=O)[O-])c4F)c4nc(c(-c5cccc(S(=O)(=O)[O-])c5F)c5ccc2[nH]5)C=C4)C=C3)cc1
REMARK SMILES IDX 8 1 7 2 6 3 5 4 4 5 3 6 2 7 1 8 35 9 36 10 97 11 37 12 96 13
REMARK SMILES IDX 38 14 39 15 40 16 90 17 41 18 95 19 89 20 91 21 42 22 94 23
REMARK SMILES IDX 88 24 87 25 43 27 75 28 55 29 74 30 56 31 59 32 73 33 92 34
REMARK SMILES IDX 57 35 58 36 72 38 93 39 60 40 44 41 45 42 53 43 46 44 48 45
REMARK SMILES IDX 54 46 47 47 49 48 50 49 51 50 52 51 76 52 77 53 85 54 78 55
REMARK SMILES IDX 80 56 86 57 79 58 81 59 82 60 83 61 84 62 61 63 62 64 70 65
REMARK SMILES IDX 63 66 65 67 71 68 64 69 66 70 67 71 68 72 69 73 9 74 10 75
REMARK SMILES IDX 11 76 12 77 13 78 14 79 15 80 16 81 17 82 18 83 19 84 23 85
REMARK SMILES IDX 20 86 22 87 21 88 25 89 33 90 26 91 27 92 32 93 34 94 28 95
REMARK SMILES IDX 31 96 29 97 30 98 24 99
REMARK H PARENT 91 26 59 37 24 100
REMARK Flexibility Score: inf
ROOT
ATOM      1  C   UNL     1       1.904   2.338  -1.359  1.00  0.00     0.188 C 
ENDROOT
BRANCH   1   2
ATOM      2  C   UNL     1       2.314   0.866  -1.305  1.00  0.00     0.188 C 
BRANCH   2   3
ATOM      3  O   UNL     1       3.659   0.729  -0.840  1.00  0.00    -0.376 OA
BRANCH   3   4
ATOM      4  C   UNL     1       4.433  -0.283  -1.482  1.00  0.00     0.202 C 
BRANCH   4   5
ATOM      5  C   UNL     1       4.261  -1.679  -0.880  1.00  0.00     0.261 C 
BRANCH   5   6
ATOM      6  O   UNL     1       2.904  -1.931  -0.495  1.00  0.00    -0.460 OA
BRANCH   6   7
ATOM      7  C   UNL     1       2.336  -1.718   0.720  1.00  0.00     0.338 C 
ATOM      8  O   UNL     1       1.150  -2.019   0.859  1.00  0.00    -0.246 OA
BRANCH   7   9
ATOM      9  C   UNL     1       3.062  -1.159   1.908  1.00  0.00     0.060 A 
ATOM     10  C   UNL     1       4.205  -0.356   1.865  1.00  0.00     0.016 A 
ATOM     11  C   UNL     1       2.508  -1.433   3.171  1.00  0.00     0.016 A 
ATOM     12  C   UNL     1       4.833   0.087   3.019  1.00  0.00     0.010 A 
ATOM     13  C   UNL     1       3.116  -0.969   4.342  1.00  0.00     0.010 A 
ATOM     14  C   UNL     1       4.308  -0.242   4.262  1.00  0.00    -0.014 A 
BRANCH  14  15
ATOM     15  C   UNL     1       5.140   0.028   5.445  1.00  0.00     0.031 A 
ATOM     16  C   UNL     1       5.892  -1.124   6.040  1.00  0.00     0.074 A 
ATOM     17  C   UNL     1       5.312   1.288   5.877  1.00  0.00     0.049 A 
ATOM     18  N   UNL     1       6.665  -1.153   7.089  1.00  0.00    -0.248 NA
ATOM     19  C   UNL     1       5.770  -2.419   5.345  1.00  0.00     0.031 C 
ATOM     20  C   UNL     1       4.702   2.476   5.275  1.00  0.00     0.029 A 
ATOM     21  N   UNL     1       6.056   1.782   6.915  1.00  0.00    -0.354 N 
ATOM     22  C   UNL     1       7.069  -2.476   7.216  1.00  0.00     0.074 A 
ATOM     23  C   UNL     1       6.481  -3.216   6.125  1.00  0.00     0.031 C 
ATOM     24  C   UNL     1       5.090   3.563   5.963  1.00  0.00     0.029 A 
ATOM     25  C   UNL     1       5.923   3.140   7.083  1.00  0.00     0.049 A 
ATOM     26  H   UNL     1       6.629   1.220   7.484  1.00  0.00     0.167 HD
ATOM     27  C   UNL     1       7.857  -3.019   8.170  1.00  0.00     0.034 A 
ATOM     28  C   UNL     1       6.394   3.934   8.064  1.00  0.00     0.034 A 
ATOM     29  C   UNL     1       8.437  -2.251   9.233  1.00  0.00     0.049 A 
ATOM     30  C   UNL     1       7.230   3.296   9.142  1.00  0.00     0.074 A 
ATOM     31  C   UNL     1       9.223  -2.684  10.282  1.00  0.00     0.029 A 
ATOM     32  N   UNL     1       8.281  -0.879   9.380  1.00  0.00    -0.354 N 
ATOM     33  N   UNL     1       7.619   2.046   9.251  1.00  0.00    -0.248 NA
ATOM     34  C   UNL     1       7.705   4.170  10.221  1.00  0.00     0.031 C 
ATOM     35  C   UNL     1       9.520  -1.574  11.081  1.00  0.00     0.029 A 
ATOM     36  C   UNL     1       8.947  -0.446  10.509  1.00  0.00     0.049 A 
ATOM     37  H   UNL     1       7.769  -0.300   8.770  1.00  0.00     0.167 HD
ATOM     38  C   UNL     1       8.400   1.986  10.398  1.00  0.00     0.074 A 
ATOM     39  C   UNL     1       8.451   3.334  10.932  1.00  0.00     0.031 C 
ATOM     40  C   UNL     1       9.007   0.918  10.973  1.00  0.00     0.034 A 
BRANCH  27  41
ATOM     41  C   UNL     1       8.076  -4.505   8.116  1.00  0.00     0.023 A 
ATOM     42  C   UNL     1       8.919  -5.066   7.136  1.00  0.00     0.012 A 
ATOM     43  C   UNL     1       7.420  -5.352   9.031  1.00  0.00     0.148 A 
ATOM     44  C   UNL     1       9.076  -6.450   7.043  1.00  0.00     0.002 A 
ATOM     45  C   UNL     1       7.612  -6.725   8.958  1.00  0.00     0.091 A 
ATOM     46  F   UNL     1       6.598  -4.799   9.934  1.00  0.00    -0.205 F 
ATOM     47  C   UNL     1       8.428  -7.277   7.957  1.00  0.00     0.022 A 
BRANCH  45  48
ATOM     48  S   UNL     1       6.866  -7.871  10.122  1.00  0.00     0.127 S 
ATOM     49  O   UNL     1       5.926  -8.592   9.265  1.00  0.00    -0.237 OA
ATOM     50  O   UNL     1       8.020  -8.657  10.558  1.00  0.00    -0.237 OA
ATOM     51  O   UNL     1       6.258  -7.052  11.161  1.00  0.00    -0.744 OA
ENDBRANCH  45  48
ENDBRANCH  27  41
BRANCH  28  52
ATOM     52  C   UNL     1       6.074   5.391   8.073  1.00  0.00     0.023 A 
ATOM     53  C   UNL     1       7.100   6.339   7.899  1.00  0.00     0.012 A 
ATOM     54  C   UNL     1       4.746   5.842   8.225  1.00  0.00     0.148 A 
ATOM     55  C   UNL     1       6.814   7.707   7.901  1.00  0.00     0.002 A 
ATOM     56  C   UNL     1       4.461   7.202   8.167  1.00  0.00     0.091 A 
ATOM     57  F   UNL     1       3.783   4.930   8.414  1.00  0.00    -0.205 F 
ATOM     58  C   UNL     1       5.495   8.137   8.022  1.00  0.00     0.022 A 
BRANCH  56  59
ATOM     59  S   UNL     1       2.778   7.832   8.180  1.00  0.00     0.127 S 
ATOM     60  O   UNL     1       2.698   8.444   9.503  1.00  0.00    -0.237 OA
ATOM     61  O   UNL     1       2.800   8.777   7.063  1.00  0.00    -0.237 OA
ATOM     62  O   UNL     1       1.923   6.672   7.964  1.00  0.00    -0.744 OA
ENDBRANCH  56  59
ENDBRANCH  28  52
BRANCH  40  63
ATOM     63  C   UNL     1       9.802   1.170  12.223  1.00  0.00     0.023 A 
ATOM     64  C   UNL     1       9.137   1.404  13.441  1.00  0.00     0.012 A 
ATOM     65  C   UNL     1      11.206   1.069  12.201  1.00  0.00     0.148 A 
ATOM     66  C   UNL     1       9.862   1.561  14.620  1.00  0.00     0.002 A 
ATOM     67  C   UNL     1      11.918   1.173  13.388  1.00  0.00     0.091 A 
ATOM     68  F   UNL     1      11.816   0.865  11.024  1.00  0.00    -0.205 F 
ATOM     69  C   UNL     1      11.249   1.430  14.596  1.00  0.00     0.022 A 
BRANCH  67  70
ATOM     70  S   UNL     1      13.692   0.906  13.463  1.00  0.00     0.127 S 
ATOM     71  O   UNL     1      14.190   2.268  13.644  1.00  0.00    -0.237 OA
ATOM     72  O   UNL     1      13.827   0.044  14.637  1.00  0.00    -0.237 OA
ATOM     73  O   UNL     1      14.054   0.268  12.204  1.00  0.00    -0.744 OA
ENDBRANCH  67  70
ENDBRANCH  40  63
ENDBRANCH  14  15
ENDBRANCH   7   9
ENDBRANCH   6   7
ENDBRANCH   5   6
ENDBRANCH   4   5
ENDBRANCH   3   4
ENDBRANCH   2   3
ENDBRANCH   1   2
BRANCH   1  74
ATOM     74  O   UNL     1       2.608   3.129  -2.317  1.00  0.00    -0.377 OA
BRANCH  74  75
ATOM     75  C   UNL     1       4.029   3.054  -2.282  1.00  0.00     0.188 C 
BRANCH  75  76
ATOM     76  C   UNL     1       4.769   3.421  -0.977  1.00  0.00     0.188 C 
BRANCH  76  77
ATOM     77  O   UNL     1       3.929   3.825   0.092  1.00  0.00    -0.376 OA
BRANCH  77  78
ATOM     78  C   UNL     1       3.959   5.212   0.414  1.00  0.00     0.202 C 
BRANCH  78  79
ATOM     79  C   UNL     1       3.165   6.091  -0.562  1.00  0.00     0.261 C 
BRANCH  79  80
ATOM     80  O   UNL     1       3.639   6.083  -1.925  1.00  0.00    -0.460 OA
BRANCH  80  81
ATOM     81  C   UNL     1       4.905   6.496  -2.161  1.00  0.00     0.342 C 
ATOM     82  O   UNL     1       5.700   6.960  -1.365  1.00  0.00    -0.246 OA
BRANCH  81  83
ATOM     83  C   UNL     1       5.252   6.070  -3.535  1.00  0.00     0.102 A 
ATOM     84  C   UNL     1       6.426   5.317  -3.701  1.00  0.00     0.020 A 
ATOM     85  C   UNL     1       4.407   6.316  -4.628  1.00  0.00     0.142 A 
ATOM     86  C   UNL     1       6.735   4.776  -4.947  1.00  0.00     0.014 A 
ATOM     87  C   UNL     1       4.774   5.863  -5.902  1.00  0.00     0.076 A 
ATOM     88  C   UNL     1       5.921   5.070  -6.045  1.00  0.00     0.037 A 
ATOM     89  C   UNL     1       4.017   6.231  -7.125  1.00  0.00     0.198 C 
ATOM     90  C   UNL     1       6.323   4.579  -7.379  1.00  0.00     0.194 C 
ATOM     91  O   UNL     1       2.852   6.601  -7.116  1.00  0.00    -0.288 OA
ATOM     92  C   UNL     1       4.735   6.166  -8.413  1.00  0.00     0.034 A 
ATOM     93  C   UNL     1       5.835   5.325  -8.550  1.00  0.00     0.034 A 
ATOM     94  O   UNL     1       7.090   3.634  -7.504  1.00  0.00    -0.289 OA
ATOM     95  C   UNL     1       4.329   6.968  -9.483  1.00  0.00     0.013 A 
ATOM     96  C   UNL     1       6.521   5.250  -9.766  1.00  0.00     0.013 A 
ATOM     97  C   UNL     1       5.038   6.928 -10.684  1.00  0.00     0.001 A 
ATOM     98  C   UNL     1       6.126   6.064 -10.829  1.00  0.00     0.001 A 
BRANCH  85  99
ATOM     99  O   UNL     1       3.245   7.015  -4.457  1.00  0.00    -0.506 OA
ATOM    100  H   UNL     1       3.001   7.317  -3.605  1.00  0.00     0.293 HD
ENDBRANCH  85  99
ENDBRANCH  81  83
ENDBRANCH  80  81
ENDBRANCH  79  80
ENDBRANCH  78  79
ENDBRANCH  77  78
ENDBRANCH  76  77
ENDBRANCH  75  76
ENDBRANCH  74  75
ENDBRANCH   1  74
TORSDOF 24
