REMARK SMILES C[NH+]1CCN(c2nc3c(cc2F)c(=O)c(C(=O)OCCOCCOCCOCCOC(=O)c2ccc(-c4c5nc(c(-c6cccc(S(=O)(=O)[O-])c6F)c6ccc([nH]6)c(-c6cccc(S(=O)(=O)[O-])c6F)c6nc(c(-c7cccc(S(=O)(=O)[O-])c7F)c7ccc4[nH]7)C=C6)C=C5)cc2)cn3-c2ccc(F)cc2F)CC1
REMARK SMILES IDX 25 1 24 2 23 3 22 4 21 5 20 6 19 7 18 8 16 9 17 10 15 11
REMARK SMILES IDX 6 12 7 13 11 14 8 15 10 16 12 17 9 18 97 19 13 20 96 21
REMARK SMILES IDX 14 22 5 23 1 24 2 25 3 26 107 27 4 29 106 30 98 31 99 32
REMARK SMILES IDX 104 33 100 34 103 35 105 36 101 37 102 38 26 39 27 40 28 41
REMARK SMILES IDX 29 42 30 43 31 44 32 45 33 46 34 47 95 48 35 49 94 50 36 51
REMARK SMILES IDX 37 52 38 53 88 54 39 55 93 56 87 57 89 58 40 59 92 60 86 61
REMARK SMILES IDX 85 62 41 64 73 65 53 66 72 67 54 68 57 69 71 70 90 71 55 72
REMARK SMILES IDX 56 73 70 75 91 76 58 77 42 78 43 79 51 80 44 81 46 82 52 83
REMARK SMILES IDX 45 84 47 85 48 86 49 87 50 88 74 89 75 90 83 91 76 92 78 93
REMARK SMILES IDX 84 94 77 95 79 96 80 97 81 98 82 99 59 100 60 101 68 102
REMARK SMILES IDX 61 103 63 104 69 105 62 106 64 107 65 108 66 109 67 110
REMARK H PARENT 2 28 89 63 57 74
REMARK Flexibility Score: inf
ROOT
ATOM      1  C   UNL     1      -9.915   2.199   5.744  1.00  0.00     0.188 C 
ENDROOT
BRANCH   1   2
ATOM      2  O   UNL     1      -8.810   2.074   4.858  1.00  0.00    -0.377 OA
BRANCH   2   3
ATOM      3  C   UNL     1      -8.952   2.390   3.483  1.00  0.00     0.188 C 
BRANCH   3   4
ATOM      4  C   UNL     1     -10.279   2.140   2.723  1.00  0.00     0.188 C 
BRANCH   4   5
ATOM      5  O   UNL     1     -11.367   1.733   3.528  1.00  0.00    -0.376 OA
BRANCH   5   6
ATOM      6  C   UNL     1     -11.859   0.409   3.481  1.00  0.00     0.202 C 
BRANCH   6   7
ATOM      7  C   UNL     1     -10.911  -0.779   3.681  1.00  0.00     0.261 C 
BRANCH   7   8
ATOM      8  O   UNL     1      -9.585  -0.591   3.197  1.00  0.00    -0.459 OA
BRANCH   8   9
ATOM      9  C   UNL     1      -9.356  -0.808   1.887  1.00  0.00     0.343 C 
ATOM     10  O   UNL     1     -10.191  -1.094   1.042  1.00  0.00    -0.246 OA
BRANCH   9  11
ATOM     11  C   UNL     1      -7.963  -0.440   1.588  1.00  0.00     0.124 A 
ATOM     12  C   UNL     1      -2.995  -0.040   0.914  1.00  0.00     0.167 A 
ATOM     13  N   UNL     1      -4.059   0.543   0.309  1.00  0.00    -0.209 NA
ATOM     14  C   UNL     1      -3.134  -0.752   2.113  1.00  0.00     0.166 A 
ATOM     15  C   UNL     1      -5.301   0.315   0.817  1.00  0.00     0.151 A 
ATOM     16  C   UNL     1      -4.377  -0.929   2.679  1.00  0.00     0.059 A 
ATOM     17  F   UNL     1      -2.064  -1.302   2.709  1.00  0.00    -0.203 F 
ATOM     18  C   UNL     1      -5.478  -0.428   1.995  1.00  0.00     0.069 A 
ATOM     19  N   UNL     1      -6.462   0.773   0.106  1.00  0.00    -0.297 N 
ATOM     20  C   UNL     1      -6.827  -0.790   2.462  1.00  0.00     0.205 A 
ATOM     21  C   UNL     1      -7.711   0.323   0.514  1.00  0.00     0.113 A 
ATOM     22  O   UNL     1      -6.968  -1.427   3.497  1.00  0.00    -0.288 OA
BRANCH  12  23
ATOM     23  N   UNL     1      -1.774   0.011   0.293  1.00  0.00    -0.343 N 
ATOM     24  C   UNL     1       2.430   0.082   0.080  1.00  0.00     0.332 C 
ATOM     25  N   UNL     1       1.032   0.047  -0.345  1.00  0.00    -0.334 N 
ATOM     26  C   UNL     1       0.311   1.261   0.124  1.00  0.00     0.283 C 
ATOM     27  C   UNL     1       0.374  -1.162   0.212  1.00  0.00     0.283 C 
ATOM     28  H   UNL     1       1.001   0.020  -1.364  1.00  0.00     0.347 HD
ATOM     29  C   UNL     1      -1.207   1.248  -0.214  1.00  0.00     0.179 C 
ATOM     30  C   UNL     1      -1.126  -1.227  -0.130  1.00  0.00     0.179 C 
ENDBRANCH  12  23
BRANCH  19  31
ATOM     31  C   UNL     1      -6.356   1.501  -1.113  1.00  0.00     0.083 A 
ATOM     32  C   UNL     1      -5.961   0.838  -2.286  1.00  0.00     0.033 A 
ATOM     33  C   UNL     1      -6.667   2.869  -1.189  1.00  0.00     0.150 A 
ATOM     34  C   UNL     1      -5.887   1.525  -3.498  1.00  0.00     0.041 A 
ATOM     35  C   UNL     1      -6.582   3.564  -2.393  1.00  0.00     0.080 A 
ATOM     36  F   UNL     1      -7.061   3.533  -0.092  1.00  0.00    -0.205 F 
ATOM     37  C   UNL     1      -6.195   2.881  -3.538  1.00  0.00     0.126 A 
ATOM     38  F   UNL     1      -6.120   3.535  -4.705  1.00  0.00    -0.207 F 
ENDBRANCH  19  31
ENDBRANCH   9  11
ENDBRANCH   8   9
ENDBRANCH   7   8
ENDBRANCH   6   7
ENDBRANCH   5   6
ENDBRANCH   4   5
ENDBRANCH   3   4
ENDBRANCH   2   3
ENDBRANCH   1   2
BRANCH   1  39
ATOM     39  C   UNL     1     -10.871   3.405   5.611  1.00  0.00     0.188 C 
BRANCH  39  40
ATOM     40  O   UNL     1     -10.537   4.290   4.555  1.00  0.00    -0.376 OA
BRANCH  40  41
ATOM     41  C   UNL     1      -9.930   5.521   4.900  1.00  0.00     0.202 C 
BRANCH  41  42
ATOM     42  C   UNL     1      -8.632   5.509   5.721  1.00  0.00     0.261 C 
BRANCH  42  43
ATOM     43  O   UNL     1      -8.603   4.675   6.888  1.00  0.00    -0.460 OA
BRANCH  43  44
ATOM     44  C   UNL     1      -9.347   5.042   7.952  1.00  0.00     0.338 C 
ATOM     45  O   UNL     1     -10.085   6.011   8.037  1.00  0.00    -0.246 OA
BRANCH  44  46
ATOM     46  C   UNL     1      -9.247   3.949   8.940  1.00  0.00     0.060 A 
ATOM     47  C   UNL     1     -10.356   3.122   9.171  1.00  0.00     0.016 A 
ATOM     48  C   UNL     1      -8.040   3.716   9.603  1.00  0.00     0.016 A 
ATOM     49  C   UNL     1     -10.257   2.056  10.064  1.00  0.00     0.010 A 
ATOM     50  C   UNL     1      -7.955   2.675  10.531  1.00  0.00     0.010 A 
ATOM     51  C   UNL     1      -9.070   1.856  10.780  1.00  0.00    -0.014 A 
BRANCH  51  52
ATOM     52  C   UNL     1      -9.078   0.943  11.945  1.00  0.00     0.031 A 
ATOM     53  C   UNL     1      -9.423   1.526  13.288  1.00  0.00     0.074 A 
ATOM     54  C   UNL     1      -8.804  -0.368  11.822  1.00  0.00     0.049 A 
ATOM     55  N   UNL     1      -9.483   0.936  14.451  1.00  0.00    -0.248 NA
ATOM     56  C   UNL     1      -9.751   2.964  13.324  1.00  0.00     0.031 C 
ATOM     57  C   UNL     1      -8.465  -1.051  10.575  1.00  0.00     0.029 A 
ATOM     58  N   UNL     1      -8.746  -1.355  12.775  1.00  0.00    -0.354 N 
ATOM     59  C   UNL     1      -9.836   1.928  15.355  1.00  0.00     0.074 A 
ATOM     60  C   UNL     1      -9.980   3.159  14.614  1.00  0.00     0.031 C 
ATOM     61  C   UNL     1      -8.194  -2.341  10.846  1.00  0.00     0.029 A 
ATOM     62  C   UNL     1      -8.327  -2.570  12.285  1.00  0.00     0.049 A 
ATOM     63  H   UNL     1      -8.982  -1.208  13.719  1.00  0.00     0.167 HD
ATOM     64  C   UNL     1     -10.037   1.818  16.686  1.00  0.00     0.034 A 
ATOM     65  C   UNL     1      -8.057  -3.724  12.928  1.00  0.00     0.034 A 
ATOM     66  C   UNL     1      -9.913   0.595  17.423  1.00  0.00     0.049 A 
ATOM     67  C   UNL     1      -8.264  -3.813  14.418  1.00  0.00     0.074 A 
ATOM     68  C   UNL     1     -10.138   0.388  18.772  1.00  0.00     0.029 A 
ATOM     69  N   UNL     1      -9.520  -0.618  16.886  1.00  0.00    -0.354 N 
ATOM     70  N   UNL     1      -8.694  -2.890  15.245  1.00  0.00    -0.248 NA
ATOM     71  C   UNL     1      -7.978  -5.105  15.063  1.00  0.00     0.031 C 
ATOM     72  C   UNL     1      -9.860  -0.950  19.057  1.00  0.00     0.029 A 
ATOM     73  C   UNL     1      -9.488  -1.578  17.879  1.00  0.00     0.049 A 
ATOM     74  H   UNL     1      -9.297  -0.773  15.939  1.00  0.00     0.167 HD
ATOM     75  C   UNL     1      -8.751  -3.494  16.496  1.00  0.00     0.074 A 
ATOM     76  C   UNL     1      -8.325  -4.865  16.322  1.00  0.00     0.031 C 
ATOM     77  C   UNL     1      -9.114  -2.953  17.684  1.00  0.00     0.034 A 
BRANCH  64  78
ATOM     78  C   UNL     1     -10.456   3.038  17.450  1.00  0.00     0.023 A 
ATOM     79  C   UNL     1     -11.812   3.417  17.445  1.00  0.00     0.012 A 
ATOM     80  C   UNL     1      -9.544   3.701  18.291  1.00  0.00     0.148 A 
ATOM     81  C   UNL     1     -12.260   4.434  18.285  1.00  0.00     0.002 A 
ATOM     82  C   UNL     1     -10.003   4.693  19.146  1.00  0.00     0.091 A 
ATOM     83  F   UNL     1      -8.258   3.322  18.261  1.00  0.00    -0.205 F 
ATOM     84  C   UNL     1     -11.360   5.059  19.145  1.00  0.00     0.022 A 
BRANCH  82  85
ATOM     85  S   UNL     1      -8.941   5.522  20.332  1.00  0.00     0.127 S 
ATOM     86  O   UNL     1      -9.070   6.919  19.918  1.00  0.00    -0.237 OA
ATOM     87  O   UNL     1      -9.591   5.199  21.601  1.00  0.00    -0.237 OA
ATOM     88  O   UNL     1      -7.612   4.953  20.154  1.00  0.00    -0.744 OA
ENDBRANCH  82  85
ENDBRANCH  64  78
BRANCH  65  89
ATOM     89  C   UNL     1      -7.561  -4.897  12.158  1.00  0.00     0.023 A 
ATOM     90  C   UNL     1      -8.410  -5.996  11.929  1.00  0.00     0.012 A 
ATOM     91  C   UNL     1      -6.255  -4.912  11.632  1.00  0.00     0.148 A 
ATOM     92  C   UNL     1      -7.962  -7.096  11.197  1.00  0.00     0.002 A 
ATOM     93  C   UNL     1      -5.827  -5.994  10.872  1.00  0.00     0.091 A 
ATOM     94  F   UNL     1      -5.462  -3.859  11.877  1.00  0.00    -0.205 F 
ATOM     95  C   UNL     1      -6.676  -7.091  10.661  1.00  0.00     0.022 A 
BRANCH  93  96
ATOM     96  S   UNL     1      -4.217  -6.045  10.078  1.00  0.00     0.127 S 
ATOM     97  O   UNL     1      -3.580  -7.165  10.768  1.00  0.00    -0.237 OA
ATOM     98  O   UNL     1      -4.579  -6.307   8.685  1.00  0.00    -0.237 OA
ATOM     99  O   UNL     1      -3.614  -4.741  10.314  1.00  0.00    -0.744 OA
ENDBRANCH  93  96
ENDBRANCH  65  89
BRANCH  77 100
ATOM    100  C   UNL     1      -9.104  -3.825  18.909  1.00  0.00     0.023 A 
ATOM    101  C   UNL     1      -7.885  -4.097  19.555  1.00  0.00     0.012 A 
ATOM    102  C   UNL     1     -10.316  -4.227  19.506  1.00  0.00     0.148 A 
ATOM    103  C   UNL     1      -7.870  -4.762  20.781  1.00  0.00     0.002 A 
ATOM    104  C   UNL     1     -10.296  -4.859  20.742  1.00  0.00     0.091 A 
ATOM    105  F   UNL     1     -11.463  -3.950  18.868  1.00  0.00    -0.205 F 
ATOM    106  C   UNL     1      -9.074  -5.130  21.379  1.00  0.00     0.022 A 
BRANCH 104 107
ATOM    107  S   UNL     1     -11.794  -5.307  21.627  1.00  0.00     0.127 S 
ATOM    108  O   UNL     1     -11.704  -6.767  21.642  1.00  0.00    -0.237 OA
ATOM    109  O   UNL     1     -11.587  -4.670  22.927  1.00  0.00    -0.237 OA
ATOM    110  O   UNL     1     -12.902  -4.766  20.852  1.00  0.00    -0.744 OA
ENDBRANCH 104 107
ENDBRANCH  77 100
ENDBRANCH  51  52
ENDBRANCH  44  46
ENDBRANCH  43  44
ENDBRANCH  42  43
ENDBRANCH  41  42
ENDBRANCH  40  41
ENDBRANCH  39  40
ENDBRANCH   1  39
TORSDOF 25
