REMARK SMILES C[NH+](C)[C@@H]1CC[N@@H+](Cc2ccc(C(=O)OCCOCCOCCOCCOC(=O)c3ccc(-c4c5nc(c(-c6cccc(S(=O)(=O)[O-])c6F)c6ccc([nH]6)c(-c6cccc(S(=O)(=O)[O-])c6F)c6nc(c(-c7cccc(S(=O)(=O)[O-])c7F)c7ccc4[nH]7)C=C6)C=C5)cc3)cn2)C1
REMARK SMILES IDX 21 1 20 2 19 3 18 4 17 5 16 6 15 7 13 8 14 9 12 10 9 11
REMARK SMILES IDX 10 12 94 13 11 14 93 15 8 16 7 17 4 18 5 19 95 20 6 21 2 23
REMARK SMILES IDX 1 24 3 25 22 27 23 28 24 29 25 30 26 31 27 32 28 33 29 34
REMARK SMILES IDX 30 35 31 36 92 37 32 38 91 39 33 40 34 41 35 42 85 43 36 44
REMARK SMILES IDX 90 45 84 46 86 47 37 48 89 49 83 50 82 51 38 53 70 54 50 55
REMARK SMILES IDX 69 56 51 57 54 58 68 59 87 60 52 61 53 62 67 64 88 65 55 66
REMARK SMILES IDX 39 67 40 68 48 69 41 70 43 71 49 72 42 73 44 74 45 75 46 76
REMARK SMILES IDX 47 77 71 78 72 79 80 80 73 81 75 82 81 83 74 84 76 85 77 86
REMARK SMILES IDX 78 87 79 88 56 89 57 90 65 91 58 92 60 93 66 94 59 95 61 96
REMARK SMILES IDX 62 97 63 98 64 99
REMARK H PARENT 7 22 2 26 86 52 54 63
REMARK Flexibility Score: inf
ROOT
ATOM      1  O   UNL     1       0.497   1.216   8.488  1.00  0.00    -0.377 OA
ENDROOT
BRANCH   1   2
ATOM      2  C   UNL     1       0.716   2.609   8.356  1.00  0.00     0.188 C 
BRANCH   2   3
ATOM      3  C   UNL     1      -0.526   3.501   8.545  1.00  0.00     0.188 C 
BRANCH   3   4
ATOM      4  O   UNL     1      -1.561   2.875   9.281  1.00  0.00    -0.376 OA
BRANCH   4   5
ATOM      5  C   UNL     1      -2.705   2.344   8.636  1.00  0.00     0.202 C 
BRANCH   5   6
ATOM      6  C   UNL     1      -2.627   1.438   7.395  1.00  0.00     0.261 C 
BRANCH   6   7
ATOM      7  O   UNL     1      -1.521   1.650   6.524  1.00  0.00    -0.460 OA
BRANCH   7   8
ATOM      8  C   UNL     1      -1.605   2.675   5.658  1.00  0.00     0.339 C 
ATOM      9  O   UNL     1      -2.548   3.430   5.496  1.00  0.00    -0.246 OA
BRANCH   8  10
ATOM     10  C   UNL     1      -0.264   2.881   5.088  1.00  0.00     0.078 A 
ATOM     11  C   UNL     1       2.160   3.461   3.964  1.00  0.00     0.095 A 
ATOM     12  C   UNL     1       1.896   2.144   4.338  1.00  0.00     0.031 A 
ATOM     13  N   UNL     1       1.328   4.494   4.271  1.00  0.00    -0.254 NA
ATOM     14  C   UNL     1       0.653   1.848   4.887  1.00  0.00     0.019 A 
ATOM     15  C   UNL     1       0.136   4.181   4.824  1.00  0.00     0.127 A 
BRANCH  11  16
ATOM     16  C   UNL     1       3.256   3.750   2.956  1.00  0.00     0.319 C 
BRANCH  16  17
ATOM     17  N   UNL     1       2.884   3.600   1.532  1.00  0.00    -0.325 N 
ATOM     18  C   UNL     1       1.039   2.030   1.108  1.00  0.00     0.245 C 
ATOM     19  C   UNL     1       0.497   3.464   1.191  1.00  0.00     0.132 C 
ATOM     20  C   UNL     1       2.579   2.230   1.092  1.00  0.00     0.328 C 
ATOM     21  C   UNL     1       1.711   4.383   1.131  1.00  0.00     0.269 C 
ATOM     22  H   UNL     1       3.741   3.935   1.091  1.00  0.00     0.348 HD
BRANCH  18  23
ATOM     23  N   UNL     1       0.494   1.245  -0.025  1.00  0.00    -0.333 N 
ATOM     24  C   UNL     1       1.086  -0.100  -0.075  1.00  0.00     0.332 C 
ATOM     25  C   UNL     1      -0.966   1.093   0.076  1.00  0.00     0.332 C 
ATOM     26  H   UNL     1       0.729   1.762  -0.872  1.00  0.00     0.348 HD
ENDBRANCH  18  23
ENDBRANCH  16  17
ENDBRANCH  11  16
ENDBRANCH   8  10
ENDBRANCH   7   8
ENDBRANCH   6   7
ENDBRANCH   5   6
ENDBRANCH   4   5
ENDBRANCH   3   4
ENDBRANCH   2   3
ENDBRANCH   1   2
BRANCH   1  27
ATOM     27  C   UNL     1       0.171   0.683   9.773  1.00  0.00     0.188 C 
BRANCH  27  28
ATOM     28  C   UNL     1       0.081   1.559  11.050  1.00  0.00     0.188 C 
BRANCH  28  29
ATOM     29  O   UNL     1       0.824   2.768  11.018  1.00  0.00    -0.376 OA
BRANCH  29  30
ATOM     30  C   UNL     1       2.032   2.828  11.755  1.00  0.00     0.202 C 
BRANCH  30  31
ATOM     31  C   UNL     1       3.167   1.905  11.290  1.00  0.00     0.261 C 
BRANCH  31  32
ATOM     32  O   UNL     1       2.859   0.504  11.259  1.00  0.00    -0.460 OA
BRANCH  32  33
ATOM     33  C   UNL     1       2.546  -0.088  12.431  1.00  0.00     0.338 C 
ATOM     34  O   UNL     1       2.517   0.433  13.535  1.00  0.00    -0.246 OA
BRANCH  33  35
ATOM     35  C   UNL     1       2.046  -1.443  12.125  1.00  0.00     0.060 A 
ATOM     36  C   UNL     1       0.734  -1.783  12.481  1.00  0.00     0.016 A 
ATOM     37  C   UNL     1       2.864  -2.362  11.466  1.00  0.00     0.016 A 
ATOM     38  C   UNL     1       0.247  -3.061  12.205  1.00  0.00     0.010 A 
ATOM     39  C   UNL     1       2.382  -3.647  11.211  1.00  0.00     0.010 A 
ATOM     40  C   UNL     1       1.084  -4.012  11.609  1.00  0.00    -0.014 A 
BRANCH  40  41
ATOM     41  C   UNL     1       0.674  -5.436  11.573  1.00  0.00     0.031 A 
ATOM     42  C   UNL     1       1.211  -6.359  12.633  1.00  0.00     0.074 A 
ATOM     43  C   UNL     1      -0.149  -5.907  10.619  1.00  0.00     0.049 A 
ATOM     44  N   UNL     1       1.032  -7.644  12.782  1.00  0.00    -0.248 NA
ATOM     45  C   UNL     1       2.071  -5.746  13.661  1.00  0.00     0.031 C 
ATOM     46  C   UNL     1      -0.741  -5.113   9.545  1.00  0.00     0.029 A 
ATOM     47  N   UNL     1      -0.604  -7.182  10.389  1.00  0.00    -0.354 N 
ATOM     48  C   UNL     1       1.779  -8.001  13.898  1.00  0.00     0.074 A 
ATOM     49  C   UNL     1       2.423  -6.800  14.381  1.00  0.00     0.031 C 
ATOM     50  C   UNL     1      -1.459  -5.925   8.750  1.00  0.00     0.029 A 
ATOM     51  C   UNL     1      -1.353  -7.298   9.242  1.00  0.00     0.049 A 
ATOM     52  H   UNL     1      -0.412  -7.939  10.987  1.00  0.00     0.167 HD
ATOM     53  C   UNL     1       1.910  -9.218  14.477  1.00  0.00     0.034 A 
ATOM     54  C   UNL     1      -1.867  -8.393   8.644  1.00  0.00     0.034 A 
ATOM     55  C   UNL     1       1.263 -10.409  14.001  1.00  0.00     0.049 A 
ATOM     56  C   UNL     1      -1.675  -9.744   9.287  1.00  0.00     0.074 A 
ATOM     57  C   UNL     1       1.293 -11.680  14.547  1.00  0.00     0.029 A 
ATOM     58  N   UNL     1       0.487 -10.484  12.855  1.00  0.00    -0.354 N 
ATOM     59  N   UNL     1      -1.067 -10.048  10.408  1.00  0.00    -0.248 NA
ATOM     60  C   UNL     1      -2.268 -10.900   8.597  1.00  0.00     0.031 C 
ATOM     61  C   UNL     1       0.570 -12.533  13.707  1.00  0.00     0.029 A 
ATOM     62  C   UNL     1       0.051 -11.784  12.663  1.00  0.00     0.049 A 
ATOM     63  H   UNL     1       0.278  -9.725  12.264  1.00  0.00     0.167 HD
ATOM     64  C   UNL     1      -1.233 -11.420  10.576  1.00  0.00     0.074 A 
ATOM     65  C   UNL     1      -2.019 -11.883   9.451  1.00  0.00     0.031 C 
ATOM     66  C   UNL     1      -0.769 -12.225  11.564  1.00  0.00     0.034 A 
BRANCH  53  67
ATOM     67  C   UNL     1       2.784  -9.317  15.699  1.00  0.00     0.023 A 
ATOM     68  C   UNL     1       2.357  -8.752  16.918  1.00  0.00     0.012 A 
ATOM     69  C   UNL     1       4.011 -10.008  15.649  1.00  0.00     0.148 A 
ATOM     70  C   UNL     1       3.153  -8.841  18.059  1.00  0.00     0.002 A 
ATOM     71  C   UNL     1       4.775 -10.135  16.802  1.00  0.00     0.091 A 
ATOM     72  F   UNL     1       4.411 -10.517  14.476  1.00  0.00    -0.205 F 
ATOM     73  C   UNL     1       4.355  -9.541  18.004  1.00  0.00     0.022 A 
BRANCH  71  74
ATOM     74  S   UNL     1       6.299 -11.084  16.854  1.00  0.00     0.127 S 
ATOM     75  O   UNL     1       7.297 -10.029  17.032  1.00  0.00    -0.237 OA
ATOM     76  O   UNL     1       6.091 -11.931  18.028  1.00  0.00    -0.237 OA
ATOM     77  O   UNL     1       6.370 -11.801  15.589  1.00  0.00    -0.744 OA
ENDBRANCH  71  74
ENDBRANCH  53  67
BRANCH  54  78
ATOM     78  C   UNL     1      -2.632  -8.259   7.371  1.00  0.00     0.023 A 
ATOM     79  C   UNL     1      -4.015  -8.527   7.356  1.00  0.00     0.012 A 
ATOM     80  C   UNL     1      -1.997  -7.866   6.177  1.00  0.00     0.148 A 
ATOM     81  C   UNL     1      -4.744  -8.438   6.170  1.00  0.00     0.002 A 
ATOM     82  C   UNL     1      -2.740  -7.722   5.011  1.00  0.00     0.091 A 
ATOM     83  F   UNL     1      -0.677  -7.632   6.208  1.00  0.00    -0.205 F 
ATOM     84  C   UNL     1      -4.110  -8.026   5.001  1.00  0.00     0.022 A 
BRANCH  82  85
ATOM     85  S   UNL     1      -2.035  -7.075   3.491  1.00  0.00     0.127 S 
ATOM     86  O   UNL     1      -2.101  -8.239   2.611  1.00  0.00    -0.237 OA
ATOM     87  O   UNL     1      -2.971  -6.000   3.162  1.00  0.00    -0.237 OA
ATOM     88  O   UNL     1      -0.696  -6.620   3.836  1.00  0.00    -0.744 OA
ENDBRANCH  82  85
ENDBRANCH  54  78
BRANCH  66  89
ATOM     89  C   UNL     1      -1.127 -13.690  11.506  1.00  0.00     0.023 A 
ATOM     90  C   UNL     1      -0.537 -14.523  10.535  1.00  0.00     0.012 A 
ATOM     91  C   UNL     1      -1.990 -14.254  12.468  1.00  0.00     0.148 A 
ATOM     92  C   UNL     1      -0.827 -15.887  10.500  1.00  0.00     0.002 A 
ATOM     93  C   UNL     1      -2.232 -15.623  12.460  1.00  0.00     0.091 A 
ATOM     94  F   UNL     1      -2.553 -13.444  13.375  1.00  0.00    -0.205 F 
ATOM     95  C   UNL     1      -1.663 -16.438  11.468  1.00  0.00     0.022 A 
BRANCH  93  96
ATOM     96  S   UNL     1      -3.216 -16.437  13.723  1.00  0.00     0.127 S 
ATOM     97  O   UNL     1      -4.407 -16.825  12.969  1.00  0.00    -0.237 OA
ATOM     98  O   UNL     1      -2.353 -17.552  14.115  1.00  0.00    -0.237 OA
ATOM     99  O   UNL     1      -3.435 -15.444  14.767  1.00  0.00    -0.744 OA
ENDBRANCH  93  96
ENDBRANCH  66  89
ENDBRANCH  40  41
ENDBRANCH  33  35
ENDBRANCH  32  33
ENDBRANCH  31  32
ENDBRANCH  30  31
ENDBRANCH  29  30
ENDBRANCH  28  29
ENDBRANCH  27  28
ENDBRANCH   1  27
TORSDOF 26
