REMARK SMILES CCN(CC)C(=O)C[C@](C)(C(=O)OCCOCCOCCOCCOC(=O)c1ccc(-c2c3nc(c(-c4cccc(S(=O)(=O)[O-])c4F)c4ccc([nH]4)c(-c4cccc(S(=O)(=O)[O-])c4F)c4nc(c(-c5cccc(S(=O)(=O)[O-])c5F)c5ccc2[nH]5)C=C4)C=C3)cc1)c1ccccc1
REMARK SMILES IDX 19 1 18 2 17 3 16 4 15 5 14 6 13 7 11 8 12 9 9 10 10 11 8 12
REMARK SMILES IDX 6 13 3 14 7 15 2 16 1 17 4 18 5 19 91 20 92 21 96 22 93 23
REMARK SMILES IDX 95 24 94 25 20 26 21 27 22 28 23 29 24 30 25 31 26 32 27 33
REMARK SMILES IDX 28 34 29 35 90 36 30 37 89 38 31 39 32 40 33 41 83 42 34 43
REMARK SMILES IDX 88 44 82 45 84 46 35 47 87 48 81 49 80 50 36 52 68 53 48 54
REMARK SMILES IDX 67 55 49 56 52 57 66 58 85 59 50 60 51 61 65 63 86 64 53 65
REMARK SMILES IDX 37 66 38 67 46 68 39 69 41 70 47 71 40 72 42 73 43 74 44 75
REMARK SMILES IDX 45 76 69 77 70 78 78 79 71 80 73 81 79 82 72 83 74 84 75 85
REMARK SMILES IDX 76 86 77 87 54 88 55 89 63 90 56 91 58 92 64 93 57 94 59 95
REMARK SMILES IDX 60 96 61 97 62 98
REMARK H PARENT 84 51 52 62
REMARK Flexibility Score: inf
ROOT
ATOM      1  O   UNL     1       5.943  -5.122  -2.930  1.00  0.00    -0.377 OA
ENDROOT
BRANCH   1   2
ATOM      2  C   UNL     1       5.204  -5.206  -1.726  1.00  0.00     0.188 C 
BRANCH   2   3
ATOM      3  C   UNL     1       5.556  -6.332  -0.751  1.00  0.00     0.188 C 
BRANCH   3   4
ATOM      4  O   UNL     1       5.473  -7.621  -1.345  1.00  0.00    -0.376 OA
BRANCH   4   5
ATOM      5  C   UNL     1       4.306  -8.392  -1.132  1.00  0.00     0.202 C 
BRANCH   5   6
ATOM      6  C   UNL     1       3.051  -7.986  -1.921  1.00  0.00     0.261 C 
BRANCH   6   7
ATOM      7  O   UNL     1       2.571  -6.634  -1.768  1.00  0.00    -0.463 OA
BRANCH   7   8
ATOM      8  C   UNL     1       2.249  -6.221  -0.517  1.00  0.00     0.316 C 
ATOM      9  O   UNL     1       2.370  -6.984   0.432  1.00  0.00    -0.251 OA
BRANCH   8  10
ATOM     10  C   UNL     1       1.706  -4.750  -0.441  1.00  0.00     0.099 C 
ATOM     11  C   UNL     1       2.097  -3.913  -1.702  1.00  0.00     0.029 C 
BRANCH  10  12
ATOM     12  C   UNL     1       0.152  -4.765  -0.451  1.00  0.00     0.123 C 
BRANCH  12  13
ATOM     13  C   UNL     1      -0.508  -5.884   0.318  1.00  0.00     0.224 C 
ATOM     14  N   UNL     1      -0.516  -7.186  -0.167  1.00  0.00    -0.343 N 
ATOM     15  O   UNL     1      -0.984  -5.608   1.426  1.00  0.00    -0.275 OA
BRANCH  14  16
ATOM     16  C   UNL     1      -0.805  -8.225   0.836  1.00  0.00     0.116 C 
ATOM     17  C   UNL     1       0.168  -8.289   2.013  1.00  0.00     0.027 C 
ENDBRANCH  14  16
BRANCH  14  18
ATOM     18  C   UNL     1      -0.568  -7.683  -1.560  1.00  0.00     0.116 C 
ATOM     19  C   UNL     1      -0.456  -6.782  -2.776  1.00  0.00     0.027 C 
ENDBRANCH  14  18
ENDBRANCH  12  13
ENDBRANCH  10  12
BRANCH  10  20
ATOM     20  C   UNL     1       2.248  -3.990   0.825  1.00  0.00    -0.030 A 
ATOM     21  C   UNL     1       2.728  -4.647   1.976  1.00  0.00     0.005 A 
ATOM     22  C   UNL     1       2.287  -2.579   0.865  1.00  0.00     0.005 A 
ATOM     23  C   UNL     1       3.276  -3.953   3.062  1.00  0.00     0.000 A 
ATOM     24  C   UNL     1       2.825  -1.881   1.956  1.00  0.00     0.000 A 
ATOM     25  C   UNL     1       3.331  -2.568   3.050  1.00  0.00     0.000 A 
ENDBRANCH  10  20
ENDBRANCH   8  10
ENDBRANCH   7   8
ENDBRANCH   6   7
ENDBRANCH   5   6
ENDBRANCH   4   5
ENDBRANCH   3   4
ENDBRANCH   2   3
ENDBRANCH   1   2
BRANCH   1  26
ATOM     26  C   UNL     1       5.989  -6.309  -3.703  1.00  0.00     0.188 C 
BRANCH  26  27
ATOM     27  C   UNL     1       7.280  -7.128  -3.498  1.00  0.00     0.188 C 
BRANCH  27  28
ATOM     28  O   UNL     1       8.480  -6.549  -2.990  1.00  0.00    -0.376 OA
BRANCH  28  29
ATOM     29  C   UNL     1       8.611  -5.145  -2.865  1.00  0.00     0.202 C 
BRANCH  29  30
ATOM     30  C   UNL     1       8.640  -4.288  -4.143  1.00  0.00     0.261 C 
BRANCH  30  31
ATOM     31  O   UNL     1       7.851  -4.744  -5.249  1.00  0.00    -0.460 OA
BRANCH  31  32
ATOM     32  C   UNL     1       8.429  -5.667  -6.053  1.00  0.00     0.338 C 
ATOM     33  O   UNL     1       9.554  -6.130  -5.957  1.00  0.00    -0.246 OA
BRANCH  32  34
ATOM     34  C   UNL     1       7.413  -6.159  -7.013  1.00  0.00     0.060 A 
ATOM     35  C   UNL     1       7.178  -7.539  -7.108  1.00  0.00     0.016 A 
ATOM     36  C   UNL     1       6.706  -5.267  -7.821  1.00  0.00     0.016 A 
ATOM     37  C   UNL     1       6.251  -8.034  -8.025  1.00  0.00     0.010 A 
ATOM     38  C   UNL     1       5.810  -5.765  -8.771  1.00  0.00     0.010 A 
ATOM     39  C   UNL     1       5.608  -7.151  -8.899  1.00  0.00    -0.014 A 
BRANCH  39  40
ATOM     40  C   UNL     1       4.942  -7.675 -10.113  1.00  0.00     0.031 A 
ATOM     41  C   UNL     1       5.766  -7.774 -11.368  1.00  0.00     0.074 A 
ATOM     42  C   UNL     1       3.643  -8.019 -10.120  1.00  0.00     0.049 A 
ATOM     43  N   UNL     1       5.399  -8.095 -12.579  1.00  0.00    -0.248 NA
ATOM     44  C   UNL     1       7.200  -7.459 -11.235  1.00  0.00     0.031 C 
ATOM     45  C   UNL     1       2.752  -7.987  -8.963  1.00  0.00     0.029 A 
ATOM     46  N   UNL     1       2.840  -8.428 -11.156  1.00  0.00    -0.354 N 
ATOM     47  C   UNL     1       6.544  -7.985 -13.358  1.00  0.00     0.074 A 
ATOM     48  C   UNL     1       7.619  -7.569 -12.486  1.00  0.00     0.031 C 
ATOM     49  C   UNL     1       1.511  -8.319  -9.362  1.00  0.00     0.029 A 
ATOM     50  C   UNL     1       1.517  -8.555 -10.806  1.00  0.00     0.049 A 
ATOM     51  H   UNL     1       3.179  -8.612 -12.061  1.00  0.00     0.167 HD
ATOM     52  C   UNL     1       6.691  -8.216 -14.683  1.00  0.00     0.034 A 
ATOM     53  C   UNL     1       0.435  -8.799 -11.573  1.00  0.00     0.034 A 
ATOM     54  C   UNL     1       5.624  -8.636 -15.546  1.00  0.00     0.049 A 
ATOM     55  C   UNL     1       0.617  -9.013 -13.057  1.00  0.00     0.074 A 
ATOM     56  C   UNL     1       5.677  -8.934 -16.895  1.00  0.00     0.029 A 
ATOM     57  N   UNL     1       4.308  -8.802 -15.147  1.00  0.00    -0.354 N 
ATOM     58  N   UNL     1       1.723  -9.016 -13.762  1.00  0.00    -0.248 NA
ATOM     59  C   UNL     1      -0.595  -9.283 -13.846  1.00  0.00     0.031 C 
ATOM     60  C   UNL     1       4.383  -9.253 -17.319  1.00  0.00     0.029 A 
ATOM     61  C   UNL     1       3.533  -9.186 -16.226  1.00  0.00     0.049 A 
ATOM     62  H   UNL     1       3.973  -8.667 -14.231  1.00  0.00     0.167 HD
ATOM     63  C   UNL     1       1.346  -9.328 -15.065  1.00  0.00     0.074 A 
ATOM     64  C   UNL     1      -0.089  -9.520 -15.049  1.00  0.00     0.031 C 
ATOM     65  C   UNL     1       2.115  -9.435 -16.177  1.00  0.00     0.034 A 
BRANCH  52  66
ATOM     66  C   UNL     1       8.062  -8.027 -15.273  1.00  0.00     0.023 A 
ATOM     67  C   UNL     1       9.078  -8.964 -14.995  1.00  0.00     0.012 A 
ATOM     68  C   UNL     1       8.332  -6.945 -16.131  1.00  0.00     0.148 A 
ATOM     69  C   UNL     1      10.352  -8.809 -15.540  1.00  0.00     0.002 A 
ATOM     70  C   UNL     1       9.591  -6.822 -16.706  1.00  0.00     0.091 A 
ATOM     71  F   UNL     1       7.359  -6.050 -16.358  1.00  0.00    -0.205 F 
ATOM     72  C   UNL     1      10.604  -7.746 -16.402  1.00  0.00     0.022 A 
BRANCH  70  73
ATOM     73  S   UNL     1       9.992  -5.531 -17.888  1.00  0.00     0.127 S 
ATOM     74  O   UNL     1      10.897  -4.688 -17.109  1.00  0.00    -0.237 OA
ATOM     75  O   UNL     1      10.636  -6.288 -18.962  1.00  0.00    -0.237 OA
ATOM     76  O   UNL     1       8.724  -4.915 -18.255  1.00  0.00    -0.744 OA
ENDBRANCH  70  73
ENDBRANCH  52  66
BRANCH  53  77
ATOM     77  C   UNL     1      -0.921  -8.873 -10.956  1.00  0.00     0.023 A 
ATOM     78  C   UNL     1      -1.600 -10.106 -10.918  1.00  0.00     0.012 A 
ATOM     79  C   UNL     1      -1.537  -7.733 -10.404  1.00  0.00     0.148 A 
ATOM     80  C   UNL     1      -2.881 -10.197 -10.370  1.00  0.00     0.002 A 
ATOM     81  C   UNL     1      -2.788  -7.842  -9.807  1.00  0.00     0.091 A 
ATOM     82  F   UNL     1      -0.884  -6.564 -10.466  1.00  0.00    -0.205 F 
ATOM     83  C   UNL     1      -3.470  -9.069  -9.807  1.00  0.00     0.022 A 
BRANCH  81  84
ATOM     84  S   UNL     1      -3.565  -6.476  -8.937  1.00  0.00     0.127 S 
ATOM     85  O   UNL     1      -4.693  -6.166  -9.810  1.00  0.00    -0.237 OA
ATOM     86  O   UNL     1      -3.923  -7.099  -7.662  1.00  0.00    -0.237 OA
ATOM     87  O   UNL     1      -2.543  -5.444  -8.831  1.00  0.00    -0.744 OA
ENDBRANCH  81  84
ENDBRANCH  53  77
BRANCH  65  88
ATOM     88  C   UNL     1       1.443  -9.825 -17.468  1.00  0.00     0.023 A 
ATOM     89  C   UNL     1       0.643  -8.892 -18.155  1.00  0.00     0.012 A 
ATOM     90  C   UNL     1       1.695 -11.084 -18.051  1.00  0.00     0.148 A 
ATOM     91  C   UNL     1       0.083  -9.214 -19.391  1.00  0.00     0.002 A 
ATOM     92  C   UNL     1       1.175 -11.379 -19.305  1.00  0.00     0.091 A 
ATOM     93  F   UNL     1       2.447 -11.962 -17.373  1.00  0.00    -0.205 F 
ATOM     94  C   UNL     1       0.360 -10.450 -19.971  1.00  0.00     0.022 A 
BRANCH  92  95
ATOM     95  S   UNL     1       1.560 -12.904 -20.173  1.00  0.00     0.127 S 
ATOM     96  O   UNL     1       0.282 -13.613 -20.110  1.00  0.00    -0.237 OA
ATOM     97  O   UNL     1       1.923 -12.419 -21.505  1.00  0.00    -0.237 OA
ATOM     98  O   UNL     1       2.653 -13.523 -19.436  1.00  0.00    -0.744 OA
ENDBRANCH  92  95
ENDBRANCH  65  88
ENDBRANCH  39  40
ENDBRANCH  32  34
ENDBRANCH  31  32
ENDBRANCH  30  31
ENDBRANCH  29  30
ENDBRANCH  28  29
ENDBRANCH  27  28
ENDBRANCH  26  27
ENDBRANCH   1  26
TORSDOF 28
