REMARK SMILES Cc1ccc(S(=O)(=O)N[C@H]2C=C[C@@H](C(=O)OCCOCCOCCOCCOC(=O)c3ccc(-c4c5nc(c(-c6cccc(S(=O)(=O)[O-])c6F)c6ccc([nH]6)c(-c6cccc(S(=O)(=O)[O-])c6F)c6nc(c(-c7cccc(S(=O)(=O)[O-])c7F)c7ccc4[nH]7)C=C6)C=C5)cc3)C2)c(C)c1
REMARK SMILES IDX 22 1 21 2 20 3 19 4 18 5 17 6 16 7 14 8 15 9 13 10 10 11
REMARK SMILES IDX 11 12 94 13 12 14 9 15 6 17 7 18 8 19 5 20 1 21 2 22 3 23
REMARK SMILES IDX 97 24 4 25 95 26 96 27 23 28 24 29 25 30 26 31 27 32 28 33
REMARK SMILES IDX 29 34 30 35 31 36 32 37 93 38 33 39 92 40 34 41 35 42 36 43
REMARK SMILES IDX 86 44 37 45 91 46 85 47 87 48 38 49 90 50 84 51 83 52 39 54
REMARK SMILES IDX 71 55 51 56 70 57 52 58 55 59 69 60 88 61 53 62 54 63 68 65
REMARK SMILES IDX 89 66 56 67 40 68 41 69 49 70 42 71 44 72 50 73 43 74 45 75
REMARK SMILES IDX 46 76 47 77 48 78 72 79 73 80 81 81 74 82 76 83 82 84 75 85
REMARK SMILES IDX 77 86 78 87 79 88 80 89 57 90 58 91 66 92 59 93 61 94 67 95
REMARK SMILES IDX 60 96 62 97 63 98 64 99 65 100
REMARK H PARENT 9 16 87 53 55 64
REMARK Flexibility Score: inf
ROOT
ATOM      1  O   UNL     1      -4.359  -7.898   1.832  1.00  0.00    -0.377 OA
ENDROOT
BRANCH   1   2
ATOM      2  C   UNL     1      -3.082  -8.178   2.363  1.00  0.00     0.188 C 
BRANCH   2   3
ATOM      3  C   UNL     1      -3.061  -8.489   3.869  1.00  0.00     0.188 C 
BRANCH   3   4
ATOM      4  O   UNL     1      -4.256  -8.819   4.568  1.00  0.00    -0.376 OA
BRANCH   4   5
ATOM      5  C   UNL     1      -5.444  -8.063   4.347  1.00  0.00     0.202 C 
BRANCH   5   6
ATOM      6  C   UNL     1      -5.415  -6.532   4.464  1.00  0.00     0.261 C 
BRANCH   6   7
ATOM      7  O   UNL     1      -4.317  -5.908   3.782  1.00  0.00    -0.463 OA
BRANCH   7   8
ATOM      8  C   UNL     1      -3.488  -5.145   4.532  1.00  0.00     0.312 C 
ATOM      9  O   UNL     1      -3.609  -4.965   5.741  1.00  0.00    -0.252 OA
BRANCH   8  10
ATOM     10  C   UNL     1      -2.295  -4.599   3.749  1.00  0.00     0.123 C 
ATOM     11  C   UNL     1      -1.751  -3.445   1.643  1.00  0.00     0.093 C 
ATOM     12  C   UNL     1      -1.976  -2.490   2.756  1.00  0.00    -0.011 C 
ATOM     13  C   UNL     1      -2.269  -4.763   2.225  1.00  0.00     0.043 C 
ATOM     14  C   UNL     1      -2.238  -3.112   3.909  1.00  0.00    -0.015 C 
BRANCH  11  15
ATOM     15  N   UNL     1      -2.437  -3.178   0.398  1.00  0.00    -0.204 NA
ATOM     16  H   UNL     1      -1.861  -3.614  -0.322  1.00  0.00     0.142 HD
BRANCH  15  17
ATOM     17  S   UNL     1      -2.830  -1.677  -0.209  1.00  0.00     0.241 S 
ATOM     18  O   UNL     1      -3.669  -1.034   0.771  1.00  0.00    -0.207 OA
ATOM     19  O   UNL     1      -3.246  -1.910  -1.575  1.00  0.00    -0.207 OA
BRANCH  17  20
ATOM     20  C   UNL     1      -1.281  -0.794  -0.301  1.00  0.00     0.085 A 
ATOM     21  C   UNL     1       2.540   1.166   0.002  1.00  0.00     0.044 C 
ATOM     22  C   UNL     1       1.218   0.472  -0.128  1.00  0.00    -0.051 A 
ATOM     23  C   UNL     1       1.145  -0.900  -0.371  1.00  0.00     0.005 A 
ATOM     24  C   UNL     1       0.031   1.214  -0.042  1.00  0.00     0.008 A 
ATOM     25  C   UNL     1      -0.096  -1.529  -0.465  1.00  0.00     0.022 A 
ATOM     26  C   UNL     1      -1.231   0.602  -0.148  1.00  0.00    -0.031 A 
ATOM     27  C   UNL     1      -2.442   1.493  -0.090  1.00  0.00     0.046 C 
ENDBRANCH  17  20
ENDBRANCH  15  17
ENDBRANCH  11  15
ENDBRANCH   8  10
ENDBRANCH   7   8
ENDBRANCH   6   7
ENDBRANCH   5   6
ENDBRANCH   4   5
ENDBRANCH   3   4
ENDBRANCH   2   3
ENDBRANCH   1   2
BRANCH   1  28
ATOM     28  C   UNL     1      -4.933  -8.908   1.009  1.00  0.00     0.188 C 
BRANCH  28  29
ATOM     29  C   UNL     1      -4.802 -10.361   1.503  1.00  0.00     0.188 C 
BRANCH  29  30
ATOM     30  O   UNL     1      -3.450 -10.813   1.592  1.00  0.00    -0.376 OA
BRANCH  30  31
ATOM     31  C   UNL     1      -2.939 -11.551   0.486  1.00  0.00     0.202 C 
BRANCH  31  32
ATOM     32  C   UNL     1      -2.659 -10.740  -0.791  1.00  0.00     0.261 C 
BRANCH  32  33
ATOM     33  O   UNL     1      -3.813 -10.221  -1.474  1.00  0.00    -0.460 OA
BRANCH  33  34
ATOM     34  C   UNL     1      -4.802 -11.080  -1.801  1.00  0.00     0.338 C 
ATOM     35  O   UNL     1      -4.792 -12.291  -1.682  1.00  0.00    -0.246 OA
BRANCH  34  36
ATOM     36  C   UNL     1      -6.000 -10.284  -2.138  1.00  0.00     0.060 A 
ATOM     37  C   UNL     1      -7.185 -10.527  -1.431  1.00  0.00     0.016 A 
ATOM     38  C   UNL     1      -5.960  -9.317  -3.145  1.00  0.00     0.016 A 
ATOM     39  C   UNL     1      -8.348  -9.832  -1.762  1.00  0.00     0.010 A 
ATOM     40  C   UNL     1      -7.130  -8.636  -3.488  1.00  0.00     0.010 A 
ATOM     41  C   UNL     1      -8.337  -8.919  -2.824  1.00  0.00    -0.014 A 
BRANCH  41  42
ATOM     42  C   UNL     1      -9.617  -8.412  -3.374  1.00  0.00     0.031 A 
ATOM     43  C   UNL     1     -10.209  -9.118  -4.564  1.00  0.00     0.074 A 
ATOM     44  C   UNL     1     -10.235  -7.343  -2.843  1.00  0.00     0.049 A 
ATOM     45  N   UNL     1     -11.289  -8.836  -5.243  1.00  0.00    -0.248 NA
ATOM     46  C   UNL     1      -9.482 -10.302  -5.054  1.00  0.00     0.031 C 
ATOM     47  C   UNL     1      -9.760  -6.575  -1.694  1.00  0.00     0.029 A 
ATOM     48  N   UNL     1     -11.385  -6.702  -3.228  1.00  0.00    -0.354 N 
ATOM     49  C   UNL     1     -11.361  -9.790  -6.250  1.00  0.00     0.074 A 
ATOM     50  C   UNL     1     -10.209 -10.651  -6.104  1.00  0.00     0.031 C 
ATOM     51  C   UNL     1     -10.593  -5.539  -1.491  1.00  0.00     0.029 A 
ATOM     52  C   UNL     1     -11.646  -5.561  -2.506  1.00  0.00     0.049 A 
ATOM     53  H   UNL     1     -11.968  -7.027  -3.952  1.00  0.00     0.167 HD
ATOM     54  C   UNL     1     -12.310  -9.948  -7.202  1.00  0.00     0.034 A 
ATOM     55  C   UNL     1     -12.608  -4.630  -2.666  1.00  0.00     0.034 A 
ATOM     56  C   UNL     1     -13.459  -9.097  -7.344  1.00  0.00     0.049 A 
ATOM     57  C   UNL     1     -13.635  -4.808  -3.756  1.00  0.00     0.074 A 
ATOM     58  C   UNL     1     -14.494  -9.195  -8.256  1.00  0.00     0.029 A 
ATOM     59  N   UNL     1     -13.716  -7.980  -6.564  1.00  0.00    -0.354 N 
ATOM     60  N   UNL     1     -13.761  -5.785  -4.623  1.00  0.00    -0.248 NA
ATOM     61  C   UNL     1     -14.672  -3.771  -3.871  1.00  0.00     0.031 C 
ATOM     62  C   UNL     1     -15.368  -8.124  -8.041  1.00  0.00     0.029 A 
ATOM     63  C   UNL     1     -14.889  -7.374  -6.979  1.00  0.00     0.049 A 
ATOM     64  H   UNL     1     -13.148  -7.665  -5.824  1.00  0.00     0.167 HD
ATOM     65  C   UNL     1     -14.906  -5.498  -5.360  1.00  0.00     0.074 A 
ATOM     66  C   UNL     1     -15.449  -4.267  -4.824  1.00  0.00     0.031 C 
ATOM     67  C   UNL     1     -15.449  -6.181  -6.398  1.00  0.00     0.034 A 
BRANCH  54  68
ATOM     68  C   UNL     1     -12.159 -11.110  -8.146  1.00  0.00     0.023 A 
ATOM     69  C   UNL     1     -12.406 -12.418  -7.681  1.00  0.00     0.012 A 
ATOM     70  C   UNL     1     -11.818 -10.908  -9.497  1.00  0.00     0.148 A 
ATOM     71  C   UNL     1     -12.288 -13.510  -8.538  1.00  0.00     0.002 A 
ATOM     72  C   UNL     1     -11.742 -11.998 -10.356  1.00  0.00     0.091 A 
ATOM     73  F   UNL     1     -11.561  -9.659  -9.912  1.00  0.00    -0.205 F 
ATOM     74  C   UNL     1     -11.966 -13.299  -9.877  1.00  0.00     0.022 A 
BRANCH  72  75
ATOM     75  S   UNL     1     -11.405 -11.825 -12.111  1.00  0.00     0.127 S 
ATOM     76  O   UNL     1     -10.052 -12.373 -12.207  1.00  0.00    -0.237 OA
ATOM     77  O   UNL     1     -12.445 -12.664 -12.709  1.00  0.00    -0.237 OA
ATOM     78  O   UNL     1     -11.527 -10.405 -12.406  1.00  0.00    -0.744 OA
ENDBRANCH  72  75
ENDBRANCH  54  68
BRANCH  55  79
ATOM     79  C   UNL     1     -12.663  -3.449  -1.759  1.00  0.00     0.023 A 
ATOM     80  C   UNL     1     -13.721  -3.326  -0.837  1.00  0.00     0.012 A 
ATOM     81  C   UNL     1     -11.674  -2.448  -1.806  1.00  0.00     0.148 A 
ATOM     82  C   UNL     1     -13.808  -2.213   0.001  1.00  0.00     0.002 A 
ATOM     83  C   UNL     1     -11.739  -1.369  -0.934  1.00  0.00     0.091 A 
ATOM     84  F   UNL     1     -10.688  -2.573  -2.706  1.00  0.00    -0.205 F 
ATOM     85  C   UNL     1     -12.813  -1.241  -0.040  1.00  0.00     0.022 A 
BRANCH  83  86
ATOM     86  S   UNL     1     -10.443  -0.128  -0.837  1.00  0.00     0.127 S 
ATOM     87  O   UNL     1     -11.104   1.038  -1.417  1.00  0.00    -0.237 OA
ATOM     88  O   UNL     1     -10.211  -0.051   0.606  1.00  0.00    -0.237 OA
ATOM     89  O   UNL     1      -9.329  -0.670  -1.601  1.00  0.00    -0.744 OA
ENDBRANCH  83  86
ENDBRANCH  55  79
BRANCH  67  90
ATOM     90  C   UNL     1     -16.718  -5.643  -7.009  1.00  0.00     0.023 A 
ATOM     91  C   UNL     1     -16.671  -4.489  -7.816  1.00  0.00     0.012 A 
ATOM     92  C   UNL     1     -17.938  -6.330  -6.855  1.00  0.00     0.148 A 
ATOM     93  C   UNL     1     -17.825  -4.011  -8.437  1.00  0.00     0.002 A 
ATOM     94  C   UNL     1     -19.074  -5.875  -7.516  1.00  0.00     0.091 A 
ATOM     95  F   UNL     1     -17.966  -7.417  -6.071  1.00  0.00    -0.205 F 
ATOM     96  C   UNL     1     -19.022  -4.710  -8.297  1.00  0.00     0.022 A 
BRANCH  94  97
ATOM     97  S   UNL     1     -20.635  -6.764  -7.472  1.00  0.00     0.127 S 
ATOM     98  O   UNL     1     -21.447  -5.899  -6.618  1.00  0.00    -0.237 OA
ATOM     99  O   UNL     1     -21.028  -6.772  -8.881  1.00  0.00    -0.237 OA
ATOM    100  O   UNL     1     -20.333  -8.079  -6.922  1.00  0.00    -0.744 OA
ENDBRANCH  94  97
ENDBRANCH  67  90
ENDBRANCH  41  42
ENDBRANCH  34  36
ENDBRANCH  33  34
ENDBRANCH  32  33
ENDBRANCH  31  32
ENDBRANCH  30  31
ENDBRANCH  29  30
ENDBRANCH  28  29
ENDBRANCH   1  28
TORSDOF 26
