REMARK SMILES COCCN(C(=O)N1CC[C@H](C(=O)OCCOCCOCCOCCOC(=O)c2ccc(-c3c4nc(c(-c5cccc(S(=O)(=O)[O-])c5F)c5ccc([nH]5)c(-c5cccc(S(=O)(=O)[O-])c5F)c5nc(c(-c6cccc(S(=O)(=O)[O-])c6F)c6ccc3[nH]6)C=C5)C=C4)cc2)[C@H]1C)[C@@H](C)COC
REMARK SMILES IDX 19 1 18 2 17 3 16 4 15 5 14 6 12 7 13 8 11 9 8 10 9 11 92 12
REMARK SMILES IDX 10 13 93 14 6 15 7 16 5 17 4 18 3 19 2 20 1 21 94 22 95 23
REMARK SMILES IDX 96 24 97 25 98 26 20 27 21 28 22 29 23 30 24 31 25 32 26 33
REMARK SMILES IDX 27 34 28 35 29 36 30 37 91 38 31 39 90 40 32 41 33 42 34 43
REMARK SMILES IDX 84 44 35 45 89 46 83 47 85 48 36 49 88 50 82 51 81 52 37 54
REMARK SMILES IDX 69 55 49 56 68 57 50 58 53 59 67 60 86 61 51 62 52 63 66 65
REMARK SMILES IDX 87 66 54 67 38 68 39 69 47 70 40 71 42 72 48 73 41 74 43 75
REMARK SMILES IDX 44 76 45 77 46 78 70 79 71 80 79 81 72 82 74 83 80 84 73 85
REMARK SMILES IDX 75 86 76 87 77 88 78 89 55 90 56 91 64 92 57 93 59 94 65 95
REMARK SMILES IDX 58 96 60 97 61 98 62 99 63 100
REMARK H PARENT 85 53 53 64
REMARK Flexibility Score: inf
ROOT
ATOM      1  C   UNL     1       1.570  -0.554  -6.759  1.00  0.00     0.188 C 
ENDROOT
BRANCH   1   2
ATOM      2  C   UNL     1       2.669  -1.017  -7.732  1.00  0.00     0.188 C 
BRANCH   2   3
ATOM      3  O   UNL     1       2.379  -1.330  -9.091  1.00  0.00    -0.376 OA
BRANCH   3   4
ATOM      4  C   UNL     1       1.041  -1.574  -9.489  1.00  0.00     0.202 C 
BRANCH   4   5
ATOM      5  C   UNL     1       0.295  -2.772  -8.865  1.00  0.00     0.261 C 
BRANCH   5   6
ATOM      6  O   UNL     1       0.555  -3.068  -7.471  1.00  0.00    -0.463 OA
BRANCH   6   7
ATOM      7  C   UNL     1       1.558  -3.942  -7.233  1.00  0.00     0.311 C 
ATOM      8  O   UNL     1       2.186  -4.516  -8.121  1.00  0.00    -0.252 OA
BRANCH   7   9
ATOM      9  C   UNL     1       1.872  -4.222  -5.764  1.00  0.00     0.123 C 
ATOM     10  N   UNL     1       2.122  -2.581  -3.970  1.00  0.00    -0.321 N 
ATOM     11  C   UNL     1       3.432  -2.787  -4.581  1.00  0.00     0.122 C 
ATOM     12  C   UNL     1       1.150  -3.563  -4.545  1.00  0.00     0.098 C 
ATOM     13  C   UNL     1       3.357  -4.020  -5.458  1.00  0.00     0.039 C 
ATOM     14  C   UNL     1       0.889  -4.734  -3.578  1.00  0.00     0.032 C 
BRANCH  10  15
ATOM     15  C   UNL     1       1.946  -1.316  -3.420  1.00  0.00     0.320 C 
ATOM     16  O   UNL     1       2.769  -0.441  -3.725  1.00  0.00    -0.248 OA
BRANCH  15  17
ATOM     17  N   UNL     1       0.939  -0.996  -2.523  1.00  0.00    -0.317 N 
BRANCH  17  18
ATOM     18  C   UNL     1       0.130  -1.957  -1.758  1.00  0.00     0.150 C 
BRANCH  18  19
ATOM     19  C   UNL     1       0.883  -2.696  -0.634  1.00  0.00     0.181 C 
BRANCH  19  20
ATOM     20  O   UNL     1       0.227  -2.605   0.639  1.00  0.00    -0.383 OA
ATOM     21  C   UNL     1       0.464  -1.387   1.326  1.00  0.00     0.194 C 
ENDBRANCH  19  20
ENDBRANCH  18  19
ENDBRANCH  17  18
BRANCH  17  22
ATOM     22  C   UNL     1       0.769   0.474  -2.233  1.00  0.00     0.109 C 
ATOM     23  C   UNL     1      -0.695   0.894  -1.999  1.00  0.00     0.033 C 
BRANCH  22  24
ATOM     24  C   UNL     1       1.640   1.088  -1.095  1.00  0.00     0.184 C 
BRANCH  24  25
ATOM     25  O   UNL     1       3.055   1.052  -1.263  1.00  0.00    -0.383 OA
ATOM     26  C   UNL     1       3.678  -0.094  -0.709  1.00  0.00     0.194 C 
ENDBRANCH  24  25
ENDBRANCH  22  24
ENDBRANCH  17  22
ENDBRANCH  15  17
ENDBRANCH  10  15
ENDBRANCH   7   9
ENDBRANCH   6   7
ENDBRANCH   5   6
ENDBRANCH   4   5
ENDBRANCH   3   4
ENDBRANCH   2   3
ENDBRANCH   1   2
BRANCH   1  27
ATOM     27  O   UNL     1       0.422  -0.035  -7.390  1.00  0.00    -0.377 OA
BRANCH  27  28
ATOM     28  C   UNL     1       0.317   1.372  -7.329  1.00  0.00     0.188 C 
BRANCH  28  29
ATOM     29  C   UNL     1       1.492   2.164  -7.928  1.00  0.00     0.188 C 
BRANCH  29  30
ATOM     30  O   UNL     1       2.801   1.955  -7.439  1.00  0.00    -0.376 OA
BRANCH  30  31
ATOM     31  C   UNL     1       3.279   2.265  -6.143  1.00  0.00     0.202 C 
BRANCH  31  32
ATOM     32  C   UNL     1       2.547   3.026  -5.027  1.00  0.00     0.261 C 
BRANCH  32  33
ATOM     33  O   UNL     1       1.131   3.140  -5.117  1.00  0.00    -0.460 OA
BRANCH  33  34
ATOM     34  C   UNL     1       0.694   4.311  -5.638  1.00  0.00     0.338 C 
ATOM     35  O   UNL     1       1.373   5.248  -6.009  1.00  0.00    -0.246 OA
BRANCH  34  36
ATOM     36  C   UNL     1      -0.754   4.209  -5.901  1.00  0.00     0.060 A 
ATOM     37  C   UNL     1      -1.177   4.413  -7.220  1.00  0.00     0.016 A 
ATOM     38  C   UNL     1      -1.678   3.959  -4.883  1.00  0.00     0.016 A 
ATOM     39  C   UNL     1      -2.531   4.430  -7.520  1.00  0.00     0.010 A 
ATOM     40  C   UNL     1      -3.043   4.010  -5.180  1.00  0.00     0.010 A 
ATOM     41  C   UNL     1      -3.467   4.301  -6.489  1.00  0.00    -0.014 A 
BRANCH  41  42
ATOM     42  C   UNL     1      -4.853   4.732  -6.771  1.00  0.00     0.031 A 
ATOM     43  C   UNL     1      -5.245   6.137  -6.401  1.00  0.00     0.074 A 
ATOM     44  C   UNL     1      -5.707   3.932  -7.431  1.00  0.00     0.049 A 
ATOM     45  N   UNL     1      -6.370   6.766  -6.612  1.00  0.00    -0.248 NA
ATOM     46  C   UNL     1      -4.226   6.945  -5.707  1.00  0.00     0.031 C 
ATOM     47  C   UNL     1      -5.418   2.568  -7.871  1.00  0.00     0.029 A 
ATOM     48  N   UNL     1      -6.994   4.157  -7.844  1.00  0.00    -0.354 N 
ATOM     49  C   UNL     1      -6.205   8.029  -6.056  1.00  0.00     0.074 A 
ATOM     50  C   UNL     1      -4.879   8.075  -5.485  1.00  0.00     0.031 C 
ATOM     51  C   UNL     1      -6.509   2.068  -8.476  1.00  0.00     0.029 A 
ATOM     52  C   UNL     1      -7.574   3.068  -8.447  1.00  0.00     0.049 A 
ATOM     53  H   UNL     1      -7.458   5.016  -7.720  1.00  0.00     0.167 HD
ATOM     54  C   UNL     1      -7.076   9.064  -6.036  1.00  0.00     0.034 A 
ATOM     55  C   UNL     1      -8.830   2.898  -8.904  1.00  0.00     0.034 A 
ATOM     56  C   UNL     1      -8.390   9.013  -6.617  1.00  0.00     0.049 A 
ATOM     57  C   UNL     1      -9.794   4.054  -8.836  1.00  0.00     0.074 A 
ATOM     58  C   UNL     1      -9.343  10.013  -6.675  1.00  0.00     0.029 A 
ATOM     59  N   UNL     1      -8.941   7.896  -7.226  1.00  0.00    -0.354 N 
ATOM     60  N   UNL     1      -9.598   5.270  -8.386  1.00  0.00    -0.248 NA
ATOM     61  C   UNL     1     -11.143   3.826  -9.375  1.00  0.00     0.031 C 
ATOM     62  C   UNL     1     -10.488   9.487  -7.282  1.00  0.00     0.029 A 
ATOM     63  C   UNL     1     -10.227   8.176  -7.651  1.00  0.00     0.049 A 
ATOM     64  H   UNL     1      -8.484   7.031  -7.339  1.00  0.00     0.167 HD
ATOM     65  C   UNL     1     -10.778   5.964  -8.629  1.00  0.00     0.074 A 
ATOM     66  C   UNL     1     -11.679   5.034  -9.279  1.00  0.00     0.031 C 
ATOM     67  C   UNL     1     -11.091   7.252  -8.340  1.00  0.00     0.034 A 
BRANCH  54  68
ATOM     68  C   UNL     1      -6.636  10.335  -5.359  1.00  0.00     0.023 A 
ATOM     69  C   UNL     1      -5.647  11.147  -5.951  1.00  0.00     0.012 A 
ATOM     70  C   UNL     1      -7.236  10.745  -4.153  1.00  0.00     0.148 A 
ATOM     71  C   UNL     1      -5.238  12.329  -5.334  1.00  0.00     0.002 A 
ATOM     72  C   UNL     1      -6.859  11.949  -3.571  1.00  0.00     0.091 A 
ATOM     73  F   UNL     1      -8.155   9.946  -3.592  1.00  0.00    -0.205 F 
ATOM     74  C   UNL     1      -5.851  12.735  -4.152  1.00  0.00     0.022 A 
BRANCH  72  75
ATOM     75  S   UNL     1      -7.647  12.597  -2.093  1.00  0.00     0.127 S 
ATOM     76  O   UNL     1      -6.567  12.492  -1.113  1.00  0.00    -0.237 OA
ATOM     77  O   UNL     1      -7.975  13.965  -2.496  1.00  0.00    -0.237 OA
ATOM     78  O   UNL     1      -8.800  11.743  -1.842  1.00  0.00    -0.744 OA
ENDBRANCH  72  75
ENDBRANCH  54  68
BRANCH  55  79
ATOM     79  C   UNL     1      -9.241   1.590  -9.487  1.00  0.00     0.023 A 
ATOM     80  C   UNL     1      -9.540   1.493 -10.859  1.00  0.00     0.012 A 
ATOM     81  C   UNL     1      -9.328   0.438  -8.681  1.00  0.00     0.148 A 
ATOM     82  C   UNL     1      -9.953   0.280 -11.412  1.00  0.00     0.002 A 
ATOM     83  C   UNL     1      -9.682  -0.779  -9.249  1.00  0.00     0.091 A 
ATOM     84  F   UNL     1      -9.052   0.555  -7.375  1.00  0.00    -0.205 F 
ATOM     85  C   UNL     1     -10.015  -0.857 -10.610  1.00  0.00     0.022 A 
BRANCH  83  86
ATOM     86  S   UNL     1      -9.665  -2.316  -8.320  1.00  0.00     0.127 S 
ATOM     87  O   UNL     1     -11.086  -2.650  -8.267  1.00  0.00    -0.237 OA
ATOM     88  O   UNL     1      -8.860  -3.179  -9.184  1.00  0.00    -0.237 OA
ATOM     89  O   UNL     1      -9.045  -1.999  -7.041  1.00  0.00    -0.744 OA
ENDBRANCH  83  86
ENDBRANCH  55  79
BRANCH  67  90
ATOM     90  C   UNL     1     -12.441   7.760  -8.779  1.00  0.00     0.023 A 
ATOM     91  C   UNL     1     -13.614   7.311  -8.141  1.00  0.00     0.012 A 
ATOM     92  C   UNL     1     -12.534   8.740  -9.788  1.00  0.00     0.148 A 
ATOM     93  C   UNL     1     -14.861   7.797  -8.531  1.00  0.00     0.002 A 
ATOM     94  C   UNL     1     -13.775   9.261 -10.131  1.00  0.00     0.091 A 
ATOM     95  F   UNL     1     -11.408   9.144 -10.394  1.00  0.00    -0.205 F 
ATOM     96  C   UNL     1     -14.941   8.779  -9.515  1.00  0.00     0.022 A 
BRANCH  94  97
ATOM     97  S   UNL     1     -13.961  10.601 -11.312  1.00  0.00     0.127 S 
ATOM     98  O   UNL     1     -14.556   9.910 -12.454  1.00  0.00    -0.237 OA
ATOM     99  O   UNL     1     -14.868  11.509 -10.608  1.00  0.00    -0.237 OA
ATOM    100  O   UNL     1     -12.623  11.133 -11.532  1.00  0.00    -0.744 OA
ENDBRANCH  94  97
ENDBRANCH  67  90
ENDBRANCH  41  42
ENDBRANCH  34  36
ENDBRANCH  33  34
ENDBRANCH  32  33
ENDBRANCH  31  32
ENDBRANCH  30  31
ENDBRANCH  29  30
ENDBRANCH  28  29
ENDBRANCH  27  28
ENDBRANCH   1  27
TORSDOF 31
