REMARK SMILES C[C@@H]1CC[C@@H](C(=O)OCCOCCOCCOCCOC(=O)c2ccc(-c3c4nc(c(-c5cccc(S(=O)(=O)[O-])c5F)c5ccc([nH]5)c(-c5cccc(S(=O)(=O)[O-])c5F)c5nc(c(-c6cccc(S(=O)(=O)[O-])c6F)c6ccc3[nH]6)C=C5)C=C4)cc2)[C@H]2C(=O)N(c3ccccc3)C(=O)[C@@H]21
REMARK SMILES IDX 15 1 14 2 13 3 12 4 11 5 10 6 9 7 8 8 6 9 7 10 5 11 1 12
REMARK SMILES IDX 2 13 3 14 98 15 4 16 86 17 96 18 87 19 89 20 97 21 88 22
REMARK SMILES IDX 90 23 91 24 95 25 92 26 94 27 93 28 16 29 17 30 18 31 19 32
REMARK SMILES IDX 20 33 21 34 22 35 23 36 24 37 85 38 25 39 84 40 26 41 27 42
REMARK SMILES IDX 28 43 78 44 29 45 83 46 77 47 79 48 30 49 82 50 76 51 75 52
REMARK SMILES IDX 31 54 63 55 43 56 62 57 44 58 47 59 61 60 80 61 45 62 46 63
REMARK SMILES IDX 60 65 81 66 48 67 32 68 33 69 41 70 34 71 36 72 42 73 35 74
REMARK SMILES IDX 37 75 38 76 39 77 40 78 64 79 65 80 73 81 66 82 68 83 74 84
REMARK SMILES IDX 67 85 69 86 70 87 71 88 72 89 49 90 50 91 58 92 51 93 53 94
REMARK SMILES IDX 59 95 52 96 54 97 55 98 56 99 57 100
REMARK H PARENT 79 53 47 64
REMARK Flexibility Score: inf
ROOT
ATOM      1  C   UNL     1      -2.857   1.627   4.418  1.00  0.00     0.188 C 
ENDROOT
BRANCH   1   2
ATOM      2  O   UNL     1      -2.019   0.512   4.214  1.00  0.00    -0.377 OA
BRANCH   2   3
ATOM      3  C   UNL     1      -0.970   0.242   5.120  1.00  0.00     0.188 C 
BRANCH   3   4
ATOM      4  C   UNL     1      -0.636   0.942   6.437  1.00  0.00     0.188 C 
BRANCH   4   5
ATOM      5  O   UNL     1      -1.057   2.261   6.649  1.00  0.00    -0.376 OA
BRANCH   5   6
ATOM      6  C   UNL     1      -0.518   3.386   5.992  1.00  0.00     0.202 C 
BRANCH   6   7
ATOM      7  C   UNL     1       0.621   3.399   4.955  1.00  0.00     0.261 C 
BRANCH   7   8
ATOM      8  O   UNL     1       0.780   2.301   4.037  1.00  0.00    -0.463 OA
BRANCH   8   9
ATOM      9  C   UNL     1       1.894   1.538   4.233  1.00  0.00     0.309 C 
ATOM     10  O   UNL     1       2.596   1.615   5.238  1.00  0.00    -0.252 OA
BRANCH   9  11
ATOM     11  C   UNL     1       2.284   0.639   3.052  1.00  0.00     0.112 C 
ATOM     12  C   UNL     1       1.498  -0.027  -0.619  1.00  0.00     0.008 C 
ATOM     13  C   UNL     1       0.793   0.878   0.400  1.00  0.00    -0.001 C 
ATOM     14  C   UNL     1       1.731   1.997   0.904  1.00  0.00     0.005 C 
ATOM     15  C   UNL     1       0.258   0.134   1.618  1.00  0.00     0.095 C 
ATOM     16  C   UNL     1       2.813   1.527   1.900  1.00  0.00     0.016 C 
ATOM     17  C   UNL     1       1.376  -0.440   2.453  1.00  0.00     0.106 C 
ATOM     18  C   UNL     1      -0.619  -1.071   1.390  1.00  0.00     0.237 C 
ATOM     19  C   UNL     1       0.670  -1.531   3.230  1.00  0.00     0.238 C 
ATOM     20  N   UNL     1      -0.427  -1.929   2.469  1.00  0.00    -0.250 N 
ATOM     21  O   UNL     1      -1.393  -1.163   0.449  1.00  0.00    -0.274 OA
ATOM     22  O   UNL     1       1.105  -1.994   4.275  1.00  0.00    -0.274 OA
BRANCH  20  23
ATOM     23  C   UNL     1      -1.331  -2.998   2.779  1.00  0.00     0.052 A 
ATOM     24  C   UNL     1      -2.185  -3.537   1.799  1.00  0.00     0.027 A 
ATOM     25  C   UNL     1      -1.493  -3.474   4.090  1.00  0.00     0.027 A 
ATOM     26  C   UNL     1      -3.217  -4.426   2.123  1.00  0.00     0.002 A 
ATOM     27  C   UNL     1      -2.545  -4.345   4.423  1.00  0.00     0.002 A 
ATOM     28  C   UNL     1      -3.419  -4.805   3.442  1.00  0.00     0.000 A 
ENDBRANCH  20  23
ENDBRANCH   9  11
ENDBRANCH   8   9
ENDBRANCH   7   8
ENDBRANCH   6   7
ENDBRANCH   5   6
ENDBRANCH   4   5
ENDBRANCH   3   4
ENDBRANCH   2   3
ENDBRANCH   1   2
BRANCH   1  29
ATOM     29  C   UNL     1      -3.768   1.494   5.640  1.00  0.00     0.188 C 
BRANCH  29  30
ATOM     30  O   UNL     1      -3.587   0.295   6.372  1.00  0.00    -0.376 OA
BRANCH  30  31
ATOM     31  C   UNL     1      -4.072  -0.943   5.869  1.00  0.00     0.202 C 
BRANCH  31  32
ATOM     32  C   UNL     1      -4.386  -1.246   4.392  1.00  0.00     0.261 C 
BRANCH  32  33
ATOM     33  O   UNL     1      -4.927  -0.210   3.583  1.00  0.00    -0.460 OA
BRANCH  33  34
ATOM     34  C   UNL     1      -6.202   0.169   3.787  1.00  0.00     0.338 C 
ATOM     35  O   UNL     1      -6.980  -0.239   4.615  1.00  0.00    -0.246 OA
BRANCH  34  36
ATOM     36  C   UNL     1      -6.378   1.333   2.896  1.00  0.00     0.060 A 
ATOM     37  C   UNL     1      -6.520   2.600   3.472  1.00  0.00     0.016 A 
ATOM     38  C   UNL     1      -6.298   1.177   1.508  1.00  0.00     0.016 A 
ATOM     39  C   UNL     1      -6.597   3.721   2.655  1.00  0.00     0.010 A 
ATOM     40  C   UNL     1      -6.407   2.298   0.689  1.00  0.00     0.010 A 
ATOM     41  C   UNL     1      -6.581   3.568   1.263  1.00  0.00    -0.014 A 
BRANCH  41  42
ATOM     42  C   UNL     1      -6.940   4.720   0.415  1.00  0.00     0.031 A 
ATOM     43  C   UNL     1      -8.367   4.844  -0.028  1.00  0.00     0.074 A 
ATOM     44  C   UNL     1      -6.016   5.631   0.070  1.00  0.00     0.049 A 
ATOM     45  N   UNL     1      -8.922   5.750  -0.786  1.00  0.00    -0.248 NA
ATOM     46  C   UNL     1      -9.297   3.806   0.452  1.00  0.00     0.031 C 
ATOM     47  C   UNL     1      -4.610   5.600   0.471  1.00  0.00     0.029 A 
ATOM     48  N   UNL     1      -6.119   6.748  -0.717  1.00  0.00    -0.354 N 
ATOM     49  C   UNL     1     -10.256   5.378  -0.897  1.00  0.00     0.074 A 
ATOM     50  C   UNL     1     -10.429   4.163  -0.135  1.00  0.00     0.031 C 
ATOM     51  C   UNL     1      -3.972   6.636  -0.101  1.00  0.00     0.029 A 
ATOM     52  C   UNL     1      -4.917   7.378  -0.932  1.00  0.00     0.049 A 
ATOM     53  H   UNL     1      -6.972   7.068  -1.092  1.00  0.00     0.167 HD
ATOM     54  C   UNL     1     -11.247   6.003  -1.571  1.00  0.00     0.034 A 
ATOM     55  C   UNL     1      -4.618   8.415  -1.739  1.00  0.00     0.034 A 
ATOM     56  C   UNL     1     -11.052   7.208  -2.327  1.00  0.00     0.049 A 
ATOM     57  C   UNL     1      -5.730   9.059  -2.526  1.00  0.00     0.074 A 
ATOM     58  C   UNL     1     -11.989   7.952  -3.017  1.00  0.00     0.029 A 
ATOM     59  N   UNL     1      -9.825   7.829  -2.514  1.00  0.00    -0.354 N 
ATOM     60  N   UNL     1      -7.011   8.774  -2.529  1.00  0.00    -0.248 NA
ATOM     61  C   UNL     1      -5.364  10.179  -3.403  1.00  0.00     0.031 C 
ATOM     62  C   UNL     1     -11.321   8.999  -3.660  1.00  0.00     0.029 A 
ATOM     63  C   UNL     1      -9.974   8.931  -3.336  1.00  0.00     0.049 A 
ATOM     64  H   UNL     1      -8.974   7.529  -2.120  1.00  0.00     0.167 HD
ATOM     65  C   UNL     1      -7.607   9.690  -3.388  1.00  0.00     0.074 A 
ATOM     66  C   UNL     1      -6.548  10.558  -3.864  1.00  0.00     0.031 C 
ATOM     67  C   UNL     1      -8.905   9.797  -3.765  1.00  0.00     0.034 A 
BRANCH  54  68
ATOM     68  C   UNL     1     -12.620   5.387  -1.526  1.00  0.00     0.023 A 
ATOM     69  C   UNL     1     -13.372   5.428  -0.334  1.00  0.00     0.012 A 
ATOM     70  C   UNL     1     -13.179   4.799  -2.676  1.00  0.00     0.148 A 
ATOM     71  C   UNL     1     -14.646   4.864  -0.279  1.00  0.00     0.002 A 
ATOM     72  C   UNL     1     -14.468   4.281  -2.627  1.00  0.00     0.091 A 
ATOM     73  F   UNL     1     -12.438   4.746  -3.791  1.00  0.00    -0.205 F 
ATOM     74  C   UNL     1     -15.197   4.301  -1.427  1.00  0.00     0.022 A 
BRANCH  72  75
ATOM     75  S   UNL     1     -15.295   3.602  -4.069  1.00  0.00     0.127 S 
ATOM     76  O   UNL     1     -15.403   2.188  -3.709  1.00  0.00    -0.237 OA
ATOM     77  O   UNL     1     -16.564   4.330  -4.063  1.00  0.00    -0.237 OA
ATOM     78  O   UNL     1     -14.431   3.889  -5.204  1.00  0.00    -0.744 OA
ENDBRANCH  72  75
ENDBRANCH  54  68
BRANCH  55  79
ATOM     79  C   UNL     1      -3.213   8.902  -1.842  1.00  0.00     0.023 A 
ATOM     80  C   UNL     1      -2.876  10.179  -1.354  1.00  0.00     0.012 A 
ATOM     81  C   UNL     1      -2.202   8.094  -2.403  1.00  0.00     0.148 A 
ATOM     82  C   UNL     1      -1.567  10.654  -1.448  1.00  0.00     0.002 A 
ATOM     83  C   UNL     1      -0.890   8.549  -2.439  1.00  0.00     0.091 A 
ATOM     84  F   UNL     1      -2.544   6.888  -2.877  1.00  0.00    -0.205 F 
ATOM     85  C   UNL     1      -0.573   9.836  -1.980  1.00  0.00     0.022 A 
BRANCH  83  86
ATOM     86  S   UNL     1       0.476   7.516  -2.982  1.00  0.00     0.127 S 
ATOM     87  O   UNL     1       0.888   8.184  -4.213  1.00  0.00    -0.237 OA
ATOM     88  O   UNL     1       1.412   7.647  -1.865  1.00  0.00    -0.237 OA
ATOM     89  O   UNL     1      -0.079   6.179  -3.143  1.00  0.00    -0.744 OA
ENDBRANCH  83  86
ENDBRANCH  55  79
BRANCH  67  90
ATOM     90  C   UNL     1      -9.261  10.898  -4.729  1.00  0.00     0.023 A 
ATOM     91  C   UNL     1      -8.879  10.793  -6.081  1.00  0.00     0.012 A 
ATOM     92  C   UNL     1     -10.053  11.986  -4.314  1.00  0.00     0.148 A 
ATOM     93  C   UNL     1      -9.256  11.771  -7.000  1.00  0.00     0.002 A 
ATOM     94  C   UNL     1     -10.471  12.927  -5.245  1.00  0.00     0.091 A 
ATOM     95  F   UNL     1     -10.396  12.069  -3.020  1.00  0.00    -0.205 F 
ATOM     96  C   UNL     1     -10.062  12.829  -6.585  1.00  0.00     0.022 A 
BRANCH  94  97
ATOM     97  S   UNL     1     -11.590  14.269  -4.829  1.00  0.00     0.127 S 
ATOM     98  O   UNL     1     -10.731  15.439  -5.012  1.00  0.00    -0.237 OA
ATOM     99  O   UNL     1     -12.639  14.118  -5.838  1.00  0.00    -0.237 OA
ATOM    100  O   UNL     1     -12.022  14.027  -3.460  1.00  0.00    -0.744 OA
ENDBRANCH  94  97
ENDBRANCH  67  90
ENDBRANCH  41  42
ENDBRANCH  34  36
ENDBRANCH  33  34
ENDBRANCH  32  33
ENDBRANCH  31  32
ENDBRANCH  30  31
ENDBRANCH  29  30
ENDBRANCH   1  29
TORSDOF 24
