REMARK SMILES O=C(/C=C/c1ccc(C(=O)NC2CC2)cc1)NC1(C(=O)OCCOCCOCCOCCOC(=O)c2ccc(-c3c4nc(c(-c5cccc(S(=O)(=O)[O-])c5F)c5ccc([nH]5)c(-c5cccc(S(=O)(=O)[O-])c5F)c5nc(c(-c6cccc(S(=O)(=O)[O-])c6F)c6ccc3[nH]6)C=C5)C=C4)cc2)CCCC1
REMARK SMILES IDX 26 1 25 2 24 3 23 4 22 5 21 6 19 7 20 8 18 9 99 10 102 11
REMARK SMILES IDX 100 12 101 13 17 14 1 15 2 16 3 18 4 19 5 20 6 21 16 22 7 23
REMARK SMILES IDX 15 24 8 25 9 26 10 27 11 28 12 30 13 31 14 32 27 33 28 34
REMARK SMILES IDX 29 35 30 36 31 37 32 38 33 39 34 40 35 41 36 42 37 43 98 44
REMARK SMILES IDX 38 45 97 46 39 47 40 48 41 49 91 50 42 51 96 52 90 53 92 54
REMARK SMILES IDX 43 55 95 56 89 57 88 58 44 60 76 61 56 62 75 63 57 64 60 65
REMARK SMILES IDX 74 66 93 67 58 68 59 69 73 71 94 72 61 73 45 74 46 75 54 76
REMARK SMILES IDX 47 77 49 78 55 79 48 80 50 81 51 82 52 83 53 84 77 85 78 86
REMARK SMILES IDX 86 87 79 88 81 89 87 90 80 91 82 92 83 93 84 94 85 95 62 96
REMARK SMILES IDX 63 97 71 98 64 99 66 100 72 101 65 102 67 103 68 104 69 105
REMARK SMILES IDX 70 106
REMARK H PARENT 17 17 11 29 92 59 60 70
REMARK Flexibility Score: inf
ROOT
ATOM      1  C   UNL     1       0.328   0.154  -2.282  1.00  0.00     0.188 C 
ENDROOT
BRANCH   1   2
ATOM      2  C   UNL     1      -0.299   0.001  -0.890  1.00  0.00     0.188 C 
BRANCH   2   3
ATOM      3  O   UNL     1      -1.657   0.384  -0.836  1.00  0.00    -0.376 OA
BRANCH   3   4
ATOM      4  C   UNL     1      -1.987   1.627  -0.239  1.00  0.00     0.202 C 
BRANCH   4   5
ATOM      5  C   UNL     1      -1.162   2.911  -0.469  1.00  0.00     0.261 C 
BRANCH   5   6
ATOM      6  O   UNL     1       0.157   2.732  -1.000  1.00  0.00    -0.461 OA
BRANCH   6   7
ATOM      7  C   UNL     1       1.195   3.153  -0.236  1.00  0.00     0.331 C 
ATOM      8  O   UNL     1       1.066   3.672   0.869  1.00  0.00    -0.249 OA
BRANCH   7   9
ATOM      9  C   UNL     1       2.590   2.848  -0.893  1.00  0.00     0.138 C 
ATOM     10  C   UNL     1       3.451   4.106  -0.650  1.00  0.00     0.040 C 
ATOM     11  C   UNL     1       2.622   2.844  -2.441  1.00  0.00     0.040 C 
ATOM     12  C   UNL     1       2.912   5.116  -1.669  1.00  0.00     0.003 C 
ATOM     13  C   UNL     1       2.527   4.294  -2.891  1.00  0.00     0.003 C 
BRANCH   9  14
ATOM     14  N   UNL     1       3.266   1.612  -0.397  1.00  0.00    -0.337 N 
ATOM     15  O   UNL     1       1.914   1.101   1.406  1.00  0.00    -0.270 OA
ATOM     16  C   UNL     1       2.866   0.865   0.677  1.00  0.00     0.244 C 
ATOM     17  H   UNL     1       4.066   1.310  -0.884  1.00  0.00     0.164 HD
BRANCH  16  18
ATOM     18  C   UNL     1       3.571  -0.422   0.895  1.00  0.00     0.072 C 
ATOM     19  C   UNL     1       4.896  -0.610   0.821  1.00  0.00     0.014 C 
BRANCH  19  20
ATOM     20  C   UNL     1       5.538  -1.848   1.298  1.00  0.00    -0.025 A 
ATOM     21  C   UNL     1       6.797  -1.764   1.897  1.00  0.00     0.009 A 
ATOM     22  C   UNL     1       4.934  -3.107   1.212  1.00  0.00     0.009 A 
ATOM     23  C   UNL     1       7.427  -2.908   2.407  1.00  0.00     0.014 A 
ATOM     24  C   UNL     1       5.558  -4.248   1.743  1.00  0.00     0.014 A 
ATOM     25  C   UNL     1       6.822  -4.174   2.331  1.00  0.00     0.039 A 
BRANCH  25  26
ATOM     26  C   UNL     1       7.591  -5.326   2.905  1.00  0.00     0.251 C 
ATOM     27  O   UNL     1       8.612  -5.096   3.559  1.00  0.00    -0.269 OA
ATOM     28  N   UNL     1       7.246  -6.649   2.733  1.00  0.00    -0.349 N 
ATOM     29  H   UNL     1       7.868  -7.289   3.151  1.00  0.00     0.164 HD
BRANCH  28  30
ATOM     30  C   UNL     1       6.152  -7.252   2.060  1.00  0.00     0.082 C 
ATOM     31  C   UNL     1       6.111  -7.333   0.557  1.00  0.00     0.027 C 
ATOM     32  C   UNL     1       6.312  -8.578   1.365  1.00  0.00     0.027 C 
ENDBRANCH  28  30
ENDBRANCH  25  26
ENDBRANCH  19  20
ENDBRANCH  16  18
ENDBRANCH   9  14
ENDBRANCH   7   9
ENDBRANCH   6   7
ENDBRANCH   5   6
ENDBRANCH   4   5
ENDBRANCH   3   4
ENDBRANCH   2   3
ENDBRANCH   1   2
BRANCH   1  33
ATOM     33  O   UNL     1      -0.263   1.082  -3.180  1.00  0.00    -0.377 OA
BRANCH  33  34
ATOM     34  C   UNL     1      -1.620   0.907  -3.584  1.00  0.00     0.188 C 
BRANCH  34  35
ATOM     35  C   UNL     1      -2.328  -0.455  -3.401  1.00  0.00     0.188 C 
BRANCH  35  36
ATOM     36  O   UNL     1      -1.464  -1.573  -3.285  1.00  0.00    -0.376 OA
BRANCH  36  37
ATOM     37  C   UNL     1      -1.175  -2.318  -4.456  1.00  0.00     0.202 C 
BRANCH  37  38
ATOM     38  C   UNL     1      -0.588  -1.579  -5.668  1.00  0.00     0.261 C 
BRANCH  38  39
ATOM     39  O   UNL     1      -1.383  -0.521  -6.228  1.00  0.00    -0.460 OA
BRANCH  39  40
ATOM     40  C   UNL     1      -2.651  -0.805  -6.616  1.00  0.00     0.338 C 
ATOM     41  O   UNL     1      -3.194  -1.883  -6.615  1.00  0.00    -0.246 OA
BRANCH  40  42
ATOM     42  C   UNL     1      -3.334   0.495  -6.833  1.00  0.00     0.060 A 
ATOM     43  C   UNL     1      -4.437   0.826  -6.033  1.00  0.00     0.016 A 
ATOM     44  C   UNL     1      -2.863   1.391  -7.793  1.00  0.00     0.016 A 
ATOM     45  C   UNL     1      -5.080   2.052  -6.201  1.00  0.00     0.010 A 
ATOM     46  C   UNL     1      -3.528   2.605  -7.982  1.00  0.00     0.010 A 
ATOM     47  C   UNL     1      -4.654   2.931  -7.204  1.00  0.00    -0.014 A 
BRANCH  47  48
ATOM     48  C   UNL     1      -5.483   4.108  -7.554  1.00  0.00     0.031 A 
ATOM     49  C   UNL     1      -6.422   3.997  -8.724  1.00  0.00     0.074 A 
ATOM     50  C   UNL     1      -5.394   5.258  -6.862  1.00  0.00     0.049 A 
ATOM     51  N   UNL     1      -7.192   4.909  -9.255  1.00  0.00    -0.248 NA
ATOM     52  C   UNL     1      -6.502   2.682  -9.384  1.00  0.00     0.031 C 
ATOM     53  C   UNL     1      -4.529   5.486  -5.705  1.00  0.00     0.029 A 
ATOM     54  N   UNL     1      -6.017   6.466  -7.060  1.00  0.00    -0.354 N 
ATOM     55  C   UNL     1      -7.815   4.294 -10.334  1.00  0.00     0.074 A 
ATOM     56  C   UNL     1      -7.342   2.928 -10.378  1.00  0.00     0.031 C 
ATOM     57  C   UNL     1      -4.641   6.771  -5.325  1.00  0.00     0.029 A 
ATOM     58  C   UNL     1      -5.559   7.462  -6.229  1.00  0.00     0.049 A 
ATOM     59  H   UNL     1      -6.723   6.606  -7.732  1.00  0.00     0.167 HD
ATOM     60  C   UNL     1      -8.702   4.821 -11.209  1.00  0.00     0.034 A 
ATOM     61  C   UNL     1      -5.820   8.786  -6.228  1.00  0.00     0.034 A 
ATOM     62  C   UNL     1      -9.188   6.172 -11.151  1.00  0.00     0.049 A 
ATOM     63  C   UNL     1      -6.793   9.348  -7.234  1.00  0.00     0.074 A 
ATOM     64  C   UNL     1     -10.145   6.772 -11.951  1.00  0.00     0.029 A 
ATOM     65  N   UNL     1      -8.739   7.139 -10.268  1.00  0.00    -0.354 N 
ATOM     66  N   UNL     1      -7.484   8.723  -8.157  1.00  0.00    -0.248 NA
ATOM     67  C   UNL     1      -7.045  10.797  -7.182  1.00  0.00     0.031 C 
ATOM     68  C   UNL     1     -10.239   8.116 -11.583  1.00  0.00     0.029 A 
ATOM     69  C   UNL     1      -9.375   8.341 -10.523  1.00  0.00     0.049 A 
ATOM     70  H   UNL     1      -8.066   6.993  -9.564  1.00  0.00     0.167 HD
ATOM     71  C   UNL     1      -8.271   9.693  -8.770  1.00  0.00     0.074 A 
ATOM     72  C   UNL     1      -7.996  10.943  -8.094  1.00  0.00     0.031 C 
ATOM     73  C   UNL     1      -9.131   9.567  -9.811  1.00  0.00     0.034 A 
BRANCH  60  74
ATOM     74  C   UNL     1      -9.217   3.941 -12.314  1.00  0.00     0.023 A 
ATOM     75  C   UNL     1     -10.166   2.939 -12.034  1.00  0.00     0.012 A 
ATOM     76  C   UNL     1      -8.837   4.186 -13.648  1.00  0.00     0.148 A 
ATOM     77  C   UNL     1     -10.720   2.183 -13.066  1.00  0.00     0.002 A 
ATOM     78  C   UNL     1      -9.427   3.461 -14.675  1.00  0.00     0.091 A 
ATOM     79  F   UNL     1      -7.915   5.130 -13.885  1.00  0.00    -0.205 F 
ATOM     80  C   UNL     1     -10.363   2.454 -14.385  1.00  0.00     0.022 A 
BRANCH  78  81
ATOM     81  S   UNL     1      -9.097   3.791 -16.409  1.00  0.00     0.127 S 
ATOM     82  O   UNL     1      -8.448   2.548 -16.826  1.00  0.00    -0.237 OA
ATOM     83  O   UNL     1     -10.444   3.985 -16.943  1.00  0.00    -0.237 OA
ATOM     84  O   UNL     1      -8.247   4.973 -16.442  1.00  0.00    -0.744 OA
ENDBRANCH  78  81
ENDBRANCH  60  74
BRANCH  61  85
ATOM     85  C   UNL     1      -5.137   9.690  -5.257  1.00  0.00     0.023 A 
ATOM     86  C   UNL     1      -5.888  10.361  -4.272  1.00  0.00     0.012 A 
ATOM     87  C   UNL     1      -3.749   9.915  -5.330  1.00  0.00     0.148 A 
ATOM     88  C   UNL     1      -5.278  11.275  -3.412  1.00  0.00     0.002 A 
ATOM     89  C   UNL     1      -3.137  10.779  -4.430  1.00  0.00     0.091 A 
ATOM     90  F   UNL     1      -3.052   9.286  -6.288  1.00  0.00    -0.205 F 
ATOM     91  C   UNL     1      -3.902  11.477  -3.484  1.00  0.00     0.022 A 
BRANCH  89  92
ATOM     92  S   UNL     1      -1.355  10.998  -4.372  1.00  0.00     0.127 S 
ATOM     93  O   UNL     1      -1.200  12.339  -4.927  1.00  0.00    -0.237 OA
ATOM     94  O   UNL     1      -1.083  10.887  -2.939  1.00  0.00    -0.237 OA
ATOM     95  O   UNL     1      -0.801   9.912  -5.170  1.00  0.00    -0.744 OA
ENDBRANCH  89  92
ENDBRANCH  61  85
BRANCH  73  96
ATOM     96  C   UNL     1      -9.871  10.799 -10.268  1.00  0.00     0.023 A 
ATOM     97  C   UNL     1      -9.180  11.826 -10.942  1.00  0.00     0.012 A 
ATOM     98  C   UNL     1     -11.266  10.902 -10.097  1.00  0.00     0.148 A 
ATOM     99  C   UNL     1      -9.860  12.953 -11.404  1.00  0.00     0.002 A 
ATOM    100  C   UNL     1     -11.945  12.002 -10.607  1.00  0.00     0.091 A 
ATOM    101  F   UNL     1     -11.904   9.920  -9.443  1.00  0.00    -0.205 F 
ATOM    102  C   UNL     1     -11.242  13.035 -11.248  1.00  0.00     0.022 A 
BRANCH 100 103
ATOM    103  S   UNL     1     -13.734  12.149 -10.542  1.00  0.00     0.127 S 
ATOM    104  O   UNL     1     -13.908  13.245  -9.590  1.00  0.00    -0.237 OA
ATOM    105  O   UNL     1     -14.067  12.486 -11.927  1.00  0.00    -0.237 OA
ATOM    106  O   UNL     1     -14.230  10.854 -10.097  1.00  0.00    -0.744 OA
ENDBRANCH 100 103
ENDBRANCH  73  96
ENDBRANCH  47  48
ENDBRANCH  40  42
ENDBRANCH  39  40
ENDBRANCH  38  39
ENDBRANCH  37  38
ENDBRANCH  36  37
ENDBRANCH  35  36
ENDBRANCH  34  35
ENDBRANCH  33  34
ENDBRANCH   1  33
TORSDOF 28
