REMARK SMILES C[C@@H](C(=O)OCCOCCOCCOCCOC(=O)c1ccc(-c2c3nc(c(-c4cccc(S(=O)(=O)[O-])c4F)c4ccc([nH]4)c(-c4cccc(S(=O)(=O)[O-])c4F)c4nc(c(-c5cccc(S(=O)(=O)[O-])c5F)c5ccc2[nH]5)C=C4)C=C3)cc1)c1ccc(C[C@H]2CCC[C@@H]2O)cc1F
REMARK SMILES IDX 10 1 9 2 8 3 7 4 6 5 5 6 3 7 4 8 2 9 1 10 83 11 84 12 95 13
REMARK SMILES IDX 85 14 94 15 96 16 86 17 87 18 88 19 89 20 92 21 90 22 91 23
REMARK SMILES IDX 93 24 11 26 12 27 13 28 14 29 15 30 16 31 17 32 18 33 19 34
REMARK SMILES IDX 20 35 21 36 82 37 22 38 81 39 23 40 24 41 25 42 75 43 26 44
REMARK SMILES IDX 80 45 74 46 76 47 27 48 79 49 73 50 72 51 28 53 60 54 40 55
REMARK SMILES IDX 59 56 41 57 44 58 58 59 77 60 42 61 43 62 57 64 78 65 45 66
REMARK SMILES IDX 29 67 30 68 38 69 31 70 33 71 39 72 32 73 34 74 35 75 36 76
REMARK SMILES IDX 37 77 61 78 62 79 70 80 63 81 65 82 71 83 64 84 66 85 67 86
REMARK SMILES IDX 68 87 69 88 46 89 47 90 55 91 48 92 50 93 56 94 49 95 51 96
REMARK SMILES IDX 52 97 53 98 54 99
REMARK H PARENT 93 25 76 52 44 63
REMARK Flexibility Score: inf
ROOT
ATOM      1  C   UNL     1       0.737   1.749  -2.102  1.00  0.00     0.188 C 
ENDROOT
BRANCH   1   2
ATOM      2  C   UNL     1       0.089   3.126  -1.905  1.00  0.00     0.188 C 
BRANCH   2   3
ATOM      3  O   UNL     1       0.816   4.285  -2.255  1.00  0.00    -0.376 OA
BRANCH   3   4
ATOM      4  C   UNL     1       1.942   4.700  -1.490  1.00  0.00     0.202 C 
BRANCH   4   5
ATOM      5  C   UNL     1       2.362   4.140  -0.112  1.00  0.00     0.261 C 
BRANCH   5   6
ATOM      6  O   UNL     1       1.838   2.860   0.255  1.00  0.00    -0.463 OA
BRANCH   6   7
ATOM      7  C   UNL     1       1.176   2.757   1.432  1.00  0.00     0.313 C 
ATOM      8  O   UNL     1       0.994   3.693   2.205  1.00  0.00    -0.252 OA
BRANCH   7   9
ATOM      9  C   UNL     1       0.527   1.379   1.631  1.00  0.00     0.129 C 
ATOM     10  C   UNL     1       1.394   0.225   1.097  1.00  0.00     0.025 C 
BRANCH   9  11
ATOM     11  C   UNL     1      -0.954   1.335   1.236  1.00  0.00     0.002 A 
ATOM     12  C   UNL     1      -1.682   2.509   0.977  1.00  0.00     0.008 A 
ATOM     13  C   UNL     1      -1.676   0.137   1.213  1.00  0.00     0.127 A 
ATOM     14  C   UNL     1      -3.049   2.487   0.706  1.00  0.00     0.004 A 
ATOM     15  C   UNL     1      -3.062   0.115   1.023  1.00  0.00     0.043 A 
ATOM     16  F   UNL     1      -1.060  -1.031   1.445  1.00  0.00    -0.207 F 
ATOM     17  C   UNL     1      -3.772   1.306   0.835  1.00  0.00    -0.045 A 
BRANCH  17  18
ATOM     18  C   UNL     1      -5.280   1.343   0.917  1.00  0.00     0.041 C 
BRANCH  18  19
ATOM     19  C   UNL     1      -5.837   1.897   2.253  1.00  0.00     0.022 C 
ATOM     20  C   UNL     1      -5.284   1.232   3.529  1.00  0.00     0.007 C 
ATOM     21  C   UNL     1      -5.656   3.406   2.487  1.00  0.00     0.117 C 
ATOM     22  C   UNL     1      -5.013   2.359   4.526  1.00  0.00     0.003 C 
ATOM     23  C   UNL     1      -5.774   3.560   3.995  1.00  0.00     0.032 C 
BRANCH  21  24
ATOM     24  O   UNL     1      -6.660   4.161   1.831  1.00  0.00    -0.393 OA
ATOM     25  H   UNL     1      -7.534   3.880   2.146  1.00  0.00     0.210 HD
ENDBRANCH  21  24
ENDBRANCH  18  19
ENDBRANCH  17  18
ENDBRANCH   9  11
ENDBRANCH   7   9
ENDBRANCH   6   7
ENDBRANCH   5   6
ENDBRANCH   4   5
ENDBRANCH   3   4
ENDBRANCH   2   3
ENDBRANCH   1   2
BRANCH   1  26
ATOM     26  O   UNL     1       2.148   1.755  -2.125  1.00  0.00    -0.377 OA
BRANCH  26  27
ATOM     27  C   UNL     1       2.803   2.067  -3.348  1.00  0.00     0.188 C 
BRANCH  27  28
ATOM     28  C   UNL     1       2.036   2.732  -4.513  1.00  0.00     0.188 C 
BRANCH  28  29
ATOM     29  O   UNL     1       0.709   2.267  -4.714  1.00  0.00    -0.376 OA
BRANCH  29  30
ATOM     30  C   UNL     1       0.481   1.262  -5.691  1.00  0.00     0.202 C 
BRANCH  30  31
ATOM     31  C   UNL     1       1.135  -0.111  -5.470  1.00  0.00     0.261 C 
BRANCH  31  32
ATOM     32  O   UNL     1       2.569  -0.131  -5.400  1.00  0.00    -0.460 OA
BRANCH  32  33
ATOM     33  C   UNL     1       3.259   0.373  -6.448  1.00  0.00     0.338 C 
ATOM     34  O   UNL     1       2.805   0.787  -7.493  1.00  0.00    -0.246 OA
BRANCH  33  35
ATOM     35  C   UNL     1       4.667   0.530  -6.018  1.00  0.00     0.060 A 
ATOM     36  C   UNL     1       5.242   1.808  -6.044  1.00  0.00     0.016 A 
ATOM     37  C   UNL     1       5.409  -0.571  -5.587  1.00  0.00     0.016 A 
ATOM     38  C   UNL     1       6.576   1.981  -5.679  1.00  0.00     0.010 A 
ATOM     39  C   UNL     1       6.752  -0.400  -5.244  1.00  0.00     0.010 A 
ATOM     40  C   UNL     1       7.352   0.870  -5.327  1.00  0.00    -0.014 A 
BRANCH  40  41
ATOM     41  C   UNL     1       8.827   1.001  -5.252  1.00  0.00     0.031 A 
ATOM     42  C   UNL     1       9.640   0.567  -6.441  1.00  0.00     0.074 A 
ATOM     43  C   UNL     1       9.436   1.497  -4.160  1.00  0.00     0.049 A 
ATOM     44  N   UNL     1      10.937   0.537  -6.594  1.00  0.00    -0.248 NA
ATOM     45  C   UNL     1       8.885   0.100  -7.617  1.00  0.00     0.031 C 
ATOM     46  C   UNL     1       8.759   1.964  -2.952  1.00  0.00     0.029 A 
ATOM     47  N   UNL     1      10.771   1.661  -3.886  1.00  0.00    -0.354 N 
ATOM     48  C   UNL     1      11.155   0.022  -7.867  1.00  0.00     0.074 A 
ATOM     49  C   UNL     1       9.858  -0.260  -8.439  1.00  0.00     0.031 C 
ATOM     50  C   UNL     1       9.687   2.331  -2.050  1.00  0.00     0.029 A 
ATOM     51  C   UNL     1      11.019   2.095  -2.605  1.00  0.00     0.049 A 
ATOM     52  H   UNL     1      11.483   1.484  -4.543  1.00  0.00     0.167 HD
ATOM     53  C   UNL     1      12.329  -0.187  -8.507  1.00  0.00     0.034 A 
ATOM     54  C   UNL     1      12.186   2.251  -1.948  1.00  0.00     0.034 A 
ATOM     55  C   UNL     1      13.617   0.101  -7.939  1.00  0.00     0.049 A 
ATOM     56  C   UNL     1      13.482   1.973  -2.669  1.00  0.00     0.074 A 
ATOM     57  C   UNL     1      14.864  -0.042  -8.521  1.00  0.00     0.029 A 
ATOM     58  N   UNL     1      13.828   0.572  -6.653  1.00  0.00    -0.354 N 
ATOM     59  N   UNL     1      13.673   1.583  -3.906  1.00  0.00    -0.248 NA
ATOM     60  C   UNL     1      14.724   2.187  -1.911  1.00  0.00     0.031 C 
ATOM     61  C   UNL     1      15.831   0.305  -7.572  1.00  0.00     0.029 A 
ATOM     62  C   UNL     1      15.184   0.712  -6.416  1.00  0.00     0.049 A 
ATOM     63  H   UNL     1      13.117   0.777  -6.004  1.00  0.00     0.167 HD
ATOM     64  C   UNL     1      15.053   1.544  -4.087  1.00  0.00     0.074 A 
ATOM     65  C   UNL     1      15.648   1.968  -2.837  1.00  0.00     0.031 C 
ATOM     66  C   UNL     1      15.763   1.183  -5.184  1.00  0.00     0.034 A 
BRANCH  53  67
ATOM     67  C   UNL     1      12.272  -0.748  -9.904  1.00  0.00     0.023 A 
ATOM     68  C   UNL     1      11.801   0.053 -10.965  1.00  0.00     0.012 A 
ATOM     69  C   UNL     1      12.729  -2.053 -10.173  1.00  0.00     0.148 A 
ATOM     70  C   UNL     1      11.754  -0.448 -12.265  1.00  0.00     0.002 A 
ATOM     71  C   UNL     1      12.725  -2.527 -11.479  1.00  0.00     0.091 A 
ATOM     72  F   UNL     1      13.151  -2.806  -9.148  1.00  0.00    -0.205 F 
ATOM     73  C   UNL     1      12.226  -1.732 -12.523  1.00  0.00     0.022 A 
BRANCH  71  74
ATOM     74  S   UNL     1      13.385  -4.136 -11.928  1.00  0.00     0.127 S 
ATOM     75  O   UNL     1      12.173  -4.852 -12.325  1.00  0.00    -0.237 OA
ATOM     76  O   UNL     1      14.284  -3.800 -13.032  1.00  0.00    -0.237 OA
ATOM     77  O   UNL     1      14.047  -4.648 -10.736  1.00  0.00    -0.744 OA
ENDBRANCH  71  74
ENDBRANCH  53  67
BRANCH  54  78
ATOM     78  C   UNL     1      12.190   2.702  -0.527  1.00  0.00     0.023 A 
ATOM     79  C   UNL     1      12.710   3.968  -0.194  1.00  0.00     0.012 A 
ATOM     80  C   UNL     1      11.683   1.878   0.497  1.00  0.00     0.148 A 
ATOM     81  C   UNL     1      12.757   4.390   1.135  1.00  0.00     0.002 A 
ATOM     82  C   UNL     1      11.679   2.328   1.811  1.00  0.00     0.091 A 
ATOM     83  F   UNL     1      11.209   0.670   0.162  1.00  0.00    -0.205 F 
ATOM     84  C   UNL     1      12.233   3.576   2.136  1.00  0.00     0.022 A 
BRANCH  82  85
ATOM     85  S   UNL     1      10.913   1.403   3.146  1.00  0.00     0.127 S 
ATOM     86  O   UNL     1      12.071   1.029   3.954  1.00  0.00    -0.237 OA
ATOM     87  O   UNL     1      10.041   2.412   3.746  1.00  0.00    -0.237 OA
ATOM     88  O   UNL     1      10.208   0.300   2.507  1.00  0.00    -0.744 OA
ENDBRANCH  82  85
ENDBRANCH  54  78
BRANCH  66  89
ATOM     89  C   UNL     1      17.267   1.277  -5.114  1.00  0.00     0.023 A 
ATOM     90  C   UNL     1      17.999   0.366  -4.328  1.00  0.00     0.012 A 
ATOM     91  C   UNL     1      17.957   2.227  -5.894  1.00  0.00     0.148 A 
ATOM     92  C   UNL     1      19.393   0.423  -4.290  1.00  0.00     0.002 A 
ATOM     93  C   UNL     1      19.347   2.243  -5.893  1.00  0.00     0.091 A 
ATOM     94  F   UNL     1      17.243   3.095  -6.625  1.00  0.00    -0.205 F 
ATOM     95  C   UNL     1      20.066   1.352  -5.081  1.00  0.00     0.022 A 
BRANCH  93  96
ATOM     96  S   UNL     1      20.300   3.335  -6.954  1.00  0.00     0.127 S 
ATOM     97  O   UNL     1      20.882   4.260  -5.983  1.00  0.00    -0.237 OA
ATOM     98  O   UNL     1      21.256   2.412  -7.567  1.00  0.00    -0.237 OA
ATOM     99  O   UNL     1      19.348   3.927  -7.884  1.00  0.00    -0.744 OA
ENDBRANCH  93  96
ENDBRANCH  66  89
ENDBRANCH  40  41
ENDBRANCH  33  35
ENDBRANCH  32  33
ENDBRANCH  31  32
ENDBRANCH  30  31
ENDBRANCH  29  30
ENDBRANCH  28  29
ENDBRANCH  27  28
ENDBRANCH  26  27
ENDBRANCH   1  26
TORSDOF 27
