REMARK SMILES COc1cc(OC(F)(F)F)cc2c1O[C@@H](C(F)(F)F)C(C(=O)OCCOCCOCCOCCOC(=O)c1ccc(-c3c4nc(c(-c5cccc(S(=O)(=O)[O-])c5F)c5ccc([nH]5)c(-c5cccc(S(=O)(=O)[O-])c5F)c5nc(c(-c6cccc(S(=O)(=O)[O-])c6F)c6ccc3[nH]6)C=C5)C=C4)cc1)=C2
REMARK SMILES IDX 30 1 29 2 28 3 27 4 26 5 25 6 24 7 23 8 21 9 22 10 20 11
REMARK SMILES IDX 3 12 4 13 13 14 5 15 12 16 14 17 11 18 101 19 15 20 2 21
REMARK SMILES IDX 1 22 6 23 7 24 8 25 9 26 10 27 16 28 17 29 18 30 19 31 31 32
REMARK SMILES IDX 32 33 33 34 34 35 35 36 36 37 37 38 38 39 39 40 100 41 40 42
REMARK SMILES IDX 99 43 41 44 42 45 43 46 93 47 44 48 98 49 92 50 94 51 45 52
REMARK SMILES IDX 97 53 91 54 90 55 46 57 78 58 58 59 77 60 59 61 62 62 76 63
REMARK SMILES IDX 95 64 60 65 61 66 75 68 96 69 63 70 47 71 48 72 56 73 49 74
REMARK SMILES IDX 51 75 57 76 50 77 52 78 53 79 54 80 55 81 79 82 80 83 88 84
REMARK SMILES IDX 81 85 83 86 89 87 82 88 84 89 85 90 86 91 87 92 64 93 65 94
REMARK SMILES IDX 73 95 66 96 68 97 74 98 67 99 69 100 70 101 71 102 72 103
REMARK H PARENT 94 56 62 67
REMARK Flexibility Score: inf
ROOT
ATOM      1  C   UNL     1       7.605   5.119  -3.823  1.00  0.00     0.188 C 
ENDROOT
BRANCH   1   2
ATOM      2  O   UNL     1       6.391   4.400  -3.635  1.00  0.00    -0.377 OA
BRANCH   2   3
ATOM      3  C   UNL     1       6.204   3.637  -2.458  1.00  0.00     0.188 C 
BRANCH   3   4
ATOM      4  C   UNL     1       7.354   2.751  -1.943  1.00  0.00     0.188 C 
BRANCH   4   5
ATOM      5  O   UNL     1       8.574   2.878  -2.655  1.00  0.00    -0.376 OA
BRANCH   5   6
ATOM      6  C   UNL     1       8.995   1.769  -3.434  1.00  0.00     0.202 C 
BRANCH   6   7
ATOM      7  C   UNL     1       8.138   1.442  -4.664  1.00  0.00     0.261 C 
BRANCH   7   8
ATOM      8  O   UNL     1       6.736   1.290  -4.396  1.00  0.00    -0.460 OA
BRANCH   8   9
ATOM      9  C   UNL     1       6.353   0.191  -3.711  1.00  0.00     0.338 C 
ATOM     10  O   UNL     1       7.080  -0.700  -3.311  1.00  0.00    -0.246 OA
BRANCH   9  11
ATOM     11  C   UNL     1       4.928   0.317  -3.346  1.00  0.00     0.087 C 
ATOM     12  C   UNL     1       0.891   0.034  -2.325  1.00  0.00     0.165 A 
ATOM     13  C   UNL     1      -0.087   0.515  -3.196  1.00  0.00     0.097 A 
ATOM     14  C   UNL     1       2.242   0.135  -2.665  1.00  0.00     0.170 A 
ATOM     15  C   UNL     1       0.280   1.142  -4.389  1.00  0.00     0.134 A 
ATOM     16  C   UNL     1       2.623   0.753  -3.864  1.00  0.00     0.025 A 
ATOM     17  O   UNL     1       3.163  -0.478  -1.856  1.00  0.00    -0.471 OA
ATOM     18  C   UNL     1       1.639   1.283  -4.706  1.00  0.00     0.059 A 
ATOM     19  C   UNL     1       4.030   0.710  -4.268  1.00  0.00     0.027 C 
ATOM     20  C   UNL     1       4.494   0.094  -1.916  1.00  0.00     0.316 C 
BRANCH  12  21
ATOM     21  O   UNL     1       0.441  -0.622  -1.207  1.00  0.00    -0.493 OA
ATOM     22  C   UNL     1       0.880  -0.002   0.001  1.00  0.00     0.278 C 
ENDBRANCH  12  21
BRANCH  15  23
ATOM     23  O   UNL     1      -0.582   1.641  -5.326  1.00  0.00    -0.406 OA
BRANCH  23  24
ATOM     24  C   UNL     1      -1.932   1.210  -5.263  1.00  0.00     0.573 C 
ATOM     25  F   UNL     1      -2.020  -0.139  -5.237  1.00  0.00    -0.132 F 
ATOM     26  F   UNL     1      -2.548   1.715  -4.170  1.00  0.00    -0.132 F 
ATOM     27  F   UNL     1      -2.593   1.653  -6.354  1.00  0.00    -0.132 F 
ENDBRANCH  23  24
ENDBRANCH  15  23
BRANCH  20  28
ATOM     28  C   UNL     1       5.388  -0.715  -0.962  1.00  0.00     0.430 C 
ATOM     29  F   UNL     1       6.577  -0.111  -0.740  1.00  0.00    -0.167 F 
ATOM     30  F   UNL     1       4.793  -0.794   0.263  1.00  0.00    -0.167 F 
ATOM     31  F   UNL     1       5.611  -1.978  -1.372  1.00  0.00    -0.167 F 
ENDBRANCH  20  28
ENDBRANCH   9  11
ENDBRANCH   8   9
ENDBRANCH   7   8
ENDBRANCH   6   7
ENDBRANCH   5   6
ENDBRANCH   4   5
ENDBRANCH   3   4
ENDBRANCH   2   3
ENDBRANCH   1   2
BRANCH   1  32
ATOM     32  C   UNL     1       8.410   5.652  -2.615  1.00  0.00     0.188 C 
BRANCH  32  33
ATOM     33  O   UNL     1       7.759   5.526  -1.358  1.00  0.00    -0.376 OA
BRANCH  33  34
ATOM     34  C   UNL     1       7.290   6.722  -0.758  1.00  0.00     0.202 C 
BRANCH  34  35
ATOM     35  C   UNL     1       6.117   7.407  -1.469  1.00  0.00     0.261 C 
BRANCH  35  36
ATOM     36  O   UNL     1       6.341   7.767  -2.840  1.00  0.00    -0.460 OA
BRANCH  36  37
ATOM     37  C   UNL     1       7.318   8.662  -3.104  1.00  0.00     0.338 C 
ATOM     38  O   UNL     1       8.045   9.220  -2.300  1.00  0.00    -0.246 OA
BRANCH  37  39
ATOM     39  C   UNL     1       7.485   8.698  -4.570  1.00  0.00     0.060 A 
ATOM     40  C   UNL     1       8.719   8.342  -5.135  1.00  0.00     0.016 A 
ATOM     41  C   UNL     1       6.402   9.037  -5.383  1.00  0.00     0.016 A 
ATOM     42  C   UNL     1       8.875   8.343  -6.522  1.00  0.00     0.010 A 
ATOM     43  C   UNL     1       6.567   9.060  -6.767  1.00  0.00     0.010 A 
ATOM     44  C   UNL     1       7.811   8.741  -7.340  1.00  0.00    -0.014 A 
BRANCH  44  45
ATOM     45  C   UNL     1       8.033   9.028  -8.776  1.00  0.00     0.031 A 
ATOM     46  C   UNL     1       8.252  10.458  -9.181  1.00  0.00     0.074 A 
ATOM     47  C   UNL     1       7.980   8.057  -9.704  1.00  0.00     0.049 A 
ATOM     48  N   UNL     1       8.348  10.978 -10.375  1.00  0.00    -0.248 NA
ATOM     49  C   UNL     1       8.362  11.436  -8.085  1.00  0.00     0.031 C 
ATOM     50  C   UNL     1       7.770   6.637  -9.433  1.00  0.00     0.029 A 
ATOM     51  N   UNL     1       8.053   8.136 -11.073  1.00  0.00    -0.354 N 
ATOM     52  C   UNL     1       8.494  12.345 -10.177  1.00  0.00     0.074 A 
ATOM     53  C   UNL     1       8.464  12.576  -8.750  1.00  0.00     0.031 C 
ATOM     54  C   UNL     1       7.682   5.981 -10.603  1.00  0.00     0.029 A 
ATOM     55  C   UNL     1       7.797   6.940 -11.702  1.00  0.00     0.049 A 
ATOM     56  H   UNL     1       8.268   8.966 -11.557  1.00  0.00     0.167 HD
ATOM     57  C   UNL     1       8.647  13.322 -11.101  1.00  0.00     0.034 A 
ATOM     58  C   UNL     1       7.633   6.663 -13.012  1.00  0.00     0.034 A 
ATOM     59  C   UNL     1       8.676  13.089 -12.518  1.00  0.00     0.049 A 
ATOM     60  C   UNL     1       7.782   7.769 -14.025  1.00  0.00     0.074 A 
ATOM     61  C   UNL     1       8.874  14.003 -13.536  1.00  0.00     0.029 A 
ATOM     62  N   UNL     1       8.480  11.855 -13.119  1.00  0.00    -0.354 N 
ATOM     63  N   UNL     1       8.040   9.040 -13.830  1.00  0.00    -0.248 NA
ATOM     64  C   UNL     1       7.649   7.399 -15.443  1.00  0.00     0.031 C 
ATOM     65  C   UNL     1       8.761  13.327 -14.755  1.00  0.00     0.029 A 
ATOM     66  C   UNL     1       8.537  11.984 -14.495  1.00  0.00     0.049 A 
ATOM     67  H   UNL     1       8.323  11.011 -12.637  1.00  0.00     0.167 HD
ATOM     68  C   UNL     1       8.138   9.612 -15.095  1.00  0.00     0.074 A 
ATOM     69  C   UNL     1       7.925   8.545 -16.051  1.00  0.00     0.031 C 
ATOM     70  C   UNL     1       8.374  10.904 -15.435  1.00  0.00     0.034 A 
BRANCH  57  71
ATOM     71  C   UNL     1       8.798  14.733 -10.597  1.00  0.00     0.023 A 
ATOM     72  C   UNL     1       9.980  15.117  -9.929  1.00  0.00     0.012 A 
ATOM     73  C   UNL     1       7.781  15.684 -10.803  1.00  0.00     0.148 A 
ATOM     74  C   UNL     1      10.128  16.413  -9.438  1.00  0.00     0.002 A 
ATOM     75  C   UNL     1       7.957  16.988 -10.355  1.00  0.00     0.091 A 
ATOM     76  F   UNL     1       6.654  15.294 -11.416  1.00  0.00    -0.205 F 
ATOM     77  C   UNL     1       9.123  17.350  -9.660  1.00  0.00     0.022 A 
BRANCH  75  78
ATOM     78  S   UNL     1       6.755  18.285 -10.663  1.00  0.00     0.127 S 
ATOM     79  O   UNL     1       6.189  18.485  -9.329  1.00  0.00    -0.237 OA
ATOM     80  O   UNL     1       7.600  19.381 -11.138  1.00  0.00    -0.237 OA
ATOM     81  O   UNL     1       5.836  17.752 -11.659  1.00  0.00    -0.744 OA
ENDBRANCH  75  78
ENDBRANCH  57  71
BRANCH  58  82
ATOM     82  C   UNL     1       7.318   5.270 -13.440  1.00  0.00     0.023 A 
ATOM     83  C   UNL     1       8.278   4.520 -14.145  1.00  0.00     0.012 A 
ATOM     84  C   UNL     1       6.077   4.679 -13.127  1.00  0.00     0.148 A 
ATOM     85  C   UNL     1       7.999   3.215 -14.556  1.00  0.00     0.002 A 
ATOM     86  C   UNL     1       5.828   3.360 -13.488  1.00  0.00     0.091 A 
ATOM     87  F   UNL     1       5.171   5.415 -12.470  1.00  0.00    -0.205 F 
ATOM     88  C   UNL     1       6.780   2.632 -14.218  1.00  0.00     0.022 A 
BRANCH  86  89
ATOM     89  S   UNL     1       4.345   2.484 -12.980  1.00  0.00     0.127 S 
ATOM     90  O   UNL     1       3.670   2.271 -14.258  1.00  0.00    -0.237 OA
ATOM     91  O   UNL     1       4.905   1.278 -12.369  1.00  0.00    -0.237 OA
ATOM     92  O   UNL     1       3.662   3.369 -12.046  1.00  0.00    -0.744 OA
ENDBRANCH  86  89
ENDBRANCH  58  82
BRANCH  70  93
ATOM     93  C   UNL     1       8.470  11.243 -16.901  1.00  0.00     0.023 A 
ATOM     94  C   UNL     1       7.312  11.259 -17.701  1.00  0.00     0.012 A 
ATOM     95  C   UNL     1       9.703  11.635 -17.460  1.00  0.00     0.148 A 
ATOM     96  C   UNL     1       7.384  11.633 -19.044  1.00  0.00     0.002 A 
ATOM     97  C   UNL     1       9.759  12.056 -18.784  1.00  0.00     0.091 A 
ATOM     98  F   UNL     1      10.797  11.598 -16.686  1.00  0.00    -0.205 F 
ATOM     99  C   UNL     1       8.603  12.043 -19.580  1.00  0.00     0.022 A 
BRANCH  97 100
ATOM    100  S   UNL     1      11.262  12.696 -19.530  1.00  0.00     0.127 S 
ATOM    101  O   UNL     1      11.608  11.627 -20.466  1.00  0.00    -0.237 OA
ATOM    102  O   UNL     1      10.793  13.930 -20.160  1.00  0.00    -0.237 OA
ATOM    103  O   UNL     1      12.203  12.894 -18.436  1.00  0.00    -0.744 OA
ENDBRANCH  97 100
ENDBRANCH  70  93
ENDBRANCH  44  45
ENDBRANCH  37  39
ENDBRANCH  36  37
ENDBRANCH  35  36
ENDBRANCH  34  35
ENDBRANCH  33  34
ENDBRANCH  32  33
ENDBRANCH   1  32
TORSDOF 27
