REMARK SMILES CC(C)[N@@H+](C)Cc1cc2c(cc1Cl)C=C(C(=O)OCCOCCOCCOCCOC(=O)c1ccc(-c3c4nc(c(-c5cccc(S(=O)(=O)[O-])c5F)c5ccc([nH]5)c(-c5cccc(S(=O)(=O)[O-])c5F)c5nc(c(-c6cccc(S(=O)(=O)[O-])c6F)c6ccc3[nH]6)C=C5)C=C4)cc1)[C@@H](C(F)(F)F)O2
REMARK SMILES IDX 24 1 23 2 22 3 21 4 20 5 19 6 18 7 16 8 17 9 15 10 7 11 8 12
REMARK SMILES IDX 12 13 9 14 11 15 13 16 10 17 101 18 14 19 96 20 6 21 4 22
REMARK SMILES IDX 5 23 2 25 1 26 3 27 97 28 98 29 99 30 100 31 25 32 26 33
REMARK SMILES IDX 27 34 28 35 29 36 30 37 31 38 32 39 33 40 34 41 95 42 35 43
REMARK SMILES IDX 94 44 36 45 37 46 38 47 88 48 39 49 93 50 87 51 89 52 40 53
REMARK SMILES IDX 92 54 86 55 85 56 41 58 73 59 53 60 72 61 54 62 57 63 71 64
REMARK SMILES IDX 90 65 55 66 56 67 70 69 91 70 58 71 42 72 43 73 51 74 44 75
REMARK SMILES IDX 46 76 52 77 45 78 47 79 48 80 49 81 50 82 74 83 75 84 83 85
REMARK SMILES IDX 76 86 78 87 84 88 77 89 79 90 80 91 81 92 82 93 59 94 60 95
REMARK SMILES IDX 68 96 61 97 63 98 69 99 62 100 64 101 65 102 66 103 67 104
REMARK H PARENT 4 24 89 57 57 68
REMARK Flexibility Score: inf
ROOT
ATOM      1  O   UNL     1       3.526  -8.128  -4.704  1.00  0.00    -0.377 OA
ENDROOT
BRANCH   1   2
ATOM      2  C   UNL     1       2.665  -8.168  -3.578  1.00  0.00     0.188 C 
BRANCH   2   3
ATOM      3  C   UNL     1       1.679  -9.350  -3.619  1.00  0.00     0.188 C 
BRANCH   3   4
ATOM      4  O   UNL     1       1.994 -10.321  -4.613  1.00  0.00    -0.376 OA
BRANCH   4   5
ATOM      5  C   UNL     1       1.253 -10.295  -5.828  1.00  0.00     0.202 C 
BRANCH   5   6
ATOM      6  C   UNL     1       1.423  -9.066  -6.732  1.00  0.00     0.261 C 
BRANCH   6   7
ATOM      7  O   UNL     1       1.084  -7.819  -6.111  1.00  0.00    -0.460 OA
BRANCH   7   8
ATOM      8  C   UNL     1      -0.186  -7.635  -5.708  1.00  0.00     0.338 C 
ATOM      9  O   UNL     1      -1.129  -8.391  -5.853  1.00  0.00    -0.246 OA
BRANCH   8  10
ATOM     10  C   UNL     1      -0.207  -6.407  -4.887  1.00  0.00     0.087 C 
ATOM     11  C   UNL     1      -1.109  -2.772  -1.527  1.00  0.00     0.029 A 
ATOM     12  C   UNL     1      -0.458  -2.883  -2.757  1.00  0.00     0.058 A 
ATOM     13  C   UNL     1      -1.606  -3.967  -0.971  1.00  0.00     0.050 A 
ATOM     14  C   UNL     1      -0.299  -4.097  -3.413  1.00  0.00     0.128 A 
ATOM     15  C   UNL     1      -1.495  -5.193  -1.652  1.00  0.00     0.033 A 
ATOM     16  Cl  UNL     1      -2.416  -3.987   0.560  1.00  0.00    -0.084 Cl
ATOM     17  C   UNL     1      -0.868  -5.252  -2.900  1.00  0.00     0.019 A 
ATOM     18  O   UNL     1       0.415  -4.024  -4.567  1.00  0.00    -0.475 OA
ATOM     19  C   UNL     1      -0.860  -6.455  -3.715  1.00  0.00     0.027 C 
ATOM     20  C   UNL     1       0.591  -5.218  -5.364  1.00  0.00     0.316 C 
BRANCH  11  21
ATOM     21  C   UNL     1      -1.320  -1.434  -0.842  1.00  0.00     0.300 C 
BRANCH  21  22
ATOM     22  N   UNL     1      -0.756  -0.205  -1.413  1.00  0.00    -0.332 N 
ATOM     23  C   UNL     1      -1.381   0.284  -2.631  1.00  0.00     0.333 C 
ATOM     24  H   UNL     1      -1.104   0.406  -0.674  1.00  0.00     0.348 HD
BRANCH  22  25
ATOM     25  C   UNL     1       0.652   0.152  -1.212  1.00  0.00     0.177 C 
ATOM     26  C   UNL     1       0.997   0.238   0.280  1.00  0.00     0.075 C 
ATOM     27  C   UNL     1       1.706  -0.703  -1.919  1.00  0.00     0.075 C 
ENDBRANCH  22  25
ENDBRANCH  21  22
ENDBRANCH  11  21
BRANCH  20  28
ATOM     28  C   UNL     1       0.296  -4.815  -6.816  1.00  0.00     0.430 C 
ATOM     29  F   UNL     1       1.013  -3.718  -7.166  1.00  0.00    -0.167 F 
ATOM     30  F   UNL     1       0.603  -5.784  -7.703  1.00  0.00    -0.167 F 
ATOM     31  F   UNL     1      -1.012  -4.509  -6.984  1.00  0.00    -0.167 F 
ENDBRANCH  20  28
ENDBRANCH   8  10
ENDBRANCH   7   8
ENDBRANCH   6   7
ENDBRANCH   5   6
ENDBRANCH   4   5
ENDBRANCH   3   4
ENDBRANCH   2   3
ENDBRANCH   1   2
BRANCH   1  32
ATOM     32  C   UNL     1       4.688  -8.959  -4.676  1.00  0.00     0.188 C 
BRANCH  32  33
ATOM     33  C   UNL     1       4.746 -10.237  -3.807  1.00  0.00     0.188 C 
BRANCH  33  34
ATOM     34  O   UNL     1       4.313 -10.037  -2.461  1.00  0.00    -0.376 OA
BRANCH  34  35
ATOM     35  C   UNL     1       5.314 -10.094  -1.455  1.00  0.00     0.202 C 
BRANCH  35  36
ATOM     36  C   UNL     1       6.156  -8.817  -1.350  1.00  0.00     0.261 C 
BRANCH  36  37
ATOM     37  O   UNL     1       6.931  -8.501  -2.515  1.00  0.00    -0.460 OA
BRANCH  37  38
ATOM     38  C   UNL     1       7.839  -9.412  -2.933  1.00  0.00     0.338 C 
ATOM     39  O   UNL     1       8.123 -10.466  -2.392  1.00  0.00    -0.246 OA
BRANCH  38  40
ATOM     40  C   UNL     1       8.278  -8.996  -4.281  1.00  0.00     0.060 A 
ATOM     41  C   UNL     1       8.732  -7.692  -4.497  1.00  0.00     0.016 A 
ATOM     42  C   UNL     1       8.185  -9.902  -5.345  1.00  0.00     0.016 A 
ATOM     43  C   UNL     1       9.118  -7.301  -5.779  1.00  0.00     0.010 A 
ATOM     44  C   UNL     1       8.562  -9.505  -6.630  1.00  0.00     0.010 A 
ATOM     45  C   UNL     1       9.051  -8.209  -6.850  1.00  0.00    -0.014 A 
BRANCH  45  46
ATOM     46  C   UNL     1       9.680  -7.858  -8.144  1.00  0.00     0.031 A 
ATOM     47  C   UNL     1       8.884  -7.404  -9.328  1.00  0.00     0.074 A 
ATOM     48  C   UNL     1      11.018  -7.981  -8.235  1.00  0.00     0.049 A 
ATOM     49  N   UNL     1       9.319  -7.004 -10.495  1.00  0.00    -0.248 NA
ATOM     50  C   UNL     1       7.420  -7.399  -9.195  1.00  0.00     0.031 C 
ATOM     51  C   UNL     1      11.889  -8.462  -7.159  1.00  0.00     0.029 A 
ATOM     52  N   UNL     1      11.877  -7.724  -9.271  1.00  0.00    -0.354 N 
ATOM     53  C   UNL     1       8.189  -6.702 -11.243  1.00  0.00     0.074 A 
ATOM     54  C   UNL     1       7.044  -6.978 -10.399  1.00  0.00     0.031 C 
ATOM     55  C   UNL     1      13.158  -8.463  -7.591  1.00  0.00     0.029 A 
ATOM     56  C   UNL     1      13.190  -7.995  -8.973  1.00  0.00     0.049 A 
ATOM     57  H   UNL     1      11.581  -7.378 -10.145  1.00  0.00     0.167 HD
ATOM     58  C   UNL     1       8.121  -6.221 -12.507  1.00  0.00     0.034 A 
ATOM     59  C   UNL     1      14.301  -7.878  -9.724  1.00  0.00     0.034 A 
ATOM     60  C   UNL     1       9.265  -5.937 -13.336  1.00  0.00     0.049 A 
ATOM     61  C   UNL     1      14.195  -7.334 -11.117  1.00  0.00     0.074 A 
ATOM     62  C   UNL     1       9.287  -5.383 -14.605  1.00  0.00     0.029 A 
ATOM     63  N   UNL     1      10.582  -6.197 -12.992  1.00  0.00    -0.354 N 
ATOM     64  N   UNL     1      13.129  -6.920 -11.756  1.00  0.00    -0.248 NA
ATOM     65  C   UNL     1      15.444  -7.213 -11.882  1.00  0.00     0.031 C 
ATOM     66  C   UNL     1      10.616  -5.322 -15.035  1.00  0.00     0.029 A 
ATOM     67  C   UNL     1      11.424  -5.825 -14.028  1.00  0.00     0.049 A 
ATOM     68  H   UNL     1      10.877  -6.587 -12.138  1.00  0.00     0.167 HD
ATOM     69  C   UNL     1      13.578  -6.472 -12.991  1.00  0.00     0.074 A 
ATOM     70  C   UNL     1      15.016  -6.650 -13.005  1.00  0.00     0.031 C 
ATOM     71  C   UNL     1      12.856  -5.973 -14.023  1.00  0.00     0.034 A 
BRANCH  58  72
ATOM     72  C   UNL     1       6.765  -5.899 -13.073  1.00  0.00     0.023 A 
ATOM     73  C   UNL     1       6.141  -4.692 -12.701  1.00  0.00     0.012 A 
ATOM     74  C   UNL     1       6.175  -6.711 -14.062  1.00  0.00     0.148 A 
ATOM     75  C   UNL     1       4.945  -4.299 -13.300  1.00  0.00     0.002 A 
ATOM     76  C   UNL     1       4.997  -6.299 -14.674  1.00  0.00     0.091 A 
ATOM     77  F   UNL     1       6.786  -7.857 -14.393  1.00  0.00    -0.205 F 
ATOM     78  C   UNL     1       4.380  -5.096 -14.293  1.00  0.00     0.022 A 
BRANCH  76  79
ATOM     79  S   UNL     1       4.212  -7.222 -16.001  1.00  0.00     0.127 S 
ATOM     80  O   UNL     1       2.958  -7.635 -15.370  1.00  0.00    -0.237 OA
ATOM     81  O   UNL     1       4.066  -6.203 -17.039  1.00  0.00    -0.237 OA
ATOM     82  O   UNL     1       5.124  -8.308 -16.331  1.00  0.00    -0.744 OA
ENDBRANCH  76  79
ENDBRANCH  58  72
BRANCH  59  83
ATOM     83  C   UNL     1      15.615  -8.219  -9.120  1.00  0.00     0.023 A 
ATOM     84  C   UNL     1      16.466  -7.180  -8.700  1.00  0.00     0.012 A 
ATOM     85  C   UNL     1      15.977  -9.557  -8.876  1.00  0.00     0.148 A 
ATOM     86  C   UNL     1      17.665  -7.470  -8.050  1.00  0.00     0.002 A 
ATOM     87  C   UNL     1      17.153  -9.837  -8.194  1.00  0.00     0.091 A 
ATOM     88  F   UNL     1      15.141 -10.523  -9.284  1.00  0.00    -0.205 F 
ATOM     89  C   UNL     1      18.003  -8.796  -7.788  1.00  0.00     0.022 A 
BRANCH  87  90
ATOM     90  S   UNL     1      17.624 -11.503  -7.715  1.00  0.00     0.127 S 
ATOM     91  O   UNL     1      18.866 -11.687  -8.463  1.00  0.00    -0.237 OA
ATOM     92  O   UNL     1      17.790 -11.361  -6.269  1.00  0.00    -0.237 OA
ATOM     93  O   UNL     1      16.519 -12.360  -8.120  1.00  0.00    -0.744 OA
ENDBRANCH  87  90
ENDBRANCH  59  83
BRANCH  71  94
ATOM     94  C   UNL     1      13.598  -5.577 -15.271  1.00  0.00     0.023 A 
ATOM     95  C   UNL     1      14.024  -6.578 -16.166  1.00  0.00     0.012 A 
ATOM     96  C   UNL     1      13.783  -4.221 -15.604  1.00  0.00     0.148 A 
ATOM     97  C   UNL     1      14.635  -6.235 -17.371  1.00  0.00     0.002 A 
ATOM     98  C   UNL     1      14.362  -3.886 -16.822  1.00  0.00     0.091 A 
ATOM     99  F   UNL     1      13.380  -3.288 -14.729  1.00  0.00    -0.205 F 
ATOM    100  C   UNL     1      14.793  -4.891 -17.704  1.00  0.00     0.022 A 
BRANCH  98 101
ATOM    101  S   UNL     1      14.547  -2.186 -17.373  1.00  0.00     0.127 S 
ATOM    102  O   UNL     1      15.999  -2.021 -17.346  1.00  0.00    -0.237 OA
ATOM    103  O   UNL     1      13.962  -2.230 -18.713  1.00  0.00    -0.237 OA
ATOM    104  O   UNL     1      13.812  -1.369 -16.416  1.00  0.00    -0.744 OA
ENDBRANCH  98 101
ENDBRANCH  71  94
ENDBRANCH  45  46
ENDBRANCH  38  40
ENDBRANCH  37  38
ENDBRANCH  36  37
ENDBRANCH  35  36
ENDBRANCH  34  35
ENDBRANCH  33  34
ENDBRANCH  32  33
ENDBRANCH   1  32
TORSDOF 27
