REMARK SMILES COCc1cccc(C(=O)N2C[C@@H](O)C[C@@H]2C(=O)OCCOCCOCCOCCOC(=O)c2ccc(-c3c4nc(c(-c5cccc(S(=O)(=O)[O-])c5F)c5ccc([nH]5)c(-c5cccc(S(=O)(=O)[O-])c5F)c5nc(c(-c6cccc(S(=O)(=O)[O-])c6F)c6ccc3[nH]6)C=C5)C=C4)cc2)c1
REMARK SMILES IDX 24 1 23 2 22 3 21 4 20 5 19 6 17 7 18 8 16 9 11 10 12 11
REMARK SMILES IDX 13 12 15 13 9 14 10 15 8 16 4 17 5 18 97 19 6 20 7 21 3 22
REMARK SMILES IDX 2 23 1 24 14 25 25 27 26 28 27 29 28 30 29 31 30 32 31 33
REMARK SMILES IDX 32 34 33 35 34 36 35 37 96 38 36 39 95 40 37 41 38 42 39 43
REMARK SMILES IDX 89 44 40 45 94 46 88 47 90 48 41 49 93 50 87 51 86 52 42 54
REMARK SMILES IDX 74 55 54 56 73 57 55 58 58 59 72 60 91 61 56 62 57 63 71 65
REMARK SMILES IDX 92 66 59 67 43 68 44 69 52 70 45 71 47 72 53 73 46 74 48 75
REMARK SMILES IDX 49 76 50 77 51 78 75 79 76 80 84 81 77 82 79 83 85 84 78 85
REMARK SMILES IDX 80 86 81 87 82 88 83 89 60 90 61 91 69 92 62 93 64 94 70 95
REMARK SMILES IDX 63 96 65 97 66 98 67 99 68 100
REMARK H PARENT 14 26 90 53 58 64
REMARK Flexibility Score: inf
ROOT
ATOM      1  C   UNL     1      -2.395  -3.643   3.895  1.00  0.00     0.188 C 
ENDROOT
BRANCH   1   2
ATOM      2  C   UNL     1      -2.512  -2.152   3.531  1.00  0.00     0.188 C 
BRANCH   2   3
ATOM      3  O   UNL     1      -3.718  -1.677   2.963  1.00  0.00    -0.376 OA
BRANCH   3   4
ATOM      4  C   UNL     1      -4.184  -2.141   1.704  1.00  0.00     0.202 C 
BRANCH   4   5
ATOM      5  C   UNL     1      -3.366  -2.922   0.649  1.00  0.00     0.261 C 
BRANCH   5   6
ATOM      6  O   UNL     1      -2.152  -3.548   1.070  1.00  0.00    -0.462 OA
BRANCH   6   7
ATOM      7  C   UNL     1      -1.000  -2.883   0.822  1.00  0.00     0.329 C 
ATOM      8  O   UNL     1      -0.917  -1.851   0.170  1.00  0.00    -0.250 OA
BRANCH   7   9
ATOM      9  C   UNL     1       0.193  -3.578   1.497  1.00  0.00     0.198 C 
ATOM     10  N   UNL     1       1.058  -2.604   2.196  1.00  0.00    -0.322 N 
ATOM     11  C   UNL     1       2.398  -2.648   1.658  1.00  0.00     0.152 C 
ATOM     12  C   UNL     1       2.179  -3.137   0.232  1.00  0.00     0.136 C 
ATOM     13  C   UNL     1       1.084  -4.188   0.415  1.00  0.00     0.071 C 
BRANCH  10  14
ATOM     14  C   UNL     1       0.779  -2.030   3.422  1.00  0.00     0.254 C 
ATOM     15  O   UNL     1       0.490  -2.683   4.417  1.00  0.00    -0.269 OA
BRANCH  14  16
ATOM     16  C   UNL     1       0.674  -0.528   3.440  1.00  0.00     0.040 A 
ATOM     17  C   UNL     1       0.676   1.596   2.211  1.00  0.00    -0.022 A 
ATOM     18  C   UNL     1       0.231   2.244   3.368  1.00  0.00     0.006 A 
ATOM     19  C   UNL     1       0.889   0.214   2.273  1.00  0.00     0.020 A 
ATOM     20  C   UNL     1       0.009   1.523   4.547  1.00  0.00     0.001 A 
ATOM     21  C   UNL     1       0.232   0.141   4.586  1.00  0.00     0.014 A 
BRANCH  17  22
ATOM     22  C   UNL     1       0.995   2.362   0.945  1.00  0.00     0.195 C 
BRANCH  22  23
ATOM     23  O   UNL     1       0.288   1.933  -0.218  1.00  0.00    -0.380 OA
ATOM     24  C   UNL     1       0.865   0.826  -0.898  1.00  0.00     0.195 C 
ENDBRANCH  22  23
ENDBRANCH  17  22
ENDBRANCH  14  16
ENDBRANCH  10  14
BRANCH  12  25
ATOM     25  O   UNL     1       3.355  -3.662  -0.350  1.00  0.00    -0.391 OA
ATOM     26  H   UNL     1       3.691  -4.388   0.199  1.00  0.00     0.211 HD
ENDBRANCH  12  25
ENDBRANCH   7   9
ENDBRANCH   6   7
ENDBRANCH   5   6
ENDBRANCH   4   5
ENDBRANCH   3   4
ENDBRANCH   2   3
ENDBRANCH   1   2
BRANCH   1  27
ATOM     27  O   UNL     1      -3.368  -4.441   3.255  1.00  0.00    -0.377 OA
BRANCH  27  28
ATOM     28  C   UNL     1      -4.569  -4.663   3.977  1.00  0.00     0.188 C 
BRANCH  28  29
ATOM     29  C   UNL     1      -5.098  -3.562   4.926  1.00  0.00     0.188 C 
BRANCH  29  30
ATOM     30  O   UNL     1      -4.124  -2.966   5.774  1.00  0.00    -0.376 OA
BRANCH  30  31
ATOM     31  C   UNL     1      -3.986  -3.415   7.112  1.00  0.00     0.202 C 
BRANCH  31  32
ATOM     32  C   UNL     1      -3.517  -4.859   7.354  1.00  0.00     0.261 C 
BRANCH  32  33
ATOM     33  O   UNL     1      -4.291  -5.892   6.733  1.00  0.00    -0.460 OA
BRANCH  33  34
ATOM     34  C   UNL     1      -5.601  -5.976   7.061  1.00  0.00     0.338 C 
ATOM     35  O   UNL     1      -6.196  -5.306   7.876  1.00  0.00    -0.246 OA
BRANCH  34  36
ATOM     36  C   UNL     1      -6.239  -6.889   6.084  1.00  0.00     0.060 A 
ATOM     37  C   UNL     1      -7.289  -6.403   5.293  1.00  0.00     0.016 A 
ATOM     38  C   UNL     1      -5.781  -8.199   5.927  1.00  0.00     0.016 A 
ATOM     39  C   UNL     1      -7.909  -7.239   4.367  1.00  0.00     0.010 A 
ATOM     40  C   UNL     1      -6.422  -9.044   5.019  1.00  0.00     0.010 A 
ATOM     41  C   UNL     1      -7.513  -8.577   4.264  1.00  0.00    -0.014 A 
BRANCH  41  42
ATOM     42  C   UNL     1      -8.376  -9.538   3.538  1.00  0.00     0.031 A 
ATOM     43  C   UNL     1      -9.337 -10.370   4.341  1.00  0.00     0.074 A 
ATOM     44  C   UNL     1      -8.317  -9.668   2.202  1.00  0.00     0.049 A 
ATOM     45  N   UNL     1     -10.159 -11.304   3.944  1.00  0.00    -0.248 NA
ATOM     46  C   UNL     1      -9.369 -10.115   5.792  1.00  0.00     0.031 C 
ATOM     47  C   UNL     1      -7.438  -8.909   1.316  1.00  0.00     0.029 A 
ATOM     48  N   UNL     1      -8.998 -10.514   1.363  1.00  0.00    -0.354 N 
ATOM     49  C   UNL     1     -10.784 -11.768   5.095  1.00  0.00     0.074 A 
ATOM     50  C   UNL     1     -10.235 -11.026   6.207  1.00  0.00     0.031 C 
ATOM     51  C   UNL     1      -7.606  -9.350   0.057  1.00  0.00     0.029 A 
ATOM     52  C   UNL     1      -8.581 -10.440   0.055  1.00  0.00     0.049 A 
ATOM     53  H   UNL     1      -9.715 -11.115   1.668  1.00  0.00     0.167 HD
ATOM     54  C   UNL     1     -11.741 -12.718   5.216  1.00  0.00     0.034 A 
ATOM     55  C   UNL     1      -8.925 -11.189  -1.011  1.00  0.00     0.034 A 
ATOM     56  C   UNL     1     -12.284 -13.454   4.108  1.00  0.00     0.049 A 
ATOM     57  C   UNL     1      -9.963 -12.271  -0.849  1.00  0.00     0.074 A 
ATOM     58  C   UNL     1     -13.281 -14.414   4.119  1.00  0.00     0.029 A 
ATOM     59  N   UNL     1     -11.864 -13.329   2.793  1.00  0.00    -0.354 N 
ATOM     60  N   UNL     1     -10.622 -12.630   0.226  1.00  0.00    -0.248 NA
ATOM     61  C   UNL     1     -10.328 -13.029  -2.055  1.00  0.00     0.031 C 
ATOM     62  C   UNL     1     -13.434 -14.898   2.816  1.00  0.00     0.029 A 
ATOM     63  C   UNL     1     -12.568 -14.205   1.985  1.00  0.00     0.049 A 
ATOM     64  H   UNL     1     -11.166 -12.709   2.480  1.00  0.00     0.167 HD
ATOM     65  C   UNL     1     -11.504 -13.628  -0.179  1.00  0.00     0.074 A 
ATOM     66  C   UNL     1     -11.305 -13.803  -1.603  1.00  0.00     0.031 C 
ATOM     67  C   UNL     1     -12.390 -14.340   0.561  1.00  0.00     0.034 A 
BRANCH  54  68
ATOM     68  C   UNL     1     -12.257 -13.008   6.601  1.00  0.00     0.023 A 
ATOM     69  C   UNL     1     -13.049 -12.053   7.271  1.00  0.00     0.012 A 
ATOM     70  C   UNL     1     -11.980 -14.237   7.230  1.00  0.00     0.148 A 
ATOM     71  C   UNL     1     -13.520 -12.297   8.560  1.00  0.00     0.002 A 
ATOM     72  C   UNL     1     -12.495 -14.495   8.494  1.00  0.00     0.091 A 
ATOM     73  F   UNL     1     -11.205 -15.123   6.588  1.00  0.00    -0.205 F 
ATOM     74  C   UNL     1     -13.251 -13.521   9.167  1.00  0.00     0.022 A 
BRANCH  72  75
ATOM     75  S   UNL     1     -12.273 -16.070   9.326  1.00  0.00     0.127 S 
ATOM     76  O   UNL     1     -11.366 -15.705  10.413  1.00  0.00    -0.237 OA
ATOM     77  O   UNL     1     -13.637 -16.386   9.752  1.00  0.00    -0.237 OA
ATOM     78  O   UNL     1     -11.721 -16.978   8.330  1.00  0.00    -0.744 OA
ENDBRANCH  72  75
ENDBRANCH  54  68
BRANCH  55  79
ATOM     79  C   UNL     1      -8.288 -10.931  -2.334  1.00  0.00     0.023 A 
ATOM     80  C   UNL     1      -9.051 -10.395  -3.388  1.00  0.00     0.012 A 
ATOM     81  C   UNL     1      -6.920 -11.196  -2.541  1.00  0.00     0.148 A 
ATOM     82  C   UNL     1      -8.470 -10.153  -4.634  1.00  0.00     0.002 A 
ATOM     83  C   UNL     1      -6.334 -10.899  -3.765  1.00  0.00     0.091 A 
ATOM     84  F   UNL     1      -6.215 -11.720  -1.528  1.00  0.00    -0.205 F 
ATOM     85  C   UNL     1      -7.111 -10.394  -4.819  1.00  0.00     0.022 A 
BRANCH  83  86
ATOM     86  S   UNL     1      -4.569 -11.054  -4.055  1.00  0.00     0.127 S 
ATOM     87  O   UNL     1      -4.522 -12.113  -5.060  1.00  0.00    -0.237 OA
ATOM     88  O   UNL     1      -4.229  -9.719  -4.548  1.00  0.00    -0.237 OA
ATOM     89  O   UNL     1      -3.982 -11.388  -2.764  1.00  0.00    -0.744 OA
ENDBRANCH  83  86
ENDBRANCH  55  79
BRANCH  67  90
ATOM     90  C   UNL     1     -13.255 -15.348  -0.155  1.00  0.00     0.023 A 
ATOM     91  C   UNL     1     -12.692 -16.541  -0.648  1.00  0.00     0.012 A 
ATOM     92  C   UNL     1     -14.645 -15.142  -0.268  1.00  0.00     0.148 A 
ATOM     93  C   UNL     1     -13.492 -17.497  -1.275  1.00  0.00     0.002 A 
ATOM     94  C   UNL     1     -15.444 -16.122  -0.845  1.00  0.00     0.091 A 
ATOM     95  F   UNL     1     -15.161 -13.994   0.195  1.00  0.00    -0.205 F 
ATOM     96  C   UNL     1     -14.868 -17.293  -1.363  1.00  0.00     0.022 A 
BRANCH  94  97
ATOM     97  S   UNL     1     -17.234 -15.992  -0.913  1.00  0.00     0.127 S 
ATOM     98  O   UNL     1     -17.465 -15.798  -2.343  1.00  0.00    -0.237 OA
ATOM     99  O   UNL     1     -17.658 -17.294  -0.398  1.00  0.00    -0.237 OA
ATOM    100  O   UNL     1     -17.589 -14.861  -0.066  1.00  0.00    -0.744 OA
ENDBRANCH  94  97
ENDBRANCH  67  90
ENDBRANCH  41  42
ENDBRANCH  34  36
ENDBRANCH  33  34
ENDBRANCH  32  33
ENDBRANCH  31  32
ENDBRANCH  30  31
ENDBRANCH  29  30
ENDBRANCH  28  29
ENDBRANCH  27  28
ENDBRANCH   1  27
TORSDOF 28
