REMARK SMILES CCCN1CCC[C@@]2(CCN(c3ccc(C(=O)OCCOCCOCCOCCOC(=O)c4ccc(-c5c6nc(c(-c7cccc(S(=O)(=O)[O-])c7F)c7ccc([nH]7)c(-c7cccc(S(=O)(=O)[O-])c7F)c7nc(c(-c8cccc(S(=O)(=O)[O-])c8F)c8ccc5[nH]8)C=C7)C=C6)cc4)cn3)C2)C1=O
REMARK SMILES IDX 24 1 23 2 22 3 21 4 20 5 19 6 18 7 16 8 17 9 15 10 12 11
REMARK SMILES IDX 13 12 97 13 14 14 96 15 11 16 4 17 5 18 99 19 6 20 8 21
REMARK SMILES IDX 100 22 7 23 9 24 98 25 10 26 3 27 2 28 1 29 25 30 26 31
REMARK SMILES IDX 27 32 28 33 29 34 30 35 31 36 32 37 33 38 34 39 95 40 35 41
REMARK SMILES IDX 94 42 36 43 37 44 38 45 88 46 39 47 93 48 87 49 89 50 40 51
REMARK SMILES IDX 92 52 86 53 85 54 41 56 73 57 53 58 72 59 54 60 57 61 71 62
REMARK SMILES IDX 90 63 55 64 56 65 70 67 91 68 58 69 42 70 43 71 51 72 44 73
REMARK SMILES IDX 46 74 52 75 45 76 47 77 48 78 49 79 50 80 74 81 75 82 83 83
REMARK SMILES IDX 76 84 78 85 84 86 77 87 79 88 80 89 81 90 82 91 59 92 60 93
REMARK SMILES IDX 68 94 61 95 63 96 69 97 62 98 64 99 65 100 66 101 67 102
REMARK H PARENT 89 55 57 66
REMARK Flexibility Score: inf
ROOT
ATOM      1  O   UNL     1       4.499  12.729   0.361  1.00  0.00    -0.377 OA
ENDROOT
BRANCH   1   2
ATOM      2  C   UNL     1       3.306  12.345   1.020  1.00  0.00     0.188 C 
BRANCH   2   3
ATOM      3  C   UNL     1       3.356  12.347   2.561  1.00  0.00     0.188 C 
BRANCH   3   4
ATOM      4  O   UNL     1       4.426  13.101   3.096  1.00  0.00    -0.376 OA
BRANCH   4   5
ATOM      5  C   UNL     1       5.631  12.481   3.504  1.00  0.00     0.202 C 
BRANCH   5   6
ATOM      6  C   UNL     1       6.322  11.355   2.717  1.00  0.00     0.261 C 
BRANCH   6   7
ATOM      7  O   UNL     1       5.495  10.490   1.944  1.00  0.00    -0.460 OA
BRANCH   7   8
ATOM      8  C   UNL     1       4.824   9.508   2.579  1.00  0.00     0.339 C 
ATOM      9  O   UNL     1       4.819   9.270   3.773  1.00  0.00    -0.246 OA
BRANCH   8  10
ATOM     10  C   UNL     1       3.917   8.901   1.589  1.00  0.00     0.078 A 
ATOM     11  C   UNL     1       2.066   7.877  -0.177  1.00  0.00     0.128 A 
ATOM     12  C   UNL     1       3.367   8.152  -0.610  1.00  0.00     0.048 A 
ATOM     13  N   UNL     1       1.666   8.153   1.082  1.00  0.00    -0.238 NA
ATOM     14  C   UNL     1       4.303   8.676   0.274  1.00  0.00     0.021 A 
ATOM     15  C   UNL     1       2.601   8.640   1.940  1.00  0.00     0.129 A 
BRANCH  11  16
ATOM     16  N   UNL     1       1.232   7.181  -1.030  1.00  0.00    -0.356 N 
ATOM     17  N   UNL     1       0.753   2.910  -0.722  1.00  0.00    -0.342 N 
ATOM     18  C   UNL     1       1.233   2.279  -1.943  1.00  0.00     0.119 C 
ATOM     19  C   UNL     1      -0.051   4.047  -0.781  1.00  0.00     0.230 C 
ATOM     20  C   UNL     1       1.763   3.280  -2.953  1.00  0.00     0.023 C 
ATOM     21  C   UNL     1       0.403   5.080  -1.823  1.00  0.00     0.069 C 
ATOM     22  O   UNL     1      -0.927   4.280   0.048  1.00  0.00    -0.274 OA
ATOM     23  C   UNL     1       0.753   4.406  -3.156  1.00  0.00     0.021 C 
ATOM     24  C   UNL     1      -0.628   6.215  -1.995  1.00  0.00     0.040 C 
ATOM     25  C   UNL     1       1.641   5.792  -1.226  1.00  0.00     0.135 C 
ATOM     26  C   UNL     1      -0.213   7.260  -0.951  1.00  0.00     0.119 C 
BRANCH  17  27
ATOM     27  C   UNL     1       1.034   2.305   0.577  1.00  0.00     0.119 C 
BRANCH  27  28
ATOM     28  C   UNL     1       0.341   0.981   0.888  1.00  0.00     0.018 C 
ATOM     29  C   UNL     1       0.891  -0.206   0.113  1.00  0.00     0.006 C 
ENDBRANCH  27  28
ENDBRANCH  17  27
ENDBRANCH  11  16
ENDBRANCH   8  10
ENDBRANCH   7   8
ENDBRANCH   6   7
ENDBRANCH   5   6
ENDBRANCH   4   5
ENDBRANCH   3   4
ENDBRANCH   2   3
ENDBRANCH   1   2
BRANCH   1  30
ATOM     30  C   UNL     1       4.974  14.069   0.477  1.00  0.00     0.188 C 
BRANCH  30  31
ATOM     31  C   UNL     1       4.228  15.167   1.278  1.00  0.00     0.188 C 
BRANCH  31  32
ATOM     32  O   UNL     1       2.844  14.934   1.483  1.00  0.00    -0.376 OA
BRANCH  32  33
ATOM     33  C   UNL     1       1.916  15.702   0.741  1.00  0.00     0.202 C 
BRANCH  33  34
ATOM     34  C   UNL     1       1.907  15.500  -0.779  1.00  0.00     0.261 C 
BRANCH  34  35
ATOM     35  O   UNL     1       3.166  15.677  -1.443  1.00  0.00    -0.460 OA
BRANCH  35  36
ATOM     36  C   UNL     1       3.705  16.914  -1.429  1.00  0.00     0.338 C 
ATOM     37  O   UNL     1       3.237  17.915  -0.908  1.00  0.00    -0.246 OA
BRANCH  36  38
ATOM     38  C   UNL     1       5.064  16.812  -1.996  1.00  0.00     0.060 A 
ATOM     39  C   UNL     1       6.166  17.156  -1.202  1.00  0.00     0.016 A 
ATOM     40  C   UNL     1       5.246  16.357  -3.304  1.00  0.00     0.016 A 
ATOM     41  C   UNL     1       7.456  17.077  -1.730  1.00  0.00     0.010 A 
ATOM     42  C   UNL     1       6.536  16.297  -3.836  1.00  0.00     0.010 A 
ATOM     43  C   UNL     1       7.643  16.689  -3.063  1.00  0.00    -0.014 A 
BRANCH  43  44
ATOM     44  C   UNL     1       8.963  16.877  -3.713  1.00  0.00     0.031 A 
ATOM     45  C   UNL     1       9.161  18.094  -4.577  1.00  0.00     0.074 A 
ATOM     46  C   UNL     1       9.961  15.990  -3.551  1.00  0.00     0.049 A 
ATOM     47  N   UNL     1      10.191  18.440  -5.301  1.00  0.00    -0.248 NA
ATOM     48  C   UNL     1       8.040  19.050  -4.630  1.00  0.00     0.031 C 
ATOM     49  C   UNL     1       9.899  14.785  -2.726  1.00  0.00     0.029 A 
ATOM     50  N   UNL     1      11.219  15.958  -4.100  1.00  0.00    -0.354 N 
ATOM     51  C   UNL     1       9.838  19.638  -5.912  1.00  0.00     0.074 A 
ATOM     52  C   UNL     1       8.490  19.949  -5.492  1.00  0.00     0.031 C 
ATOM     53  C   UNL     1      11.059  14.114  -2.847  1.00  0.00     0.029 A 
ATOM     54  C   UNL     1      11.930  14.824  -3.781  1.00  0.00     0.049 A 
ATOM     55  H   UNL     1      11.578  16.678  -4.668  1.00  0.00     0.167 HD
ATOM     56  C   UNL     1      10.576  20.420  -6.735  1.00  0.00     0.034 A 
ATOM     57  C   UNL     1      13.133  14.400  -4.220  1.00  0.00     0.034 A 
ATOM     58  C   UNL     1      11.916  20.111  -7.150  1.00  0.00     0.049 A 
ATOM     59  C   UNL     1      13.908  15.260  -5.189  1.00  0.00     0.074 A 
ATOM     60  C   UNL     1      12.754  20.845  -7.971  1.00  0.00     0.029 A 
ATOM     61  N   UNL     1      12.612  18.969  -6.785  1.00  0.00    -0.354 N 
ATOM     62  N   UNL     1      13.599  16.434  -5.685  1.00  0.00    -0.248 NA
ATOM     63  C   UNL     1      15.213  14.750  -5.635  1.00  0.00     0.031 C 
ATOM     64  C   UNL     1      13.946  20.131  -8.127  1.00  0.00     0.029 A 
ATOM     65  C   UNL     1      13.867  18.974  -7.368  1.00  0.00     0.049 A 
ATOM     66  H   UNL     1      12.265  18.260  -6.197  1.00  0.00     0.167 HD
ATOM     67  C   UNL     1      14.690  16.823  -6.458  1.00  0.00     0.074 A 
ATOM     68  C   UNL     1      15.674  15.766  -6.351  1.00  0.00     0.031 C 
ATOM     69  C   UNL     1      14.860  17.945  -7.199  1.00  0.00     0.034 A 
BRANCH  56  70
ATOM     70  C   UNL     1       9.953  21.702  -7.222  1.00  0.00     0.023 A 
ATOM     71  C   UNL     1       9.766  22.772  -6.322  1.00  0.00     0.012 A 
ATOM     72  C   UNL     1       9.605  21.870  -8.576  1.00  0.00     0.148 A 
ATOM     73  C   UNL     1       9.213  23.976  -6.755  1.00  0.00     0.002 A 
ATOM     74  C   UNL     1       9.098  23.089  -9.010  1.00  0.00     0.091 A 
ATOM     75  F   UNL     1       9.772  20.834  -9.412  1.00  0.00    -0.205 F 
ATOM     76  C   UNL     1       8.889  24.138  -8.099  1.00  0.00     0.022 A 
BRANCH  74  77
ATOM     77  S   UNL     1       8.723  23.427 -10.734  1.00  0.00     0.127 S 
ATOM     78  O   UNL     1       7.268  23.569 -10.696  1.00  0.00    -0.237 OA
ATOM     79  O   UNL     1       9.451  24.674 -10.966  1.00  0.00    -0.237 OA
ATOM     80  O   UNL     1       9.216  22.282 -11.487  1.00  0.00    -0.744 OA
ENDBRANCH  74  77
ENDBRANCH  56  70
BRANCH  57  81
ATOM     81  C   UNL     1      13.702  13.104  -3.745  1.00  0.00     0.023 A 
ATOM     82  C   UNL     1      14.875  13.104  -2.963  1.00  0.00     0.012 A 
ATOM     83  C   UNL     1      13.111  11.873  -4.090  1.00  0.00     0.148 A 
ATOM     84  C   UNL     1      15.475  11.904  -2.578  1.00  0.00     0.002 A 
ATOM     85  C   UNL     1      13.681  10.683  -3.653  1.00  0.00     0.091 A 
ATOM     86  F   UNL     1      12.006  11.890  -4.849  1.00  0.00    -0.205 F 
ATOM     87  C   UNL     1      14.875  10.695  -2.917  1.00  0.00     0.022 A 
BRANCH  85  88
ATOM     88  S   UNL     1      12.912   9.085  -3.938  1.00  0.00     0.127 S 
ATOM     89  O   UNL     1      13.825   8.481  -4.905  1.00  0.00    -0.237 OA
ATOM     90  O   UNL     1      12.948   8.491  -2.601  1.00  0.00    -0.237 OA
ATOM     91  O   UNL     1      11.571   9.375  -4.429  1.00  0.00    -0.744 OA
ENDBRANCH  85  88
ENDBRANCH  57  81
BRANCH  69  92
ATOM     92  C   UNL     1      16.181  18.133  -7.902  1.00  0.00     0.023 A 
ATOM     93  C   UNL     1      16.511  17.337  -9.017  1.00  0.00     0.012 A 
ATOM     94  C   UNL     1      17.063  19.155  -7.498  1.00  0.00     0.148 A 
ATOM     95  C   UNL     1      17.715  17.531  -9.694  1.00  0.00     0.002 A 
ATOM     96  C   UNL     1      18.235  19.378  -8.211  1.00  0.00     0.091 A 
ATOM     97  F   UNL     1      16.738  19.893  -6.426  1.00  0.00    -0.205 F 
ATOM     98  C   UNL     1      18.570  18.558  -9.300  1.00  0.00     0.022 A 
BRANCH  96  99
ATOM     99  S   UNL     1      19.347  20.739  -7.839  1.00  0.00     0.127 S 
ATOM    100  O   UNL     1      20.515  20.033  -7.314  1.00  0.00    -0.237 OA
ATOM    101  O   UNL     1      19.542  21.346  -9.156  1.00  0.00    -0.237 OA
ATOM    102  O   UNL     1      18.647  21.583  -6.880  1.00  0.00    -0.744 OA
ENDBRANCH  96  99
ENDBRANCH  69  92
ENDBRANCH  43  44
ENDBRANCH  36  38
ENDBRANCH  35  36
ENDBRANCH  34  35
ENDBRANCH  33  34
ENDBRANCH  32  33
ENDBRANCH  31  32
ENDBRANCH  30  31
ENDBRANCH   1  30
TORSDOF 26
