REMARK SMILES CCCOC(=O)c1c(NC(=O)[C@@H]2CC=CC[C@H]2C(=O)OCCOCCOCCOCCOC(=O)c2ccc(-c3c4nc(c(-c5cccc(S(=O)(=O)[O-])c5F)c5ccc([nH]5)c(-c5cccc(S(=O)(=O)[O-])c5F)c5nc(c(-c6cccc(S(=O)(=O)[O-])c6F)c6ccc3[nH]6)C=C5)C=C4)cc2)sc2c1CCCC2
REMARK SMILES IDX 24 1 23 2 22 3 21 4 20 5 18 6 19 7 17 8 12 9 13 10 14 11
REMARK SMILES IDX 16 12 15 13 10 14 9 15 11 17 8 18 7 19 100 20 98 21 99 22
REMARK SMILES IDX 101 23 104 24 102 25 103 26 5 27 6 28 4 29 3 30 2 31 1 32
REMARK SMILES IDX 25 33 26 34 27 35 28 36 29 37 30 38 31 39 32 40 33 41 34 42
REMARK SMILES IDX 35 43 36 44 97 45 37 46 96 47 38 48 39 49 40 50 90 51 41 52
REMARK SMILES IDX 95 53 89 54 91 55 42 56 94 57 88 58 87 59 43 61 75 62 55 63
REMARK SMILES IDX 74 64 56 65 59 66 73 67 92 68 57 69 58 70 72 72 93 73 60 74
REMARK SMILES IDX 44 75 45 76 53 77 46 78 48 79 54 80 47 81 49 82 50 83 51 84
REMARK SMILES IDX 52 85 76 86 77 87 85 88 78 89 80 90 86 91 79 92 81 93 82 94
REMARK SMILES IDX 83 95 84 96 61 97 62 98 70 99 63 100 65 101 71 102 64 103
REMARK SMILES IDX 66 104 67 105 68 106 69 107
REMARK H PARENT 9 16 91 60 59 71
REMARK Flexibility Score: inf
ROOT
ATOM      1  C   UNL     1      -1.167   4.641   3.500  1.00  0.00     0.188 C 
ENDROOT
BRANCH   1   2
ATOM      2  O   UNL     1      -1.315   6.018   3.181  1.00  0.00    -0.376 OA
BRANCH   2   3
ATOM      3  C   UNL     1      -1.284   6.489   1.841  1.00  0.00     0.202 C 
BRANCH   3   4
ATOM      4  C   UNL     1      -0.003   6.308   1.014  1.00  0.00     0.261 C 
BRANCH   4   5
ATOM      5  O   UNL     1       0.277   4.966   0.577  1.00  0.00    -0.463 OA
BRANCH   5   6
ATOM      6  C   UNL     1       1.268   4.291   1.212  1.00  0.00     0.310 C 
ATOM      7  O   UNL     1       1.852   4.686   2.215  1.00  0.00    -0.252 OA
BRANCH   6   8
ATOM      8  C   UNL     1       1.674   3.014   0.479  1.00  0.00     0.116 C 
ATOM      9  C   UNL     1       0.595   1.906   0.341  1.00  0.00     0.097 C 
ATOM     10  C   UNL     1       0.620   1.012  -0.889  1.00  0.00     0.041 C 
ATOM     11  C   UNL     1       1.361   1.567  -2.022  1.00  0.00    -0.030 C 
ATOM     12  C   UNL     1       2.282   3.536  -0.833  1.00  0.00     0.043 C 
ATOM     13  C   UNL     1       2.132   2.651  -2.008  1.00  0.00    -0.030 C 
BRANCH   9  14
ATOM     14  C   UNL     1       0.470   0.854   1.438  1.00  0.00     0.229 C 
ATOM     15  N   UNL     1       1.441  -0.042   1.780  1.00  0.00    -0.317 N 
ATOM     16  H   UNL     1       1.142  -0.968   1.933  1.00  0.00     0.170 HD
ATOM     17  O   UNL     1      -0.636   0.646   1.960  1.00  0.00    -0.274 OA
BRANCH  15  18
ATOM     18  C   UNL     1       2.782   0.193   1.938  1.00  0.00     0.110 A 
ATOM     19  C   UNL     1       3.904   0.665   1.267  1.00  0.00     0.098 A 
ATOM     20  C   UNL     1       4.778   1.259   2.320  1.00  0.00    -0.017 A 
ATOM     21  S   UNL     1       3.108  -0.151   3.595  1.00  0.00    -0.122 S 
ATOM     22  C   UNL     1       4.336   1.001   3.605  1.00  0.00     0.011 A 
ATOM     23  C   UNL     1       5.977   2.154   2.123  1.00  0.00     0.038 C 
ATOM     24  C   UNL     1       4.873   1.564   4.884  1.00  0.00     0.047 C 
ATOM     25  C   UNL     1       6.815   2.273   3.409  1.00  0.00     0.005 C 
ATOM     26  C   UNL     1       5.947   2.625   4.621  1.00  0.00     0.006 C 
BRANCH  19  27
ATOM     27  C   UNL     1       4.235   0.803  -0.188  1.00  0.00     0.341 C 
ATOM     28  O   UNL     1       5.100   1.608  -0.530  1.00  0.00    -0.246 OA
BRANCH  27  29
ATOM     29  O   UNL     1       3.651  -0.054  -1.121  1.00  0.00    -0.462 OA
BRANCH  29  30
ATOM     30  C   UNL     1       4.268   0.078  -2.452  1.00  0.00     0.233 C 
BRANCH  30  31
ATOM     31  C   UNL     1       3.556  -0.560  -3.680  1.00  0.00     0.038 C 
ATOM     32  C   UNL     1       2.783   0.357  -4.648  1.00  0.00     0.007 C 
ENDBRANCH  30  31
ENDBRANCH  29  30
ENDBRANCH  27  29
ENDBRANCH  19  27
ENDBRANCH  15  18
ENDBRANCH   9  14
ENDBRANCH   6   8
ENDBRANCH   5   6
ENDBRANCH   4   5
ENDBRANCH   3   4
ENDBRANCH   2   3
ENDBRANCH   1   2
BRANCH   1  33
ATOM     33  C   UNL     1      -1.470   3.530   2.497  1.00  0.00     0.188 C 
BRANCH  33  34
ATOM     34  O   UNL     1      -2.018   3.947   1.268  1.00  0.00    -0.377 OA
BRANCH  34  35
ATOM     35  C   UNL     1      -3.412   3.810   1.057  1.00  0.00     0.188 C 
BRANCH  35  36
ATOM     36  C   UNL     1      -4.304   3.903   2.297  1.00  0.00     0.188 C 
BRANCH  36  37
ATOM     37  O   UNL     1      -4.041   2.888   3.258  1.00  0.00    -0.376 OA
BRANCH  37  38
ATOM     38  C   UNL     1      -4.723   1.644   3.144  1.00  0.00     0.202 C 
BRANCH  38  39
ATOM     39  C   UNL     1      -4.537   0.803   1.868  1.00  0.00     0.261 C 
BRANCH  39  40
ATOM     40  O   UNL     1      -5.068   1.331   0.638  1.00  0.00    -0.460 OA
BRANCH  40  41
ATOM     41  C   UNL     1      -6.308   1.864   0.606  1.00  0.00     0.338 C 
ATOM     42  O   UNL     1      -7.137   1.875   1.490  1.00  0.00    -0.246 OA
BRANCH  41  43
ATOM     43  C   UNL     1      -6.399   2.640  -0.649  1.00  0.00     0.060 A 
ATOM     44  C   UNL     1      -6.586   4.027  -0.576  1.00  0.00     0.016 A 
ATOM     45  C   UNL     1      -6.276   2.004  -1.885  1.00  0.00     0.016 A 
ATOM     46  C   UNL     1      -6.658   4.784  -1.744  1.00  0.00     0.010 A 
ATOM     47  C   UNL     1      -6.383   2.757  -3.054  1.00  0.00     0.010 A 
ATOM     48  C   UNL     1      -6.597   4.145  -2.988  1.00  0.00    -0.014 A 
BRANCH  48  49
ATOM     49  C   UNL     1      -6.959   4.886  -4.216  1.00  0.00     0.031 A 
ATOM     50  C   UNL     1      -8.388   4.830  -4.676  1.00  0.00     0.074 A 
ATOM     51  C   UNL     1      -6.035   5.558  -4.924  1.00  0.00     0.049 A 
ATOM     52  N   UNL     1      -8.928   5.312  -5.762  1.00  0.00    -0.248 NA
ATOM     53  C   UNL     1      -9.335   4.132  -3.788  1.00  0.00     0.031 C 
ATOM     54  C   UNL     1      -4.626   5.697  -4.560  1.00  0.00     0.029 A 
ATOM     55  N   UNL     1      -6.143   6.220  -6.121  1.00  0.00    -0.354 N 
ATOM     56  C   UNL     1     -10.268   4.951  -5.706  1.00  0.00     0.074 A 
ATOM     57  C   UNL     1     -10.461   4.211  -4.479  1.00  0.00     0.031 C 
ATOM     58  C   UNL     1      -3.989   6.363  -5.538  1.00  0.00     0.029 A 
ATOM     59  C   UNL     1      -4.938   6.667  -6.609  1.00  0.00     0.049 A 
ATOM     60  H   UNL     1      -7.000   6.360  -6.585  1.00  0.00     0.167 HD
ATOM     61  C   UNL     1     -11.251   5.216  -6.596  1.00  0.00     0.034 A 
ATOM     62  C   UNL     1      -4.635   7.222  -7.800  1.00  0.00     0.034 A 
ATOM     63  C   UNL     1     -11.051   5.951  -7.814  1.00  0.00     0.049 A 
ATOM     64  C   UNL     1      -5.739   7.456  -8.802  1.00  0.00     0.074 A 
ATOM     65  C   UNL     1     -11.989   6.311  -8.764  1.00  0.00     0.029 A 
ATOM     66  N   UNL     1      -9.825   6.416  -8.261  1.00  0.00    -0.354 N 
ATOM     67  N   UNL     1      -7.024   7.219  -8.686  1.00  0.00    -0.248 NA
ATOM     68  C   UNL     1      -5.355   8.053 -10.090  1.00  0.00     0.031 C 
ATOM     69  C   UNL     1     -11.322   6.965  -9.805  1.00  0.00     0.029 A 
ATOM     70  C   UNL     1      -9.975   7.040  -9.487  1.00  0.00     0.049 A 
ATOM     71  H   UNL     1      -8.972   6.317  -7.779  1.00  0.00     0.167 HD
ATOM     72  C   UNL     1      -7.605   7.663  -9.870  1.00  0.00     0.074 A 
ATOM     73  C   UNL     1      -6.534   8.204 -10.681  1.00  0.00     0.031 C 
ATOM     74  C   UNL     1      -8.903   7.617 -10.258  1.00  0.00     0.034 A 
BRANCH  61  75
ATOM     75  C   UNL     1     -12.632   4.710  -6.280  1.00  0.00     0.023 A 
ATOM     76  C   UNL     1     -13.389   5.331  -5.265  1.00  0.00     0.012 A 
ATOM     77  C   UNL     1     -13.194   3.649  -7.014  1.00  0.00     0.148 A 
ATOM     78  C   UNL     1     -14.674   4.883  -4.966  1.00  0.00     0.002 A 
ATOM     79  C   UNL     1     -14.492   3.236  -6.739  1.00  0.00     0.091 A 
ATOM     80  F   UNL     1     -12.447   3.055  -7.955  1.00  0.00    -0.205 F 
ATOM     81  C   UNL     1     -15.229   3.844  -5.710  1.00  0.00     0.022 A 
BRANCH  79  82
ATOM     82  S   UNL     1     -15.322   1.956  -7.687  1.00  0.00     0.127 S 
ATOM     83  O   UNL     1     -15.396   0.869  -6.713  1.00  0.00    -0.237 OA
ATOM     84  O   UNL     1     -16.605   2.587  -7.996  1.00  0.00    -0.237 OA
ATOM     85  O   UNL     1     -14.476   1.701  -8.844  1.00  0.00    -0.744 OA
ENDBRANCH  79  82
ENDBRANCH  61  75
BRANCH  62  86
ATOM     86  C   UNL     1      -3.227   7.600  -8.113  1.00  0.00     0.023 A 
ATOM     87  C   UNL     1      -2.883   8.960  -8.238  1.00  0.00     0.012 A 
ATOM     88  C   UNL     1      -2.226   6.622  -8.279  1.00  0.00     0.148 A 
ATOM     89  C   UNL     1      -1.576   9.338  -8.548  1.00  0.00     0.002 A 
ATOM     90  C   UNL     1      -0.915   7.007  -8.533  1.00  0.00     0.091 A 
ATOM     91  F   UNL     1      -2.576   5.332  -8.177  1.00  0.00    -0.205 F 
ATOM     92  C   UNL     1      -0.591   8.364  -8.685  1.00  0.00     0.022 A 
BRANCH  90  93
ATOM     93  S   UNL     1       0.441   5.831  -8.605  1.00  0.00     0.127 S 
ATOM     94  O   UNL     1       0.802   5.874 -10.020  1.00  0.00    -0.237 OA
ATOM     95  O   UNL     1       1.417   6.441  -7.701  1.00  0.00    -0.237 OA
ATOM     96  O   UNL     1      -0.107   4.567  -8.132  1.00  0.00    -0.744 OA
ENDBRANCH  90  93
ENDBRANCH  62  86
BRANCH  74  97
ATOM     97  C   UNL     1      -9.258   8.186 -11.607  1.00  0.00     0.023 A 
ATOM     98  C   UNL     1      -8.915   7.479 -12.776  1.00  0.00     0.012 A 
ATOM     99  C   UNL     1     -10.024   9.364 -11.710  1.00  0.00     0.148 A 
ATOM    100  C   UNL     1      -9.309   7.948 -14.028  1.00  0.00     0.002 A 
ATOM    101  C   UNL     1     -10.455   9.799 -12.957  1.00  0.00     0.091 A 
ATOM    102  F   UNL     1     -10.329  10.028 -10.585  1.00  0.00    -0.205 F 
ATOM    103  C   UNL     1     -10.089   9.099 -14.118  1.00  0.00     0.022 A 
BRANCH 101 104
ATOM    104  S   UNL     1     -11.544  11.212 -13.166  1.00  0.00     0.127 S 
ATOM    105  O   UNL     1     -10.662  12.173 -13.827  1.00  0.00    -0.237 OA
ATOM    106  O   UNL     1     -12.600  10.665 -14.019  1.00  0.00    -0.237 OA
ATOM    107  O   UNL     1     -11.980  11.588 -11.827  1.00  0.00    -0.744 OA
ENDBRANCH 101 104
ENDBRANCH  74  97
ENDBRANCH  48  49
ENDBRANCH  41  43
ENDBRANCH  40  41
ENDBRANCH  39  40
ENDBRANCH  38  39
ENDBRANCH  37  38
ENDBRANCH  36  37
ENDBRANCH  35  36
ENDBRANCH  34  35
ENDBRANCH  33  34
ENDBRANCH   1  33
TORSDOF 29
