REMARK SMILES COc1ccc(C(C)(C)C)cc1CC(=O)OCCOCCOCCOCCOC(=O)c1ccc(-c2c3nc(c(-c4cccc(S(=O)(=O)[O-])c4F)c4ccc([nH]4)c(-c4cccc(S(=O)(=O)[O-])c4F)c4nc(c(-c5cccc(S(=O)(=O)[O-])c5F)c5ccc2[nH]5)C=C4)C=C3)cc1
REMARK SMILES IDX 23 1 22 2 21 3 20 4 19 5 18 6 17 7 16 8 14 9 15 10 13 11
REMARK SMILES IDX 12 12 3 13 4 14 5 15 11 16 6 17 2 18 1 19 7 20 8 21 9 22
REMARK SMILES IDX 10 23 24 24 25 25 26 26 27 27 28 28 29 29 30 30 31 31 32 32
REMARK SMILES IDX 93 33 33 34 92 35 34 36 35 37 36 38 86 39 37 40 91 41 85 42
REMARK SMILES IDX 87 43 38 44 90 45 84 46 83 47 39 49 71 50 51 51 70 52 52 53
REMARK SMILES IDX 55 54 69 55 88 56 53 57 54 58 68 60 89 61 56 62 40 63 41 64
REMARK SMILES IDX 49 65 42 66 44 67 50 68 43 69 45 70 46 71 47 72 48 73 72 74
REMARK SMILES IDX 73 75 81 76 74 77 76 78 82 79 75 80 77 81 78 82 79 83 80 84
REMARK SMILES IDX 57 85 58 86 66 87 59 88 61 89 67 90 60 91 62 92 63 93 64 94
REMARK SMILES IDX 65 95
REMARK H PARENT 87 48 55 59
REMARK Flexibility Score: inf
ROOT
ATOM      1  C   UNL     1       4.975   5.480   2.632  1.00  0.00     0.188 C 
ENDROOT
BRANCH   1   2
ATOM      2  O   UNL     1       4.710   4.303   1.894  1.00  0.00    -0.377 OA
BRANCH   2   3
ATOM      3  C   UNL     1       4.566   3.137   2.686  1.00  0.00     0.188 C 
BRANCH   3   4
ATOM      4  C   UNL     1       5.722   2.116   2.555  1.00  0.00     0.188 C 
BRANCH   4   5
ATOM      5  O   UNL     1       6.607   2.098   1.434  1.00  0.00    -0.376 OA
BRANCH   5   6
ATOM      6  C   UNL     1       6.264   2.824   0.263  1.00  0.00     0.202 C 
BRANCH   6   7
ATOM      7  C   UNL     1       5.008   2.364  -0.500  1.00  0.00     0.261 C 
BRANCH   7   8
ATOM      8  O   UNL     1       3.992   1.773   0.336  1.00  0.00    -0.463 OA
BRANCH   8   9
ATOM      9  C   UNL     1       3.868   0.428   0.320  1.00  0.00     0.310 C 
ATOM     10  O   UNL     1       4.465  -0.309  -0.463  1.00  0.00    -0.252 OA
BRANCH   9  11
ATOM     11  C   UNL     1       3.056  -0.154   1.467  1.00  0.00     0.162 C 
BRANCH  11  12
ATOM     12  C   UNL     1       2.041   0.680   2.229  1.00  0.00     0.005 A 
ATOM     13  C   UNL     1       0.920   1.263   1.630  1.00  0.00     0.122 A 
ATOM     14  C   UNL     1       0.026   2.015   2.397  1.00  0.00     0.047 A 
ATOM     15  C   UNL     1       0.238   2.216   3.765  1.00  0.00     0.008 A 
ATOM     16  C   UNL     1       2.223   0.880   3.628  1.00  0.00     0.012 A 
ATOM     17  C   UNL     1       1.370   1.695   4.407  1.00  0.00    -0.042 A 
BRANCH  13  18
ATOM     18  O   UNL     1       0.679   1.266   0.287  1.00  0.00    -0.496 OA
ATOM     19  C   UNL     1       0.484  -0.016  -0.294  1.00  0.00     0.278 C 
ENDBRANCH  13  18
BRANCH  17  20
ATOM     20  C   UNL     1       1.679   2.099   5.865  1.00  0.00    -0.013 C 
ATOM     21  C   UNL     1       1.574   3.639   6.015  1.00  0.00     0.016 C 
ATOM     22  C   UNL     1       0.670   1.458   6.839  1.00  0.00     0.016 C 
ATOM     23  C   UNL     1       3.094   1.688   6.333  1.00  0.00     0.016 C 
ENDBRANCH  17  20
ENDBRANCH  11  12
ENDBRANCH   9  11
ENDBRANCH   8   9
ENDBRANCH   7   8
ENDBRANCH   6   7
ENDBRANCH   5   6
ENDBRANCH   4   5
ENDBRANCH   3   4
ENDBRANCH   2   3
ENDBRANCH   1   2
BRANCH   1  24
ATOM     24  C   UNL     1       6.321   5.426   3.366  1.00  0.00     0.188 C 
BRANCH  24  25
ATOM     25  O   UNL     1       6.368   4.345   4.291  1.00  0.00    -0.376 OA
BRANCH  25  26
ATOM     26  C   UNL     1       6.270   4.620   5.675  1.00  0.00     0.202 C 
BRANCH  26  27
ATOM     27  C   UNL     1       4.947   5.167   6.233  1.00  0.00     0.261 C 
BRANCH  27  28
ATOM     28  O   UNL     1       4.289   6.187   5.477  1.00  0.00    -0.460 OA
BRANCH  28  29
ATOM     29  C   UNL     1       4.830   7.423   5.496  1.00  0.00     0.338 C 
ATOM     30  O   UNL     1       5.814   7.774   6.124  1.00  0.00    -0.246 OA
BRANCH  29  31
ATOM     31  C   UNL     1       4.168   8.215   4.432  1.00  0.00     0.060 A 
ATOM     32  C   UNL     1       4.969   8.745   3.412  1.00  0.00     0.016 A 
ATOM     33  C   UNL     1       2.779   8.373   4.391  1.00  0.00     0.016 A 
ATOM     34  C   UNL     1       4.386   9.435   2.350  1.00  0.00     0.010 A 
ATOM     35  C   UNL     1       2.199   9.099   3.346  1.00  0.00     0.010 A 
ATOM     36  C   UNL     1       3.003   9.649   2.332  1.00  0.00    -0.014 A 
BRANCH  36  37
ATOM     37  C   UNL     1       2.433  10.605   1.355  1.00  0.00     0.031 A 
ATOM     38  C   UNL     1       2.249  12.032   1.784  1.00  0.00     0.074 A 
ATOM     39  C   UNL     1       2.096  10.219   0.112  1.00  0.00     0.049 A 
ATOM     40  N   UNL     1       1.753  13.042   1.122  1.00  0.00    -0.248 NA
ATOM     41  C   UNL     1       2.690  12.362   3.150  1.00  0.00     0.031 C 
ATOM     42  C   UNL     1       2.241   8.866  -0.420  1.00  0.00     0.029 A 
ATOM     43  N   UNL     1       1.532  10.931  -0.917  1.00  0.00    -0.354 N 
ATOM     44  C   UNL     1       1.800  14.123   1.993  1.00  0.00     0.074 A 
ATOM     45  C   UNL     1       2.361  13.642   3.237  1.00  0.00     0.031 C 
ATOM     46  C   UNL     1       1.734   8.833  -1.664  1.00  0.00     0.029 A 
ATOM     47  C   UNL     1       1.206  10.155  -2.004  1.00  0.00     0.049 A 
ATOM     48  H   UNL     1       1.377  11.902  -0.881  1.00  0.00     0.167 HD
ATOM     49  C   UNL     1       1.420  15.403   1.776  1.00  0.00     0.034 A 
ATOM     50  C   UNL     1       0.523  10.467  -3.124  1.00  0.00     0.034 A 
ATOM     51  C   UNL     1       0.850  15.870   0.542  1.00  0.00     0.049 A 
ATOM     52  C   UNL     1       0.051  11.884  -3.326  1.00  0.00     0.074 A 
ATOM     53  C   UNL     1       0.465  17.154   0.202  1.00  0.00     0.029 A 
ATOM     54  N   UNL     1       0.551  15.061  -0.545  1.00  0.00    -0.354 N 
ATOM     55  N   UNL     1       0.213  12.927  -2.546  1.00  0.00    -0.248 NA
ATOM     56  C   UNL     1      -0.676  12.175  -4.570  1.00  0.00     0.031 C 
ATOM     57  C   UNL     1      -0.107  17.113  -1.074  1.00  0.00     0.029 A 
ATOM     58  C   UNL     1      -0.043  15.811  -1.545  1.00  0.00     0.049 A 
ATOM     59  H   UNL     1       0.734  14.095  -0.597  1.00  0.00     0.167 HD
ATOM     60  C   UNL     1      -0.377  13.998  -3.208  1.00  0.00     0.074 A 
ATOM     61  C   UNL     1      -0.874  13.483  -4.468  1.00  0.00     0.031 C 
ATOM     62  C   UNL     1      -0.511  15.287  -2.805  1.00  0.00     0.034 A 
BRANCH  49  63
ATOM     63  C   UNL     1       1.612  16.380   2.907  1.00  0.00     0.023 A 
ATOM     64  C   UNL     1       2.913  16.771   3.284  1.00  0.00     0.012 A 
ATOM     65  C   UNL     1       0.505  16.912   3.595  1.00  0.00     0.148 A 
ATOM     66  C   UNL     1       3.112  17.639   4.358  1.00  0.00     0.002 A 
ATOM     67  C   UNL     1       0.709  17.814   4.633  1.00  0.00     0.091 A 
ATOM     68  F   UNL     1      -0.724  16.509   3.241  1.00  0.00    -0.205 F 
ATOM     69  C   UNL     1       2.010  18.166   5.026  1.00  0.00     0.022 A 
BRANCH  67  70
ATOM     70  S   UNL     1      -0.647  18.604   5.507  1.00  0.00     0.127 S 
ATOM     71  O   UNL     1      -0.588  17.937   6.807  1.00  0.00    -0.237 OA
ATOM     72  O   UNL     1      -0.226  20.006   5.522  1.00  0.00    -0.237 OA
ATOM     73  O   UNL     1      -1.841  18.337   4.719  1.00  0.00    -0.744 OA
ENDBRANCH  67  70
ENDBRANCH  49  63
BRANCH  50  74
ATOM     74  C   UNL     1       0.238   9.406  -4.130  1.00  0.00     0.023 A 
ATOM     75  C   UNL     1       0.880   9.429  -5.382  1.00  0.00     0.012 A 
ATOM     76  C   UNL     1      -0.640   8.345  -3.827  1.00  0.00     0.148 A 
ATOM     77  C   UNL     1       0.643   8.422  -6.320  1.00  0.00     0.002 A 
ATOM     78  C   UNL     1      -0.829   7.318  -4.743  1.00  0.00     0.091 A 
ATOM     79  F   UNL     1      -1.256   8.354  -2.637  1.00  0.00    -0.205 F 
ATOM     80  C   UNL     1      -0.199   7.361  -5.996  1.00  0.00     0.022 A 
BRANCH  78  81
ATOM     81  S   UNL     1      -1.798   5.853  -4.367  1.00  0.00     0.127 S 
ATOM     82  O   UNL     1      -2.905   5.975  -5.313  1.00  0.00    -0.237 OA
ATOM     83  O   UNL     1      -0.848   4.782  -4.667  1.00  0.00    -0.237 OA
ATOM     84  O   UNL     1      -2.160   5.966  -2.961  1.00  0.00    -0.744 OA
ENDBRANCH  78  81
ENDBRANCH  50  74
BRANCH  62  85
ATOM     85  C   UNL     1      -1.222  16.241  -3.731  1.00  0.00     0.023 A 
ATOM     86  C   UNL     1      -2.618  16.147  -3.892  1.00  0.00     0.012 A 
ATOM     87  C   UNL     1      -0.522  17.286  -4.368  1.00  0.00     0.148 A 
ATOM     88  C   UNL     1      -3.304  17.060  -4.694  1.00  0.00     0.002 A 
ATOM     89  C   UNL     1      -1.218  18.221  -5.125  1.00  0.00     0.091 A 
ATOM     90  F   UNL     1       0.808  17.351  -4.211  1.00  0.00    -0.205 F 
ATOM     91  C   UNL     1      -2.606  18.103  -5.299  1.00  0.00     0.022 A 
BRANCH  89  92
ATOM     92  S   UNL     1      -0.424  19.653  -5.866  1.00  0.00     0.127 S 
ATOM     93  O   UNL     1      -0.557  19.361  -7.293  1.00  0.00    -0.237 OA
ATOM     94  O   UNL     1      -1.262  20.752  -5.386  1.00  0.00    -0.237 OA
ATOM     95  O   UNL     1       0.942  19.665  -5.361  1.00  0.00    -0.744 OA
ENDBRANCH  89  92
ENDBRANCH  62  85
ENDBRANCH  36  37
ENDBRANCH  29  31
ENDBRANCH  28  29
ENDBRANCH  27  28
ENDBRANCH  26  27
ENDBRANCH  25  26
ENDBRANCH  24  25
ENDBRANCH   1  24
TORSDOF 26
