REMARK SMILES C#CCN(CC(=O)OCCOCCOCCOCCOC(=O)c1ccc(-c2c3nc(c(-c4cccc(S(=O)(=O)[O-])c4F)c4ccc([nH]4)c(-c4cccc(S(=O)(=O)[O-])c4F)c4nc(c(-c5cccc(S(=O)(=O)[O-])c5F)c5ccc2[nH]5)C=C4)C=C3)cc1)C(=O)CCOc1ccc(C)cc1
REMARK SMILES IDX 12 1 11 2 10 3 9 4 8 5 6 6 7 7 5 8 4 9 3 10 2 11 1 12 86 13
REMARK SMILES IDX 87 14 88 15 89 16 90 17 91 18 92 19 97 20 93 21 96 22 94 23
REMARK SMILES IDX 95 24 13 25 14 26 15 27 16 28 17 29 18 30 19 31 20 32 21 33
REMARK SMILES IDX 22 34 23 35 24 36 85 37 25 38 84 39 26 40 27 41 28 42 78 43
REMARK SMILES IDX 29 44 83 45 77 46 79 47 30 48 82 49 76 50 75 51 31 53 63 54
REMARK SMILES IDX 43 55 62 56 44 57 47 58 61 59 80 60 45 61 46 62 60 64 81 65
REMARK SMILES IDX 48 66 32 67 33 68 41 69 34 70 36 71 42 72 35 73 37 74 38 75
REMARK SMILES IDX 39 76 40 77 64 78 65 79 73 80 66 81 68 82 74 83 67 84 69 85
REMARK SMILES IDX 70 86 71 87 72 88 49 89 50 90 58 91 51 92 53 93 59 94 52 95
REMARK SMILES IDX 54 96 55 97 56 98 57 99
REMARK H PARENT 79 52 47 63
REMARK Flexibility Score: inf
ROOT
ATOM      1  C   UNL     1      -5.829   0.183  -4.413  1.00  0.00     0.188 C 
ENDROOT
BRANCH   1   2
ATOM      2  O   UNL     1      -7.203   0.468  -4.217  1.00  0.00    -0.376 OA
BRANCH   2   3
ATOM      3  C   UNL     1      -7.599   0.808  -2.885  1.00  0.00     0.202 C 
BRANCH   3   4
ATOM      4  C   UNL     1      -7.058  -0.051  -1.710  1.00  0.00     0.261 C 
BRANCH   4   5
ATOM      5  O   UNL     1      -5.601  -0.045  -1.508  1.00  0.00    -0.462 OA
BRANCH   5   6
ATOM      6  C   UNL     1      -4.988  -1.251  -1.442  1.00  0.00     0.325 C 
ATOM      7  O   UNL     1      -5.613  -2.313  -1.495  1.00  0.00    -0.250 OA
BRANCH   6   8
ATOM      8  C   UNL     1      -3.423  -1.305  -1.407  1.00  0.00     0.243 C 
BRANCH   8   9
ATOM      9  N   UNL     1      -2.336  -0.281  -1.349  1.00  0.00    -0.320 N 
BRANCH   9  10
ATOM     10  C   UNL     1      -1.742   0.057  -0.011  1.00  0.00     0.210 C 
BRANCH  10  11
ATOM     11  C   UNL     1      -0.222   0.057  -0.011  1.00  0.00    -0.085 C 
ATOM     12  C   UNL     1       1.081   0.057  -0.011  1.00  0.00     0.006 C 
ENDBRANCH  10  11
ENDBRANCH   9  10
BRANCH   9  13
ATOM     13  C   UNL     1      -1.738   0.290  -2.473  1.00  0.00     0.227 C 
ATOM     14  O   UNL     1      -1.095   1.344  -2.405  1.00  0.00    -0.275 OA
BRANCH  13  15
ATOM     15  C   UNL     1      -1.785  -0.429  -3.832  1.00  0.00     0.141 C 
BRANCH  15  16
ATOM     16  C   UNL     1      -0.648  -1.425  -4.111  1.00  0.00     0.239 C 
BRANCH  16  17
ATOM     17  O   UNL     1      -0.974  -2.813  -3.863  1.00  0.00    -0.493 OA
BRANCH  17  18
ATOM     18  C   UNL     1      -0.762  -3.324  -2.612  1.00  0.00     0.119 A 
ATOM     19  C   UNL     1      -1.054  -4.662  -2.361  1.00  0.00     0.046 A 
ATOM     20  C   UNL     1      -0.325  -2.570  -1.548  1.00  0.00     0.046 A 
ATOM     21  C   UNL     1      -1.052  -5.167  -1.041  1.00  0.00     0.007 A 
ATOM     22  C   UNL     1      -0.394  -3.035  -0.236  1.00  0.00     0.007 A 
ATOM     23  C   UNL     1      -0.811  -4.321   0.042  1.00  0.00    -0.051 A 
ATOM     24  C   UNL     1      -0.934  -4.723   1.480  1.00  0.00     0.044 C 
ENDBRANCH  17  18
ENDBRANCH  16  17
ENDBRANCH  15  16
ENDBRANCH  13  15
ENDBRANCH   9  13
ENDBRANCH   8   9
ENDBRANCH   6   8
ENDBRANCH   5   6
ENDBRANCH   4   5
ENDBRANCH   3   4
ENDBRANCH   2   3
ENDBRANCH   1   2
BRANCH   1  25
ATOM     25  C   UNL     1      -4.830   1.277  -4.027  1.00  0.00     0.188 C 
BRANCH  25  26
ATOM     26  O   UNL     1      -5.191   2.045  -2.899  1.00  0.00    -0.377 OA
BRANCH  26  27
ATOM     27  C   UNL     1      -5.226   3.461  -2.977  1.00  0.00     0.188 C 
BRANCH  27  28
ATOM     28  C   UNL     1      -5.265   4.065  -4.380  1.00  0.00     0.188 C 
BRANCH  28  29
ATOM     29  O   UNL     1      -4.066   3.998  -5.163  1.00  0.00    -0.376 OA
BRANCH  29  30
ATOM     30  C   UNL     1      -2.804   3.912  -4.495  1.00  0.00     0.202 C 
BRANCH  30  31
ATOM     31  C   UNL     1      -2.211   5.260  -4.096  1.00  0.00     0.261 C 
BRANCH  31  32
ATOM     32  O   UNL     1      -2.888   5.802  -2.953  1.00  0.00    -0.460 OA
BRANCH  32  33
ATOM     33  C   UNL     1      -3.850   6.708  -3.227  1.00  0.00     0.338 C 
ATOM     34  O   UNL     1      -4.137   7.178  -4.320  1.00  0.00    -0.246 OA
BRANCH  33  35
ATOM     35  C   UNL     1      -4.665   6.920  -2.020  1.00  0.00     0.060 A 
ATOM     36  C   UNL     1      -6.058   6.921  -2.164  1.00  0.00     0.016 A 
ATOM     37  C   UNL     1      -4.075   7.157  -0.775  1.00  0.00     0.016 A 
ATOM     38  C   UNL     1      -6.866   7.222  -1.078  1.00  0.00     0.010 A 
ATOM     39  C   UNL     1      -4.887   7.479   0.313  1.00  0.00     0.010 A 
ATOM     40  C   UNL     1      -6.279   7.561   0.146  1.00  0.00    -0.014 A 
BRANCH  40  41
ATOM     41  C   UNL     1      -7.132   8.206   1.165  1.00  0.00     0.031 A 
ATOM     42  C   UNL     1      -7.130   9.706   1.249  1.00  0.00     0.074 A 
ATOM     43  C   UNL     1      -7.944   7.466   1.938  1.00  0.00     0.049 A 
ATOM     44  N   UNL     1      -7.850  10.491   2.003  1.00  0.00    -0.248 NA
ATOM     45  C   UNL     1      -6.195  10.419   0.360  1.00  0.00     0.031 C 
ATOM     46  C   UNL     1      -8.025   6.006   1.922  1.00  0.00     0.029 A 
ATOM     47  N   UNL     1      -8.848   7.847   2.893  1.00  0.00    -0.354 N 
ATOM     48  C   UNL     1      -7.436  11.784   1.706  1.00  0.00     0.074 A 
ATOM     49  C   UNL     1      -6.399  11.682   0.705  1.00  0.00     0.031 C 
ATOM     50  C   UNL     1      -8.916   5.611   2.847  1.00  0.00     0.029 A 
ATOM     51  C   UNL     1      -9.449   6.788   3.529  1.00  0.00     0.049 A 
ATOM     52  H   UNL     1      -9.048   8.787   3.104  1.00  0.00     0.167 HD
ATOM     53  C   UNL     1      -7.886  12.950   2.220  1.00  0.00     0.034 A 
ATOM     54  C   UNL     1     -10.314   6.778   4.562  1.00  0.00     0.034 A 
ATOM     55  C   UNL     1      -8.931  13.037   3.203  1.00  0.00     0.049 A 
ATOM     56  C   UNL     1     -10.794   8.094   5.115  1.00  0.00     0.074 A 
ATOM     57  C   UNL     1      -9.505  14.171   3.748  1.00  0.00     0.029 A 
ATOM     58  N   UNL     1      -9.539  11.948   3.806  1.00  0.00    -0.354 N 
ATOM     59  N   UNL     1     -10.489   9.312   4.735  1.00  0.00    -0.248 NA
ATOM     60  C   UNL     1     -11.767   8.035   6.214  1.00  0.00     0.031 C 
ATOM     61  C   UNL     1     -10.428  13.766   4.717  1.00  0.00     0.029 A 
ATOM     62  C   UNL     1     -10.466  12.380   4.738  1.00  0.00     0.049 A 
ATOM     63  H   UNL     1      -9.341  11.005   3.602  1.00  0.00     0.167 HD
ATOM     64  C   UNL     1     -11.254  10.162   5.525  1.00  0.00     0.074 A 
ATOM     65  C   UNL     1     -12.060   9.316   6.382  1.00  0.00     0.031 C 
ATOM     66  C   UNL     1     -11.281  11.518   5.555  1.00  0.00     0.034 A 
BRANCH  53  67
ATOM     67  C   UNL     1      -7.248  14.226   1.740  1.00  0.00     0.023 A 
ATOM     68  C   UNL     1      -7.510  14.709   0.443  1.00  0.00     0.012 A 
ATOM     69  C   UNL     1      -6.437  14.981   2.609  1.00  0.00     0.148 A 
ATOM     70  C   UNL     1      -6.956  15.914   0.010  1.00  0.00     0.002 A 
ATOM     71  C   UNL     1      -5.928  16.203   2.189  1.00  0.00     0.091 A 
ATOM     72  F   UNL     1      -6.177  14.489   3.829  1.00  0.00    -0.205 F 
ATOM     73  C   UNL     1      -6.177  16.666   0.886  1.00  0.00     0.022 A 
BRANCH  71  74
ATOM     74  S   UNL     1      -4.983  17.282   3.269  1.00  0.00     0.127 S 
ATOM     75  O   UNL     1      -3.666  17.256   2.634  1.00  0.00    -0.237 OA
ATOM     76  O   UNL     1      -5.700  18.550   3.136  1.00  0.00    -0.237 OA
ATOM     77  O   UNL     1      -5.044  16.682   4.595  1.00  0.00    -0.744 OA
ENDBRANCH  71  74
ENDBRANCH  53  67
BRANCH  54  78
ATOM     78  C   UNL     1     -10.783   5.485   5.132  1.00  0.00     0.023 A 
ATOM     79  C   UNL     1     -12.134   5.107   5.014  1.00  0.00     0.012 A 
ATOM     80  C   UNL     1      -9.885   4.625   5.795  1.00  0.00     0.148 A 
ATOM     81  C   UNL     1     -12.590   3.916   5.582  1.00  0.00     0.002 A 
ATOM     82  C   UNL     1     -10.333   3.412   6.302  1.00  0.00     0.091 A 
ATOM     83  F   UNL     1      -8.606   5.009   5.912  1.00  0.00    -0.205 F 
ATOM     84  C   UNL     1     -11.689   3.065   6.216  1.00  0.00     0.022 A 
BRANCH  82  85
ATOM     85  S   UNL     1      -9.214   2.199   7.010  1.00  0.00     0.127 S 
ATOM     86  O   UNL     1      -9.555   2.268   8.428  1.00  0.00    -0.237 OA
ATOM     87  O   UNL     1      -9.634   0.971   6.333  1.00  0.00    -0.237 OA
ATOM     88  O   UNL     1      -7.874   2.647   6.656  1.00  0.00    -0.744 OA
ENDBRANCH  82  85
ENDBRANCH  54  78
BRANCH  66  89
ATOM     89  C   UNL     1     -12.237  12.169   6.521  1.00  0.00     0.023 A 
ATOM     90  C   UNL     1     -12.000  12.092   7.908  1.00  0.00     0.012 A 
ATOM     91  C   UNL     1     -13.348  12.895   6.049  1.00  0.00     0.148 A 
ATOM     92  C   UNL     1     -12.884  12.681   8.811  1.00  0.00     0.002 A 
ATOM     93  C   UNL     1     -14.192  13.528   6.952  1.00  0.00     0.091 A 
ATOM     94  F   UNL     1     -13.566  12.945   4.726  1.00  0.00    -0.205 F 
ATOM     95  C   UNL     1     -13.972  13.407   8.334  1.00  0.00     0.022 A 
BRANCH  93  96
ATOM     96  S   UNL     1     -15.556  14.569   6.423  1.00  0.00     0.127 S 
ATOM     97  O   UNL     1     -16.710  13.726   6.733  1.00  0.00    -0.237 OA
ATOM     98  O   UNL     1     -15.406  15.740   7.287  1.00  0.00    -0.237 OA
ATOM     99  O   UNL     1     -15.335  14.832   5.008  1.00  0.00    -0.744 OA
ENDBRANCH  93  96
ENDBRANCH  66  89
ENDBRANCH  40  41
ENDBRANCH  33  35
ENDBRANCH  32  33
ENDBRANCH  31  32
ENDBRANCH  30  31
ENDBRANCH  29  30
ENDBRANCH  28  29
ENDBRANCH  27  28
ENDBRANCH  26  27
ENDBRANCH  25  26
ENDBRANCH   1  25
TORSDOF 31
