REMARK SMILES O=C(OCCOCCOCCOCCOC(=O)c1cc(-c2ccccc2)nc(Nc2nc3ccccc3s2)n1)c1ccc(-c2c3nc(c(-c4cccc(S(=O)(=O)[O-])c4F)c4ccc([nH]4)c(-c4cccc(S(=O)(=O)[O-])c4F)c4nc(c(-c5cccc(S(=O)(=O)[O-])c5F)c5ccc2[nH]5)C=C4)C=C3)cc1
REMARK SMILES IDX 8 1 7 2 6 3 5 4 4 5 3 6 2 7 1 8 40 9 41 10 102 11 42 12
REMARK SMILES IDX 101 13 43 14 44 15 45 16 95 17 46 18 100 19 94 20 96 21
REMARK SMILES IDX 47 22 99 23 93 24 92 25 48 27 80 28 60 29 79 30 61 31 64 32
REMARK SMILES IDX 78 33 97 34 62 35 63 36 77 38 98 39 65 40 49 41 50 42 58 43
REMARK SMILES IDX 51 44 53 45 59 46 52 47 54 48 55 49 56 50 57 51 81 52 82 53
REMARK SMILES IDX 90 54 83 55 85 56 91 57 84 58 86 59 87 60 88 61 89 62 66 63
REMARK SMILES IDX 67 64 75 65 68 66 70 67 76 68 69 69 71 70 72 71 73 72 74 73
REMARK SMILES IDX 9 74 10 75 11 76 12 77 13 78 14 79 15 80 16 81 17 82 18 83
REMARK SMILES IDX 19 84 39 85 20 86 28 87 27 88 21 89 22 90 26 91 23 92 25 93
REMARK SMILES IDX 24 94 29 95 30 97 31 98 38 99 32 100 37 101 33 102 36 103
REMARK SMILES IDX 34 104 35 105
REMARK H PARENT 96 26 64 37 29 96
REMARK Flexibility Score: inf
ROOT
ATOM      1  C   UNL     1       1.548  -2.964   0.633  1.00  0.00     0.188 C 
ENDROOT
BRANCH   1   2
ATOM      2  C   UNL     1       1.881  -1.525   1.039  1.00  0.00     0.188 C 
BRANCH   2   3
ATOM      3  O   UNL     1       3.108  -1.155   0.429  1.00  0.00    -0.376 OA
BRANCH   3   4
ATOM      4  C   UNL     1       4.017  -0.380   1.193  1.00  0.00     0.202 C 
BRANCH   4   5
ATOM      5  C   UNL     1       3.756   1.120   1.159  1.00  0.00     0.261 C 
BRANCH   5   6
ATOM      6  O   UNL     1       2.386   1.422   0.873  1.00  0.00    -0.460 OA
BRANCH   6   7
ATOM      7  C   UNL     1       1.831   1.546  -0.360  1.00  0.00     0.338 C 
ATOM      8  O   UNL     1       0.630   1.792  -0.444  1.00  0.00    -0.246 OA
BRANCH   7   9
ATOM      9  C   UNL     1       2.632   1.491  -1.619  1.00  0.00     0.060 A 
ATOM     10  C   UNL     1       3.669   0.592  -1.872  1.00  0.00     0.016 A 
ATOM     11  C   UNL     1       2.248   2.356  -2.652  1.00  0.00     0.016 A 
ATOM     12  C   UNL     1       4.391   0.618  -3.050  1.00  0.00     0.010 A 
ATOM     13  C   UNL     1       2.918   2.339  -3.877  1.00  0.00     0.010 A 
ATOM     14  C   UNL     1       4.017   1.488  -4.062  1.00  0.00    -0.014 A 
BRANCH  14  15
ATOM     15  C   UNL     1       4.875   1.570  -5.253  1.00  0.00     0.031 A 
ATOM     16  C   UNL     1       5.670   2.820  -5.451  1.00  0.00     0.074 A 
ATOM     17  C   UNL     1       4.995   0.509  -6.071  1.00  0.00     0.049 A 
ATOM     18  N   UNL     1       6.380   3.193  -6.475  1.00  0.00    -0.248 NA
ATOM     19  C   UNL     1       5.660   3.785  -4.336  1.00  0.00     0.031 C 
ATOM     20  C   UNL     1       4.340  -0.788  -5.873  1.00  0.00     0.029 A 
ATOM     21  N   UNL     1       5.706   0.350  -7.229  1.00  0.00    -0.354 N 
ATOM     22  C   UNL     1       6.826   4.472  -6.169  1.00  0.00     0.074 A 
ATOM     23  C   UNL     1       6.335   4.799  -4.851  1.00  0.00     0.031 C 
ATOM     24  C   UNL     1       4.671  -1.606  -6.883  1.00  0.00     0.029 A 
ATOM     25  C   UNL     1       5.484  -0.864  -7.837  1.00  0.00     0.049 A 
ATOM     26  H   UNL     1       6.315   1.034  -7.589  1.00  0.00     0.167 HD
ATOM     27  C   UNL     1       7.567   5.297  -6.939  1.00  0.00     0.034 A 
ATOM     28  C   UNL     1       5.845  -1.290  -9.061  1.00  0.00     0.034 A 
ATOM     29  C   UNL     1       8.053   4.917  -8.235  1.00  0.00     0.049 A 
ATOM     30  C   UNL     1       6.641  -0.344  -9.917  1.00  0.00     0.074 A 
ATOM     31  C   UNL     1       8.796   5.655  -9.133  1.00  0.00     0.029 A 
ATOM     32  N   UNL     1       7.827   3.674  -8.817  1.00  0.00    -0.354 N 
ATOM     33  N   UNL     1       7.064   0.866  -9.629  1.00  0.00    -0.248 NA
ATOM     34  C   UNL     1       7.019  -0.812 -11.254  1.00  0.00     0.031 C 
ATOM     35  C   UNL     1       8.993   4.867 -10.273  1.00  0.00     0.029 A 
ATOM     36  C   UNL     1       8.406   3.625 -10.069  1.00  0.00     0.049 A 
ATOM     37  H   UNL     1       7.326   2.937  -8.398  1.00  0.00     0.167 HD
ATOM     38  C   UNL     1       7.773   1.300 -10.739  1.00  0.00     0.074 A 
ATOM     39  C   UNL     1       7.742   0.209 -11.696  1.00  0.00     0.031 C 
ATOM     40  C   UNL     1       8.381   2.492 -10.963  1.00  0.00     0.034 A 
BRANCH  27  41
ATOM     41  C   UNL     1       7.820   6.682  -6.411  1.00  0.00     0.023 A 
ATOM     42  C   UNL     1       8.690   6.886  -5.320  1.00  0.00     0.012 A 
ATOM     43  C   UNL     1       7.141   7.784  -6.967  1.00  0.00     0.148 A 
ATOM     44  C   UNL     1       8.839   8.155  -4.759  1.00  0.00     0.002 A 
ATOM     45  C   UNL     1       7.330   9.052  -6.432  1.00  0.00     0.091 A 
ATOM     46  F   UNL     1       6.291   7.566  -7.981  1.00  0.00    -0.205 F 
ATOM     47  C   UNL     1       8.165   9.237  -5.318  1.00  0.00     0.022 A 
BRANCH  45  48
ATOM     48  S   UNL     1       6.551  10.517  -7.119  1.00  0.00     0.127 S 
ATOM     49  O   UNL     1       5.577  10.849  -6.080  1.00  0.00    -0.237 OA
ATOM     50  O   UNL     1       7.679  11.444  -7.216  1.00  0.00    -0.237 OA
ATOM     51  O   UNL     1       5.987  10.110  -8.398  1.00  0.00    -0.744 OA
ENDBRANCH  45  48
ENDBRANCH  27  41
BRANCH  28  52
ATOM     52  C   UNL     1       5.424  -2.639  -9.538  1.00  0.00     0.023 A 
ATOM     53  C   UNL     1       6.386  -3.643  -9.752  1.00  0.00     0.012 A 
ATOM     54  C   UNL     1       4.060  -2.949  -9.728  1.00  0.00     0.148 A 
ATOM     55  C   UNL     1       6.001  -4.922 -10.163  1.00  0.00     0.002 A 
ATOM     56  C   UNL     1       3.679  -4.239 -10.079  1.00  0.00     0.091 A 
ATOM     57  F   UNL     1       3.156  -1.977  -9.538  1.00  0.00    -0.205 F 
ATOM     58  C   UNL     1       4.650  -5.223 -10.314  1.00  0.00     0.022 A 
BRANCH  56  59
ATOM     59  S   UNL     1       1.958  -4.749 -10.161  1.00  0.00     0.127 S 
ATOM     60  O   UNL     1       1.770  -4.941 -11.596  1.00  0.00    -0.237 OA
ATOM     61  O   UNL     1       1.970  -5.981  -9.371  1.00  0.00    -0.237 OA
ATOM     62  O   UNL     1       1.195  -3.662  -9.562  1.00  0.00    -0.744 OA
ENDBRANCH  56  59
ENDBRANCH  28  52
BRANCH  40  63
ATOM     63  C   UNL     1       9.091   2.660 -12.275  1.00  0.00     0.023 A 
ATOM     64  C   UNL     1       8.349   2.866 -13.453  1.00  0.00     0.012 A 
ATOM     65  C   UNL     1      10.497   2.723 -12.312  1.00  0.00     0.148 A 
ATOM     66  C   UNL     1       9.001   3.112 -14.659  1.00  0.00     0.002 A 
ATOM     67  C   UNL     1      11.136   3.025 -13.505  1.00  0.00     0.091 A 
ATOM     68  F   UNL     1      11.177   2.503 -11.177  1.00  0.00    -0.205 F 
ATOM     69  C   UNL     1      10.392   3.207 -14.682  1.00  0.00     0.022 A 
BRANCH  67  70
ATOM     70  S   UNL     1      12.910   3.280 -13.600  1.00  0.00     0.127 S 
ATOM     71  O   UNL     1      13.345   2.086 -14.322  1.00  0.00    -0.237 OA
ATOM     72  O   UNL     1      13.002   4.524 -14.365  1.00  0.00    -0.237 OA
ATOM     73  O   UNL     1      13.377   3.382 -12.224  1.00  0.00    -0.744 OA
ENDBRANCH  67  70
ENDBRANCH  40  63
ENDBRANCH  14  15
ENDBRANCH   7   9
ENDBRANCH   6   7
ENDBRANCH   5   6
ENDBRANCH   4   5
ENDBRANCH   3   4
ENDBRANCH   2   3
ENDBRANCH   1   2
BRANCH   1  74
ATOM     74  O   UNL     1       2.365  -3.974   1.239  1.00  0.00    -0.377 OA
BRANCH  74  75
ATOM     75  C   UNL     1       3.770  -3.716   1.280  1.00  0.00     0.188 C 
BRANCH  75  76
ATOM     76  C   UNL     1       4.550  -3.627  -0.055  1.00  0.00     0.188 C 
BRANCH  76  77
ATOM     77  O   UNL     1       3.703  -3.469  -1.178  1.00  0.00    -0.376 OA
BRANCH  77  78
ATOM     78  C   UNL     1       3.498  -4.590  -2.028  1.00  0.00     0.202 C 
BRANCH  78  79
ATOM     79  C   UNL     1       3.122  -5.971  -1.453  1.00  0.00     0.261 C 
BRANCH  79  80
ATOM     80  O   UNL     1       3.616  -6.273  -0.142  1.00  0.00    -0.459 OA
BRANCH  80  81
ATOM     81  C   UNL     1       4.843  -6.828  -0.025  1.00  0.00     0.357 C 
ATOM     82  O   UNL     1       5.561  -7.246  -0.918  1.00  0.00    -0.244 OA
BRANCH  81  83
ATOM     83  C   UNL     1       5.211  -6.742   1.411  1.00  0.00     0.154 A 
ATOM     84  C   UNL     1       4.464  -7.434   2.321  1.00  0.00     0.065 A 
ATOM     85  N   UNL     1       6.219  -5.902   1.742  1.00  0.00    -0.206 NA
ATOM     86  C   UNL     1       4.895  -7.339   3.623  1.00  0.00     0.077 A 
ATOM     87  C   UNL     1       6.476  -5.748   3.045  1.00  0.00     0.230 A 
ATOM     88  N   UNL     1       5.883  -6.492   4.000  1.00  0.00    -0.213 NA
BRANCH  86  89
ATOM     89  C   UNL     1       4.381  -8.283   4.630  1.00  0.00     0.000 A 
ATOM     90  C   UNL     1       4.010  -7.904   5.927  1.00  0.00     0.010 A 
ATOM     91  C   UNL     1       4.254  -9.645   4.281  1.00  0.00     0.010 A 
ATOM     92  C   UNL     1       3.514  -8.854   6.830  1.00  0.00     0.001 A 
ATOM     93  C   UNL     1       3.760 -10.590   5.176  1.00  0.00     0.001 A 
ATOM     94  C   UNL     1       3.388 -10.193   6.454  1.00  0.00     0.000 A 
ENDBRANCH  86  89
BRANCH  87  95
ATOM     95  N   UNL     1       7.439  -4.842   3.474  1.00  0.00    -0.300 N 
ATOM     96  H   UNL     1       7.762  -4.939   4.399  1.00  0.00     0.172 HD
BRANCH  95  97
ATOM     97  C   UNL     1       7.973  -3.842   2.743  1.00  0.00     0.190 A 
ATOM     98  N   UNL     1       7.326  -2.771   2.330  1.00  0.00    -0.220 NA
ATOM     99  S   UNL     1       9.668  -3.821   2.417  1.00  0.00    -0.097 S 
ATOM    100  C   UNL     1       8.190  -1.901   1.670  1.00  0.00     0.084 A 
ATOM    101  C   UNL     1       9.507  -2.342   1.554  1.00  0.00     0.056 A 
ATOM    102  C   UNL     1       7.864  -0.642   1.122  1.00  0.00     0.030 A 
ATOM    103  C   UNL     1      10.476  -1.607   0.845  1.00  0.00     0.021 A 
ATOM    104  C   UNL     1       8.807   0.090   0.397  1.00  0.00     0.002 A 
ATOM    105  C   UNL     1      10.098  -0.398   0.249  1.00  0.00     0.002 A 
ENDBRANCH  95  97
ENDBRANCH  87  95
ENDBRANCH  81  83
ENDBRANCH  80  81
ENDBRANCH  79  80
ENDBRANCH  78  79
ENDBRANCH  77  78
ENDBRANCH  76  77
ENDBRANCH  75  76
ENDBRANCH  74  75
ENDBRANCH   1  74
TORSDOF 26
