REMARK SMILES [NH3+][C@@]1(C(=O)OCCOCCOCCOCCOC(=O)c2ccc(-c3c4nc(c(-c5cccc(S(=O)(=O)[O-])c5F)c5ccc([nH]5)c(-c5cccc(S(=O)(=O)[O-])c5F)c5nc(c(-c6cccc(S(=O)(=O)[O-])c6F)c6ccc3[nH]6)C=C5)C=C4)cc2)CC[C@@H]([N@H+]2CC[C@H]([NH+]3CCOCC3)C2)C1
REMARK SMILES IDX 12 1 11 2 10 3 9 4 8 5 7 6 6 7 5 8 3 9 4 10 2 11 83 12 97 13
REMARK SMILES IDX 84 14 85 15 1 16 86 20 87 21 96 22 88 24 89 25 90 26 91 27
REMARK SMILES IDX 95 28 92 30 94 31 93 32 13 33 14 34 15 35 16 36 17 37 18 38
REMARK SMILES IDX 19 39 20 40 21 41 82 42 22 43 81 44 23 45 24 46 25 47 75 48
REMARK SMILES IDX 26 49 80 50 74 51 76 52 27 53 79 54 73 55 72 56 28 58 60 59
REMARK SMILES IDX 40 60 59 61 41 62 44 63 58 64 77 65 42 66 43 67 57 69 78 70
REMARK SMILES IDX 45 71 29 72 30 73 38 74 31 75 33 76 39 77 32 78 34 79 35 80
REMARK SMILES IDX 36 81 37 82 61 83 62 84 70 85 63 86 65 87 71 88 64 89 66 90
REMARK SMILES IDX 67 91 68 92 69 93 46 94 47 95 55 96 48 97 50 98 56 99 49 100
REMARK SMILES IDX 51 101 52 102 53 103 54 104
REMARK H PARENT 1 17 1 18 1 19 86 23 90 29 76 57 44 68
REMARK Flexibility Score: inf
ROOT
ATOM      1  C   UNL     1       0.227   2.531  -4.725  1.00  0.00     0.188 C 
ENDROOT
BRANCH   1   2
ATOM      2  O   UNL     1       0.075   2.070  -3.390  1.00  0.00    -0.377 OA
BRANCH   2   3
ATOM      3  C   UNL     1       0.752   0.892  -3.017  1.00  0.00     0.188 C 
BRANCH   3   4
ATOM      4  C   UNL     1      -0.127  -0.363  -2.979  1.00  0.00     0.188 C 
BRANCH   4   5
ATOM      5  O   UNL     1      -1.359  -0.406  -3.683  1.00  0.00    -0.376 OA
BRANCH   5   6
ATOM      6  C   UNL     1      -2.321   0.636  -3.538  1.00  0.00     0.202 C 
BRANCH   6   7
ATOM      7  C   UNL     1      -2.730   1.177  -2.156  1.00  0.00     0.261 C 
BRANCH   7   8
ATOM      8  O   UNL     1      -1.650   1.657  -1.343  1.00  0.00    -0.459 OA
BRANCH   8   9
ATOM      9  C   UNL     1      -1.366   0.970  -0.211  1.00  0.00     0.368 C 
ATOM     10  O   UNL     1      -1.988  -0.018   0.173  1.00  0.00    -0.245 OA
BRANCH   9  11
ATOM     11  C   UNL     1      -0.059   1.452   0.494  1.00  0.00     0.198 C 
ATOM     12  C   UNL     1      -0.382   1.933   1.913  1.00  0.00     0.087 C 
ATOM     13  C   UNL     1       0.653   2.644  -0.184  1.00  0.00     0.145 C 
ATOM     14  C   UNL     1      -0.458   3.447   1.796  1.00  0.00     0.072 C 
ATOM     15  C   UNL     1       0.611   3.840   0.772  1.00  0.00     0.191 C 
BRANCH  11  16
ATOM     16  N   UNL     1       0.849   0.268   0.623  1.00  0.00    -0.343 N 
ATOM     17  H   UNL     1       0.347  -0.498   1.073  1.00  0.00     0.345 HD
ATOM     18  H   UNL     1       1.660   0.521   1.188  1.00  0.00     0.345 HD
ATOM     19  H   UNL     1       1.158  -0.026  -0.303  1.00  0.00     0.345 HD
ENDBRANCH  11  16
BRANCH  15  20
ATOM     20  N   UNL     1       1.922   4.206   1.327  1.00  0.00    -0.327 N 
ATOM     21  C   UNL     1       2.660   3.144   1.998  1.00  0.00     0.269 C 
ATOM     22  C   UNL     1       2.828   4.759   0.304  1.00  0.00     0.328 C 
ATOM     23  H   UNL     1       1.659   4.899   2.028  1.00  0.00     0.348 HD
ATOM     24  C   UNL     1       4.086   3.655   2.066  1.00  0.00     0.132 C 
ATOM     25  C   UNL     1       4.240   4.665   0.923  1.00  0.00     0.245 C 
BRANCH  25  26
ATOM     26  N   UNL     1       4.920   5.944   1.185  1.00  0.00    -0.324 N 
ATOM     27  C   UNL     1       6.253   5.828   1.798  1.00  0.00     0.291 C 
ATOM     28  C   UNL     1       4.142   6.962   1.916  1.00  0.00     0.291 C 
ATOM     29  H   UNL     1       5.030   6.281   0.229  1.00  0.00     0.348 HD
ATOM     30  C   UNL     1       6.277   5.750   3.338  1.00  0.00     0.221 C 
ATOM     31  C   UNL     1       4.130   6.776   3.436  1.00  0.00     0.221 C 
ATOM     32  O   UNL     1       5.462   6.744   3.968  1.00  0.00    -0.370 OA
ENDBRANCH  25  26
ENDBRANCH  15  20
ENDBRANCH   9  11
ENDBRANCH   8   9
ENDBRANCH   7   8
ENDBRANCH   6   7
ENDBRANCH   5   6
ENDBRANCH   4   5
ENDBRANCH   3   4
ENDBRANCH   2   3
ENDBRANCH   1   2
BRANCH   1  33
ATOM     33  C   UNL     1       0.486   1.486  -5.826  1.00  0.00     0.188 C 
BRANCH  33  34
ATOM     34  O   UNL     1       1.603   0.644  -5.574  1.00  0.00    -0.376 OA
BRANCH  34  35
ATOM     35  C   UNL     1       2.880   1.017  -6.072  1.00  0.00     0.202 C 
BRANCH  35  36
ATOM     36  C   UNL     1       3.515   2.337  -5.597  1.00  0.00     0.261 C 
BRANCH  36  37
ATOM     37  O   UNL     1       2.804   3.554  -5.872  1.00  0.00    -0.460 OA
BRANCH  37  38
ATOM     38  C   UNL     1       2.410   3.807  -7.139  1.00  0.00     0.338 C 
ATOM     39  O   UNL     1       2.643   3.143  -8.125  1.00  0.00    -0.246 OA
BRANCH  38  40
ATOM     40  C   UNL     1       1.461   4.944  -7.086  1.00  0.00     0.060 A 
ATOM     41  C   UNL     1       0.151   4.755  -7.546  1.00  0.00     0.016 A 
ATOM     42  C   UNL     1       1.864   6.184  -6.588  1.00  0.00     0.016 A 
ATOM     43  C   UNL     1      -0.750   5.821  -7.545  1.00  0.00     0.010 A 
ATOM     44  C   UNL     1       0.966   7.255  -6.607  1.00  0.00     0.010 A 
ATOM     45  C   UNL     1      -0.333   7.088  -7.118  1.00  0.00    -0.014 A 
BRANCH  45  46
ATOM     46  C   UNL     1      -1.190   8.272  -7.367  1.00  0.00     0.031 A 
ATOM     47  C   UNL     1      -0.873   9.154  -8.544  1.00  0.00     0.074 A 
ATOM     48  C   UNL     1      -2.225   8.568  -6.559  1.00  0.00     0.049 A 
ATOM     49  N   UNL     1      -1.442  10.267  -8.924  1.00  0.00    -0.248 NA
ATOM     50  C   UNL     1       0.240   8.722  -9.408  1.00  0.00     0.031 C 
ATOM     51  C   UNL     1      -2.639   7.787  -5.396  1.00  0.00     0.029 A 
ATOM     52  N   UNL     1      -3.097   9.628  -6.583  1.00  0.00    -0.354 N 
ATOM     53  C   UNL     1      -0.738  10.688 -10.047  1.00  0.00     0.074 A 
ATOM     54  C   UNL     1       0.304   9.714 -10.284  1.00  0.00     0.031 C 
ATOM     55  C   UNL     1      -3.665   8.414  -4.794  1.00  0.00     0.029 A 
ATOM     56  C   UNL     1      -3.958   9.654  -5.511  1.00  0.00     0.049 A 
ATOM     57  H   UNL     1      -3.105  10.305  -7.298  1.00  0.00     0.167 HD
ATOM     58  C   UNL     1      -0.946  11.782 -10.817  1.00  0.00     0.034 A 
ATOM     59  C   UNL     1      -4.855  10.588  -5.135  1.00  0.00     0.034 A 
ATOM     60  C   UNL     1      -1.989  12.744 -10.584  1.00  0.00     0.049 A 
ATOM     61  C   UNL     1      -5.041  11.817  -5.989  1.00  0.00     0.074 A 
ATOM     62  C   UNL     1      -2.312  13.860 -11.336  1.00  0.00     0.029 A 
ATOM     63  N   UNL     1      -2.864  12.719  -9.509  1.00  0.00    -0.354 N 
ATOM     64  N   UNL     1      -4.446  12.144  -7.110  1.00  0.00    -0.248 NA
ATOM     65  C   UNL     1      -6.046  12.793  -5.540  1.00  0.00     0.031 C 
ATOM     66  C   UNL     1      -3.353  14.534 -10.691  1.00  0.00     0.029 A 
ATOM     67  C   UNL     1      -3.713  13.810  -9.565  1.00  0.00     0.049 A 
ATOM     68  H   UNL     1      -2.879  12.027  -8.809  1.00  0.00     0.167 HD
ATOM     69  C   UNL     1      -5.029  13.339  -7.520  1.00  0.00     0.074 A 
ATOM     70  C   UNL     1      -6.039  13.668  -6.537  1.00  0.00     0.031 C 
ATOM     71  C   UNL     1      -4.747  14.101  -8.606  1.00  0.00     0.034 A 
BRANCH  58  72
ATOM     72  C   UNL     1      -0.028  11.998 -11.991  1.00  0.00     0.023 A 
ATOM     73  C   UNL     1      -0.122  11.162 -13.122  1.00  0.00     0.012 A 
ATOM     74  C   UNL     1       0.887  13.069 -11.998  1.00  0.00     0.148 A 
ATOM     75  C   UNL     1       0.701  11.370 -14.229  1.00  0.00     0.002 A 
ATOM     76  C   UNL     1       1.670  13.299 -13.122  1.00  0.00     0.091 A 
ATOM     77  F   UNL     1       0.977  13.839 -10.904  1.00  0.00    -0.205 F 
ATOM     78  C   UNL     1       1.588  12.444 -14.233  1.00  0.00     0.022 A 
BRANCH  76  79
ATOM     79  S   UNL     1       2.783  14.702 -13.259  1.00  0.00     0.127 S 
ATOM     80  O   UNL     1       4.088  14.042 -13.264  1.00  0.00    -0.237 OA
ATOM     81  O   UNL     1       2.388  15.281 -14.542  1.00  0.00    -0.237 OA
ATOM     82  O   UNL     1       2.517  15.543 -12.101  1.00  0.00    -0.744 OA
ENDBRANCH  76  79
ENDBRANCH  58  72
BRANCH  59  83
ATOM     83  C   UNL     1      -5.659  10.399  -3.893  1.00  0.00     0.023 A 
ATOM     84  C   UNL     1      -7.050  10.201  -3.983  1.00  0.00     0.012 A 
ATOM     85  C   UNL     1      -5.049  10.421  -2.623  1.00  0.00     0.148 A 
ATOM     86  C   UNL     1      -7.825  10.065  -2.830  1.00  0.00     0.002 A 
ATOM     87  C   UNL     1      -5.818  10.225  -1.483  1.00  0.00     0.091 A 
ATOM     88  F   UNL     1      -3.726  10.627  -2.558  1.00  0.00    -0.205 F 
ATOM     89  C   UNL     1      -7.209  10.067  -1.582  1.00  0.00     0.022 A 
BRANCH  87  90
ATOM     90  S   UNL     1      -5.095  10.084   0.155  1.00  0.00     0.127 S 
ATOM     91  O   UNL     1      -5.588  11.295   0.805  1.00  0.00    -0.237 OA
ATOM     92  O   UNL     1      -5.691   8.838   0.638  1.00  0.00    -0.237 OA
ATOM     93  O   UNL     1      -3.655  10.021  -0.054  1.00  0.00    -0.744 OA
ENDBRANCH  87  90
ENDBRANCH  59  83
BRANCH  71  94
ATOM     94  C   UNL     1      -5.573  15.344  -8.826  1.00  0.00     0.023 A 
ATOM     95  C   UNL     1      -5.414  16.460  -7.980  1.00  0.00     0.012 A 
ATOM     96  C   UNL     1      -6.457  15.428  -9.920  1.00  0.00     0.148 A 
ATOM     97  C   UNL     1      -6.150  17.625  -8.197  1.00  0.00     0.002 A 
ATOM     98  C   UNL     1      -7.146  16.610 -10.162  1.00  0.00     0.091 A 
ATOM     99  F   UNL     1      -6.606  14.352 -10.706  1.00  0.00    -0.205 F 
ATOM    100  C   UNL     1      -7.006  17.704  -9.293  1.00  0.00     0.022 A 
BRANCH  98 101
ATOM    101  S   UNL     1      -8.193  16.840 -11.604  1.00  0.00     0.127 S 
ATOM    102  O   UNL     1      -9.524  16.889 -11.001  1.00  0.00    -0.237 OA
ATOM    103  O   UNL     1      -7.715  18.118 -12.132  1.00  0.00    -0.237 OA
ATOM    104  O   UNL     1      -7.944  15.695 -12.470  1.00  0.00    -0.744 OA
ENDBRANCH  98 101
ENDBRANCH  71  94
ENDBRANCH  45  46
ENDBRANCH  38  40
ENDBRANCH  37  38
ENDBRANCH  36  37
ENDBRANCH  35  36
ENDBRANCH  34  35
ENDBRANCH  33  34
ENDBRANCH   1  33
TORSDOF 26
