REMARK SMILES Cc1cccc(CN(C)c2ccc(C(=O)OCCOCCOCCOCCOC(=O)c3ccc(-c4c5nc(c(-c6cccc(S(=O)(=O)[O-])c6F)c6ccc([nH]6)c(-c6cccc(S(=O)(=O)[O-])c6F)c6nc(c(-c7cccc(S(=O)(=O)[O-])c7F)c7ccc4[nH]7)C=C6)C=C5)cc3)cc2C)n1
REMARK SMILES IDX 22 1 21 2 20 3 19 4 18 5 17 6 16 7 14 8 15 9 13 10 10 11
REMARK SMILES IDX 11 12 95 13 12 14 94 15 96 16 8 17 9 18 7 19 6 20 1 21 2 22
REMARK SMILES IDX 3 23 97 24 4 25 5 26 23 27 24 28 25 29 26 30 27 31 28 32
REMARK SMILES IDX 29 33 30 34 31 35 32 36 93 37 33 38 92 39 34 40 35 41 36 42
REMARK SMILES IDX 86 43 37 44 91 45 85 46 87 47 38 48 90 49 84 50 83 51 39 53
REMARK SMILES IDX 71 54 51 55 70 56 52 57 55 58 69 59 88 60 53 61 54 62 68 64
REMARK SMILES IDX 89 65 56 66 40 67 41 68 49 69 42 70 44 71 50 72 43 73 45 74
REMARK SMILES IDX 46 75 47 76 48 77 72 78 73 79 81 80 74 81 76 82 82 83 75 84
REMARK SMILES IDX 77 85 78 86 79 87 80 88 57 89 58 90 66 91 59 92 61 93 67 94
REMARK SMILES IDX 60 95 62 96 63 97 64 98 65 99
REMARK H PARENT 87 52 55 63
REMARK Flexibility Score: inf
ROOT
ATOM      1  O   UNL     1       1.424   2.068   7.011  1.00  0.00    -0.377 OA
ENDROOT
BRANCH   1   2
ATOM      2  C   UNL     1       0.281   2.334   6.220  1.00  0.00     0.188 C 
BRANCH   2   3
ATOM      3  C   UNL     1      -0.569   3.515   6.703  1.00  0.00     0.188 C 
BRANCH   3   4
ATOM      4  O   UNL     1      -1.215   3.389   7.970  1.00  0.00    -0.376 OA
BRANCH   4   5
ATOM      5  C   UNL     1      -2.001   2.218   8.172  1.00  0.00     0.202 C 
BRANCH   5   6
ATOM      6  C   UNL     1      -3.380   2.284   7.590  1.00  0.00     0.261 C 
BRANCH   6   7
ATOM      7  O   UNL     1      -3.260   1.964   6.215  1.00  0.00    -0.460 OA
BRANCH   7   8
ATOM      8  C   UNL     1      -3.957   2.773   5.421  1.00  0.00     0.338 C 
ATOM      9  O   UNL     1      -4.873   3.536   5.702  1.00  0.00    -0.246 OA
BRANCH   8  10
ATOM     10  C   UNL     1      -3.153   2.895   4.216  1.00  0.00     0.060 A 
ATOM     11  C   UNL     1      -1.558   3.434   1.990  1.00  0.00     0.040 A 
ATOM     12  C   UNL     1      -1.613   2.147   2.569  1.00  0.00     0.027 A 
ATOM     13  C   UNL     1      -2.192   4.490   2.671  1.00  0.00    -0.027 A 
ATOM     14  C   UNL     1      -2.423   1.858   3.655  1.00  0.00     0.018 A 
ATOM     15  C   UNL     1      -2.985   4.200   3.777  1.00  0.00     0.021 A 
ATOM     16  C   UNL     1      -2.093   5.945   2.332  1.00  0.00     0.046 C 
BRANCH  11  17
ATOM     17  N   UNL     1      -0.984   3.580   0.739  1.00  0.00    -0.368 N 
ATOM     18  C   UNL     1       0.111   4.495   0.507  1.00  0.00     0.144 C 
BRANCH  17  19
ATOM     19  C   UNL     1      -1.469   2.717  -0.353  1.00  0.00     0.172 C 
BRANCH  19  20
ATOM     20  C   UNL     1      -0.878   1.311  -0.359  1.00  0.00     0.060 A 
ATOM     21  C   UNL     1       2.493  -0.131  -0.107  1.00  0.00     0.067 C 
ATOM     22  C   UNL     1       1.002  -0.054  -0.221  1.00  0.00     0.038 A 
ATOM     23  C   UNL     1       0.218  -1.197  -0.103  1.00  0.00     0.023 A 
ATOM     24  N   UNL     1       0.475   1.185  -0.374  1.00  0.00    -0.256 NA
ATOM     25  C   UNL     1      -1.165  -1.066  -0.141  1.00  0.00     0.004 A 
ATOM     26  C   UNL     1      -1.724   0.202  -0.268  1.00  0.00     0.026 A 
ENDBRANCH  19  20
ENDBRANCH  17  19
ENDBRANCH  11  17
ENDBRANCH   8  10
ENDBRANCH   7   8
ENDBRANCH   6   7
ENDBRANCH   5   6
ENDBRANCH   4   5
ENDBRANCH   3   4
ENDBRANCH   2   3
ENDBRANCH   1   2
BRANCH   1  27
ATOM     27  C   UNL     1       1.205   1.878   8.395  1.00  0.00     0.188 C 
BRANCH  27  28
ATOM     28  C   UNL     1       1.762   3.010   9.285  1.00  0.00     0.188 C 
BRANCH  28  29
ATOM     29  O   UNL     1       2.696   3.887   8.708  1.00  0.00    -0.376 OA
BRANCH  29  30
ATOM     30  C   UNL     1       3.679   3.213   7.958  1.00  0.00     0.202 C 
BRANCH  30  31
ATOM     31  C   UNL     1       4.145   1.756   8.290  1.00  0.00     0.261 C 
BRANCH  31  32
ATOM     32  O   UNL     1       3.945   0.914   9.544  1.00  0.00    -0.460 OA
BRANCH  32  33
ATOM     33  C   UNL     1       3.513   0.171  10.588  1.00  0.00     0.338 C 
ATOM     34  O   UNL     1       4.373  -0.460  11.211  1.00  0.00    -0.246 OA
BRANCH  33  35
ATOM     35  C   UNL     1       2.078  -0.106  10.971  1.00  0.00     0.060 A 
ATOM     36  C   UNL     1       1.622  -1.411  11.138  1.00  0.00     0.016 A 
ATOM     37  C   UNL     1       1.128   0.854  11.260  1.00  0.00     0.016 A 
ATOM     38  C   UNL     1       0.252  -1.726  11.003  1.00  0.00     0.010 A 
ATOM     39  C   UNL     1      -0.222   0.571  11.012  1.00  0.00     0.010 A 
ATOM     40  C   UNL     1      -0.644  -0.723  10.692  1.00  0.00    -0.014 A 
BRANCH  40  41
ATOM     41  C   UNL     1      -1.894  -0.915   9.901  1.00  0.00     0.031 A 
ATOM     42  C   UNL     1      -3.197  -0.278  10.364  1.00  0.00     0.074 A 
ATOM     43  C   UNL     1      -1.767  -1.268   8.581  1.00  0.00     0.049 A 
ATOM     44  N   UNL     1      -4.319  -0.273   9.713  1.00  0.00    -0.248 NA
ATOM     45  C   UNL     1      -3.321   0.469  11.614  1.00  0.00     0.031 C 
ATOM     46  C   UNL     1      -2.716  -0.866   7.545  1.00  0.00     0.029 A 
ATOM     47  N   UNL     1      -0.783  -1.903   7.803  1.00  0.00    -0.354 N 
ATOM     48  C   UNL     1      -5.127   0.745  10.209  1.00  0.00     0.074 A 
ATOM     49  C   UNL     1      -4.507   1.077  11.467  1.00  0.00     0.031 C 
ATOM     50  C   UNL     1      -2.259  -1.150   6.324  1.00  0.00     0.029 A 
ATOM     51  C   UNL     1      -1.306  -2.195   6.521  1.00  0.00     0.049 A 
ATOM     52  H   UNL     1       0.131  -2.112   8.104  1.00  0.00     0.167 HD
ATOM     53  C   UNL     1      -6.122   1.291   9.427  1.00  0.00     0.034 A 
ATOM     54  C   UNL     1      -1.591  -3.431   5.995  1.00  0.00     0.034 A 
ATOM     55  C   UNL     1      -6.290   0.555   8.129  1.00  0.00     0.049 A 
ATOM     56  C   UNL     1      -3.108  -3.743   5.897  1.00  0.00     0.074 A 
ATOM     57  C   UNL     1      -6.397   0.915   6.791  1.00  0.00     0.029 A 
ATOM     58  N   UNL     1      -6.252  -0.839   8.110  1.00  0.00    -0.354 N 
ATOM     59  N   UNL     1      -4.075  -2.858   5.995  1.00  0.00    -0.248 NA
ATOM     60  C   UNL     1      -3.661  -5.079   5.703  1.00  0.00     0.031 C 
ATOM     61  C   UNL     1      -6.307  -0.256   5.979  1.00  0.00     0.029 A 
ATOM     62  C   UNL     1      -6.264  -1.352   6.820  1.00  0.00     0.049 A 
ATOM     63  H   UNL     1      -6.220  -1.397   8.920  1.00  0.00     0.167 HD
ATOM     64  C   UNL     1      -5.295  -3.470   6.159  1.00  0.00     0.074 A 
ATOM     65  C   UNL     1      -4.983  -4.855   5.834  1.00  0.00     0.031 C 
ATOM     66  C   UNL     1      -6.410  -2.796   6.622  1.00  0.00     0.034 A 
BRANCH  53  67
ATOM     67  C   UNL     1      -6.889   2.628   9.690  1.00  0.00     0.023 A 
ATOM     68  C   UNL     1      -7.912   2.979   8.769  1.00  0.00     0.012 A 
ATOM     69  C   UNL     1      -6.672   3.596  10.712  1.00  0.00     0.148 A 
ATOM     70  C   UNL     1      -8.631   4.186   8.818  1.00  0.00     0.002 A 
ATOM     71  C   UNL     1      -7.444   4.774  10.807  1.00  0.00     0.091 A 
ATOM     72  F   UNL     1      -5.681   3.432  11.589  1.00  0.00    -0.205 F 
ATOM     73  C   UNL     1      -8.408   5.081   9.846  1.00  0.00     0.022 A 
BRANCH  71  74
ATOM     74  S   UNL     1      -7.289   5.970  12.158  1.00  0.00     0.127 S 
ATOM     75  O   UNL     1      -7.004   7.216  11.445  1.00  0.00    -0.237 OA
ATOM     76  O   UNL     1      -8.616   5.920  12.774  1.00  0.00    -0.237 OA
ATOM     77  O   UNL     1      -6.204   5.493  13.007  1.00  0.00    -0.744 OA
ENDBRANCH  71  74
ENDBRANCH  53  67
BRANCH  54  78
ATOM     78  C   UNL     1      -0.451  -4.378   6.094  1.00  0.00     0.023 A 
ATOM     79  C   UNL     1       0.657  -4.056   5.266  1.00  0.00     0.012 A 
ATOM     80  C   UNL     1      -0.232  -5.005   7.321  1.00  0.00     0.148 A 
ATOM     81  C   UNL     1       1.955  -4.106   5.774  1.00  0.00     0.002 A 
ATOM     82  C   UNL     1       1.051  -4.974   7.849  1.00  0.00     0.091 A 
ATOM     83  F   UNL     1      -1.292  -5.432   8.019  1.00  0.00    -0.205 F 
ATOM     84  C   UNL     1       2.139  -4.498   7.092  1.00  0.00     0.022 A 
BRANCH  82  85
ATOM     85  S   UNL     1       1.293  -5.052   9.623  1.00  0.00     0.127 S 
ATOM     86  O   UNL     1       1.945  -6.340   9.812  1.00  0.00    -0.237 OA
ATOM     87  O   UNL     1       2.157  -3.893   9.815  1.00  0.00    -0.237 OA
ATOM     88  O   UNL     1      -0.039  -4.916  10.194  1.00  0.00    -0.744 OA
ENDBRANCH  82  85
ENDBRANCH  54  78
BRANCH  66  89
ATOM     89  C   UNL     1      -7.779  -3.388   7.026  1.00  0.00     0.023 A 
ATOM     90  C   UNL     1      -8.086  -4.750   6.908  1.00  0.00     0.012 A 
ATOM     91  C   UNL     1      -8.815  -2.579   7.600  1.00  0.00     0.148 A 
ATOM     92  C   UNL     1      -9.297  -5.294   7.361  1.00  0.00     0.002 A 
ATOM     93  C   UNL     1      -9.986  -3.130   8.118  1.00  0.00     0.091 A 
ATOM     94  F   UNL     1      -8.714  -1.245   7.604  1.00  0.00    -0.205 F 
ATOM     95  C   UNL     1     -10.233  -4.492   7.994  1.00  0.00     0.022 A 
BRANCH  93  96
ATOM     96  S   UNL     1     -11.203  -2.153   9.018  1.00  0.00     0.127 S 
ATOM     97  O   UNL     1     -12.301  -2.091   8.054  1.00  0.00    -0.237 OA
ATOM     98  O   UNL     1     -11.464  -2.999  10.184  1.00  0.00    -0.237 OA
ATOM     99  O   UNL     1     -10.559  -0.885   9.326  1.00  0.00    -0.744 OA
ENDBRANCH  93  96
ENDBRANCH  66  89
ENDBRANCH  40  41
ENDBRANCH  33  35
ENDBRANCH  32  33
ENDBRANCH  31  32
ENDBRANCH  30  31
ENDBRANCH  29  30
ENDBRANCH  28  29
ENDBRANCH  27  28
ENDBRANCH   1  27
TORSDOF 26
