REMARK SMILES O=C(OCCOCCOCCOCCOC(=O)c1ccc(-c2c3nc(c(-c4cccc(S(=O)(=O)[O-])c4F)c4ccc([nH]4)c(-c4cccc(S(=O)(=O)[O-])c4F)c4nc(c(-c5cccc(S(=O)(=O)[O-])c5F)c5ccc2[nH]5)C=C4)C=C3)cc1)C1=Cc2cc(Cl)cc(-c3ccc(CO)cc3)c2O[C@@H]1C(F)(F)F
REMARK SMILES IDX 9 1 8 2 7 3 6 4 5 5 4 6 3 7 2 8 1 9 81 10 82 11 99 12 83 13
REMARK SMILES IDX 98 14 84 15 97 16 85 17 88 18 86 19 87 20 100 21 101 22
REMARK SMILES IDX 102 23 103 24 89 25 90 26 96 27 91 28 95 29 92 30 93 31
REMARK SMILES IDX 94 32 10 34 11 35 12 36 13 37 14 38 15 39 16 40 17 41 18 42
REMARK SMILES IDX 19 43 80 44 20 45 79 46 21 47 22 48 23 49 73 50 24 51 78 52
REMARK SMILES IDX 72 53 74 54 25 55 77 56 71 57 70 58 26 60 58 61 38 62 57 63
REMARK SMILES IDX 39 64 42 65 56 66 75 67 40 68 41 69 55 71 76 72 43 73 27 74
REMARK SMILES IDX 28 75 36 76 29 77 31 78 37 79 30 80 32 81 33 82 34 83 35 84
REMARK SMILES IDX 59 85 60 86 68 87 61 88 63 89 69 90 62 91 64 92 65 93 66 94
REMARK SMILES IDX 67 95 44 96 45 97 53 98 46 99 48 100 54 101 47 102 49 103
REMARK SMILES IDX 50 104 51 105 52 106
REMARK H PARENT 94 33 74 59 42 70
REMARK Flexibility Score: inf
ROOT
ATOM      1  O   UNL     1       2.354  -2.548   3.075  1.00  0.00    -0.377 OA
ENDROOT
BRANCH   1   2
ATOM      2  C   UNL     1       1.643  -1.895   2.063  1.00  0.00     0.188 C 
BRANCH   2   3
ATOM      3  C   UNL     1       2.183  -2.321   0.711  1.00  0.00     0.188 C 
BRANCH   3   4
ATOM      4  O   UNL     1       3.540  -2.079   0.211  1.00  0.00    -0.376 OA
BRANCH   4   5
ATOM      5  C   UNL     1       4.349  -0.822  -0.489  1.00  0.00     0.202 C 
BRANCH   5   6
ATOM      6  C   UNL     1       3.636   1.224  -0.769  1.00  0.00     0.261 C 
BRANCH   6   7
ATOM      7  O   UNL     1       2.754   1.724  -1.911  1.00  0.00    -0.460 OA
BRANCH   7   8
ATOM      8  C   UNL     1       2.982   1.075  -3.059  1.00  0.00     0.338 C 
ATOM      9  O   UNL     1       2.357   1.121  -4.089  1.00  0.00    -0.246 OA
BRANCH   8  10
ATOM     10  C   UNL     1       3.822   0.035  -2.495  1.00  0.00     0.087 C 
ATOM     11  C   UNL     1       5.192   0.448  -2.222  1.00  0.00     0.027 C 
ATOM     12  C   UNL     1       2.535  -0.458  -1.158  1.00  0.00     0.316 C 
ATOM     13  C   UNL     1       5.834   0.792  -0.580  1.00  0.00     0.019 A 
ATOM     14  O   UNL     1       3.156   0.036   0.635  1.00  0.00    -0.475 OA
ATOM     15  C   UNL     1       7.141   1.198  -0.509  1.00  0.00     0.032 A 
ATOM     16  C   UNL     1       4.846   0.753   0.858  1.00  0.00     0.135 A 
ATOM     17  C   UNL     1       7.583   1.568   0.761  1.00  0.00     0.042 A 
ATOM     18  C   UNL     1       5.366   1.247   2.067  1.00  0.00     0.026 A 
ATOM     19  Cl  UNL     1       9.248   2.022   0.916  1.00  0.00    -0.084 Cl
ATOM     20  C   UNL     1       6.756   1.607   1.944  1.00  0.00     0.033 A 
BRANCH  12  21
ATOM     21  C   UNL     1       2.305  -1.938  -2.001  1.00  0.00     0.430 C 
ATOM     22  F   UNL     1       1.464  -2.875  -1.527  1.00  0.00    -0.167 F 
ATOM     23  F   UNL     1       1.740  -1.601  -3.206  1.00  0.00    -0.167 F 
ATOM     24  F   UNL     1       3.454  -2.579  -2.342  1.00  0.00    -0.167 F 
ENDBRANCH  12  21
BRANCH  18  25
ATOM     25  C   UNL     1       4.812   1.419   3.418  1.00  0.00    -0.015 A 
ATOM     26  C   UNL     1       4.425   2.643   3.990  1.00  0.00     0.009 A 
ATOM     27  C   UNL     1       4.909   0.374   4.314  1.00  0.00     0.009 A 
ATOM     28  C   UNL     1       3.917   2.722   5.314  1.00  0.00     0.007 A 
ATOM     29  C   UNL     1       4.231   0.399   5.530  1.00  0.00     0.007 A 
ATOM     30  C   UNL     1       3.716   1.565   6.062  1.00  0.00    -0.023 A 
BRANCH  30  31
ATOM     31  C   UNL     1       2.985   1.511   7.379  1.00  0.00     0.191 C 
BRANCH  31  32
ATOM     32  O   UNL     1       3.717   2.032   8.469  1.00  0.00    -0.392 OA
ATOM     33  H   UNL     1       4.520   1.503   8.602  1.00  0.00     0.211 HD
ENDBRANCH  31  32
ENDBRANCH  30  31
ENDBRANCH  18  25
ENDBRANCH   8  10
ENDBRANCH   7   8
ENDBRANCH   6   7
ENDBRANCH   5   6
ENDBRANCH   4   5
ENDBRANCH   3   4
ENDBRANCH   2   3
ENDBRANCH   1   2
BRANCH   1  34
ATOM     34  C   UNL     1       3.633  -1.972   3.188  1.00  0.00     0.188 C 
BRANCH  34  35
ATOM     35  C   UNL     1       4.826  -2.845   2.829  1.00  0.00     0.188 C 
BRANCH  35  36
ATOM     36  O   UNL     1       4.504  -4.074   2.234  1.00  0.00    -0.376 OA
BRANCH  36  37
ATOM     37  C   UNL     1       3.897  -5.086   3.024  1.00  0.00     0.202 C 
BRANCH  37  38
ATOM     38  C   UNL     1       3.249  -4.853   4.408  1.00  0.00     0.261 C 
BRANCH  38  39
ATOM     39  O   UNL     1       3.889  -3.962   5.339  1.00  0.00    -0.460 OA
BRANCH  39  40
ATOM     40  C   UNL     1       5.173  -4.186   5.692  1.00  0.00     0.338 C 
ATOM     41  O   UNL     1       5.879  -5.110   5.335  1.00  0.00    -0.246 OA
BRANCH  40  42
ATOM     42  C   UNL     1       5.644  -2.973   6.418  1.00  0.00     0.060 A 
ATOM     43  C   UNL     1       6.827  -2.331   6.013  1.00  0.00     0.016 A 
ATOM     44  C   UNL     1       4.882  -2.428   7.453  1.00  0.00     0.016 A 
ATOM     45  C   UNL     1       7.273  -1.169   6.665  1.00  0.00     0.010 A 
ATOM     46  C   UNL     1       5.317  -1.257   8.088  1.00  0.00     0.010 A 
ATOM     47  C   UNL     1       6.543  -0.642   7.737  1.00  0.00    -0.014 A 
BRANCH  47  48
ATOM     48  C   UNL     1       7.158   0.325   8.695  1.00  0.00     0.031 A 
ATOM     49  C   UNL     1       7.488  -0.230  10.062  1.00  0.00     0.074 A 
ATOM     50  C   UNL     1       7.381   1.634   8.445  1.00  0.00     0.049 A 
ATOM     51  N   UNL     1       7.967   0.375  11.114  1.00  0.00    -0.248 NA
ATOM     52  C   UNL     1       7.191  -1.660  10.280  1.00  0.00     0.031 C 
ATOM     53  C   UNL     1       7.094   2.339   7.197  1.00  0.00     0.029 A 
ATOM     54  N   UNL     1       7.864   2.627   9.272  1.00  0.00    -0.354 N 
ATOM     55  C   UNL     1       7.989  -0.592  12.111  1.00  0.00     0.074 A 
ATOM     56  C   UNL     1       7.364  -1.777  11.581  1.00  0.00     0.031 C 
ATOM     57  C   UNL     1       7.353   3.652   7.357  1.00  0.00     0.029 A 
ATOM     58  C   UNL     1       7.856   3.887   8.709  1.00  0.00     0.049 A 
ATOM     59  H   UNL     1       8.186   2.452  10.185  1.00  0.00     0.167 HD
ATOM     60  C   UNL     1       8.547  -0.542  13.339  1.00  0.00     0.034 A 
ATOM     61  C   UNL     1       8.229   5.082   9.220  1.00  0.00     0.034 A 
ATOM     62  C   UNL     1       9.205   0.612  13.865  1.00  0.00     0.049 A 
ATOM     63  C   UNL     1       8.832   5.133  10.608  1.00  0.00     0.074 A 
ATOM     64  C   UNL     1       9.883   0.744  15.060  1.00  0.00     0.029 A 
ATOM     65  N   UNL     1       9.244   1.843  13.234  1.00  0.00    -0.354 N 
ATOM     66  N   UNL     1       9.013   4.160  11.469  1.00  0.00    -0.248 NA
ATOM     67  C   UNL     1       9.352   6.433  11.065  1.00  0.00     0.031 C 
ATOM     68  C   UNL     1      10.281   2.078  15.182  1.00  0.00     0.029 A 
ATOM     69  C   UNL     1       9.920   2.751  14.025  1.00  0.00     0.049 A 
ATOM     70  H   UNL     1       8.848   2.042  12.355  1.00  0.00     0.167 HD
ATOM     71  C   UNL     1       9.731   4.712  12.528  1.00  0.00     0.074 A 
ATOM     72  C   UNL     1       9.951   6.104  12.201  1.00  0.00     0.031 C 
ATOM     73  C   UNL     1      10.180   4.118  13.662  1.00  0.00     0.034 A 
BRANCH  60  74
ATOM     74  C   UNL     1       8.484  -1.796  14.166  1.00  0.00     0.023 A 
ATOM     75  C   UNL     1       9.178  -2.955  13.753  1.00  0.00     0.012 A 
ATOM     76  C   UNL     1       7.719  -1.830  15.343  1.00  0.00     0.148 A 
ATOM     77  C   UNL     1       9.058  -4.146  14.465  1.00  0.00     0.002 A 
ATOM     78  C   UNL     1       7.658  -3.001  16.084  1.00  0.00     0.091 A 
ATOM     79  F   UNL     1       7.047  -0.727  15.701  1.00  0.00    -0.205 F 
ATOM     80  C   UNL     1       8.307  -4.165  15.636  1.00  0.00     0.022 A 
BRANCH  78  81
ATOM     81  S   UNL     1       6.791  -3.104  17.650  1.00  0.00     0.127 S 
ATOM     82  O   UNL     1       5.726  -4.055  17.334  1.00  0.00    -0.237 OA
ATOM     83  O   UNL     1       7.833  -3.625  18.535  1.00  0.00    -0.237 OA
ATOM     84  O   UNL     1       6.346  -1.753  17.957  1.00  0.00    -0.744 OA
ENDBRANCH  78  81
ENDBRANCH  60  74
BRANCH  61  85
ATOM     85  C   UNL     1       8.158   6.336   8.402  1.00  0.00     0.023 A 
ATOM     86  C   UNL     1       9.354   6.951   7.973  1.00  0.00     0.012 A 
ATOM     87  C   UNL     1       6.930   6.955   8.097  1.00  0.00     0.148 A 
ATOM     88  C   UNL     1       9.334   8.179   7.309  1.00  0.00     0.002 A 
ATOM     89  C   UNL     1       6.914   8.157   7.392  1.00  0.00     0.091 A 
ATOM     90  F   UNL     1       5.802   6.363   8.512  1.00  0.00    -0.205 F 
ATOM     91  C   UNL     1       8.114   8.781   7.016  1.00  0.00     0.022 A 
BRANCH  89  92
ATOM     92  S   UNL     1       5.396   8.973   6.881  1.00  0.00     0.127 S 
ATOM     93  O   UNL     1       5.477  10.241   7.602  1.00  0.00    -0.237 OA
ATOM     94  O   UNL     1       5.587   9.073   5.434  1.00  0.00    -0.237 OA
ATOM     95  O   UNL     1       4.313   8.089   7.289  1.00  0.00    -0.744 OA
ENDBRANCH  89  92
ENDBRANCH  61  85
BRANCH  73  96
ATOM     96  C   UNL     1      11.043   4.924  14.598  1.00  0.00     0.023 A 
ATOM     97  C   UNL     1      10.508   5.993  15.339  1.00  0.00     0.012 A 
ATOM     98  C   UNL     1      12.390   4.552  14.795  1.00  0.00     0.148 A 
ATOM     99  C   UNL     1      11.311   6.710  16.226  1.00  0.00     0.002 A 
ATOM    100  C   UNL     1      13.165   5.228  15.726  1.00  0.00     0.091 A 
ATOM    101  F   UNL     1      12.886   3.537  14.071  1.00  0.00    -0.205 F 
ATOM    102  C   UNL     1      12.634   6.320  16.428  1.00  0.00     0.022 A 
BRANCH 100 103
ATOM    103  S   UNL     1      14.839   4.719  16.131  1.00  0.00     0.127 S 
ATOM    104  O   UNL     1      15.628   5.801  15.545  1.00  0.00    -0.237 OA
ATOM    105  O   UNL     1      14.811   4.707  17.594  1.00  0.00    -0.237 OA
ATOM    106  O   UNL     1      15.024   3.410  15.519  1.00  0.00    -0.744 OA
ENDBRANCH 100 103
ENDBRANCH  73  96
ENDBRANCH  47  48
ENDBRANCH  40  42
ENDBRANCH  39  40
ENDBRANCH  38  39
ENDBRANCH  37  38
ENDBRANCH  36  37
ENDBRANCH  35  36
ENDBRANCH  34  35
ENDBRANCH   1  34
TORSDOF 27
