REMARK SMILES Cc1c(Br)c(C)c2c(c1Br)O[C@H](C(F)(F)F)C(C(=O)OCCOCCOCCOCCOC(=O)c1ccc(-c3c4nc(c(-c5cccc(S(=O)(=O)[O-])c5F)c5ccc([nH]5)c(-c5cccc(S(=O)(=O)[O-])c5F)c5nc(c(-c6cccc(S(=O)(=O)[O-])c6F)c6ccc3[nH]6)C=C5)C=C4)cc1)=C2
REMARK SMILES IDX 27 1 26 2 25 3 24 4 23 5 22 6 21 7 20 8 18 9 19 10 17 11
REMARK SMILES IDX 1 12 2 13 3 14 9 15 4 16 5 17 8 18 10 19 6 20 7 21 11 22
REMARK SMILES IDX 98 23 12 24 13 25 14 26 15 27 16 28 28 29 29 30 30 31 31 32
REMARK SMILES IDX 32 33 33 34 34 35 35 36 36 37 97 38 37 39 96 40 38 41 39 42
REMARK SMILES IDX 40 43 90 44 41 45 95 46 89 47 91 48 42 49 94 50 88 51 87 52
REMARK SMILES IDX 43 54 75 55 55 56 74 57 56 58 59 59 73 60 92 61 57 62 58 63
REMARK SMILES IDX 72 65 93 66 60 67 44 68 45 69 53 70 46 71 48 72 54 73 47 74
REMARK SMILES IDX 49 75 50 76 51 77 52 78 76 79 77 80 85 81 78 82 80 83 86 84
REMARK SMILES IDX 79 85 81 86 82 87 83 88 84 89 61 90 62 91 70 92 63 93 65 94
REMARK SMILES IDX 71 95 64 96 66 97 67 98 68 99 69 100
REMARK H PARENT 91 53 59 64
REMARK Flexibility Score: inf
ROOT
ATOM      1  C   UNL     1      -1.113   7.508   7.076  1.00  0.00     0.188 C 
ENDROOT
BRANCH   1   2
ATOM      2  O   UNL     1      -1.365   6.716   5.914  1.00  0.00    -0.377 OA
BRANCH   2   3
ATOM      3  C   UNL     1      -0.343   6.625   4.936  1.00  0.00     0.188 C 
BRANCH   3   4
ATOM      4  C   UNL     1      -0.329   7.823   3.968  1.00  0.00     0.188 C 
BRANCH   4   5
ATOM      5  O   UNL     1      -1.017   8.959   4.458  1.00  0.00    -0.376 OA
BRANCH   5   6
ATOM      6  C   UNL     1      -2.399   9.155   4.201  1.00  0.00     0.202 C 
BRANCH   6   7
ATOM      7  C   UNL     1      -3.454   8.031   4.151  1.00  0.00     0.261 C 
BRANCH   7   8
ATOM      8  O   UNL     1      -3.018   6.735   3.741  1.00  0.00    -0.460 OA
BRANCH   8   9
ATOM      9  C   UNL     1      -2.838   6.516   2.429  1.00  0.00     0.338 C 
ATOM     10  O   UNL     1      -3.014   7.307   1.519  1.00  0.00    -0.246 OA
BRANCH   9  11
ATOM     11  C   UNL     1      -2.184   5.194   2.289  1.00  0.00     0.087 C 
ATOM     12  C   UNL     1       1.016  -0.099   0.238  1.00  0.00     0.047 C 
ATOM     13  C   UNL     1       0.569   1.272   0.689  1.00  0.00    -0.019 A 
ATOM     14  C   UNL     1       1.150   2.433   0.118  1.00  0.00     0.025 A 
ATOM     15  C   UNL     1      -0.470   1.443   1.626  1.00  0.00     0.064 A 
ATOM     16  Br  UNL     1       2.553   2.222  -1.179  1.00  0.00    -0.050 Br
ATOM     17  C   UNL     1       0.689   3.731   0.445  1.00  0.00    -0.026 A 
ATOM     18  C   UNL     1      -0.969   2.724   1.928  1.00  0.00     0.142 A 
ATOM     19  Br  UNL     1      -1.291  -0.061   2.487  1.00  0.00    -0.046 Br
ATOM     20  C   UNL     1       1.354   4.987  -0.077  1.00  0.00     0.046 C 
ATOM     21  C   UNL     1      -0.433   3.855   1.300  1.00  0.00     0.022 A 
ATOM     22  O   UNL     1      -1.981   2.792   2.847  1.00  0.00    -0.474 OA
ATOM     23  C   UNL     1      -1.112   5.136   1.492  1.00  0.00     0.027 C 
ATOM     24  C   UNL     1      -2.691   4.031   3.091  1.00  0.00     0.316 C 
BRANCH  24  25
ATOM     25  C   UNL     1      -4.188   3.780   2.864  1.00  0.00     0.430 C 
ATOM     26  F   UNL     1      -4.612   2.681   3.527  1.00  0.00    -0.167 F 
ATOM     27  F   UNL     1      -4.943   4.820   3.281  1.00  0.00    -0.167 F 
ATOM     28  F   UNL     1      -4.456   3.590   1.548  1.00  0.00    -0.167 F 
ENDBRANCH  24  25
ENDBRANCH   9  11
ENDBRANCH   8   9
ENDBRANCH   7   8
ENDBRANCH   6   7
ENDBRANCH   5   6
ENDBRANCH   4   5
ENDBRANCH   3   4
ENDBRANCH   2   3
ENDBRANCH   1   2
BRANCH   1  29
ATOM     29  C   UNL     1      -0.043   8.626   7.083  1.00  0.00     0.188 C 
BRANCH  29  30
ATOM     30  O   UNL     1       1.171   8.286   6.420  1.00  0.00    -0.376 OA
BRANCH  30  31
ATOM     31  C   UNL     1       2.305   8.000   7.224  1.00  0.00     0.202 C 
BRANCH  31  32
ATOM     32  C   UNL     1       2.252   6.680   8.003  1.00  0.00     0.261 C 
BRANCH  32  33
ATOM     33  O   UNL     1       1.162   6.548   8.927  1.00  0.00    -0.460 OA
BRANCH  33  34
ATOM     34  C   UNL     1       1.090   7.440   9.939  1.00  0.00     0.338 C 
ATOM     35  O   UNL     1       1.880   8.336  10.186  1.00  0.00    -0.246 OA
BRANCH  34  36
ATOM     36  C   UNL     1      -0.228   7.272  10.582  1.00  0.00     0.060 A 
ATOM     37  C   UNL     1      -1.116   8.355  10.608  1.00  0.00     0.016 A 
ATOM     38  C   UNL     1      -0.591   6.042  11.136  1.00  0.00     0.016 A 
ATOM     39  C   UNL     1      -2.362   8.218  11.220  1.00  0.00     0.010 A 
ATOM     40  C   UNL     1      -1.828   5.913  11.769  1.00  0.00     0.010 A 
ATOM     41  C   UNL     1      -2.704   7.011  11.844  1.00  0.00    -0.014 A 
BRANCH  41  42
ATOM     42  C   UNL     1      -3.872   6.961  12.754  1.00  0.00     0.031 A 
ATOM     43  C   UNL     1      -3.628   7.163  14.225  1.00  0.00     0.074 A 
ATOM     44  C   UNL     1      -5.117   6.752  12.293  1.00  0.00     0.049 A 
ATOM     45  N   UNL     1      -4.479   7.141  15.216  1.00  0.00    -0.248 NA
ATOM     46  C   UNL     1      -2.237   7.430  14.632  1.00  0.00     0.031 C 
ATOM     47  C   UNL     1      -5.480   6.565  10.890  1.00  0.00     0.029 A 
ATOM     48  N   UNL     1      -6.309   6.647  12.968  1.00  0.00    -0.354 N 
ATOM     49  C   UNL     1      -3.728   7.375  16.361  1.00  0.00     0.074 A 
ATOM     50  C   UNL     1      -2.350   7.516  15.948  1.00  0.00     0.031 C 
ATOM     51  C   UNL     1      -6.806   6.351  10.809  1.00  0.00     0.029 A 
ATOM     52  C   UNL     1      -7.380   6.359  12.155  1.00  0.00     0.049 A 
ATOM     53  H   UNL     1      -6.389   6.767  13.941  1.00  0.00     0.167 HD
ATOM     54  C   UNL     1      -4.151   7.487  17.641  1.00  0.00     0.034 A 
ATOM     55  C   UNL     1      -8.670   6.117  12.466  1.00  0.00     0.034 A 
ATOM     56  C   UNL     1      -5.522   7.357  18.048  1.00  0.00     0.049 A 
ATOM     57  C   UNL     1      -9.106   6.187  13.909  1.00  0.00     0.074 A 
ATOM     58  C   UNL     1      -6.052   7.474  19.320  1.00  0.00     0.029 A 
ATOM     59  N   UNL     1      -6.578   7.073  17.197  1.00  0.00    -0.354 N 
ATOM     60  N   UNL     1      -8.404   6.506  14.970  1.00  0.00    -0.248 NA
ATOM     61  C   UNL     1     -10.518   5.889  14.197  1.00  0.00     0.031 C 
ATOM     62  C   UNL     1      -7.425   7.230  19.243  1.00  0.00     0.029 A 
ATOM     63  C   UNL     1      -7.757   6.997  17.917  1.00  0.00     0.049 A 
ATOM     64  H   UNL     1      -6.501   6.944  16.224  1.00  0.00     0.167 HD
ATOM     65  C   UNL     1      -9.292   6.481  16.042  1.00  0.00     0.074 A 
ATOM     66  C   UNL     1     -10.589   6.136  15.499  1.00  0.00     0.031 C 
ATOM     67  C   UNL     1      -9.052   6.707  17.358  1.00  0.00     0.034 A 
BRANCH  54  68
ATOM     68  C   UNL     1      -3.125   7.801  18.697  1.00  0.00     0.023 A 
ATOM     69  C   UNL     1      -2.572   9.096  18.762  1.00  0.00     0.012 A 
ATOM     70  C   UNL     1      -2.774   6.847  19.672  1.00  0.00     0.148 A 
ATOM     71  C   UNL     1      -1.671   9.432  19.771  1.00  0.00     0.002 A 
ATOM     72  C   UNL     1      -1.912   7.205  20.702  1.00  0.00     0.091 A 
ATOM     73  F   UNL     1      -3.293   5.615  19.576  1.00  0.00    -0.205 F 
ATOM     74  C   UNL     1      -1.353   8.492  20.747  1.00  0.00     0.022 A 
BRANCH  72  75
ATOM     75  S   UNL     1      -1.504   6.097  22.056  1.00  0.00     0.127 S 
ATOM     76  O   UNL     1      -0.076   5.873  21.833  1.00  0.00    -0.237 OA
ATOM     77  O   UNL     1      -1.818   6.918  23.225  1.00  0.00    -0.237 OA
ATOM     78  O   UNL     1      -2.349   4.923  21.887  1.00  0.00    -0.744 OA
ENDBRANCH  72  75
ENDBRANCH  54  68
BRANCH  55  79
ATOM     79  C   UNL     1      -9.658   5.830  11.385  1.00  0.00     0.023 A 
ATOM     80  C   UNL     1     -10.677   6.763  11.113  1.00  0.00     0.012 A 
ATOM     81  C   UNL     1      -9.582   4.655  10.611  1.00  0.00     0.148 A 
ATOM     82  C   UNL     1     -11.615   6.523  10.107  1.00  0.00     0.002 A 
ATOM     83  C   UNL     1     -10.484   4.448   9.573  1.00  0.00     0.091 A 
ATOM     84  F   UNL     1      -8.618   3.768  10.898  1.00  0.00    -0.205 F 
ATOM     85  C   UNL     1     -11.512   5.372   9.331  1.00  0.00     0.022 A 
BRANCH  83  86
ATOM     86  S   UNL     1     -10.351   3.064   8.436  1.00  0.00     0.127 S 
ATOM     87  O   UNL     1     -11.560   2.305   8.746  1.00  0.00    -0.237 OA
ATOM     88  O   UNL     1     -10.364   3.742   7.140  1.00  0.00    -0.237 OA
ATOM     89  O   UNL     1      -9.094   2.405   8.761  1.00  0.00    -0.744 OA
ENDBRANCH  83  86
ENDBRANCH  55  79
BRANCH  67  90
ATOM     90  C   UNL     1     -10.209   6.615  18.322  1.00  0.00     0.023 A 
ATOM     91  C   UNL     1     -10.751   5.355  18.644  1.00  0.00     0.012 A 
ATOM     92  C   UNL     1     -10.669   7.760  19.005  1.00  0.00     0.148 A 
ATOM     93  C   UNL     1     -11.746   5.238  19.613  1.00  0.00     0.002 A 
ATOM     94  C   UNL     1     -11.623   7.629  20.008  1.00  0.00     0.091 A 
ATOM     95  F   UNL     1     -10.149   8.952  18.676  1.00  0.00    -0.205 F 
ATOM     96  C   UNL     1     -12.171   6.371  20.305  1.00  0.00     0.022 A 
BRANCH  94  97
ATOM     97  S   UNL     1     -12.151   9.010  21.029  1.00  0.00     0.127 S 
ATOM     98  O   UNL     1     -13.536   9.189  20.595  1.00  0.00    -0.237 OA
ATOM     99  O   UNL     1     -12.001   8.469  22.381  1.00  0.00    -0.237 OA
ATOM    100  O   UNL     1     -11.254  10.113  20.714  1.00  0.00    -0.744 OA
ENDBRANCH  94  97
ENDBRANCH  67  90
ENDBRANCH  41  42
ENDBRANCH  34  36
ENDBRANCH  33  34
ENDBRANCH  32  33
ENDBRANCH  31  32
ENDBRANCH  30  31
ENDBRANCH  29  30
ENDBRANCH   1  29
TORSDOF 24
