REMARK SMILES O=C(CC[N@H+]1CCC[C@@H](C(=O)OCCOCCOCCOCCOC(=O)c2ccc(-c3c4nc(c(-c5cccc(S(=O)(=O)[O-])c5F)c5ccc([nH]5)c(-c5cccc(S(=O)(=O)[O-])c5F)c5nc(c(-c6cccc(S(=O)(=O)[O-])c6F)c6ccc3[nH]6)C=C5)C=C4)cc2)C1)Nc1cccc(F)c1
REMARK SMILES IDX 17 1 16 2 15 3 14 4 13 5 12 6 10 7 11 8 9 9 5 10 6 11 90 12
REMARK SMILES IDX 7 14 8 15 4 16 3 17 2 18 1 19 91 20 92 22 93 23 98 24 94 25
REMARK SMILES IDX 96 26 95 27 97 28 18 29 19 30 20 31 21 32 22 33 23 34 24 35
REMARK SMILES IDX 25 36 26 37 27 38 28 39 89 40 29 41 88 42 30 43 31 44 32 45
REMARK SMILES IDX 82 46 33 47 87 48 81 49 83 50 34 51 86 52 80 53 79 54 35 56
REMARK SMILES IDX 67 57 47 58 66 59 48 60 51 61 65 62 84 63 49 64 50 65 64 67
REMARK SMILES IDX 85 68 52 69 36 70 37 71 45 72 38 73 40 74 46 75 39 76 41 77
REMARK SMILES IDX 42 78 43 79 44 80 68 81 69 82 77 83 70 84 72 85 78 86 71 87
REMARK SMILES IDX 73 88 74 89 75 90 76 91 53 92 54 93 62 94 55 95 57 96 63 97
REMARK SMILES IDX 56 98 58 99 59 100 60 101 61 102
REMARK H PARENT 5 13 91 21 83 55 51 66
REMARK Flexibility Score: inf
ROOT
ATOM      1  C   UNL     1       6.109   3.977  -3.307  1.00  0.00     0.188 C 
ENDROOT
BRANCH   1   2
ATOM      2  C   UNL     1       5.001   4.941  -2.801  1.00  0.00     0.188 C 
BRANCH   2   3
ATOM      3  O   UNL     1       5.357   6.306  -2.808  1.00  0.00    -0.376 OA
BRANCH   3   4
ATOM      4  C   UNL     1       5.703   6.928  -1.587  1.00  0.00     0.202 C 
BRANCH   4   5
ATOM      5  C   UNL     1       6.756   6.290  -0.668  1.00  0.00     0.261 C 
BRANCH   5   6
ATOM      6  O   UNL     1       6.748   4.858  -0.563  1.00  0.00    -0.463 OA
BRANCH   6   7
ATOM      7  C   UNL     1       5.857   4.274   0.271  1.00  0.00     0.314 C 
ATOM      8  O   UNL     1       4.988   4.878   0.887  1.00  0.00    -0.252 OA
BRANCH   7   9
ATOM      9  C   UNL     1       5.975   2.752   0.268  1.00  0.00     0.154 C 
ATOM     10  N   UNL     1       4.931   0.645  -0.610  1.00  0.00    -0.334 N 
ATOM     11  C   UNL     1       6.274   0.146  -0.984  1.00  0.00     0.262 C 
ATOM     12  C   UNL     1       4.916   2.123  -0.656  1.00  0.00     0.277 C 
ATOM     13  H   UNL     1       4.712   0.349   0.341  1.00  0.00     0.348 HD
ATOM     14  C   UNL     1       7.357   0.691  -0.051  1.00  0.00     0.062 C 
ATOM     15  C   UNL     1       7.375   2.217  -0.041  1.00  0.00     0.027 C 
BRANCH  10  16
ATOM     16  C   UNL     1       3.902   0.074  -1.522  1.00  0.00     0.272 C 
BRANCH  16  17
ATOM     17  C   UNL     1       3.026  -0.949  -0.790  1.00  0.00     0.161 C 
BRANCH  17  18
ATOM     18  C   UNL     1       2.053  -0.318   0.198  1.00  0.00     0.230 C 
ATOM     19  O   UNL     1       0.861  -0.608   0.187  1.00  0.00    -0.275 OA
ATOM     20  N   UNL     1       2.667   0.567   1.060  1.00  0.00    -0.326 N 
ATOM     21  H   UNL     1       3.639   0.671   0.948  1.00  0.00     0.169 HD
BRANCH  20  22
ATOM     22  C   UNL     1       2.081   1.336   2.075  1.00  0.00     0.044 A 
ATOM     23  C   UNL     1       2.762   2.491   2.486  1.00  0.00     0.026 A 
ATOM     24  C   UNL     1       0.888   0.995   2.701  1.00  0.00     0.065 A 
ATOM     25  C   UNL     1       2.256   3.308   3.497  1.00  0.00     0.005 A 
ATOM     26  C   UNL     1       0.410   1.791   3.738  1.00  0.00     0.125 A 
ATOM     27  C   UNL     1       1.078   2.946   4.138  1.00  0.00     0.039 A 
ATOM     28  F   UNL     1      -0.710   1.433   4.380  1.00  0.00    -0.207 F 
ENDBRANCH  20  22
ENDBRANCH  17  18
ENDBRANCH  16  17
ENDBRANCH  10  16
ENDBRANCH   7   9
ENDBRANCH   6   7
ENDBRANCH   5   6
ENDBRANCH   4   5
ENDBRANCH   3   4
ENDBRANCH   2   3
ENDBRANCH   1   2
BRANCH   1  29
ATOM     29  O   UNL     1       7.288   4.406  -3.964  1.00  0.00    -0.377 OA
BRANCH  29  30
ATOM     30  C   UNL     1       7.332   5.702  -4.522  1.00  0.00     0.188 C 
BRANCH  30  31
ATOM     31  C   UNL     1       6.227   6.053  -5.536  1.00  0.00     0.188 C 
BRANCH  31  32
ATOM     32  O   UNL     1       5.129   5.150  -5.528  1.00  0.00    -0.376 OA
BRANCH  32  33
ATOM     33  C   UNL     1       4.983   4.269  -6.628  1.00  0.00     0.202 C 
BRANCH  33  34
ATOM     34  C   UNL     1       6.065   3.204  -6.870  1.00  0.00     0.261 C 
BRANCH  34  35
ATOM     35  O   UNL     1       7.424   3.653  -6.847  1.00  0.00    -0.460 OA
BRANCH  35  36
ATOM     36  C   UNL     1       7.820   4.460  -7.857  1.00  0.00     0.338 C 
ATOM     37  O   UNL     1       7.149   4.854  -8.785  1.00  0.00    -0.246 OA
BRANCH  36  38
ATOM     38  C   UNL     1       9.175   4.948  -7.516  1.00  0.00     0.060 A 
ATOM     39  C   UNL     1       9.371   6.324  -7.338  1.00  0.00     0.016 A 
ATOM     40  C   UNL     1      10.230   4.051  -7.340  1.00  0.00     0.016 A 
ATOM     41  C   UNL     1      10.630   6.809  -6.988  1.00  0.00     0.010 A 
ATOM     42  C   UNL     1      11.500   4.541  -7.029  1.00  0.00     0.010 A 
ATOM     43  C   UNL     1      11.708   5.923  -6.880  1.00  0.00    -0.014 A 
BRANCH  43  44
ATOM     44  C   UNL     1      13.085   6.465  -6.835  1.00  0.00     0.031 A 
ATOM     45  C   UNL     1      13.838   6.573  -8.130  1.00  0.00     0.074 A 
ATOM     46  C   UNL     1      13.650   6.859  -5.680  1.00  0.00     0.049 A 
ATOM     47  N   UNL     1      15.057   6.987  -8.349  1.00  0.00    -0.248 NA
ATOM     48  C   UNL     1      13.116   6.154  -9.345  1.00  0.00     0.031 C 
ATOM     49  C   UNL     1      13.011   6.817  -4.367  1.00  0.00     0.029 A 
ATOM     50  N   UNL     1      14.906   7.352  -5.432  1.00  0.00    -0.354 N 
ATOM     51  C   UNL     1      15.260   6.851  -9.716  1.00  0.00     0.074 A 
ATOM     52  C   UNL     1      14.043   6.307 -10.277  1.00  0.00     0.031 C 
ATOM     53  C   UNL     1      13.893   7.237  -3.442  1.00  0.00     0.029 A 
ATOM     54  C   UNL     1      15.164   7.549  -4.096  1.00  0.00     0.049 A 
ATOM     55  H   UNL     1      15.560   7.546  -6.142  1.00  0.00     0.167 HD
ATOM     56  C   UNL     1      16.358   7.160 -10.443  1.00  0.00     0.034 A 
ATOM     57  C   UNL     1      16.305   7.912  -3.476  1.00  0.00     0.034 A 
ATOM     58  C   UNL     1      17.564   7.702  -9.882  1.00  0.00     0.049 A 
ATOM     59  C   UNL     1      17.529   8.210  -4.304  1.00  0.00     0.074 A 
ATOM     60  C   UNL     1      18.719   8.088 -10.539  1.00  0.00     0.029 A 
ATOM     61  N   UNL     1      17.781   7.913  -8.530  1.00  0.00    -0.354 N 
ATOM     62  N   UNL     1      17.674   8.185  -5.608  1.00  0.00    -0.248 NA
ATOM     63  C   UNL     1      18.741   8.618  -3.577  1.00  0.00     0.031 C 
ATOM     64  C   UNL     1      19.651   8.491  -9.577  1.00  0.00     0.029 A 
ATOM     65  C   UNL     1      19.059   8.405  -8.327  1.00  0.00     0.049 A 
ATOM     66  H   UNL     1      17.124   7.739  -7.818  1.00  0.00     0.167 HD
ATOM     67  C   UNL     1      18.975   8.610  -5.858  1.00  0.00     0.074 A 
ATOM     68  C   UNL     1      19.571   8.904  -4.571  1.00  0.00     0.031 C 
ATOM     69  C   UNL     1      19.623   8.736  -7.043  1.00  0.00     0.034 A 
BRANCH  56  70
ATOM     70  C   UNL     1      16.301   6.915 -11.927  1.00  0.00     0.023 A 
ATOM     71  C   UNL     1      15.493   7.729 -12.746  1.00  0.00     0.012 A 
ATOM     72  C   UNL     1      17.081   5.900 -12.515  1.00  0.00     0.148 A 
ATOM     73  C   UNL     1      15.434   7.514 -14.123  1.00  0.00     0.002 A 
ATOM     74  C   UNL     1      17.057   5.725 -13.893  1.00  0.00     0.091 A 
ATOM     75  F   UNL     1      17.823   5.120 -11.716  1.00  0.00    -0.205 F 
ATOM     76  C   UNL     1      16.224   6.521 -14.696  1.00  0.00     0.022 A 
BRANCH  74  77
ATOM     77  S   UNL     1      18.097   4.528 -14.734  1.00  0.00     0.127 S 
ATOM     78  O   UNL     1      17.108   3.563 -15.213  1.00  0.00    -0.237 OA
ATOM     79  O   UNL     1      18.712   5.342 -15.783  1.00  0.00    -0.237 OA
ATOM     80  O   UNL     1      19.024   4.023 -13.732  1.00  0.00    -0.744 OA
ENDBRANCH  74  77
ENDBRANCH  56  70
BRANCH  57  81
ATOM     81  C   UNL     1      16.345   8.028  -1.990  1.00  0.00     0.023 A 
ATOM     82  C   UNL     1      16.512   9.293  -1.392  1.00  0.00     0.012 A 
ATOM     83  C   UNL     1      16.217   6.892  -1.168  1.00  0.00     0.148 A 
ATOM     84  C   UNL     1      16.587   9.418  -0.004  1.00  0.00     0.002 A 
ATOM     85  C   UNL     1      16.233   7.031   0.215  1.00  0.00     0.091 A 
ATOM     86  F   UNL     1      16.075   5.696  -1.756  1.00  0.00    -0.205 F 
ATOM     87  C   UNL     1      16.438   8.290   0.799  1.00  0.00     0.022 A 
BRANCH  85  88
ATOM     88  S   UNL     1      15.924   5.656   1.328  1.00  0.00     0.127 S 
ATOM     89  O   UNL     1      17.219   5.507   1.987  1.00  0.00    -0.237 OA
ATOM     90  O   UNL     1      14.858   6.192   2.174  1.00  0.00    -0.237 OA
ATOM     91  O   UNL     1      15.517   4.544   0.480  1.00  0.00    -0.744 OA
ENDBRANCH  85  88
ENDBRANCH  57  81
BRANCH  69  92
ATOM     92  C   UNL     1      21.037   9.260  -7.020  1.00  0.00     0.023 A 
ATOM     93  C   UNL     1      22.081   8.459  -6.517  1.00  0.00     0.012 A 
ATOM     94  C   UNL     1      21.338  10.523  -7.570  1.00  0.00     0.148 A 
ATOM     95  C   UNL     1      23.397   8.922  -6.526  1.00  0.00     0.002 A 
ATOM     96  C   UNL     1      22.658  10.954  -7.626  1.00  0.00     0.091 A 
ATOM     97  F   UNL     1      20.330  11.276  -8.031  1.00  0.00    -0.205 F 
ATOM     98  C   UNL     1      23.686  10.163  -7.091  1.00  0.00     0.022 A 
BRANCH  96  99
ATOM     99  S   UNL     1      23.137  12.491  -8.424  1.00  0.00     0.127 S 
ATOM    100  O   UNL     1      23.538  13.308  -7.279  1.00  0.00    -0.237 OA
ATOM    101  O   UNL     1      24.241  12.060  -9.283  1.00  0.00    -0.237 OA
ATOM    102  O   UNL     1      21.959  12.958  -9.141  1.00  0.00    -0.744 OA
ENDBRANCH  96  99
ENDBRANCH  69  92
ENDBRANCH  43  44
ENDBRANCH  36  38
ENDBRANCH  35  36
ENDBRANCH  34  35
ENDBRANCH  33  34
ENDBRANCH  32  33
ENDBRANCH  31  32
ENDBRANCH  30  31
ENDBRANCH  29  30
ENDBRANCH   1  29
TORSDOF 27
