REMARK SMILES O=C(Cn1c2ccccc2c(=O)c2ccccc21)N[C@@H](Cc1ccccc1)C(=O)OCCOCCOCCOCCOC(=O)c1ccc(-c2c3nc(c(-c4cccc(S(=O)(=O)[O-])c4F)c4ccc([nH]4)c(-c4cccc(S(=O)(=O)[O-])c4F)c4nc(c(-c5cccc(S(=O)(=O)[O-])c5F)c5ccc2[nH]5)C=C4)C=C3)cc1
REMARK SMILES IDX 36 1 35 2 34 3 33 4 32 5 31 6 30 7 28 8 29 9 20 10 19 11
REMARK SMILES IDX 1 12 2 13 3 15 4 16 5 17 18 18 6 19 10 20 13 21 17 22 7 23
REMARK SMILES IDX 9 24 11 25 14 26 16 27 8 28 12 29 15 30 21 31 22 32 23 33
REMARK SMILES IDX 27 34 24 35 26 36 25 37 37 38 38 39 39 40 40 41 41 42 42 43
REMARK SMILES IDX 43 44 44 45 45 46 46 47 107 48 47 49 106 50 48 51 49 52
REMARK SMILES IDX 50 53 100 54 51 55 105 56 99 57 101 58 52 59 104 60 98 61
REMARK SMILES IDX 97 62 53 64 85 65 65 66 84 67 66 68 69 69 83 70 102 71 67 72
REMARK SMILES IDX 68 73 82 75 103 76 70 77 54 78 55 79 63 80 56 81 58 82 64 83
REMARK SMILES IDX 57 84 59 85 60 86 61 87 62 88 86 89 87 90 95 91 88 92 90 93
REMARK SMILES IDX 96 94 89 95 91 96 92 97 93 98 94 99 71 100 72 101 80 102
REMARK SMILES IDX 73 103 75 104 81 105 74 106 76 107 77 108 78 109 79 110
REMARK H PARENT 19 14 101 63 69 74
REMARK Flexibility Score: inf
ROOT
ATOM      1  O   UNL     1       4.805  -5.027   1.114  1.00  0.00    -0.377 OA
ENDROOT
BRANCH   1   2
ATOM      2  C   UNL     1       3.842  -4.049   0.777  1.00  0.00     0.188 C 
BRANCH   2   3
ATOM      3  C   UNL     1       2.437  -4.637   0.586  1.00  0.00     0.188 C 
BRANCH   3   4
ATOM      4  O   UNL     1       2.213  -5.753  -0.281  1.00  0.00    -0.376 OA
BRANCH   4   5
ATOM      5  C   UNL     1       3.303  -6.249  -1.042  1.00  0.00     0.202 C 
BRANCH   5   6
ATOM      6  C   UNL     1       3.653  -5.402  -2.267  1.00  0.00     0.261 C 
BRANCH   6   7
ATOM      7  O   UNL     1       3.537  -3.976  -2.049  1.00  0.00    -0.462 OA
BRANCH   7   8
ATOM      8  C   UNL     1       2.385  -3.386  -2.455  1.00  0.00     0.329 C 
ATOM      9  O   UNL     1       1.473  -3.994  -3.012  1.00  0.00    -0.250 OA
BRANCH   8  10
ATOM     10  C   UNL     1       2.402  -1.831  -2.390  1.00  0.00     0.196 C 
BRANCH  10  11
ATOM     11  N   UNL     1       3.063  -0.973  -1.351  1.00  0.00    -0.341 N 
ATOM     12  O   UNL     1       1.425   0.604  -1.551  1.00  0.00    -0.273 OA
ATOM     13  C   UNL     1       2.517   0.280  -1.064  1.00  0.00     0.240 C 
ATOM     14  H   UNL     1       3.868  -1.288  -0.879  1.00  0.00     0.164 HD
BRANCH  13  15
ATOM     15  C   UNL     1       3.287   1.333  -0.201  1.00  0.00     0.222 C 
BRANCH  15  16
ATOM     16  N   UNL     1       3.442   1.070   1.248  1.00  0.00    -0.331 N 
ATOM     17  C   UNL     1       4.468   1.726   1.974  1.00  0.00     0.053 A 
ATOM     18  C   UNL     1       2.760   0.002   1.835  1.00  0.00     0.053 A 
ATOM     19  C   UNL     1       4.726   3.097   1.901  1.00  0.00     0.027 A 
ATOM     20  C   UNL     1       5.178   1.003   2.954  1.00  0.00     0.046 A 
ATOM     21  C   UNL     1       3.453  -0.791   2.744  1.00  0.00     0.046 A 
ATOM     22  C   UNL     1       1.415  -0.303   1.594  1.00  0.00     0.027 A 
ATOM     23  C   UNL     1       5.629   3.705   2.797  1.00  0.00     0.002 A 
ATOM     24  C   UNL     1       6.115   1.585   3.817  1.00  0.00     0.014 A 
ATOM     25  C   UNL     1       4.826  -0.411   3.125  1.00  0.00     0.197 A 
ATOM     26  C   UNL     1       2.874  -1.922   3.280  1.00  0.00     0.014 A 
ATOM     27  C   UNL     1       0.825  -1.444   2.143  1.00  0.00     0.002 A 
ATOM     28  C   UNL     1       6.324   2.954   3.749  1.00  0.00     0.001 A 
ATOM     29  O   UNL     1       5.612  -1.203   3.621  1.00  0.00    -0.288 OA
ATOM     30  C   UNL     1       1.567  -2.271   2.972  1.00  0.00     0.001 A 
ENDBRANCH  15  16
ENDBRANCH  13  15
ENDBRANCH  10  11
BRANCH  10  31
ATOM     31  C   UNL     1       2.866  -1.382  -3.805  1.00  0.00     0.072 C 
BRANCH  31  32
ATOM     32  C   UNL     1       4.355  -1.587  -4.013  1.00  0.00    -0.045 A 
ATOM     33  C   UNL     1       5.259  -0.566  -3.694  1.00  0.00     0.004 A 
ATOM     34  C   UNL     1       4.859  -2.833  -4.416  1.00  0.00     0.004 A 
ATOM     35  C   UNL     1       6.633  -0.810  -3.706  1.00  0.00     0.000 A 
ATOM     36  C   UNL     1       6.231  -3.085  -4.397  1.00  0.00     0.000 A 
ATOM     37  C   UNL     1       7.117  -2.075  -4.032  1.00  0.00     0.000 A 
ENDBRANCH  31  32
ENDBRANCH  10  31
ENDBRANCH   8  10
ENDBRANCH   7   8
ENDBRANCH   6   7
ENDBRANCH   5   6
ENDBRANCH   4   5
ENDBRANCH   3   4
ENDBRANCH   2   3
ENDBRANCH   1   2
BRANCH   1  38
ATOM     38  C   UNL     1       5.212  -4.998   2.472  1.00  0.00     0.188 C 
BRANCH  38  39
ATOM     39  C   UNL     1       4.240  -5.718   3.411  1.00  0.00     0.188 C 
BRANCH  39  40
ATOM     40  O   UNL     1       3.255  -4.821   3.938  1.00  0.00    -0.376 OA
BRANCH  40  41
ATOM     41  C   UNL     1       3.162  -4.806   5.369  1.00  0.00     0.202 C 
BRANCH  41  42
ATOM     42  C   UNL     1       3.943  -3.663   6.053  1.00  0.00     0.261 C 
BRANCH  42  43
ATOM     43  O   UNL     1       5.251  -3.437   5.509  1.00  0.00    -0.460 OA
BRANCH  43  44
ATOM     44  C   UNL     1       6.171  -4.394   5.767  1.00  0.00     0.338 C 
ATOM     45  O   UNL     1       5.990  -5.377   6.459  1.00  0.00    -0.246 OA
BRANCH  44  46
ATOM     46  C   UNL     1       7.359  -4.191   4.895  1.00  0.00     0.060 A 
ATOM     47  C   UNL     1       7.884  -2.929   4.607  1.00  0.00     0.016 A 
ATOM     48  C   UNL     1       7.931  -5.327   4.310  1.00  0.00     0.016 A 
ATOM     49  C   UNL     1       8.986  -2.807   3.749  1.00  0.00     0.010 A 
ATOM     50  C   UNL     1       9.025  -5.208   3.449  1.00  0.00     0.010 A 
ATOM     51  C   UNL     1       9.590  -3.951   3.195  1.00  0.00    -0.014 A 
BRANCH  51  52
ATOM     52  C   UNL     1      10.961  -3.891   2.621  1.00  0.00     0.031 A 
ATOM     53  C   UNL     1      11.269  -4.162   1.176  1.00  0.00     0.074 A 
ATOM     54  C   UNL     1      11.970  -3.722   3.499  1.00  0.00     0.049 A 
ATOM     55  N   UNL     1      12.440  -4.228   0.593  1.00  0.00    -0.248 NA
ATOM     56  C   UNL     1      10.135  -4.396   0.271  1.00  0.00     0.031 C 
ATOM     57  C   UNL     1      11.798  -3.531   4.942  1.00  0.00     0.029 A 
ATOM     58  N   UNL     1      13.330  -3.717   3.325  1.00  0.00    -0.354 N 
ATOM     59  C   UNL     1      12.195  -4.529  -0.740  1.00  0.00     0.074 A 
ATOM     60  C   UNL     1      10.756  -4.636  -0.882  1.00  0.00     0.031 C 
ATOM     61  C   UNL     1      13.000  -3.417   5.519  1.00  0.00     0.029 A 
ATOM     62  C   UNL     1      14.029  -3.572   4.499  1.00  0.00     0.049 A 
ATOM     63  H   UNL     1      13.763  -3.807   2.445  1.00  0.00     0.167 HD
ATOM     64  C   UNL     1      13.088  -4.687  -1.748  1.00  0.00     0.034 A 
ATOM     65  C   UNL     1      15.352  -3.578   4.748  1.00  0.00     0.034 A 
ATOM     66  C   UNL     1      14.519  -4.572  -1.601  1.00  0.00     0.049 A 
ATOM     67  C   UNL     1      16.314  -3.751   3.616  1.00  0.00     0.074 A 
ATOM     68  C   UNL     1      15.490  -4.651  -2.587  1.00  0.00     0.029 A 
ATOM     69  N   UNL     1      15.187  -4.374  -0.403  1.00  0.00    -0.354 N 
ATOM     70  N   UNL     1      16.056  -3.910   2.342  1.00  0.00    -0.248 NA
ATOM     71  C   UNL     1      17.745  -3.724   3.946  1.00  0.00     0.031 C 
ATOM     72  C   UNL     1      16.744  -4.524  -1.983  1.00  0.00     0.029 A 
ATOM     73  C   UNL     1      16.555  -4.340  -0.623  1.00  0.00     0.049 A 
ATOM     74  H   UNL     1      14.754  -4.273   0.475  1.00  0.00     0.167 HD
ATOM     75  C   UNL     1      17.291  -3.983   1.713  1.00  0.00     0.074 A 
ATOM     76  C   UNL     1      18.298  -3.838   2.744  1.00  0.00     0.031 C 
ATOM     77  C   UNL     1      17.556  -4.162   0.397  1.00  0.00     0.034 A 
BRANCH  64  78
ATOM     78  C   UNL     1      12.565  -4.949  -3.138  1.00  0.00     0.023 A 
ATOM     79  C   UNL     1      12.044  -3.873  -3.885  1.00  0.00     0.012 A 
ATOM     80  C   UNL     1      12.722  -6.207  -3.753  1.00  0.00     0.148 A 
ATOM     81  C   UNL     1      11.679  -4.046  -5.219  1.00  0.00     0.002 A 
ATOM     82  C   UNL     1      12.379  -6.366  -5.091  1.00  0.00     0.091 A 
ATOM     83  F   UNL     1      13.223  -7.215  -3.025  1.00  0.00    -0.205 F 
ATOM     84  C   UNL     1      11.855  -5.288  -5.824  1.00  0.00     0.022 A 
BRANCH  82  85
ATOM     85  S   UNL     1      12.610  -7.909  -5.984  1.00  0.00     0.127 S 
ATOM     86  O   UNL     1      11.226  -8.289  -6.273  1.00  0.00    -0.237 OA
ATOM     87  O   UNL     1      13.379  -7.477  -7.151  1.00  0.00    -0.237 OA
ATOM     88  O   UNL     1      13.318  -8.800  -5.077  1.00  0.00    -0.744 OA
ENDBRANCH  82  85
ENDBRANCH  64  78
BRANCH  65  89
ATOM     89  C   UNL     1      15.814  -3.340   6.139  1.00  0.00     0.023 A 
ATOM     90  C   UNL     1      16.292  -2.063   6.487  1.00  0.00     0.012 A 
ATOM     91  C   UNL     1      15.666  -4.323   7.136  1.00  0.00     0.148 A 
ATOM     92  C   UNL     1      16.618  -1.767   7.809  1.00  0.00     0.002 A 
ATOM     93  C   UNL     1      15.957  -4.010   8.458  1.00  0.00     0.091 A 
ATOM     94  F   UNL     1      15.193  -5.524   6.775  1.00  0.00    -0.205 F 
ATOM     95  C   UNL     1      16.440  -2.735   8.795  1.00  0.00     0.022 A 
BRANCH  93  96
ATOM     96  S   UNL     1      15.665  -5.151   9.813  1.00  0.00     0.127 S 
ATOM     97  O   UNL     1      17.014  -5.330  10.345  1.00  0.00    -0.237 OA
ATOM     98  O   UNL     1      14.764  -4.375  10.666  1.00  0.00    -0.237 OA
ATOM     99  O   UNL     1      15.069  -6.337   9.216  1.00  0.00    -0.744 OA
ENDBRANCH  93  96
ENDBRANCH  65  89
BRANCH  77 100
ATOM    100  C   UNL     1      18.997  -4.202  -0.033  1.00  0.00     0.023 A 
ATOM    101  C   UNL     1      19.752  -5.372   0.176  1.00  0.00     0.012 A 
ATOM    102  C   UNL     1      19.562  -3.127  -0.748  1.00  0.00     0.148 A 
ATOM    103  C   UNL     1      21.053  -5.470  -0.317  1.00  0.00     0.002 A 
ATOM    104  C   UNL     1      20.846  -3.245  -1.265  1.00  0.00     0.091 A 
ATOM    105  F   UNL     1      18.824  -2.021  -0.924  1.00  0.00    -0.205 F 
ATOM    106  C   UNL     1      21.594  -4.414  -1.048  1.00  0.00     0.022 A 
BRANCH 104 107
ATOM    107  S   UNL     1      21.608  -1.967  -2.272  1.00  0.00     0.127 S 
ATOM    108  O   UNL     1      22.735  -1.560  -1.433  1.00  0.00    -0.237 OA
ATOM    109  O   UNL     1      21.981  -2.707  -3.478  1.00  0.00    -0.237 OA
ATOM    110  O   UNL     1      20.589  -0.946  -2.472  1.00  0.00    -0.744 OA
ENDBRANCH 104 107
ENDBRANCH  77 100
ENDBRANCH  51  52
ENDBRANCH  44  46
ENDBRANCH  43  44
ENDBRANCH  42  43
ENDBRANCH  41  42
ENDBRANCH  40  41
ENDBRANCH  39  40
ENDBRANCH  38  39
ENDBRANCH   1  38
TORSDOF 28
