REMARK SMILES O=C(CCn1cc(/C=C\C(=O)c2ccc(F)cc2)c(-c2cccc(Cl)c2)n1)OCCOCCOCCOCCOC(=O)c1ccc(-c2c3nc(c(-c4cccc(S(=O)(=O)[O-])c4F)c4ccc([nH]4)c(-c4cccc(S(=O)(=O)[O-])c4F)c4nc(c(-c5cccc(S(=O)(=O)[O-])c5F)c5ccc2[nH]5)C=C4)C=C3)cc1
REMARK SMILES IDX 33 1 32 2 31 3 30 4 29 5 28 6 2 7 1 8 3 9 4 10 5 11 6 12
REMARK SMILES IDX 27 13 7 14 19 15 8 16 9 17 10 18 11 19 12 20 13 21 18 22
REMARK SMILES IDX 14 23 17 24 15 25 16 26 20 27 21 28 26 29 22 30 24 31 23 32
REMARK SMILES IDX 25 33 34 34 35 35 36 36 37 37 38 38 39 39 40 40 41 41 42 42
REMARK SMILES IDX 43 43 44 44 105 45 45 46 104 47 46 48 47 49 48 50 98 51
REMARK SMILES IDX 49 52 103 53 97 54 99 55 50 56 102 57 96 58 95 59 51 61
REMARK SMILES IDX 83 62 63 63 82 64 64 65 67 66 81 67 100 68 65 69 66 70 80 72
REMARK SMILES IDX 101 73 68 74 52 75 53 76 61 77 54 78 56 79 62 80 55 81 57 82
REMARK SMILES IDX 58 83 59 84 60 85 84 86 85 87 93 88 86 89 88 90 94 91 87 92
REMARK SMILES IDX 89 93 90 94 91 95 92 96 69 97 70 98 78 99 71 100 73 101
REMARK SMILES IDX 79 102 72 103 74 104 75 105 76 106 77 107
REMARK H PARENT 99 60 67 71
REMARK Flexibility Score: inf
ROOT
ATOM      1  C   UNL     1       2.262   1.171  -2.438  1.00  0.00     0.188 C 
ENDROOT
BRANCH   1   2
ATOM      2  C   UNL     1       2.257   1.734  -1.014  1.00  0.00     0.188 C 
BRANCH   2   3
ATOM      3  O   UNL     1       3.521   1.992  -0.412  1.00  0.00    -0.376 OA
BRANCH   3   4
ATOM      4  C   UNL     1       4.424   0.903  -0.232  1.00  0.00     0.202 C 
BRANCH   4   5
ATOM      5  C   UNL     1       3.871  -0.518  -0.069  1.00  0.00     0.261 C 
BRANCH   5   6
ATOM      6  O   UNL     1       2.646  -0.736   0.645  1.00  0.00    -0.463 OA
BRANCH   6   7
ATOM      7  C   UNL     1       2.341  -0.389   1.902  1.00  0.00     0.307 C 
ATOM      8  O   UNL     1       1.318  -0.821   2.429  1.00  0.00    -0.252 OA
BRANCH   7   9
ATOM      9  C   UNL     1       3.193   0.613   2.613  1.00  0.00     0.146 C 
BRANCH   9  10
ATOM     10  C   UNL     1       4.309   0.022   3.456  1.00  0.00     0.156 C 
BRANCH  10  11
ATOM     11  N   UNL     1       5.210  -0.907   2.805  1.00  0.00    -0.271 N 
ATOM     12  C   UNL     1       6.356  -0.632   2.121  1.00  0.00     0.117 A 
ATOM     13  N   UNL     1       4.970  -2.217   2.896  1.00  0.00    -0.172 NA
ATOM     14  C   UNL     1       6.807  -1.833   1.593  1.00  0.00     0.021 A 
ATOM     15  C   UNL     1       5.961  -2.818   2.205  1.00  0.00     0.100 A 
BRANCH  14  16
ATOM     16  C   UNL     1       7.966  -1.849   0.754  1.00  0.00     0.016 C 
ATOM     17  C   UNL     1       8.361  -2.484  -0.363  1.00  0.00     0.053 C 
BRANCH  17  18
ATOM     18  C   UNL     1       7.869  -3.491  -1.345  1.00  0.00     0.185 C 
ATOM     19  O   UNL     1       8.674  -4.078  -2.064  1.00  0.00    -0.289 OA
BRANCH  18  20
ATOM     20  C   UNL     1       6.445  -3.773  -1.497  1.00  0.00     0.022 A 
ATOM     21  C   UNL     1       5.608  -2.890  -2.178  1.00  0.00     0.015 A 
ATOM     22  C   UNL     1       5.953  -4.981  -1.006  1.00  0.00     0.015 A 
ATOM     23  C   UNL     1       4.236  -3.147  -2.206  1.00  0.00     0.040 A 
ATOM     24  C   UNL     1       4.579  -5.201  -0.985  1.00  0.00     0.040 A 
ATOM     25  C   UNL     1       3.729  -4.256  -1.538  1.00  0.00     0.123 A 
ATOM     26  F   UNL     1       2.405  -4.411  -1.416  1.00  0.00    -0.207 F 
ENDBRANCH  18  20
ENDBRANCH  17  18
ENDBRANCH  14  16
BRANCH  15  27
ATOM     27  C   UNL     1       6.025  -4.280   2.225  1.00  0.00     0.004 A 
ATOM     28  C   UNL     1       4.840  -5.032   2.349  1.00  0.00     0.010 A 
ATOM     29  C   UNL     1       7.245  -4.958   2.141  1.00  0.00     0.031 A 
ATOM     30  C   UNL     1       4.865  -6.429   2.302  1.00  0.00     0.002 A 
ATOM     31  C   UNL     1       7.263  -6.354   2.089  1.00  0.00     0.041 A 
ATOM     32  C   UNL     1       6.080  -7.090   2.147  1.00  0.00     0.020 A 
ATOM     33  Cl  UNL     1       8.764  -7.173   1.894  1.00  0.00    -0.084 Cl
ENDBRANCH  15  27
ENDBRANCH  10  11
ENDBRANCH   9  10
ENDBRANCH   7   9
ENDBRANCH   6   7
ENDBRANCH   5   6
ENDBRANCH   4   5
ENDBRANCH   3   4
ENDBRANCH   2   3
ENDBRANCH   1   2
BRANCH   1  34
ATOM     34  O   UNL     1       3.413   0.384  -2.689  1.00  0.00    -0.377 OA
BRANCH  34  35
ATOM     35  C   UNL     1       4.227   0.816  -3.757  1.00  0.00     0.188 C 
BRANCH  35  36
ATOM     36  C   UNL     1       5.249   1.940  -3.475  1.00  0.00     0.188 C 
BRANCH  36  37
ATOM     37  O   UNL     1       4.957   3.200  -2.893  1.00  0.00    -0.376 OA
BRANCH  37  38
ATOM     38  C   UNL     1       3.827   4.024  -3.103  1.00  0.00     0.202 C 
BRANCH  38  39
ATOM     39  C   UNL     1       3.175   4.275  -4.457  1.00  0.00     0.261 C 
BRANCH  39  40
ATOM     40  O   UNL     1       3.230   3.163  -5.310  1.00  0.00    -0.460 OA
BRANCH  40  41
ATOM     41  C   UNL     1       4.354   3.130  -6.050  1.00  0.00     0.338 C 
ATOM     42  O   UNL     1       5.298   3.907  -6.003  1.00  0.00    -0.246 OA
BRANCH  41  43
ATOM     43  C   UNL     1       4.271   1.981  -6.945  1.00  0.00     0.060 A 
ATOM     44  C   UNL     1       5.422   1.683  -7.672  1.00  0.00     0.016 A 
ATOM     45  C   UNL     1       3.014   1.424  -7.234  1.00  0.00     0.016 A 
ATOM     46  C   UNL     1       5.247   1.097  -8.894  1.00  0.00     0.010 A 
ATOM     47  C   UNL     1       2.840   0.836  -8.451  1.00  0.00     0.010 A 
ATOM     48  C   UNL     1       3.938   0.823  -9.300  1.00  0.00    -0.014 A 
BRANCH  48  49
ATOM     49  C   UNL     1       3.716   0.629 -10.705  1.00  0.00     0.031 A 
ATOM     50  C   UNL     1       4.041  -0.730 -11.149  1.00  0.00     0.074 A 
ATOM     51  C   UNL     1       3.230   1.632 -11.458  1.00  0.00     0.049 A 
ATOM     52  N   UNL     1       5.069  -1.099 -11.835  1.00  0.00    -0.248 NA
ATOM     53  C   UNL     1       3.261  -1.831 -10.570  1.00  0.00     0.031 C 
ATOM     54  C   UNL     1       2.624   2.895 -11.019  1.00  0.00     0.029 A 
ATOM     55  N   UNL     1       3.049   1.655 -12.799  1.00  0.00    -0.354 N 
ATOM     56  C   UNL     1       4.923  -2.472 -11.977  1.00  0.00     0.074 A 
ATOM     57  C   UNL     1       3.965  -2.882 -10.987  1.00  0.00     0.031 C 
ATOM     58  C   UNL     1       1.911   3.417 -12.044  1.00  0.00     0.029 A 
ATOM     59  C   UNL     1       2.130   2.602 -13.227  1.00  0.00     0.049 A 
ATOM     60  H   UNL     1       3.526   1.054 -13.415  1.00  0.00     0.167 HD
ATOM     61  C   UNL     1       5.385  -3.109 -13.084  1.00  0.00     0.034 A 
ATOM     62  C   UNL     1       1.522   2.607 -14.438  1.00  0.00     0.034 A 
ATOM     63  C   UNL     1       6.308  -2.276 -13.815  1.00  0.00     0.049 A 
ATOM     64  C   UNL     1       2.349   1.763 -15.340  1.00  0.00     0.074 A 
ATOM     65  C   UNL     1       7.534  -1.705 -13.541  1.00  0.00     0.029 A 
ATOM     66  N   UNL     1       5.802  -1.603 -14.902  1.00  0.00    -0.354 N 
ATOM     67  N   UNL     1       3.560   2.074 -15.710  1.00  0.00    -0.248 NA
ATOM     68  C   UNL     1       2.000   0.356 -15.467  1.00  0.00     0.031 C 
ATOM     69  C   UNL     1       7.513  -0.444 -14.203  1.00  0.00     0.029 A 
ATOM     70  C   UNL     1       6.298  -0.327 -14.884  1.00  0.00     0.049 A 
ATOM     71  H   UNL     1       5.189  -1.974 -15.576  1.00  0.00     0.167 HD
ATOM     72  C   UNL     1       4.253   0.869 -15.684  1.00  0.00     0.074 A 
ATOM     73  C   UNL     1       3.219  -0.163 -15.642  1.00  0.00     0.031 C 
ATOM     74  C   UNL     1       5.588   0.829 -15.395  1.00  0.00     0.034 A 
BRANCH  61  75
ATOM     75  C   UNL     1       4.731  -4.313 -13.718  1.00  0.00     0.023 A 
ATOM     76  C   UNL     1       5.405  -4.894 -14.815  1.00  0.00     0.012 A 
ATOM     77  C   UNL     1       3.403  -4.743 -13.487  1.00  0.00     0.148 A 
ATOM     78  C   UNL     1       4.772  -5.799 -15.671  1.00  0.00     0.002 A 
ATOM     79  C   UNL     1       2.805  -5.705 -14.291  1.00  0.00     0.091 A 
ATOM     80  F   UNL     1       2.642  -4.138 -12.573  1.00  0.00    -0.205 F 
ATOM     81  C   UNL     1       3.472  -6.210 -15.406  1.00  0.00     0.022 A 
BRANCH  79  82
ATOM     82  S   UNL     1       1.143  -6.305 -13.957  1.00  0.00     0.127 S 
ATOM     83  O   UNL     1       0.375  -5.638 -15.002  1.00  0.00    -0.237 OA
ATOM     84  O   UNL     1       1.307  -7.749 -14.131  1.00  0.00    -0.237 OA
ATOM     85  O   UNL     1       0.849  -5.902 -12.587  1.00  0.00    -0.744 OA
ENDBRANCH  79  82
ENDBRANCH  61  75
BRANCH  62  86
ATOM     86  C   UNL     1       0.124   2.967 -14.771  1.00  0.00     0.023 A 
ATOM     87  C   UNL     1      -0.222   3.203 -16.116  1.00  0.00     0.012 A 
ATOM     88  C   UNL     1      -0.921   2.786 -13.836  1.00  0.00     0.148 A 
ATOM     89  C   UNL     1      -1.561   3.213 -16.525  1.00  0.00     0.002 A 
ATOM     90  C   UNL     1      -2.250   2.799 -14.247  1.00  0.00     0.091 A 
ATOM     91  F   UNL     1      -0.612   2.501 -12.564  1.00  0.00    -0.205 F 
ATOM     92  C   UNL     1      -2.574   2.999 -15.594  1.00  0.00     0.022 A 
BRANCH  90  93
ATOM     93  S   UNL     1      -3.607   2.486 -13.108  1.00  0.00     0.127 S 
ATOM     94  O   UNL     1      -4.520   3.588 -13.415  1.00  0.00    -0.237 OA
ATOM     95  O   UNL     1      -4.066   1.170 -13.544  1.00  0.00    -0.237 OA
ATOM     96  O   UNL     1      -3.028   2.543 -11.772  1.00  0.00    -0.744 OA
ENDBRANCH  90  93
ENDBRANCH  62  86
BRANCH  74  97
ATOM     97  C   UNL     1       6.343   2.137 -15.340  1.00  0.00     0.023 A 
ATOM     98  C   UNL     1       6.078   3.117 -14.359  1.00  0.00     0.012 A 
ATOM     99  C   UNL     1       7.479   2.282 -16.153  1.00  0.00     0.148 A 
ATOM    100  C   UNL     1       6.924   4.219 -14.200  1.00  0.00     0.002 A 
ATOM    101  C   UNL     1       8.347   3.348 -15.955  1.00  0.00     0.091 A 
ATOM    102  F   UNL     1       7.716   1.342 -17.081  1.00  0.00    -0.205 F 
ATOM    103  C   UNL     1       8.069   4.325 -14.986  1.00  0.00     0.022 A 
BRANCH 101 104
ATOM    104  S   UNL     1       9.913   3.456 -16.825  1.00  0.00     0.127 S 
ATOM    105  O   UNL     1       9.655   4.525 -17.787  1.00  0.00    -0.237 OA
ATOM    106  O   UNL     1      10.844   3.809 -15.752  1.00  0.00    -0.237 OA
ATOM    107  O   UNL     1      10.143   2.136 -17.399  1.00  0.00    -0.744 OA
ENDBRANCH 101 104
ENDBRANCH  74  97
ENDBRANCH  48  49
ENDBRANCH  41  43
ENDBRANCH  40  41
ENDBRANCH  39  40
ENDBRANCH  38  39
ENDBRANCH  37  38
ENDBRANCH  36  37
ENDBRANCH  35  36
ENDBRANCH  34  35
ENDBRANCH   1  34
TORSDOF 29
