REMARK SMILES COc1ccc(S(=O)(=O)N2CCC[C@H](C(=O)N3CCC[C@H](C(=O)OCCOCCOCCOCCOC(=O)c4ccc(-c5c6nc(c(-c7cccc(S(=O)(=O)[O-])c7F)c7ccc([nH]7)c(-c7cccc(S(=O)(=O)[O-])c7F)c7nc(c(-c8cccc(S(=O)(=O)[O-])c8F)c8ccc5[nH]8)C=C7)C=C6)cc4)C3)C2)cc1
REMARK SMILES IDX 29 1 28 2 27 3 26 4 25 5 24 6 22 7 23 8 21 9 17 10 18 11
REMARK SMILES IDX 102 12 19 13 20 14 15 15 16 16 14 17 10 18 11 19 103 20
REMARK SMILES IDX 12 21 13 22 7 23 8 24 9 25 6 26 3 27 4 28 105 29 5 30 104 31
REMARK SMILES IDX 2 32 1 33 30 34 31 35 32 36 33 37 34 38 35 39 36 40 37 41
REMARK SMILES IDX 38 42 39 43 40 44 101 45 41 46 100 47 42 48 43 49 44 50
REMARK SMILES IDX 94 51 45 52 99 53 93 54 95 55 46 56 98 57 92 58 91 59 47 61
REMARK SMILES IDX 79 62 59 63 78 64 60 65 63 66 77 67 96 68 61 69 62 70 76 72
REMARK SMILES IDX 97 73 64 74 48 75 49 76 57 77 50 78 52 79 58 80 51 81 53 82
REMARK SMILES IDX 54 83 55 84 56 85 80 86 81 87 89 88 82 89 84 90 90 91 83 92
REMARK SMILES IDX 85 93 86 94 87 95 88 96 65 97 66 98 74 99 67 100 69 101
REMARK SMILES IDX 75 102 68 103 70 104 71 105 72 106 73 107
REMARK H PARENT 95 60 63 71
REMARK Flexibility Score: inf
ROOT
ATOM      1  C   UNL     1       8.783  12.210  -1.873  1.00  0.00     0.188 C 
ENDROOT
BRANCH   1   2
ATOM      2  C   UNL     1       9.909  11.502  -1.107  1.00  0.00     0.188 C 
BRANCH   2   3
ATOM      3  O   UNL     1      11.017  10.961  -1.812  1.00  0.00    -0.376 OA
BRANCH   3   4
ATOM      4  C   UNL     1      10.806   9.995  -2.844  1.00  0.00     0.202 C 
BRANCH   4   5
ATOM      5  C   UNL     1       9.791   8.860  -2.652  1.00  0.00     0.261 C 
BRANCH   5   6
ATOM      6  O   UNL     1       8.421   9.302  -2.657  1.00  0.00    -0.463 OA
BRANCH   6   7
ATOM      7  C   UNL     1       7.699   9.111  -1.537  1.00  0.00     0.310 C 
ATOM      8  O   UNL     1       8.143   8.631  -0.495  1.00  0.00    -0.252 OA
BRANCH   7   9
ATOM      9  C   UNL     1       6.224   9.460  -1.664  1.00  0.00     0.119 C 
ATOM     10  N   UNL     1       5.628   7.677  -3.229  1.00  0.00    -0.342 N 
ATOM     11  C   UNL     1       5.133   8.581  -4.255  1.00  0.00     0.119 C 
ATOM     12  C   UNL     1       5.498   8.140  -1.860  1.00  0.00     0.134 C 
ATOM     13  C   UNL     1       5.751   9.966  -4.138  1.00  0.00     0.022 C 
ATOM     14  C   UNL     1       5.726  10.476  -2.698  1.00  0.00     0.019 C 
BRANCH  10  15
ATOM     15  C   UNL     1       6.495   6.666  -3.588  1.00  0.00     0.227 C 
ATOM     16  O   UNL     1       7.427   6.850  -4.370  1.00  0.00    -0.275 OA
BRANCH  15  17
ATOM     17  C   UNL     1       6.184   5.264  -3.070  1.00  0.00     0.094 C 
ATOM     18  N   UNL     1       3.787   5.421  -2.428  1.00  0.00    -0.197 NA
ATOM     19  C   UNL     1       4.066   5.374  -0.985  1.00  0.00     0.102 C 
ATOM     20  C   UNL     1       4.755   4.875  -3.401  1.00  0.00     0.116 C 
ATOM     21  C   UNL     1       5.480   4.981  -0.583  1.00  0.00     0.018 C 
ATOM     22  C   UNL     1       6.582   4.947  -1.639  1.00  0.00     0.016 C 
BRANCH  18  23
ATOM     23  S   UNL     1       2.151   5.458  -2.890  1.00  0.00     0.243 S 
ATOM     24  O   UNL     1       2.059   5.654  -4.312  1.00  0.00    -0.207 OA
ATOM     25  O   UNL     1       1.473   6.342  -1.954  1.00  0.00    -0.207 OA
BRANCH  23  26
ATOM     26  C   UNL     1       1.537   3.822  -2.542  1.00  0.00     0.082 A 
ATOM     27  C   UNL     1       0.458   1.400  -1.682  1.00  0.00     0.118 A 
ATOM     28  C   UNL     1      -0.378   2.397  -2.191  1.00  0.00     0.048 A 
ATOM     29  C   UNL     1       1.838   1.582  -1.685  1.00  0.00     0.048 A 
ATOM     30  C   UNL     1       0.157   3.617  -2.611  1.00  0.00     0.025 A 
ATOM     31  C   UNL     1       2.376   2.792  -2.111  1.00  0.00     0.025 A 
BRANCH  27  32
ATOM     32  O   UNL     1      -0.150   0.269  -1.210  1.00  0.00    -0.497 OA
ATOM     33  C   UNL     1       0.469  -0.259  -0.037  1.00  0.00     0.278 C 
ENDBRANCH  27  32
ENDBRANCH  23  26
ENDBRANCH  18  23
ENDBRANCH  15  17
ENDBRANCH  10  15
ENDBRANCH   7   9
ENDBRANCH   6   7
ENDBRANCH   5   6
ENDBRANCH   4   5
ENDBRANCH   3   4
ENDBRANCH   2   3
ENDBRANCH   1   2
BRANCH   1  34
ATOM     34  O   UNL     1       8.659  11.818  -3.223  1.00  0.00    -0.377 OA
BRANCH  34  35
ATOM     35  C   UNL     1       9.225  12.636  -4.239  1.00  0.00     0.188 C 
BRANCH  35  36
ATOM     36  C   UNL     1      10.443  13.504  -3.887  1.00  0.00     0.188 C 
BRANCH  36  37
ATOM     37  O   UNL     1      10.197  14.433  -2.834  1.00  0.00    -0.376 OA
BRANCH  37  38
ATOM     38  C   UNL     1       9.755  15.736  -3.200  1.00  0.00     0.202 C 
BRANCH  38  39
ATOM     39  C   UNL     1       8.364  15.824  -3.851  1.00  0.00     0.261 C 
BRANCH  39  40
ATOM     40  O   UNL     1       8.273  15.325  -5.198  1.00  0.00    -0.460 OA
BRANCH  40  41
ATOM     41  C   UNL     1       9.151  15.785  -6.112  1.00  0.00     0.338 C 
ATOM     42  O   UNL     1       9.955  16.687  -5.973  1.00  0.00    -0.246 OA
BRANCH  41  43
ATOM     43  C   UNL     1       9.116  14.873  -7.272  1.00  0.00     0.060 A 
ATOM     44  C   UNL     1      10.307  14.256  -7.672  1.00  0.00     0.016 A 
ATOM     45  C   UNL     1       7.930  14.662  -7.978  1.00  0.00     0.016 A 
ATOM     46  C   UNL     1      10.328  13.467  -8.822  1.00  0.00     0.010 A 
ATOM     47  C   UNL     1       7.956  13.887  -9.139  1.00  0.00     0.010 A 
ATOM     48  C   UNL     1       9.164  13.324  -9.588  1.00  0.00    -0.014 A 
BRANCH  48  49
ATOM     49  C   UNL     1       9.254  12.780 -10.963  1.00  0.00     0.031 A 
ATOM     50  C   UNL     1       9.421  13.754 -12.100  1.00  0.00     0.074 A 
ATOM     51  C   UNL     1       9.167  11.460 -11.203  1.00  0.00     0.049 A 
ATOM     52  N   UNL     1       9.503  13.524 -13.383  1.00  0.00    -0.248 NA
ATOM     53  C   UNL     1       9.505  15.181 -11.738  1.00  0.00     0.031 C 
ATOM     54  C   UNL     1       9.000  10.424 -10.186  1.00  0.00     0.029 A 
ATOM     55  N   UNL     1       9.180  10.772 -12.390  1.00  0.00    -0.354 N 
ATOM     56  C   UNL     1       9.616  14.771 -13.983  1.00  0.00     0.074 A 
ATOM     57  C   UNL     1       9.591  15.758 -12.927  1.00  0.00     0.031 C 
ATOM     58  C   UNL     1       8.896   9.229 -10.797  1.00  0.00     0.029 A 
ATOM     59  C   UNL     1       8.971   9.421 -12.245  1.00  0.00     0.049 A 
ATOM     60  H   UNL     1       9.326  11.204 -13.262  1.00  0.00     0.167 HD
ATOM     61  C   UNL     1       9.742  15.070 -15.297  1.00  0.00     0.034 A 
ATOM     62  C   UNL     1       8.840   8.457 -13.178  1.00  0.00     0.034 A 
ATOM     63  C   UNL     1       9.791  14.089 -16.344  1.00  0.00     0.049 A 
ATOM     64  C   UNL     1       8.966   8.824 -14.637  1.00  0.00     0.074 A 
ATOM     65  C   UNL     1       9.987  14.287 -17.698  1.00  0.00     0.029 A 
ATOM     66  N   UNL     1       9.624  12.726 -16.156  1.00  0.00    -0.354 N 
ATOM     67  N   UNL     1       9.231   9.988 -15.179  1.00  0.00    -0.248 NA
ATOM     68  C   UNL     1       8.804   7.735 -15.613  1.00  0.00     0.031 C 
ATOM     69  C   UNL     1       9.914  13.043 -18.334  1.00  0.00     0.029 A 
ATOM     70  C   UNL     1       9.692  12.071 -17.372  1.00  0.00     0.049 A 
ATOM     71  H   UNL     1       9.479  12.290 -15.285  1.00  0.00     0.167 HD
ATOM     72  C   UNL     1       9.305   9.765 -16.550  1.00  0.00     0.074 A 
ATOM     73  C   UNL     1       9.076   8.350 -16.756  1.00  0.00     0.031 C 
ATOM     74  C   UNL     1       9.526  10.652 -17.552  1.00  0.00     0.034 A 
BRANCH  61  75
ATOM     75  C   UNL     1       9.863  16.520 -15.675  1.00  0.00     0.023 A 
ATOM     76  C   UNL     1      11.078  17.199 -15.452  1.00  0.00     0.012 A 
ATOM     77  C   UNL     1       8.798  17.192 -16.304  1.00  0.00     0.148 A 
ATOM     78  C   UNL     1      11.223  18.533 -15.830  1.00  0.00     0.002 A 
ATOM     79  C   UNL     1       8.963  18.509 -16.712  1.00  0.00     0.091 A 
ATOM     80  F   UNL     1       7.643  16.534 -16.480  1.00  0.00    -0.205 F 
ATOM     81  C   UNL     1      10.171  19.184 -16.470  1.00  0.00     0.022 A 
BRANCH  79  82
ATOM     82  S   UNL     1       7.691  19.412 -17.604  1.00  0.00     0.127 S 
ATOM     83  O   UNL     1       7.244  20.368 -16.592  1.00  0.00    -0.237 OA
ATOM     84  O   UNL     1       8.448  20.002 -18.708  1.00  0.00    -0.237 OA
ATOM     85  O   UNL     1       6.703  18.421 -18.007  1.00  0.00    -0.744 OA
ENDBRANCH  79  82
ENDBRANCH  61  75
BRANCH  62  86
ATOM     86  C   UNL     1       8.613   7.041 -12.773  1.00  0.00     0.023 A 
ATOM     87  C   UNL     1       9.628   6.089 -12.991  1.00  0.00     0.012 A 
ATOM     88  C   UNL     1       7.400   6.628 -12.189  1.00  0.00     0.148 A 
ATOM     89  C   UNL     1       9.428   4.747 -12.666  1.00  0.00     0.002 A 
ATOM     90  C   UNL     1       7.225   5.297 -11.822  1.00  0.00     0.091 A 
ATOM     91  F   UNL     1       6.435   7.541 -12.013  1.00  0.00    -0.205 F 
ATOM     92  C   UNL     1       8.231   4.352 -12.074  1.00  0.00     0.022 A 
BRANCH  90  93
ATOM     93  S   UNL     1       5.756   4.727 -10.959  1.00  0.00     0.127 S 
ATOM     94  O   UNL     1       5.031   4.042 -12.025  1.00  0.00    -0.237 OA
ATOM     95  O   UNL     1       6.323   3.845  -9.937  1.00  0.00    -0.237 OA
ATOM     96  O   UNL     1       5.128   5.930 -10.431  1.00  0.00    -0.744 OA
ENDBRANCH  90  93
ENDBRANCH  62  86
BRANCH  74  97
ATOM     97  C   UNL     1       9.568  10.126 -18.963  1.00  0.00     0.023 A 
ATOM     98  C   UNL     1       8.371   9.746 -19.601  1.00  0.00     0.012 A 
ATOM     99  C   UNL     1      10.777  10.097 -19.686  1.00  0.00     0.148 A 
ATOM    100  C   UNL     1       8.380   9.318 -20.928  1.00  0.00     0.002 A 
ATOM    101  C   UNL     1      10.771   9.715 -21.023  1.00  0.00     0.091 A 
ATOM    102  F   UNL     1      11.908  10.446 -19.057  1.00  0.00    -0.205 F 
ATOM    103  C   UNL     1       9.576   9.316 -21.642  1.00  0.00     0.022 A 
BRANCH 101 104
ATOM    104  S   UNL     1      12.249   9.778 -22.043  1.00  0.00     0.127 S 
ATOM    105  O   UNL     1      12.609   8.365 -22.135  1.00  0.00    -0.237 OA
ATOM    106  O   UNL     1      11.746  10.361 -23.288  1.00  0.00    -0.237 OA
ATOM    107  O   UNL     1      13.194  10.622 -21.324  1.00  0.00    -0.744 OA
ENDBRANCH 101 104
ENDBRANCH  74  97
ENDBRANCH  48  49
ENDBRANCH  41  43
ENDBRANCH  40  41
ENDBRANCH  39  40
ENDBRANCH  38  39
ENDBRANCH  37  38
ENDBRANCH  36  37
ENDBRANCH  35  36
ENDBRANCH  34  35
ENDBRANCH   1  34
TORSDOF 28
