REMARK SMILES CC[C@@H](C)[C@H](NC(=O)[C@H](C)N1C(=O)N2CCC3=c4cc(OC)ccc4=N[C@@H]3[C@@]2(C)C1=O)C(=O)OCCOCCOCCOCCOC(=O)c1ccc(-c2c3nc(c(-c4cccc(S(=O)(=O)[O-])c4F)c4ccc([nH]4)c(-c4cccc(S(=O)(=O)[O-])c4F)c4nc(c(-c5cccc(S(=O)(=O)[O-])c5F)c5ccc2[nH]5)C=C4)C=C3)cc1
REMARK SMILES IDX 39 1 38 2 37 3 36 4 35 5 34 6 32 7 33 8 5 9 3 10 4 11 2 12
REMARK SMILES IDX 1 13 6 14 7 15 8 17 9 18 10 19 11 20 12 21 30 22 14 23 13 24
REMARK SMILES IDX 28 25 31 26 15 27 27 28 29 29 16 30 17 31 26 32 18 33 25 34
REMARK SMILES IDX 19 35 24 36 20 37 23 38 21 39 22 40 40 41 41 42 42 43 43 44
REMARK SMILES IDX 44 45 45 46 46 47 47 48 48 49 49 50 50 51 111 52 51 53
REMARK SMILES IDX 110 54 52 55 53 56 54 57 104 58 55 59 109 60 103 61 105 62
REMARK SMILES IDX 56 63 108 64 102 65 101 66 57 68 89 69 69 70 88 71 70 72
REMARK SMILES IDX 73 73 87 74 106 75 71 76 72 77 86 79 107 80 74 81 58 82
REMARK SMILES IDX 59 83 67 84 60 85 62 86 68 87 61 88 63 89 64 90 65 91 66 92
REMARK SMILES IDX 90 93 91 94 99 95 92 96 94 97 100 98 93 99 95 100 96 101
REMARK SMILES IDX 97 102 98 103 75 104 76 105 84 106 77 107 79 108 85 109
REMARK SMILES IDX 78 110 80 111 81 112 82 113 83 114
REMARK H PARENT 6 16 105 67 73 78
REMARK Flexibility Score: inf
ROOT
ATOM      1  C   UNL     1      -0.517  -2.285   7.142  1.00  0.00     0.188 C 
ENDROOT
BRANCH   1   2
ATOM      2  C   UNL     1      -1.244  -1.376   6.131  1.00  0.00     0.188 C 
BRANCH   2   3
ATOM      3  O   UNL     1      -2.262  -1.935   5.306  1.00  0.00    -0.376 OA
BRANCH   3   4
ATOM      4  C   UNL     1      -1.935  -3.107   4.564  1.00  0.00     0.202 C 
BRANCH   4   5
ATOM      5  C   UNL     1      -0.652  -3.055   3.726  1.00  0.00     0.261 C 
BRANCH   5   6
ATOM      6  O   UNL     1       0.584  -2.900   4.484  1.00  0.00    -0.462 OA
BRANCH   6   7
ATOM      7  C   UNL     1       1.535  -2.126   3.902  1.00  0.00     0.328 C 
ATOM      8  O   UNL     1       1.323  -1.551   2.832  1.00  0.00    -0.250 OA
BRANCH   7   9
ATOM      9  C   UNL     1       2.910  -1.900   4.667  1.00  0.00     0.195 C 
BRANCH   9  10
ATOM     10  C   UNL     1       4.175  -1.991   3.766  1.00  0.00     0.019 C 
ATOM     11  C   UNL     1       5.081  -0.789   4.089  1.00  0.00     0.010 C 
BRANCH  10  12
ATOM     12  C   UNL     1       3.948  -2.151   2.259  1.00  0.00     0.002 C 
ATOM     13  C   UNL     1       5.177  -2.707   1.557  1.00  0.00     0.004 C 
ENDBRANCH  10  12
ENDBRANCH   9  10
BRANCH   9  14
ATOM     14  N   UNL     1       3.326  -2.268   6.051  1.00  0.00    -0.341 N 
ATOM     15  C   UNL     1       4.272  -3.096   6.605  1.00  0.00     0.243 C 
ATOM     16  H   UNL     1       2.792  -1.804   6.735  1.00  0.00     0.164 HD
ATOM     17  O   UNL     1       4.708  -2.699   7.700  1.00  0.00    -0.273 OA
BRANCH  15  18
ATOM     18  C   UNL     1       4.841  -4.470   6.015  1.00  0.00     0.181 C 
ATOM     19  C   UNL     1       6.353  -4.457   5.859  1.00  0.00     0.042 C 
BRANCH  18  20
ATOM     20  N   UNL     1       4.075  -5.169   4.969  1.00  0.00    -0.250 N 
ATOM     21  C   UNL     1       4.362  -6.431   4.317  1.00  0.00     0.328 C 
ATOM     22  C   UNL     1       2.754  -5.139   5.283  1.00  0.00     0.259 C 
ATOM     23  N   UNL     1       3.068  -7.061   3.988  1.00  0.00    -0.307 N 
ATOM     24  O   UNL     1       5.449  -6.979   4.228  1.00  0.00    -0.248 OA
ATOM     25  C   UNL     1       2.222  -6.403   4.872  1.00  0.00     0.147 C 
ATOM     26  O   UNL     1       2.111  -4.416   6.026  1.00  0.00    -0.271 OA
ATOM     27  C   UNL     1       2.523  -8.553   3.951  1.00  0.00     0.127 C 
ATOM     28  C   UNL     1       2.535  -7.264   6.116  1.00  0.00     0.168 C 
ATOM     29  C   UNL     1       0.901  -6.131   4.144  1.00  0.00     0.048 C 
ATOM     30  C   UNL     1       1.252  -8.833   5.244  1.00  0.00     0.055 C 
ATOM     31  C   UNL     1       1.294  -7.843   6.557  1.00  0.00    -0.032 C 
ATOM     32  N   UNL     1       3.548  -7.047   7.170  1.00  0.00    -0.274 NA
ATOM     33  C   UNL     1       1.430  -7.694   7.912  1.00  0.00     0.005 A 
ATOM     34  C   UNL     1       2.925  -7.721   8.095  1.00  0.00     0.066 A 
ATOM     35  C   UNL     1       1.135  -6.381   8.650  1.00  0.00     0.056 A 
ATOM     36  C   UNL     1       3.411  -7.907   9.460  1.00  0.00     0.032 A 
ATOM     37  C   UNL     1       1.935  -6.006   9.697  1.00  0.00     0.119 A 
ATOM     38  C   UNL     1       2.880  -6.974  10.261  1.00  0.00     0.048 A 
BRANCH  37  39
ATOM     39  O   UNL     1       2.032  -4.696  10.146  1.00  0.00    -0.497 OA
ATOM     40  C   UNL     1       3.376  -4.248  10.426  1.00  0.00     0.278 C 
ENDBRANCH  37  39
ENDBRANCH  18  20
ENDBRANCH  15  18
ENDBRANCH   9  14
ENDBRANCH   7   9
ENDBRANCH   6   7
ENDBRANCH   5   6
ENDBRANCH   4   5
ENDBRANCH   3   4
ENDBRANCH   2   3
ENDBRANCH   1   2
BRANCH   1  41
ATOM     41  O   UNL     1      -0.838  -3.662   7.020  1.00  0.00    -0.377 OA
BRANCH  41  42
ATOM     42  C   UNL     1      -1.661  -4.179   8.058  1.00  0.00     0.188 C 
BRANCH  42  43
ATOM     43  C   UNL     1      -3.052  -3.548   8.156  1.00  0.00     0.188 C 
BRANCH  43  44
ATOM     44  O   UNL     1      -2.994  -2.169   8.527  1.00  0.00    -0.376 OA
BRANCH  44  45
ATOM     45  C   UNL     1      -3.316  -1.881   9.885  1.00  0.00     0.202 C 
BRANCH  45  46
ATOM     46  C   UNL     1      -2.169  -2.124  10.878  1.00  0.00     0.261 C 
BRANCH  46  47
ATOM     47  O   UNL     1      -1.750  -3.489  11.048  1.00  0.00    -0.460 OA
BRANCH  47  48
ATOM     48  C   UNL     1      -2.692  -4.403  11.401  1.00  0.00     0.338 C 
ATOM     49  O   UNL     1      -3.844  -4.193  11.651  1.00  0.00    -0.246 OA
BRANCH  48  50
ATOM     50  C   UNL     1      -2.089  -5.756  11.255  1.00  0.00     0.060 A 
ATOM     51  C   UNL     1      -0.858  -6.064  11.834  1.00  0.00     0.016 A 
ATOM     52  C   UNL     1      -2.799  -6.734  10.549  1.00  0.00     0.016 A 
ATOM     53  C   UNL     1      -0.362  -7.370  11.746  1.00  0.00     0.010 A 
ATOM     54  C   UNL     1      -2.292  -8.036  10.449  1.00  0.00     0.010 A 
ATOM     55  C   UNL     1      -1.079  -8.372  11.067  1.00  0.00    -0.014 A 
BRANCH  55  56
ATOM     56  C   UNL     1      -0.670  -9.791  11.223  1.00  0.00     0.031 A 
ATOM     57  C   UNL     1       0.031 -10.584  10.170  1.00  0.00     0.074 A 
ATOM     58  C   UNL     1      -0.983 -10.411  12.372  1.00  0.00     0.049 A 
ATOM     59  N   UNL     1       0.742 -11.678  10.292  1.00  0.00    -0.248 NA
ATOM     60  C   UNL     1      -0.074 -10.090   8.801  1.00  0.00     0.031 C 
ATOM     61  C   UNL     1      -1.760  -9.822  13.460  1.00  0.00     0.029 A 
ATOM     62  N   UNL     1      -0.702 -11.681  12.795  1.00  0.00    -0.354 N 
ATOM     63  C   UNL     1       1.263 -11.932   9.031  1.00  0.00     0.074 A 
ATOM     64  C   UNL     1       0.735 -10.922   8.159  1.00  0.00     0.031 C 
ATOM     65  C   UNL     1      -1.906 -10.738  14.428  1.00  0.00     0.029 A 
ATOM     66  C   UNL     1      -1.223 -11.967  14.027  1.00  0.00     0.049 A 
ATOM     67  H   UNL     1      -0.177 -12.324  12.266  1.00  0.00     0.167 HD
ATOM     68  C   UNL     1       2.098 -12.915   8.620  1.00  0.00     0.034 A 
ATOM     69  C   UNL     1      -1.149 -13.092  14.761  1.00  0.00     0.034 A 
ATOM     70  C   UNL     1       2.417 -14.063   9.415  1.00  0.00     0.049 A 
ATOM     71  C   UNL     1      -0.333 -14.249  14.268  1.00  0.00     0.074 A 
ATOM     72  C   UNL     1       3.224 -15.140   9.097  1.00  0.00     0.029 A 
ATOM     73  N   UNL     1       1.854 -14.326  10.651  1.00  0.00    -0.354 N 
ATOM     74  N   UNL     1       0.391 -14.341  13.179  1.00  0.00    -0.248 NA
ATOM     75  C   UNL     1      -0.295 -15.444  15.121  1.00  0.00     0.031 C 
ATOM     76  C   UNL     1       3.114 -16.078  10.131  1.00  0.00     0.029 A 
ATOM     77  C   UNL     1       2.260 -15.567  11.096  1.00  0.00     0.049 A 
ATOM     78  H   UNL     1       1.253 -13.719  11.139  1.00  0.00     0.167 HD
ATOM     79  C   UNL     1       0.989 -15.595  13.224  1.00  0.00     0.074 A 
ATOM     80  C   UNL     1       0.547 -16.224  14.453  1.00  0.00     0.031 C 
ATOM     81  C   UNL     1       1.824 -16.173  12.327  1.00  0.00     0.034 A 
BRANCH  68  82
ATOM     82  C   UNL     1       2.751 -12.780   7.269  1.00  0.00     0.023 A 
ATOM     83  C   UNL     1       3.902 -11.969   7.167  1.00  0.00     0.012 A 
ATOM     84  C   UNL     1       2.309 -13.495   6.142  1.00  0.00     0.148 A 
ATOM     85  C   UNL     1       4.606 -11.877   5.966  1.00  0.00     0.002 A 
ATOM     86  C   UNL     1       3.022 -13.406   4.950  1.00  0.00     0.091 A 
ATOM     87  F   UNL     1       1.198 -14.237   6.254  1.00  0.00    -0.205 F 
ATOM     88  C   UNL     1       4.172 -12.602   4.862  1.00  0.00     0.022 A 
BRANCH  86  89
ATOM     89  S   UNL     1       2.543 -14.281   3.456  1.00  0.00     0.127 S 
ATOM     90  O   UNL     1       2.195 -13.166   2.574  1.00  0.00    -0.237 OA
ATOM     91  O   UNL     1       3.775 -14.984   3.101  1.00  0.00    -0.237 OA
ATOM     92  O   UNL     1       1.429 -15.139   3.833  1.00  0.00    -0.744 OA
ENDBRANCH  86  89
ENDBRANCH  68  82
BRANCH  69  93
ATOM     93  C   UNL     1      -1.820 -13.103  16.082  1.00  0.00     0.023 A 
ATOM     94  C   UNL     1      -1.052 -12.901  17.242  1.00  0.00     0.012 A 
ATOM     95  C   UNL     1      -3.224 -13.166  16.174  1.00  0.00     0.148 A 
ATOM     96  C   UNL     1      -1.674 -12.759  18.481  1.00  0.00     0.002 A 
ATOM     97  C   UNL     1      -3.838 -12.986  17.405  1.00  0.00     0.091 A 
ATOM     98  F   UNL     1      -3.924 -13.347  15.045  1.00  0.00    -0.205 F 
ATOM     99  C   UNL     1      -3.065 -12.790  18.561  1.00  0.00     0.022 A 
BRANCH  97 100
ATOM    100  S   UNL     1      -5.622 -12.892  17.591  1.00  0.00     0.127 S 
ATOM    101  O   UNL     1      -5.891 -14.043  18.451  1.00  0.00    -0.237 OA
ATOM    102  O   UNL     1      -5.784 -11.589  18.236  1.00  0.00    -0.237 OA
ATOM    103  O   UNL     1      -6.169 -12.977  16.245  1.00  0.00    -0.744 OA
ENDBRANCH  97 100
ENDBRANCH  69  93
BRANCH  81 104
ATOM    104  C   UNL     1       2.314 -17.564  12.607  1.00  0.00     0.023 A 
ATOM    105  C   UNL     1       1.465 -18.657  12.351  1.00  0.00     0.012 A 
ATOM    106  C   UNL     1       3.651 -17.790  12.985  1.00  0.00     0.148 A 
ATOM    107  C   UNL     1       1.940 -19.961  12.475  1.00  0.00     0.002 A 
ATOM    108  C   UNL     1       4.127 -19.091  13.072  1.00  0.00     0.091 A 
ATOM    109  F   UNL     1       4.433 -16.728  13.227  1.00  0.00    -0.205 F 
ATOM    110  C   UNL     1       3.272 -20.178  12.823  1.00  0.00     0.022 A 
BRANCH 108 111
ATOM    111  S   UNL     1       5.846 -19.469  13.431  1.00  0.00     0.127 S 
ATOM    112  O   UNL     1       5.744 -20.090  14.751  1.00  0.00    -0.237 OA
ATOM    113  O   UNL     1       6.192 -20.388  12.347  1.00  0.00    -0.237 OA
ATOM    114  O   UNL     1       6.554 -18.196  13.398  1.00  0.00    -0.744 OA
ENDBRANCH 108 111
ENDBRANCH  81 104
ENDBRANCH  55  56
ENDBRANCH  48  50
ENDBRANCH  47  48
ENDBRANCH  46  47
ENDBRANCH  45  46
ENDBRANCH  44  45
ENDBRANCH  43  44
ENDBRANCH  42  43
ENDBRANCH  41  42
ENDBRANCH   1  41
TORSDOF 29
