REMARK SMILES C[C@@H](CNC(=O)Cc1ccc(F)cc1F)C(=O)OCCOCCOCCOCCOC(=O)c1ccc(-c2c3nc(c(-c4cccc(S(=O)(=O)[O-])c4F)c4ccc([nH]4)c(-c4cccc(S(=O)(=O)[O-])c4F)c4nc(c(-c5cccc(S(=O)(=O)[O-])c5F)c5ccc2[nH]5)C=C4)C=C3)cc1
REMARK SMILES IDX 23 1 22 2 21 3 20 4 19 5 18 6 16 7 17 8 2 9 1 10 3 11 4 12
REMARK SMILES IDX 5 13 6 15 7 16 8 17 9 18 14 19 10 20 13 21 15 22 11 23 12 24
REMARK SMILES IDX 24 25 25 26 26 27 27 28 28 29 29 30 30 31 31 32 32 33 33 34
REMARK SMILES IDX 34 35 95 36 35 37 94 38 36 39 37 40 38 41 88 42 39 43 93 44
REMARK SMILES IDX 87 45 89 46 40 47 92 48 86 49 85 50 41 52 73 53 53 54 72 55
REMARK SMILES IDX 54 56 57 57 71 58 90 59 55 60 56 61 70 63 91 64 58 65 42 66
REMARK SMILES IDX 43 67 51 68 44 69 46 70 52 71 45 72 47 73 48 74 49 75 50 76
REMARK SMILES IDX 74 77 75 78 83 79 76 80 78 81 84 82 77 83 79 84 80 85 81 86
REMARK SMILES IDX 82 87 59 88 60 89 68 90 61 91 63 92 69 93 62 94 64 95 65 96
REMARK SMILES IDX 66 97 67 98
REMARK H PARENT 4 14 89 51 57 62
REMARK Flexibility Score: inf
ROOT
ATOM      1  C   UNL     1      -1.248  -1.500  -0.775  1.00  0.00     0.188 C 
ENDROOT
BRANCH   1   2
ATOM      2  C   UNL     1      -2.246  -2.016   0.270  1.00  0.00     0.188 C 
BRANCH   2   3
ATOM      3  O   UNL     1      -3.428  -1.240   0.376  1.00  0.00    -0.376 OA
BRANCH   3   4
ATOM      4  C   UNL     1      -3.472  -0.265   1.399  1.00  0.00     0.202 C 
BRANCH   4   5
ATOM      5  C   UNL     1      -2.625   1.008   1.257  1.00  0.00     0.261 C 
BRANCH   5   6
ATOM      6  O   UNL     1      -1.206   0.920   1.042  1.00  0.00    -0.463 OA
BRANCH   6   7
ATOM      7  C   UNL     1      -0.418   0.146   1.811  1.00  0.00     0.310 C 
ATOM      8  O   UNL     1      -0.810  -0.692   2.610  1.00  0.00    -0.252 OA
BRANCH   7   9
ATOM      9  C   UNL     1       1.052   0.470   1.647  1.00  0.00     0.115 C 
ATOM     10  C   UNL     1       1.454   0.888   0.233  1.00  0.00     0.022 C 
BRANCH   9  11
ATOM     11  C   UNL     1       1.438   1.507   2.708  1.00  0.00     0.130 C 
BRANCH  11  12
ATOM     12  N   UNL     1       0.581   2.680   2.677  1.00  0.00    -0.355 N 
ATOM     13  C   UNL     1      -0.457   2.992   3.511  1.00  0.00     0.224 C 
ATOM     14  H   UNL     1       0.772   3.333   1.965  1.00  0.00     0.163 HD
ATOM     15  O   UNL     1      -1.335   3.752   3.100  1.00  0.00    -0.275 OA
BRANCH  13  16
ATOM     16  C   UNL     1      -0.521   2.416   4.917  1.00  0.00     0.138 C 
BRANCH  16  17
ATOM     17  C   UNL     1      -1.392   1.190   5.058  1.00  0.00    -0.003 A 
ATOM     18  C   UNL     1      -2.775   1.252   4.821  1.00  0.00     0.010 A 
ATOM     19  C   UNL     1      -0.831  -0.050   5.393  1.00  0.00     0.129 A 
ATOM     20  C   UNL     1      -3.549   0.088   4.850  1.00  0.00     0.040 A 
ATOM     21  C   UNL     1      -1.592  -1.215   5.414  1.00  0.00     0.078 A 
ATOM     22  F   UNL     1       0.485  -0.142   5.637  1.00  0.00    -0.207 F 
ATOM     23  C   UNL     1      -2.944  -1.137   5.119  1.00  0.00     0.126 A 
ATOM     24  F   UNL     1      -3.671  -2.261   5.047  1.00  0.00    -0.207 F 
ENDBRANCH  16  17
ENDBRANCH  13  16
ENDBRANCH  11  12
ENDBRANCH   9  11
ENDBRANCH   7   9
ENDBRANCH   6   7
ENDBRANCH   5   6
ENDBRANCH   4   5
ENDBRANCH   3   4
ENDBRANCH   2   3
ENDBRANCH   1   2
BRANCH   1  25
ATOM     25  O   UNL     1      -1.540  -0.284  -1.447  1.00  0.00    -0.377 OA
BRANCH  25  26
ATOM     26  C   UNL     1      -2.825  -0.079  -2.034  1.00  0.00     0.188 C 
BRANCH  26  27
ATOM     27  C   UNL     1      -3.733  -1.276  -2.386  1.00  0.00     0.188 C 
BRANCH  27  28
ATOM     28  O   UNL     1      -3.065  -2.523  -2.457  1.00  0.00    -0.376 OA
BRANCH  28  29
ATOM     29  C   UNL     1      -2.614  -2.958  -3.728  1.00  0.00     0.202 C 
BRANCH  29  30
ATOM     30  C   UNL     1      -1.675  -2.038  -4.524  1.00  0.00     0.261 C 
BRANCH  30  31
ATOM     31  O   UNL     1      -2.153  -0.718  -4.836  1.00  0.00    -0.460 OA
BRANCH  31  32
ATOM     32  C   UNL     1      -3.329  -0.587  -5.495  1.00  0.00     0.338 C 
ATOM     33  O   UNL     1      -4.025  -1.478  -5.928  1.00  0.00    -0.246 OA
BRANCH  32  34
ATOM     34  C   UNL     1      -3.733   0.840  -5.398  1.00  0.00     0.060 A 
ATOM     35  C   UNL     1      -4.937   1.168  -4.756  1.00  0.00     0.016 A 
ATOM     36  C   UNL     1      -2.913   1.847  -5.907  1.00  0.00     0.016 A 
ATOM     37  C   UNL     1      -5.335   2.502  -4.648  1.00  0.00     0.010 A 
ATOM     38  C   UNL     1      -3.328   3.181  -5.825  1.00  0.00     0.010 A 
ATOM     39  C   UNL     1      -4.555   3.512  -5.223  1.00  0.00    -0.014 A 
BRANCH  39  40
ATOM     40  C   UNL     1      -5.108   4.882  -5.366  1.00  0.00     0.031 A 
ATOM     41  C   UNL     1      -5.718   5.269  -6.687  1.00  0.00     0.074 A 
ATOM     42  C   UNL     1      -5.068   5.769  -4.354  1.00  0.00     0.049 A 
ATOM     43  N   UNL     1      -6.204   6.420  -7.071  1.00  0.00    -0.248 NA
ATOM     44  C   UNL     1      -5.786   4.215  -7.714  1.00  0.00     0.031 C 
ATOM     45  C   UNL     1      -4.523   5.511  -3.023  1.00  0.00     0.029 A 
ATOM     46  N   UNL     1      -5.470   7.082  -4.306  1.00  0.00    -0.354 N 
ATOM     47  C   UNL     1      -6.602   6.241  -8.390  1.00  0.00     0.074 A 
ATOM     48  C   UNL     1      -6.302   4.871  -8.743  1.00  0.00     0.031 C 
ATOM     49  C   UNL     1      -4.588   6.644  -2.300  1.00  0.00     0.029 A 
ATOM     50  C   UNL     1      -5.149   7.712  -3.126  1.00  0.00     0.049 A 
ATOM     51  H   UNL     1      -5.942   7.529  -5.046  1.00  0.00     0.167 HD
ATOM     52  C   UNL     1      -7.171   7.134  -9.232  1.00  0.00     0.034 A 
ATOM     53  C   UNL     1      -5.263   9.008  -2.770  1.00  0.00     0.034 A 
ATOM     54  C   UNL     1      -7.482   8.492  -8.877  1.00  0.00     0.049 A 
ATOM     55  C   UNL     1      -5.865   9.992  -3.744  1.00  0.00     0.074 A 
ATOM     56  C   UNL     1      -8.106   9.458  -9.647  1.00  0.00     0.029 A 
ATOM     57  N   UNL     1      -7.175   9.084  -7.663  1.00  0.00    -0.354 N 
ATOM     58  N   UNL     1      -6.343   9.780  -4.946  1.00  0.00    -0.248 NA
ATOM     59  C   UNL     1      -5.969  11.390  -3.299  1.00  0.00     0.031 C 
ATOM     60  C   UNL     1      -8.136  10.648  -8.914  1.00  0.00     0.029 A 
ATOM     61  C   UNL     1      -7.576  10.409  -7.669  1.00  0.00     0.049 A 
ATOM     62  H   UNL     1      -6.737   8.629  -6.907  1.00  0.00     0.167 HD
ATOM     63  C   UNL     1      -6.837  11.006  -5.384  1.00  0.00     0.074 A 
ATOM     64  C   UNL     1      -6.622  11.950  -4.308  1.00  0.00     0.031 C 
ATOM     65  C   UNL     1      -7.404  11.326  -6.574  1.00  0.00     0.034 A 
BRANCH  52  66
ATOM     66  C   UNL     1      -7.504   6.677 -10.627  1.00  0.00     0.023 A 
ATOM     67  C   UNL     1      -8.589   5.805 -10.843  1.00  0.00     0.012 A 
ATOM     68  C   UNL     1      -6.789   7.181 -11.732  1.00  0.00     0.148 A 
ATOM     69  C   UNL     1      -8.945   5.424 -12.136  1.00  0.00     0.002 A 
ATOM     70  C   UNL     1      -7.178   6.834 -13.019  1.00  0.00     0.091 A 
ATOM     71  F   UNL     1      -5.746   7.991 -11.501  1.00  0.00    -0.205 F 
ATOM     72  C   UNL     1      -8.249   5.948 -13.223  1.00  0.00     0.022 A 
BRANCH  70  73
ATOM     73  S   UNL     1      -6.400   7.518 -14.486  1.00  0.00     0.127 S 
ATOM     74  O   UNL     1      -5.777   6.330 -15.069  1.00  0.00    -0.237 OA
ATOM     75  O   UNL     1      -7.551   8.031 -15.230  1.00  0.00    -0.237 OA
ATOM     76  O   UNL     1      -5.472   8.536 -14.015  1.00  0.00    -0.744 OA
ENDBRANCH  70  73
ENDBRANCH  52  66
BRANCH  53  77
ATOM     77  C   UNL     1      -4.793   9.468  -1.431  1.00  0.00     0.023 A 
ATOM     78  C   UNL     1      -5.725   9.947  -0.488  1.00  0.00     0.012 A 
ATOM     79  C   UNL     1      -3.424   9.464  -1.098  1.00  0.00     0.148 A 
ATOM     80  C   UNL     1      -5.299  10.451   0.742  1.00  0.00     0.002 A 
ATOM     81  C   UNL     1      -3.012   9.915   0.150  1.00  0.00     0.091 A 
ATOM     82  F   UNL     1      -2.550   9.027  -2.015  1.00  0.00    -0.205 F 
ATOM     83  C   UNL     1      -3.945  10.427   1.064  1.00  0.00     0.022 A 
BRANCH  81  84
ATOM     84  S   UNL     1      -1.301   9.821   0.689  1.00  0.00     0.127 S 
ATOM     85  O   UNL     1      -0.903  11.226   0.666  1.00  0.00    -0.237 OA
ATOM     86  O   UNL     1      -1.435   9.242   2.026  1.00  0.00    -0.237 OA
ATOM     87  O   UNL     1      -0.631   8.959  -0.276  1.00  0.00    -0.744 OA
ENDBRANCH  81  84
ENDBRANCH  53  77
BRANCH  65  88
ATOM     88  C   UNL     1      -7.881  12.744  -6.769  1.00  0.00     0.023 A 
ATOM     89  C   UNL     1      -6.948  13.791  -6.911  1.00  0.00     0.012 A 
ATOM     90  C   UNL     1      -9.257  13.026  -6.884  1.00  0.00     0.148 A 
ATOM     91  C   UNL     1      -7.379  15.100  -7.125  1.00  0.00     0.002 A 
ATOM     92  C   UNL     1      -9.677  14.323  -7.152  1.00  0.00     0.091 A 
ATOM     93  F   UNL     1     -10.130  12.019  -6.734  1.00  0.00    -0.205 F 
ATOM     94  C   UNL     1      -8.740  15.364  -7.257  1.00  0.00     0.022 A 
BRANCH  92  95
ATOM     95  S   UNL     1     -11.400  14.742  -7.437  1.00  0.00     0.127 S 
ATOM     96  O   UNL     1     -11.718  15.524  -6.243  1.00  0.00    -0.237 OA
ATOM     97  O   UNL     1     -11.329  15.520  -8.674  1.00  0.00    -0.237 OA
ATOM     98  O   UNL     1     -12.109  13.476  -7.558  1.00  0.00    -0.744 OA
ENDBRANCH  92  95
ENDBRANCH  65  88
ENDBRANCH  39  40
ENDBRANCH  32  34
ENDBRANCH  31  32
ENDBRANCH  30  31
ENDBRANCH  29  30
ENDBRANCH  28  29
ENDBRANCH  27  28
ENDBRANCH  26  27
ENDBRANCH  25  26
ENDBRANCH   1  25
TORSDOF 27
