REMARK SMILES CC[C@@](C)(NC(=O)c1cccc2ccccc12)C(=O)OCCOCCOCCOCCOC(=O)c1ccc(-c2c3nc(c(-c4cccc(S(=O)(=O)[O-])c4F)c4ccc([nH]4)c(-c4cccc(S(=O)(=O)[O-])c4F)c4nc(c(-c5cccc(S(=O)(=O)[O-])c5F)c5ccc2[nH]5)C=C4)C=C3)cc1
REMARK SMILES IDX 27 1 26 2 25 3 24 4 23 5 22 6 21 7 20 8 18 9 19 10 3 11 4 12
REMARK SMILES IDX 2 13 1 14 5 15 6 16 7 18 8 19 9 20 17 21 10 22 12 23 16 24
REMARK SMILES IDX 11 25 13 26 15 27 14 28 28 29 29 30 30 31 31 32 32 33 33 34
REMARK SMILES IDX 34 35 35 36 36 37 97 38 37 39 96 40 38 41 39 42 40 43 90 44
REMARK SMILES IDX 41 45 95 46 89 47 91 48 42 49 94 50 88 51 87 52 43 54 75 55
REMARK SMILES IDX 55 56 74 57 56 58 59 59 73 60 92 61 57 62 58 63 72 65 93 66
REMARK SMILES IDX 60 67 44 68 45 69 53 70 46 71 48 72 54 73 47 74 49 75 50 76
REMARK SMILES IDX 51 77 52 78 76 79 77 80 85 81 78 82 80 83 86 84 79 85 81 86
REMARK SMILES IDX 82 87 83 88 84 89 61 90 62 91 70 92 63 93 65 94 71 95 64 96
REMARK SMILES IDX 66 97 67 98 68 99 69 100
REMARK H PARENT 5 17 91 53 59 64
REMARK Flexibility Score: inf
ROOT
ATOM      1  C   UNL     1       3.833  -3.933   5.185  1.00  0.00     0.188 C 
ENDROOT
BRANCH   1   2
ATOM      2  O   UNL     1       2.431  -3.584   4.272  1.00  0.00    -0.377 OA
BRANCH   2   3
ATOM      3  C   UNL     1       2.054  -3.696   2.714  1.00  0.00     0.188 C 
BRANCH   3   4
ATOM      4  C   UNL     1       2.530  -2.793   1.319  1.00  0.00     0.188 C 
BRANCH   4   5
ATOM      5  O   UNL     1       3.889  -2.505   0.944  1.00  0.00    -0.376 OA
BRANCH   5   6
ATOM      6  C   UNL     1       4.224  -1.312   0.193  1.00  0.00     0.202 C 
BRANCH   6   7
ATOM      7  C   UNL     1       4.267   0.079   0.882  1.00  0.00     0.261 C 
BRANCH   7   8
ATOM      8  O   UNL     1       3.254   0.163   1.865  1.00  0.00    -0.462 OA
BRANCH   8   9
ATOM      9  C   UNL     1       2.110   0.822   1.654  1.00  0.00     0.331 C 
ATOM     10  O   UNL     1       1.985   1.770   0.892  1.00  0.00    -0.249 OA
BRANCH   9  11
ATOM     11  C   UNL     1       0.975   0.098   2.429  1.00  0.00     0.135 C 
ATOM     12  C   UNL     1       0.229   1.121   3.292  1.00  0.00     0.047 C 
BRANCH  11  13
ATOM     13  C   UNL     1      -0.067  -0.500   1.383  1.00  0.00     0.037 C 
ATOM     14  C   UNL     1       0.054  -0.064  -0.082  1.00  0.00     0.007 C 
ENDBRANCH  11  13
BRANCH  11  15
ATOM     15  N   UNL     1       1.456  -1.064   3.306  1.00  0.00    -0.336 N 
ATOM     16  C   UNL     1       2.594  -1.194   4.118  1.00  0.00     0.252 C 
ATOM     17  H   UNL     1       0.866  -1.853   3.299  1.00  0.00     0.165 HD
ATOM     18  O   UNL     1       2.450  -0.935   5.315  1.00  0.00    -0.269 OA
BRANCH  16  19
ATOM     19  C   UNL     1       4.022  -1.678   3.585  1.00  0.00     0.047 A 
ATOM     20  C   UNL     1       4.907  -0.625   3.965  1.00  0.00     0.014 A 
ATOM     21  C   UNL     1       4.602  -3.097   3.165  1.00  0.00    -0.006 A 
ATOM     22  C   UNL     1       6.276  -0.577   3.695  1.00  0.00     0.001 A 
ATOM     23  C   UNL     1       6.332  -2.817   2.897  1.00  0.00    -0.018 A 
ATOM     24  C   UNL     1       4.152  -4.956   3.356  1.00  0.00     0.009 A 
ATOM     25  C   UNL     1       6.938  -1.589   3.029  1.00  0.00     0.009 A 
ATOM     26  C   UNL     1       7.492  -4.084   2.920  1.00  0.00     0.009 A 
ATOM     27  C   UNL     1       5.563  -6.187   3.486  1.00  0.00     0.001 A 
ATOM     28  C   UNL     1       7.162  -5.688   3.222  1.00  0.00     0.001 A 
ENDBRANCH  16  19
ENDBRANCH  11  15
ENDBRANCH   9  11
ENDBRANCH   8   9
ENDBRANCH   7   8
ENDBRANCH   6   7
ENDBRANCH   5   6
ENDBRANCH   4   5
ENDBRANCH   3   4
ENDBRANCH   2   3
ENDBRANCH   1   2
BRANCH   1  29
ATOM     29  C   UNL     1       5.581  -4.318   4.427  1.00  0.00     0.188 C 
BRANCH  29  30
ATOM     30  O   UNL     1       5.616  -4.633   2.405  1.00  0.00    -0.376 OA
BRANCH  30  31
ATOM     31  C   UNL     1       4.648  -5.874   1.483  1.00  0.00     0.202 C 
BRANCH  31  32
ATOM     32  C   UNL     1       3.663  -7.250   2.249  1.00  0.00     0.261 C 
BRANCH  32  33
ATOM     33  O   UNL     1       3.373  -7.354   3.822  1.00  0.00    -0.460 OA
BRANCH  33  34
ATOM     34  C   UNL     1       3.991  -8.210   4.734  1.00  0.00     0.338 C 
ATOM     35  O   UNL     1       4.431  -9.305   4.406  1.00  0.00    -0.246 OA
BRANCH  34  36
ATOM     36  C   UNL     1       4.493  -7.522   6.050  1.00  0.00     0.060 A 
ATOM     37  C   UNL     1       5.882  -7.301   6.212  1.00  0.00     0.016 A 
ATOM     38  C   UNL     1       3.704  -7.110   7.129  1.00  0.00     0.016 A 
ATOM     39  C   UNL     1       6.442  -6.559   7.293  1.00  0.00     0.010 A 
ATOM     40  C   UNL     1       4.283  -6.455   8.280  1.00  0.00     0.010 A 
ATOM     41  C   UNL     1       5.658  -6.145   8.376  1.00  0.00    -0.014 A 
BRANCH  41  42
ATOM     42  C   UNL     1       6.337  -5.707   9.671  1.00  0.00     0.031 A 
ATOM     43  C   UNL     1       6.971  -6.799  10.523  1.00  0.00     0.074 A 
ATOM     44  C   UNL     1       6.465  -4.436  10.131  1.00  0.00     0.049 A 
ATOM     45  N   UNL     1       7.578  -6.725  11.683  1.00  0.00    -0.248 NA
ATOM     46  C   UNL     1       6.917  -8.160   9.968  1.00  0.00     0.031 C 
ATOM     47  C   UNL     1       6.020  -3.222   9.454  1.00  0.00     0.029 A 
ATOM     48  N   UNL     1       7.016  -3.956  11.316  1.00  0.00    -0.354 N 
ATOM     49  C   UNL     1       7.948  -8.028  12.006  1.00  0.00     0.074 A 
ATOM     50  C   UNL     1       7.524  -8.866  10.907  1.00  0.00     0.031 C 
ATOM     51  C   UNL     1       6.274  -2.154  10.240  1.00  0.00     0.029 A 
ATOM     52  C   UNL     1       6.878  -2.592  11.502  1.00  0.00     0.049 A 
ATOM     53  H   UNL     1       7.468  -4.539  11.968  1.00  0.00     0.167 HD
ATOM     54  C   UNL     1       8.569  -8.513  13.109  1.00  0.00     0.034 A 
ATOM     55  C   UNL     1       7.168  -1.790  12.560  1.00  0.00     0.034 A 
ATOM     56  C   UNL     1       8.990  -7.735  14.239  1.00  0.00     0.049 A 
ATOM     57  C   UNL     1       7.790  -2.364  13.823  1.00  0.00     0.074 A 
ATOM     58  C   UNL     1       9.613  -8.174  15.396  1.00  0.00     0.029 A 
ATOM     59  N   UNL     1       8.815  -6.370  14.374  1.00  0.00    -0.354 N 
ATOM     60  N   UNL     1       8.197  -3.586  14.067  1.00  0.00    -0.248 NA
ATOM     61  C   UNL     1       8.012  -1.438  14.954  1.00  0.00     0.031 C 
ATOM     62  C   UNL     1       9.787  -7.077  16.245  1.00  0.00     0.029 A 
ATOM     63  C   UNL     1       9.306  -5.951  15.600  1.00  0.00     0.049 A 
ATOM     64  H   UNL     1       8.402  -5.784  13.700  1.00  0.00     0.167 HD
ATOM     65  C   UNL     1       8.747  -3.566  15.350  1.00  0.00     0.074 A 
ATOM     66  C   UNL     1       8.645  -2.207  15.831  1.00  0.00     0.031 C 
ATOM     67  C   UNL     1       9.274  -4.590  16.067  1.00  0.00     0.034 A 
BRANCH  54  68
ATOM     68  C   UNL     1       8.810  -9.999  13.155  1.00  0.00     0.023 A 
ATOM     69  C   UNL     1       9.833 -10.567  12.369  1.00  0.00     0.012 A 
ATOM     70  C   UNL     1       8.037 -10.826  13.993  1.00  0.00     0.148 A 
ATOM     71  C   UNL     1      10.058 -11.943  12.388  1.00  0.00     0.002 A 
ATOM     72  C   UNL     1       8.296 -12.189  14.040  1.00  0.00     0.091 A 
ATOM     73  F   UNL     1       7.055 -10.265  14.713  1.00  0.00    -0.205 F 
ATOM     74  C   UNL     1       9.296 -12.751  13.229  1.00  0.00     0.022 A 
BRANCH  72  75
ATOM     75  S   UNL     1       7.421 -13.302  15.144  1.00  0.00     0.127 S 
ATOM     76  O   UNL     1       6.618 -14.080  14.202  1.00  0.00    -0.237 OA
ATOM     77  O   UNL     1       8.519 -14.042  15.767  1.00  0.00    -0.237 OA
ATOM     78  O   UNL     1       6.666 -12.454  16.056  1.00  0.00    -0.744 OA
ENDBRANCH  72  75
ENDBRANCH  54  68
BRANCH  55  79
ATOM     79  C   UNL     1       6.864  -0.317  12.521  1.00  0.00     0.023 A 
ATOM     80  C   UNL     1       7.915   0.625  12.580  1.00  0.00     0.012 A 
ATOM     81  C   UNL     1       5.537   0.156  12.498  1.00  0.00     0.148 A 
ATOM     82  C   UNL     1       7.649   1.997  12.645  1.00  0.00     0.002 A 
ATOM     83  C   UNL     1       5.281   1.525  12.504  1.00  0.00     0.091 A 
ATOM     84  F   UNL     1       4.544  -0.745  12.494  1.00  0.00    -0.205 F 
ATOM     85  C   UNL     1       6.334   2.447  12.594  1.00  0.00     0.022 A 
BRANCH  83  86
ATOM     86  S   UNL     1       3.625   2.205  12.339  1.00  0.00     0.127 S 
ATOM     87  O   UNL     1       3.422   2.827  13.645  1.00  0.00    -0.237 OA
ATOM     88  O   UNL     1       3.798   3.145  11.231  1.00  0.00    -0.237 OA
ATOM     89  O   UNL     1       2.761   1.071  12.042  1.00  0.00    -0.744 OA
ENDBRANCH  83  86
ENDBRANCH  55  79
BRANCH  67  90
ATOM     90  C   UNL     1       9.839  -4.308  17.440  1.00  0.00     0.023 A 
ATOM     91  C   UNL     1       8.975  -4.037  18.519  1.00  0.00     0.012 A 
ATOM     92  C   UNL     1      11.225  -4.421  17.684  1.00  0.00     0.148 A 
ATOM     93  C   UNL     1       9.479  -3.856  19.809  1.00  0.00     0.002 A 
ATOM     94  C   UNL     1      11.716  -4.285  18.980  1.00  0.00     0.091 A 
ATOM     95  F   UNL     1      12.038  -4.667  16.647  1.00  0.00    -0.205 F 
ATOM     96  C   UNL     1      10.846  -3.991  20.041  1.00  0.00     0.022 A 
BRANCH  94  97
ATOM     97  S   UNL     1      13.449  -4.540  19.387  1.00  0.00     0.127 S 
ATOM     98  O   UNL     1      13.902  -3.173  19.635  1.00  0.00    -0.237 OA
ATOM     99  O   UNL     1      13.369  -5.382  20.581  1.00  0.00    -0.237 OA
ATOM    100  O   UNL     1      14.041  -5.195  18.228  1.00  0.00    -0.744 OA
ENDBRANCH  94  97
ENDBRANCH  67  90
ENDBRANCH  41  42
ENDBRANCH  34  36
ENDBRANCH  33  34
ENDBRANCH  32  33
ENDBRANCH  31  32
ENDBRANCH  30  31
ENDBRANCH  29  30
ENDBRANCH   1  29
TORSDOF 26
