REMARK SMILES O=C(OCCOCCOCCOCCOC(=O)[C@H]1C[C@H](O)CN1C(=O)c1ccccc1O)c1ccc(-c2c3nc(c(-c4cccc(S(=O)(=O)[O-])c4F)c4ccc([nH]4)c(-c4cccc(S(=O)(=O)[O-])c4F)c4nc(c(-c5cccc(S(=O)(=O)[O-])c5F)c5ccc2[nH]5)C=C4)C=C3)cc1
REMARK SMILES IDX 9 1 8 2 7 3 6 4 5 5 4 6 3 7 2 8 1 9 33 10 34 11 95 12 35 13
REMARK SMILES IDX 94 14 36 15 37 16 38 17 88 18 39 19 93 20 87 21 89 22 40 23
REMARK SMILES IDX 92 24 86 25 85 26 41 28 73 29 53 30 72 31 54 32 57 33 71 34
REMARK SMILES IDX 90 35 55 36 56 37 70 39 91 40 58 41 42 42 43 43 51 44 44 45
REMARK SMILES IDX 46 46 52 47 45 48 47 49 48 50 49 51 50 52 74 53 75 54 83 55
REMARK SMILES IDX 76 56 78 57 84 58 77 59 79 60 80 61 81 62 82 63 59 64 60 65
REMARK SMILES IDX 68 66 61 67 63 68 69 69 62 70 64 71 65 72 66 73 67 74 10 75
REMARK SMILES IDX 11 76 12 77 13 78 14 79 15 80 16 81 17 82 18 83 19 84 23 85
REMARK SMILES IDX 20 86 22 87 24 88 25 89 26 90 27 91 31 92 28 93 30 94 29 95
REMARK SMILES IDX 32 96 21 98
REMARK H PARENT 89 27 57 38 32 97 21 99
REMARK Flexibility Score: inf
ROOT
ATOM      1  O   UNL     1       2.664  -1.234   3.355  1.00  0.00    -0.377 OA
ENDROOT
BRANCH   1   2
ATOM      2  C   UNL     1       1.887  -1.083   2.182  1.00  0.00     0.188 C 
BRANCH   2   3
ATOM      3  C   UNL     1       2.356   0.015   1.243  1.00  0.00     0.188 C 
BRANCH   3   4
ATOM      4  O   UNL     1       3.702  -0.246   0.878  1.00  0.00    -0.376 OA
BRANCH   4   5
ATOM      5  C   UNL     1       4.616   0.823   0.667  1.00  0.00     0.202 C 
BRANCH   5   6
ATOM      6  C   UNL     1       4.390   1.631  -0.606  1.00  0.00     0.261 C 
BRANCH   6   7
ATOM      7  O   UNL     1       3.011   1.676  -0.997  1.00  0.00    -0.460 OA
BRANCH   7   8
ATOM      8  C   UNL     1       2.382   0.816  -1.844  1.00  0.00     0.338 C 
ATOM      9  O   UNL     1       1.220   1.061  -2.161  1.00  0.00    -0.246 OA
BRANCH   8  10
ATOM     10  C   UNL     1       3.021  -0.427  -2.382  1.00  0.00     0.060 A 
ATOM     11  C   UNL     1       4.043  -1.130  -1.749  1.00  0.00     0.016 A 
ATOM     12  C   UNL     1       2.508  -0.973  -3.565  1.00  0.00     0.016 A 
ATOM     13  C   UNL     1       4.586  -2.285  -2.245  1.00  0.00     0.010 A 
ATOM     14  C   UNL     1       3.039  -2.159  -4.086  1.00  0.00     0.010 A 
ATOM     15  C   UNL     1       4.088  -2.802  -3.419  1.00  0.00    -0.014 A 
BRANCH  15  16
ATOM     16  C   UNL     1       4.849  -3.922  -3.963  1.00  0.00     0.031 A 
ATOM     17  C   UNL     1       5.798  -3.620  -5.071  1.00  0.00     0.074 A 
ATOM     18  C   UNL     1       4.822  -5.105  -3.325  1.00  0.00     0.049 A 
ATOM     19  N   UNL     1       6.511  -4.440  -5.782  1.00  0.00    -0.248 NA
ATOM     20  C   UNL     1       5.991  -2.195  -5.411  1.00  0.00     0.031 C 
ATOM     21  C   UNL     1       4.077  -5.388  -2.091  1.00  0.00     0.029 A 
ATOM     22  N   UNL     1       5.444  -6.285  -3.615  1.00  0.00    -0.354 N 
ATOM     23  C   UNL     1       7.154  -3.647  -6.718  1.00  0.00     0.074 A 
ATOM     24  C   UNL     1       6.813  -2.272  -6.445  1.00  0.00     0.031 C 
ATOM     25  C   UNL     1       4.250  -6.676  -1.760  1.00  0.00     0.029 A 
ATOM     26  C   UNL     1       5.036  -7.317  -2.803  1.00  0.00     0.049 A 
ATOM     27  H   UNL     1       6.113  -6.386  -4.330  1.00  0.00     0.167 HD
ATOM     28  C   UNL     1       7.925  -4.063  -7.742  1.00  0.00     0.034 A 
ATOM     29  C   UNL     1       5.212  -8.640  -2.960  1.00  0.00     0.034 A 
ATOM     30  C   UNL     1       8.234  -5.445  -7.957  1.00  0.00     0.049 A 
ATOM     31  C   UNL     1       5.997  -9.080  -4.167  1.00  0.00     0.074 A 
ATOM     32  C   UNL     1       8.977  -6.016  -8.968  1.00  0.00     0.029 A 
ATOM     33  N   UNL     1       7.786  -6.478  -7.143  1.00  0.00    -0.354 N 
ATOM     34  N   UNL     1       6.613  -8.341  -5.063  1.00  0.00    -0.248 NA
ATOM     35  C   UNL     1       6.114 -10.524  -4.393  1.00  0.00     0.031 C 
ATOM     36  C   UNL     1       8.936  -7.402  -8.793  1.00  0.00     0.029 A 
ATOM     37  C   UNL     1       8.207  -7.690  -7.646  1.00  0.00     0.049 A 
ATOM     38  H   UNL     1       7.248  -6.361  -6.327  1.00  0.00     0.167 HD
ATOM     39  C   UNL     1       7.202  -9.229  -5.950  1.00  0.00     0.074 A 
ATOM     40  C   UNL     1       6.899 -10.561  -5.461  1.00  0.00     0.031 C 
ATOM     41  C   UNL     1       7.908  -8.981  -7.081  1.00  0.00     0.034 A 
BRANCH  28  42
ATOM     42  C   UNL     1       8.372  -3.036  -8.736  1.00  0.00     0.023 A 
ATOM     43  C   UNL     1       9.406  -2.132  -8.431  1.00  0.00     0.012 A 
ATOM     44  C   UNL     1       7.748  -2.982  -9.998  1.00  0.00     0.148 A 
ATOM     45  C   UNL     1       9.804  -1.176  -9.366  1.00  0.00     0.002 A 
ATOM     46  C   UNL     1       8.179  -2.060 -10.939  1.00  0.00     0.091 A 
ATOM     47  F   UNL     1       6.737  -3.826 -10.244  1.00  0.00    -0.205 F 
ATOM     48  C   UNL     1       9.199  -1.148 -10.622  1.00  0.00     0.022 A 
BRANCH  46  49
ATOM     49  S   UNL     1       7.508  -1.984 -12.601  1.00  0.00     0.127 S 
ATOM     50  O   UNL     1       6.954  -0.634 -12.638  1.00  0.00    -0.237 OA
ATOM     51  O   UNL     1       8.701  -2.182 -13.417  1.00  0.00    -0.237 OA
ATOM     52  O   UNL     1       6.518  -3.057 -12.687  1.00  0.00    -0.744 OA
ENDBRANCH  46  49
ENDBRANCH  28  42
BRANCH  29  53
ATOM     53  C   UNL     1       4.569  -9.618  -2.038  1.00  0.00     0.023 A 
ATOM     54  C   UNL     1       5.365 -10.501  -1.284  1.00  0.00     0.012 A 
ATOM     55  C   UNL     1       3.164  -9.702  -1.924  1.00  0.00     0.148 A 
ATOM     56  C   UNL     1       4.777 -11.475  -0.475  1.00  0.00     0.002 A 
ATOM     57  C   UNL     1       2.586 -10.634  -1.071  1.00  0.00     0.091 A 
ATOM     58  F   UNL     1       2.413  -8.873  -2.664  1.00  0.00    -0.205 F 
ATOM     59  C   UNL     1       3.390 -11.538  -0.363  1.00  0.00     0.022 A 
BRANCH  57  60
ATOM     60  S   UNL     1       0.815 -10.704  -0.781  1.00  0.00     0.127 S 
ATOM     61  O   UNL     1       0.433 -11.893  -1.533  1.00  0.00    -0.237 OA
ATOM     62  O   UNL     1       0.749 -10.844   0.674  1.00  0.00    -0.237 OA
ATOM     63  O   UNL     1       0.288  -9.437  -1.281  1.00  0.00    -0.744 OA
ENDBRANCH  57  60
ENDBRANCH  29  53
BRANCH  41  64
ATOM     64  C   UNL     1       8.416 -10.172  -7.839  1.00  0.00     0.023 A 
ATOM     65  C   UNL     1       7.521 -10.953  -8.594  1.00  0.00     0.012 A 
ATOM     66  C   UNL     1       9.797 -10.438  -7.889  1.00  0.00     0.148 A 
ATOM     67  C   UNL     1       7.995 -12.003  -9.374  1.00  0.00     0.002 A 
ATOM     68  C   UNL     1      10.267 -11.445  -8.716  1.00  0.00     0.091 A 
ATOM     69  F   UNL     1      10.621  -9.682  -7.147  1.00  0.00    -0.205 F 
ATOM     70  C   UNL     1       9.367 -12.238  -9.448  1.00  0.00     0.022 A 
BRANCH  68  71
ATOM     71  S   UNL     1      12.018 -11.741  -8.966  1.00  0.00     0.127 S 
ATOM     72  O   UNL     1      12.193 -13.046  -8.331  1.00  0.00    -0.237 OA
ATOM     73  O   UNL     1      12.123 -11.750 -10.425  1.00  0.00    -0.237 OA
ATOM     74  O   UNL     1      12.713 -10.636  -8.316  1.00  0.00    -0.744 OA
ENDBRANCH  68  71
ENDBRANCH  41  64
ENDBRANCH  15  16
ENDBRANCH   8  10
ENDBRANCH   7   8
ENDBRANCH   6   7
ENDBRANCH   5   6
ENDBRANCH   4   5
ENDBRANCH   3   4
ENDBRANCH   2   3
ENDBRANCH   1   2
BRANCH   1  75
ATOM     75  C   UNL     1       4.071  -1.312   3.220  1.00  0.00     0.188 C 
BRANCH  75  76
ATOM     76  C   UNL     1       4.796  -2.564   2.725  1.00  0.00     0.188 C 
BRANCH  76  77
ATOM     77  O   UNL     1       4.060  -3.670   2.263  1.00  0.00    -0.376 OA
BRANCH  77  78
ATOM     78  C   UNL     1       3.027  -4.206   3.081  1.00  0.00     0.202 C 
BRANCH  78  79
ATOM     79  C   UNL     1       3.161  -4.237   4.620  1.00  0.00     0.261 C 
BRANCH  79  80
ATOM     80  O   UNL     1       3.363  -2.940   5.237  1.00  0.00    -0.462 OA
BRANCH  80  81
ATOM     81  C   UNL     1       4.288  -2.840   6.220  1.00  0.00     0.329 C 
ATOM     82  O   UNL     1       4.834  -3.820   6.728  1.00  0.00    -0.250 OA
BRANCH  81  83
ATOM     83  C   UNL     1       4.722  -1.385   6.636  1.00  0.00     0.198 C 
ATOM     84  C   UNL     1       6.264  -1.319   6.394  1.00  0.00     0.071 C 
ATOM     85  N   UNL     1       4.248  -0.061   6.126  1.00  0.00    -0.322 N 
ATOM     86  C   UNL     1       6.509  -0.105   5.500  1.00  0.00     0.136 C 
ATOM     87  C   UNL     1       5.376   0.826   5.883  1.00  0.00     0.152 C 
BRANCH  85  88
ATOM     88  C   UNL     1       2.917   0.330   6.212  1.00  0.00     0.258 C 
ATOM     89  O   UNL     1       2.089  -0.402   6.756  1.00  0.00    -0.269 OA
BRANCH  88  90
ATOM     90  C   UNL     1       2.450   1.691   5.752  1.00  0.00     0.081 A 
ATOM     91  C   UNL     1       1.533   2.346   6.589  1.00  0.00     0.018 A 
ATOM     92  C   UNL     1       2.753   2.320   4.538  1.00  0.00     0.128 A 
ATOM     93  C   UNL     1       0.982   3.590   6.245  1.00  0.00     0.001 A 
ATOM     94  C   UNL     1       2.205   3.566   4.186  1.00  0.00     0.047 A 
ATOM     95  C   UNL     1       1.322   4.203   5.044  1.00  0.00     0.004 A 
BRANCH  92  96
ATOM     96  O   UNL     1       3.582   1.752   3.624  1.00  0.00    -0.507 OA
ATOM     97  H   UNL     1       3.978   0.922   3.802  1.00  0.00     0.293 HD
ENDBRANCH  92  96
ENDBRANCH  88  90
ENDBRANCH  85  88
BRANCH  86  98
ATOM     98  O   UNL     1       7.791   0.467   5.694  1.00  0.00    -0.391 OA
ATOM     99  H   UNL     1       7.893   0.723   6.624  1.00  0.00     0.211 HD
ENDBRANCH  86  98
ENDBRANCH  81  83
ENDBRANCH  80  81
ENDBRANCH  79  80
ENDBRANCH  78  79
ENDBRANCH  77  78
ENDBRANCH  76  77
ENDBRANCH  75  76
ENDBRANCH   1  75
TORSDOF 27
