REMARK SMILES Cc1cccc(C(=O)Nc2ccc(-c3nnc(S[C@H](C(=O)OCCOCCOCCOCCOC(=O)c4ccc(-c5c6nc(c(-c7cccc(S(=O)(=O)[O-])c7F)c7ccc([nH]7)c(-c7cccc(S(=O)(=O)[O-])c7F)c7nc(c(-c8cccc(S(=O)(=O)[O-])c8F)c8ccc5[nH]8)C=C7)C=C6)cc4)C(C)C)n3C)cc2)c1
REMARK SMILES IDX 27 1 26 2 25 3 24 4 23 5 22 6 20 7 21 8 19 9 18 10 17 11
REMARK SMILES IDX 14 12 15 13 103 14 16 15 104 16 13 17 10 18 11 19 106 20
REMARK SMILES IDX 12 21 105 22 9 23 7 24 8 25 6 27 1 28 2 29 3 30 107 31 4 32
REMARK SMILES IDX 5 33 100 34 101 35 102 36 28 37 29 38 30 39 31 40 32 41
REMARK SMILES IDX 33 42 34 43 35 44 36 45 37 46 38 47 99 48 39 49 98 50 40 51
REMARK SMILES IDX 41 52 42 53 92 54 43 55 97 56 91 57 93 58 44 59 96 60 90 61
REMARK SMILES IDX 89 62 45 64 77 65 57 66 76 67 58 68 61 69 75 70 94 71 59 72
REMARK SMILES IDX 60 73 74 75 95 76 62 77 46 78 47 79 55 80 48 81 50 82 56 83
REMARK SMILES IDX 49 84 51 85 52 86 53 87 54 88 78 89 79 90 87 91 80 92 82 93
REMARK SMILES IDX 88 94 81 95 83 96 84 97 85 98 86 99 63 100 64 101 72 102
REMARK SMILES IDX 65 103 67 104 73 105 66 106 68 107 69 108 70 109 71 110
REMARK H PARENT 9 26 93 63 61 74
REMARK Flexibility Score: inf
ROOT
ATOM      1  C   UNL     1       4.962   3.755  -2.700  1.00  0.00     0.188 C 
ENDROOT
BRANCH   1   2
ATOM      2  C   UNL     1       6.402   3.321  -2.459  1.00  0.00     0.188 C 
BRANCH   2   3
ATOM      3  O   UNL     1       6.627   2.051  -1.870  1.00  0.00    -0.376 OA
BRANCH   3   4
ATOM      4  C   UNL     1       7.987   1.850  -1.432  1.00  0.00     0.202 C 
BRANCH   4   5
ATOM      5  C   UNL     1       9.227   2.158  -2.285  1.00  0.00     0.261 C 
BRANCH   5   6
ATOM      6  O   UNL     1       8.986   3.151  -3.269  1.00  0.00    -0.462 OA
BRANCH   6   7
ATOM      7  C   UNL     1       9.289   2.797  -4.534  1.00  0.00     0.319 C 
ATOM      8  O   UNL     1      10.212   2.059  -4.881  1.00  0.00    -0.251 OA
BRANCH   7   9
ATOM      9  C   UNL     1       8.262   3.371  -5.490  1.00  0.00     0.167 C 
BRANCH   9  10
ATOM     10  S   UNL     1       6.915   2.080  -5.866  1.00  0.00    -0.071 SA
BRANCH  10  11
ATOM     11  C   UNL     1       6.854   0.854  -4.604  1.00  0.00     0.192 A 
ATOM     12  C   UNL     1       6.064  -0.693  -3.202  1.00  0.00     0.164 A 
ATOM     13  N   UNL     1       7.383  -0.678  -3.129  1.00  0.00    -0.129 NA
ATOM     14  N   UNL     1       5.697   0.245  -4.156  1.00  0.00    -0.305 N 
ATOM     15  N   UNL     1       7.870   0.259  -4.026  1.00  0.00    -0.123 NA
ATOM     16  C   UNL     1       4.354   0.412  -4.636  1.00  0.00     0.154 C 
BRANCH  12  17
ATOM     17  C   UNL     1       5.181  -1.677  -2.549  1.00  0.00     0.019 A 
ATOM     18  C   UNL     1       3.846  -3.792  -1.225  1.00  0.00     0.041 A 
ATOM     19  C   UNL     1       3.976  -2.555  -0.594  1.00  0.00     0.027 A 
ATOM     20  C   UNL     1       4.245  -3.928  -2.558  1.00  0.00     0.027 A 
ATOM     21  C   UNL     1       4.696  -1.527  -1.240  1.00  0.00     0.014 A 
ATOM     22  C   UNL     1       4.901  -2.876  -3.211  1.00  0.00     0.014 A 
BRANCH  18  23
ATOM     23  N   UNL     1       3.509  -4.921  -0.453  1.00  0.00    -0.322 N 
ATOM     24  C   UNL     1       4.211  -6.122  -0.366  1.00  0.00     0.255 C 
ATOM     25  O   UNL     1       3.666  -7.106   0.136  1.00  0.00    -0.269 OA
ATOM     26  H   UNL     1       2.687  -4.854   0.085  1.00  0.00     0.170 HD
BRANCH  24  27
ATOM     27  C   UNL     1       5.647  -6.218  -0.800  1.00  0.00     0.040 A 
ATOM     28  C   UNL     1       8.516  -3.884  -1.690  1.00  0.00     0.044 C 
ATOM     29  C   UNL     1       7.753  -5.153  -1.430  1.00  0.00    -0.050 A 
ATOM     30  C   UNL     1       8.266  -6.395  -1.798  1.00  0.00     0.003 A 
ATOM     31  C   UNL     1       6.489  -5.099  -0.839  1.00  0.00     0.017 A 
ATOM     32  C   UNL     1       7.498  -7.549  -1.625  1.00  0.00     0.001 A 
ATOM     33  C   UNL     1       6.182  -7.461  -1.153  1.00  0.00     0.014 A 
ENDBRANCH  24  27
ENDBRANCH  18  23
ENDBRANCH  12  17
ENDBRANCH  10  11
ENDBRANCH   9  10
BRANCH   9  34
ATOM     34  C   UNL     1       7.783   4.833  -5.111  1.00  0.00     0.007 C 
ATOM     35  C   UNL     1       8.933   5.854  -5.024  1.00  0.00     0.009 C 
ATOM     36  C   UNL     1       6.688   5.388  -6.022  1.00  0.00     0.009 C 
ENDBRANCH   9  34
ENDBRANCH   7   9
ENDBRANCH   6   7
ENDBRANCH   5   6
ENDBRANCH   4   5
ENDBRANCH   3   4
ENDBRANCH   2   3
ENDBRANCH   1   2
BRANCH   1  37
ATOM     37  O   UNL     1       4.515   4.768  -1.800  1.00  0.00    -0.377 OA
BRANCH  37  38
ATOM     38  C   UNL     1       4.533   4.332  -0.442  1.00  0.00     0.188 C 
BRANCH  38  39
ATOM     39  C   UNL     1       3.366   3.430  -0.156  1.00  0.00     0.188 C 
BRANCH  39  40
ATOM     40  O   UNL     1       3.663   2.120  -0.643  1.00  0.00    -0.376 OA
BRANCH  40  41
ATOM     41  C   UNL     1       2.509   1.318  -0.821  1.00  0.00     0.202 C 
BRANCH  41  42
ATOM     42  C   UNL     1       1.718   1.145   0.478  1.00  0.00     0.261 C 
BRANCH  42  43
ATOM     43  O   UNL     1       2.596   0.587   1.480  1.00  0.00    -0.460 OA
BRANCH  43  44
ATOM     44  C   UNL     1       2.810   1.372   2.580  1.00  0.00     0.338 C 
ATOM     45  O   UNL     1       1.912   1.889   3.228  1.00  0.00    -0.246 OA
BRANCH  44  46
ATOM     46  C   UNL     1       4.272   1.684   2.712  1.00  0.00     0.060 A 
ATOM     47  C   UNL     1       4.732   2.744   3.505  1.00  0.00     0.016 A 
ATOM     48  C   UNL     1       5.164   1.096   1.832  1.00  0.00     0.016 A 
ATOM     49  C   UNL     1       5.995   3.336   3.264  1.00  0.00     0.010 A 
ATOM     50  C   UNL     1       6.374   1.717   1.566  1.00  0.00     0.010 A 
ATOM     51  C   UNL     1       6.783   2.897   2.211  1.00  0.00    -0.014 A 
BRANCH  51  52
ATOM     52  C   UNL     1       8.016   3.547   1.680  1.00  0.00     0.031 A 
ATOM     53  C   UNL     1       9.277   2.727   1.678  1.00  0.00     0.074 A 
ATOM     54  C   UNL     1       7.900   4.576   0.790  1.00  0.00     0.049 A 
ATOM     55  N   UNL     1      10.351   2.990   1.014  1.00  0.00    -0.248 NA
ATOM     56  C   UNL     1       9.378   1.458   2.387  1.00  0.00     0.031 C 
ATOM     57  C   UNL     1       8.781   4.838  -0.357  1.00  0.00     0.029 A 
ATOM     58  N   UNL     1       6.938   5.569   0.638  1.00  0.00    -0.354 N 
ATOM     59  C   UNL     1      11.147   1.857   0.959  1.00  0.00     0.074 A 
ATOM     60  C   UNL     1      10.509   0.950   1.881  1.00  0.00     0.031 C 
ATOM     61  C   UNL     1       8.364   5.894  -1.067  1.00  0.00     0.029 A 
ATOM     62  C   UNL     1       7.418   6.568  -0.222  1.00  0.00     0.049 A 
ATOM     63  H   UNL     1       6.053   5.571   1.071  1.00  0.00     0.167 HD
ATOM     64  C   UNL     1      12.177   1.803   0.053  1.00  0.00     0.034 A 
ATOM     65  C   UNL     1       7.591   7.872   0.131  1.00  0.00     0.034 A 
ATOM     66  C   UNL     1      12.313   3.112  -0.672  1.00  0.00     0.049 A 
ATOM     67  C   UNL     1       9.102   8.150   0.203  1.00  0.00     0.074 A 
ATOM     68  C   UNL     1      12.279   3.504  -2.005  1.00  0.00     0.029 A 
ATOM     69  N   UNL     1      12.327   4.314   0.056  1.00  0.00    -0.354 N 
ATOM     70  N   UNL     1       9.992   7.187   0.346  1.00  0.00    -0.248 NA
ATOM     71  C   UNL     1       9.754   9.417  -0.121  1.00  0.00     0.031 C 
ATOM     72  C   UNL     1      12.115   4.923  -2.055  1.00  0.00     0.029 A 
ATOM     73  C   UNL     1      12.139   5.424  -0.758  1.00  0.00     0.049 A 
ATOM     74  H   UNL     1      12.454   4.364   1.030  1.00  0.00     0.167 HD
ATOM     75  C   UNL     1      11.233   7.606  -0.039  1.00  0.00     0.074 A 
ATOM     76  C   UNL     1      11.043   9.037  -0.252  1.00  0.00     0.031 C 
ATOM     77  C   UNL     1      12.319   6.787  -0.247  1.00  0.00     0.034 A 
BRANCH  64  78
ATOM     78  C   UNL     1      12.980   0.532  -0.361  1.00  0.00     0.023 A 
ATOM     79  C   UNL     1      13.819   0.635  -1.500  1.00  0.00     0.012 A 
ATOM     80  C   UNL     1      12.989  -0.758   0.246  1.00  0.00     0.148 A 
ATOM     81  C   UNL     1      14.549  -0.440  -2.037  1.00  0.00     0.002 A 
ATOM     82  C   UNL     1      13.736  -1.835  -0.278  1.00  0.00     0.091 A 
ATOM     83  F   UNL     1      12.307  -0.974   1.368  1.00  0.00    -0.205 F 
ATOM     84  C   UNL     1      14.505  -1.679  -1.430  1.00  0.00     0.022 A 
BRANCH  82  85
ATOM     85  S   UNL     1      13.791  -3.482   0.475  1.00  0.00     0.127 S 
ATOM     86  O   UNL     1      13.421  -4.351  -0.645  1.00  0.00    -0.237 OA
ATOM     87  O   UNL     1      15.191  -3.594   0.884  1.00  0.00    -0.237 OA
ATOM     88  O   UNL     1      12.826  -3.469   1.567  1.00  0.00    -0.744 OA
ENDBRANCH  82  85
ENDBRANCH  64  78
BRANCH  65  89
ATOM     89  C   UNL     1       6.367   8.408   0.809  1.00  0.00     0.023 A 
ATOM     90  C   UNL     1       5.224   8.441  -0.045  1.00  0.00     0.012 A 
ATOM     91  C   UNL     1       6.157   8.146   2.172  1.00  0.00     0.148 A 
ATOM     92  C   UNL     1       3.983   7.955   0.384  1.00  0.00     0.002 A 
ATOM     93  C   UNL     1       4.920   7.634   2.588  1.00  0.00     0.091 A 
ATOM     94  F   UNL     1       7.205   8.225   3.002  1.00  0.00    -0.205 F 
ATOM     95  C   UNL     1       3.851   7.492   1.686  1.00  0.00     0.022 A 
BRANCH  93  96
ATOM     96  S   UNL     1       4.750   6.826   4.189  1.00  0.00     0.127 S 
ATOM     97  O   UNL     1       4.183   7.887   5.011  1.00  0.00    -0.237 OA
ATOM     98  O   UNL     1       3.837   5.725   3.885  1.00  0.00    -0.237 OA
ATOM     99  O   UNL     1       6.102   6.401   4.522  1.00  0.00    -0.744 OA
ENDBRANCH  93  96
ENDBRANCH  65  89
BRANCH  77 100
ATOM    100  C   UNL     1      13.745   7.223   0.054  1.00  0.00     0.023 A 
ATOM    101  C   UNL     1      14.005   8.414   0.754  1.00  0.00     0.012 A 
ATOM    102  C   UNL     1      14.840   6.327  -0.114  1.00  0.00     0.148 A 
ATOM    103  C   UNL     1      15.274   8.712   1.252  1.00  0.00     0.002 A 
ATOM    104  C   UNL     1      16.063   6.571   0.493  1.00  0.00     0.091 A 
ATOM    105  F   UNL     1      14.714   5.229  -0.869  1.00  0.00    -0.205 F 
ATOM    106  C   UNL     1      16.292   7.776   1.156  1.00  0.00     0.022 A 
BRANCH 104 107
ATOM    107  S   UNL     1      17.334   5.302   0.611  1.00  0.00     0.127 S 
ATOM    108  O   UNL     1      18.311   5.773  -0.368  1.00  0.00    -0.237 OA
ATOM    109  O   UNL     1      17.756   5.428   2.007  1.00  0.00    -0.237 OA
ATOM    110  O   UNL     1      16.673   4.044   0.296  1.00  0.00    -0.744 OA
ENDBRANCH 104 107
ENDBRANCH  77 100
ENDBRANCH  51  52
ENDBRANCH  44  46
ENDBRANCH  43  44
ENDBRANCH  42  43
ENDBRANCH  41  42
ENDBRANCH  40  41
ENDBRANCH  39  40
ENDBRANCH  38  39
ENDBRANCH  37  38
ENDBRANCH   1  37
TORSDOF 29
