REMARK SMILES C#CCNC(=O)[C@H](C)S(=O)(=O)c1ccc(C(=O)OCCOCCOCCOCCOC(=O)c2ccc(-c3c4nc(c(-c5cccc(S(=O)(=O)[O-])c5F)c5ccc([nH]5)c(-c5cccc(S(=O)(=O)[O-])c5F)c5nc(c(-c6cccc(S(=O)(=O)[O-])c6F)c6ccc3[nH]6)C=C5)C=C4)cc2)cc1F
REMARK SMILES IDX 23 1 22 2 21 3 20 4 19 5 18 6 16 7 17 8 15 9 12 10 13 11
REMARK SMILES IDX 97 12 14 13 96 14 98 15 9 16 10 17 11 18 7 19 8 20 5 21 4 22
REMARK SMILES IDX 6 24 3 25 2 26 1 27 24 28 25 29 26 30 27 31 28 32 29 33
REMARK SMILES IDX 30 34 31 35 32 36 33 37 34 38 95 39 35 40 94 41 36 42 37 43
REMARK SMILES IDX 38 44 88 45 39 46 93 47 87 48 89 49 40 50 92 51 86 52 85 53
REMARK SMILES IDX 41 55 73 56 53 57 72 58 54 59 57 60 71 61 90 62 55 63 56 64
REMARK SMILES IDX 70 66 91 67 58 68 42 69 43 70 51 71 44 72 46 73 52 74 45 75
REMARK SMILES IDX 47 76 48 77 49 78 50 79 74 80 75 81 83 82 76 83 78 84 84 85
REMARK SMILES IDX 77 86 79 87 80 88 81 89 82 90 59 91 60 92 68 93 61 94 63 95
REMARK SMILES IDX 69 96 62 97 64 98 65 99 66 100 67 101
REMARK H PARENT 4 23 89 54 57 65
REMARK Flexibility Score: inf
ROOT
ATOM      1  C   UNL     1      -1.920  -3.300  -4.541  1.00  0.00     0.188 C 
ENDROOT
BRANCH   1   2
ATOM      2  C   UNL     1      -0.392  -3.344  -4.342  1.00  0.00     0.188 C 
BRANCH   2   3
ATOM      3  O   UNL     1       0.161  -4.642  -4.441  1.00  0.00    -0.376 OA
BRANCH   3   4
ATOM      4  C   UNL     1       0.516  -5.366  -3.277  1.00  0.00     0.202 C 
BRANCH   4   5
ATOM      5  C   UNL     1      -0.437  -5.516  -2.079  1.00  0.00     0.261 C 
BRANCH   5   6
ATOM      6  O   UNL     1      -1.278  -4.404  -1.780  1.00  0.00    -0.460 OA
BRANCH   6   7
ATOM      7  C   UNL     1      -0.713  -3.368  -1.133  1.00  0.00     0.338 C 
ATOM      8  O   UNL     1       0.446  -3.258  -0.776  1.00  0.00    -0.246 OA
BRANCH   7   9
ATOM      9  C   UNL     1      -1.687  -2.258  -1.154  1.00  0.00     0.063 A 
ATOM     10  C   UNL     1      -3.433  -0.108  -1.242  1.00  0.00     0.103 A 
ATOM     11  C   UNL     1      -2.121   0.050  -1.696  1.00  0.00     0.024 A 
ATOM     12  C   UNL     1      -3.899  -1.359  -0.855  1.00  0.00     0.142 A 
ATOM     13  C   UNL     1      -1.233  -1.013  -1.605  1.00  0.00     0.017 A 
ATOM     14  C   UNL     1      -3.033  -2.447  -0.828  1.00  0.00     0.056 A 
ATOM     15  F   UNL     1      -5.170  -1.554  -0.489  1.00  0.00    -0.206 F 
BRANCH  10  16
ATOM     16  S   UNL     1      -4.443   1.327  -1.099  1.00  0.00     0.192 S 
ATOM     17  O   UNL     1      -5.722   0.969  -0.514  1.00  0.00    -0.223 OA
ATOM     18  O   UNL     1      -4.421   1.958  -2.407  1.00  0.00    -0.223 OA
BRANCH  16  19
ATOM     19  C   UNL     1      -3.633   2.381   0.100  1.00  0.00     0.199 C 
ATOM     20  C   UNL     1      -3.339   1.632   1.401  1.00  0.00     0.036 C 
BRANCH  19  21
ATOM     21  C   UNL     1      -2.363   2.983  -0.461  1.00  0.00     0.239 C 
ATOM     22  N   UNL     1      -2.406   4.040  -1.314  1.00  0.00    -0.344 N 
ATOM     23  H   UNL     1      -1.537   4.441  -1.541  1.00  0.00     0.164 HD
ATOM     24  O   UNL     1      -1.246   2.570  -0.140  1.00  0.00    -0.274 OA
BRANCH  22  25
ATOM     25  C   UNL     1      -3.556   4.648  -1.930  1.00  0.00     0.206 C 
BRANCH  25  26
ATOM     26  C   UNL     1      -3.552   6.142  -1.650  1.00  0.00    -0.085 C 
ATOM     27  C   UNL     1      -3.549   7.423  -1.409  1.00  0.00     0.006 C 
ENDBRANCH  25  26
ENDBRANCH  22  25
ENDBRANCH  19  21
ENDBRANCH  16  19
ENDBRANCH  10  16
ENDBRANCH   7   9
ENDBRANCH   6   7
ENDBRANCH   5   6
ENDBRANCH   4   5
ENDBRANCH   3   4
ENDBRANCH   2   3
ENDBRANCH   1   2
BRANCH   1  28
ATOM     28  O   UNL     1      -2.616  -4.524  -4.403  1.00  0.00    -0.377 OA
BRANCH  28  29
ATOM     29  C   UNL     1      -2.328  -5.612  -5.281  1.00  0.00     0.188 C 
BRANCH  29  30
ATOM     30  C   UNL     1      -1.406  -5.474  -6.520  1.00  0.00     0.188 C 
BRANCH  30  31
ATOM     31  O   UNL     1      -1.188  -4.145  -6.966  1.00  0.00    -0.376 OA
BRANCH  31  32
ATOM     32  C   UNL     1      -1.813  -3.736  -8.168  1.00  0.00     0.202 C 
BRANCH  32  33
ATOM     33  C   UNL     1      -3.346  -3.674  -8.161  1.00  0.00     0.261 C 
BRANCH  33  34
ATOM     34  O   UNL     1      -4.020  -4.875  -7.761  1.00  0.00    -0.460 OA
BRANCH  34  35
ATOM     35  C   UNL     1      -3.884  -5.954  -8.560  1.00  0.00     0.338 C 
ATOM     36  O   UNL     1      -3.243  -6.024  -9.598  1.00  0.00    -0.246 OA
BRANCH  35  37
ATOM     37  C   UNL     1      -4.491  -7.105  -7.865  1.00  0.00     0.060 A 
ATOM     38  C   UNL     1      -3.693  -8.215  -7.554  1.00  0.00     0.016 A 
ATOM     39  C   UNL     1      -5.843  -7.081  -7.516  1.00  0.00     0.016 A 
ATOM     40  C   UNL     1      -4.261  -9.326  -6.931  1.00  0.00     0.010 A 
ATOM     41  C   UNL     1      -6.413  -8.201  -6.910  1.00  0.00     0.010 A 
ATOM     42  C   UNL     1      -5.634  -9.344  -6.654  1.00  0.00    -0.014 A 
BRANCH  42  43
ATOM     43  C   UNL     1      -6.298 -10.620  -6.300  1.00  0.00     0.031 A 
ATOM     44  C   UNL     1      -7.015 -11.371  -7.389  1.00  0.00     0.074 A 
ATOM     45  C   UNL     1      -6.271 -11.104  -5.046  1.00  0.00     0.049 A 
ATOM     46  N   UNL     1      -7.711 -12.473  -7.314  1.00  0.00    -0.248 NA
ATOM     47  C   UNL     1      -6.937 -10.799  -8.745  1.00  0.00     0.031 C 
ATOM     48  C   UNL     1      -5.595 -10.478  -3.913  1.00  0.00     0.029 A 
ATOM     49  N   UNL     1      -6.851 -12.230  -4.516  1.00  0.00    -0.354 N 
ATOM     50  C   UNL     1      -8.182 -12.709  -8.600  1.00  0.00     0.074 A 
ATOM     51  C   UNL     1      -7.702 -11.631  -9.435  1.00  0.00     0.031 C 
ATOM     52  C   UNL     1      -5.820 -11.216  -2.812  1.00  0.00     0.029 A 
ATOM     53  C   UNL     1      -6.681 -12.347  -3.156  1.00  0.00     0.049 A 
ATOM     54  H   UNL     1      -7.342 -12.890  -5.057  1.00  0.00     0.167 HD
ATOM     55  C   UNL     1      -8.933 -13.740  -9.049  1.00  0.00     0.034 A 
ATOM     56  C   UNL     1      -7.185 -13.248  -2.288  1.00  0.00     0.034 A 
ATOM     57  C   UNL     1      -9.389 -14.821  -8.220  1.00  0.00     0.049 A 
ATOM     58  C   UNL     1      -8.052 -14.369  -2.805  1.00  0.00     0.074 A 
ATOM     59  C   UNL     1     -10.116 -15.937  -8.594  1.00  0.00     0.029 A 
ATOM     60  N   UNL     1      -9.178 -14.917  -6.854  1.00  0.00    -0.354 N 
ATOM     61  N   UNL     1      -8.405 -14.636  -4.039  1.00  0.00    -0.248 NA
ATOM     62  C   UNL     1      -8.568 -15.328  -1.816  1.00  0.00     0.031 C 
ATOM     63  C   UNL     1     -10.381 -16.687  -7.446  1.00  0.00     0.029 A 
ATOM     64  C   UNL     1      -9.778 -16.064  -6.365  1.00  0.00     0.049 A 
ATOM     65  H   UNL     1      -8.676 -14.266  -6.313  1.00  0.00     0.167 HD
ATOM     66  C   UNL     1      -9.155 -15.807  -3.980  1.00  0.00     0.074 A 
ATOM     67  C   UNL     1      -9.191 -16.208  -2.590  1.00  0.00     0.031 C 
ATOM     68  C   UNL     1      -9.767 -16.481  -4.986  1.00  0.00     0.034 A 
BRANCH  55  69
ATOM     69  C   UNL     1      -9.297 -13.767 -10.510  1.00  0.00     0.023 A 
ATOM     70  C   UNL     1      -8.310 -14.059 -11.472  1.00  0.00     0.012 A 
ATOM     71  C   UNL     1     -10.633 -13.589 -10.919  1.00  0.00     0.148 A 
ATOM     72  C   UNL     1      -8.643 -14.154 -12.822  1.00  0.00     0.002 A 
ATOM     73  C   UNL     1     -10.966 -13.736 -12.259  1.00  0.00     0.091 A 
ATOM     74  F   UNL     1     -11.551 -13.287  -9.990  1.00  0.00    -0.205 F 
ATOM     75  C   UNL     1      -9.972 -14.007 -13.213  1.00  0.00     0.022 A 
BRANCH  73  76
ATOM     76  S   UNL     1     -12.659 -13.655 -12.853  1.00  0.00     0.127 S 
ATOM     77  O   UNL     1     -12.627 -12.444 -13.672  1.00  0.00    -0.237 OA
ATOM     78  O   UNL     1     -12.776 -14.901 -13.611  1.00  0.00    -0.237 OA
ATOM     79  O   UNL     1     -13.501 -13.580 -11.667  1.00  0.00    -0.744 OA
ENDBRANCH  73  76
ENDBRANCH  55  69
BRANCH  56  80
ATOM     80  C   UNL     1      -6.849 -13.143  -0.839  1.00  0.00     0.023 A 
ATOM     81  C   UNL     1      -6.013 -14.109  -0.247  1.00  0.00     0.012 A 
ATOM     82  C   UNL     1      -7.314 -12.066  -0.059  1.00  0.00     0.148 A 
ATOM     83  C   UNL     1      -5.660 -14.013   1.100  1.00  0.00     0.002 A 
ATOM     84  C   UNL     1      -6.910 -11.944   1.265  1.00  0.00     0.091 A 
ATOM     85  F   UNL     1      -8.122 -11.166  -0.638  1.00  0.00    -0.205 F 
ATOM     86  C   UNL     1      -6.097 -12.926   1.852  1.00  0.00     0.022 A 
BRANCH  84  87
ATOM     87  S   UNL     1      -7.308 -10.511   2.272  1.00  0.00     0.127 S 
ATOM     88  O   UNL     1      -8.133 -11.102   3.323  1.00  0.00    -0.237 OA
ATOM     89  O   UNL     1      -5.980 -10.074   2.703  1.00  0.00    -0.237 OA
ATOM     90  O   UNL     1      -7.993  -9.581   1.386  1.00  0.00    -0.744 OA
ENDBRANCH  84  87
ENDBRANCH  56  80
BRANCH  68  91
ATOM     91  C   UNL     1     -10.513 -17.748  -4.650  1.00  0.00     0.023 A 
ATOM     92  C   UNL     1     -11.747 -17.677  -3.974  1.00  0.00     0.012 A 
ATOM     93  C   UNL     1     -10.055 -18.994  -5.126  1.00  0.00     0.148 A 
ATOM     94  C   UNL     1     -12.504 -18.829  -3.760  1.00  0.00     0.002 A 
ATOM     95  C   UNL     1     -10.840 -20.128  -4.957  1.00  0.00     0.091 A 
ATOM     96  F   UNL     1      -8.873 -19.041  -5.757  1.00  0.00    -0.205 F 
ATOM     97  C   UNL     1     -12.059 -20.050  -4.264  1.00  0.00     0.022 A 
BRANCH  95  98
ATOM     98  S   UNL     1     -10.406 -21.722  -5.665  1.00  0.00     0.127 S 
ATOM     99  O   UNL     1     -10.133 -22.515  -4.467  1.00  0.00    -0.237 OA
ATOM    100  O   UNL     1     -11.632 -22.089  -6.374  1.00  0.00    -0.237 OA
ATOM    101  O   UNL     1      -9.255 -21.482  -6.525  1.00  0.00    -0.744 OA
ENDBRANCH  95  98
ENDBRANCH  68  91
ENDBRANCH  42  43
ENDBRANCH  35  37
ENDBRANCH  34  35
ENDBRANCH  33  34
ENDBRANCH  32  33
ENDBRANCH  31  32
ENDBRANCH  30  31
ENDBRANCH  29  30
ENDBRANCH  28  29
ENDBRANCH   1  28
TORSDOF 28
