REMARK SMILES CCOc1ccc(-c2cc(Cl)cc3c2O[C@@H](C(F)(F)F)C(C(=O)OCCOCCOCCOCCOC(=O)c2ccc(-c4c5nc(c(-c6cccc(S(=O)(=O)[O-])c6F)c6ccc([nH]6)c(-c6cccc(S(=O)(=O)[O-])c6F)c6nc(c(-c7cccc(S(=O)(=O)[O-])c7F)c7ccc4[nH]7)C=C6)C=C5)cc2)=C3)cc1
REMARK SMILES IDX 30 1 29 2 28 3 27 4 26 5 25 6 24 7 22 8 23 9 21 10 8 11 9 12
REMARK SMILES IDX 14 13 10 14 13 15 15 16 11 17 12 18 102 19 16 20 7 21 4 22
REMARK SMILES IDX 5 23 104 24 6 25 103 26 3 27 2 28 1 29 17 30 18 31 19 32
REMARK SMILES IDX 20 33 31 34 32 35 33 36 34 37 35 38 36 39 37 40 38 41 39 42
REMARK SMILES IDX 40 43 101 44 41 45 100 46 42 47 43 48 44 49 94 50 45 51
REMARK SMILES IDX 99 52 93 53 95 54 46 55 98 56 92 57 91 58 47 60 79 61 59 62
REMARK SMILES IDX 78 63 60 64 63 65 77 66 96 67 61 68 62 69 76 71 97 72 64 73
REMARK SMILES IDX 48 74 49 75 57 76 50 77 52 78 58 79 51 80 53 81 54 82 55 83
REMARK SMILES IDX 56 84 80 85 81 86 89 87 82 88 84 89 90 90 83 91 85 92 86 93
REMARK SMILES IDX 87 94 88 95 65 96 66 97 74 98 67 99 69 100 75 101 68 102
REMARK SMILES IDX 70 103 71 104 72 105 73 106
REMARK H PARENT 95 59 63 70
REMARK Flexibility Score: inf
ROOT
ATOM      1  O   UNL     1      12.128   4.642   5.605  1.00  0.00    -0.377 OA
ENDROOT
BRANCH   1   2
ATOM      2  C   UNL     1      10.768   4.419   5.297  1.00  0.00     0.188 C 
BRANCH   2   3
ATOM      3  C   UNL     1      10.445   2.932   5.102  1.00  0.00     0.188 C 
BRANCH   3   4
ATOM      4  O   UNL     1      11.485   2.048   5.508  1.00  0.00    -0.376 OA
BRANCH   4   5
ATOM      5  C   UNL     1      12.428   1.622   4.525  1.00  0.00     0.202 C 
BRANCH   5   6
ATOM      6  C   UNL     1      13.027   2.674   3.580  1.00  0.00     0.261 C 
BRANCH   6   7
ATOM      7  O   UNL     1      12.009   3.216   2.708  1.00  0.00    -0.460 OA
BRANCH   7   8
ATOM      8  C   UNL     1      11.761   2.511   1.593  1.00  0.00     0.338 C 
ATOM      9  O   UNL     1      12.414   1.545   1.217  1.00  0.00    -0.246 OA
BRANCH   8  10
ATOM     10  C   UNL     1      10.482   2.898   0.946  1.00  0.00     0.087 C 
ATOM     11  C   UNL     1       7.090   2.135   3.213  1.00  0.00     0.026 A 
ATOM     12  C   UNL     1       7.420   1.076   4.088  1.00  0.00     0.033 A 
ATOM     13  C   UNL     1       8.087   2.486   2.280  1.00  0.00     0.135 A 
ATOM     14  C   UNL     1       8.471   0.209   3.793  1.00  0.00     0.042 A 
ATOM     15  C   UNL     1       8.977   1.495   1.844  1.00  0.00     0.019 A 
ATOM     16  O   UNL     1       8.376   3.823   2.011  1.00  0.00    -0.475 OA
ATOM     17  Cl  UNL     1       8.816  -1.101   4.850  1.00  0.00    -0.084 Cl
ATOM     18  C   UNL     1       9.181   0.352   2.609  1.00  0.00     0.032 A 
ATOM     19  C   UNL     1       9.795   1.780   0.646  1.00  0.00     0.027 C 
ATOM     20  C   UNL     1       9.608   4.114   1.210  1.00  0.00     0.316 C 
BRANCH  11  21
ATOM     21  C   UNL     1       5.616   2.247   2.923  1.00  0.00    -0.014 A 
ATOM     22  C   UNL     1       2.891   1.603   2.368  1.00  0.00     0.119 A 
ATOM     23  C   UNL     1       3.300   1.883   3.669  1.00  0.00     0.047 A 
ATOM     24  C   UNL     1       3.807   1.727   1.331  1.00  0.00     0.047 A 
ATOM     25  C   UNL     1       4.644   2.204   3.943  1.00  0.00     0.013 A 
ATOM     26  C   UNL     1       5.148   2.046   1.606  1.00  0.00     0.013 A 
BRANCH  22  27
ATOM     27  O   UNL     1       1.569   1.329   2.153  1.00  0.00    -0.494 OA
BRANCH  27  28
ATOM     28  C   UNL     1       1.299   0.040   1.582  1.00  0.00     0.226 C 
ATOM     29  C   UNL     1       1.044   0.133   0.085  1.00  0.00     0.049 C 
ENDBRANCH  27  28
ENDBRANCH  22  27
ENDBRANCH  11  21
BRANCH  20  30
ATOM     30  C   UNL     1      10.298   5.471   1.508  1.00  0.00     0.430 C 
ATOM     31  F   UNL     1      10.876   5.939   0.369  1.00  0.00    -0.167 F 
ATOM     32  F   UNL     1       9.389   6.404   1.886  1.00  0.00    -0.167 F 
ATOM     33  F   UNL     1      11.256   5.455   2.442  1.00  0.00    -0.167 F 
ENDBRANCH  20  30
ENDBRANCH   8  10
ENDBRANCH   7   8
ENDBRANCH   6   7
ENDBRANCH   5   6
ENDBRANCH   4   5
ENDBRANCH   3   4
ENDBRANCH   2   3
ENDBRANCH   1   2
BRANCH   1  34
ATOM     34  C   UNL     1      12.522   4.525   6.967  1.00  0.00     0.188 C 
BRANCH  34  35
ATOM     35  C   UNL     1      11.741   3.624   7.951  1.00  0.00     0.188 C 
BRANCH  35  36
ATOM     36  O   UNL     1      10.322   3.775   7.901  1.00  0.00    -0.376 OA
BRANCH  36  37
ATOM     37  C   UNL     1       9.709   4.484   8.968  1.00  0.00     0.202 C 
BRANCH  37  38
ATOM     38  C   UNL     1       9.829   6.010   8.865  1.00  0.00     0.261 C 
BRANCH  38  39
ATOM     39  O   UNL     1      11.169   6.516   8.934  1.00  0.00    -0.460 OA
BRANCH  39  40
ATOM     40  C   UNL     1      11.881   6.231  10.046  1.00  0.00     0.338 C 
ATOM     41  O   UNL     1      11.487   5.650  11.043  1.00  0.00    -0.246 OA
BRANCH  40  42
ATOM     42  C   UNL     1      13.293   6.560   9.771  1.00  0.00     0.060 A 
ATOM     43  C   UNL     1      14.266   5.572   9.971  1.00  0.00     0.016 A 
ATOM     44  C   UNL     1      13.647   7.824   9.292  1.00  0.00     0.016 A 
ATOM     45  C   UNL     1      15.609   5.864   9.736  1.00  0.00     0.010 A 
ATOM     46  C   UNL     1      14.992   8.119   9.073  1.00  0.00     0.010 A 
ATOM     47  C   UNL     1      15.979   7.153   9.332  1.00  0.00    -0.014 A 
BRANCH  47  48
ATOM     48  C   UNL     1      17.399   7.566   9.396  1.00  0.00     0.031 A 
ATOM     49  C   UNL     1      17.876   8.252  10.646  1.00  0.00     0.074 A 
ATOM     50  C   UNL     1      18.238   7.363   8.367  1.00  0.00     0.049 A 
ATOM     51  N   UNL     1      19.059   8.725  10.933  1.00  0.00    -0.248 NA
ATOM     52  C   UNL     1      16.877   8.435  11.713  1.00  0.00     0.031 C 
ATOM     53  C   UNL     1      17.891   6.713   7.105  1.00  0.00     0.029 A 
ATOM     54  N   UNL     1      19.557   7.712   8.218  1.00  0.00    -0.354 N 
ATOM     55  C   UNL     1      18.942   9.282  12.200  1.00  0.00     0.074 A 
ATOM     56  C   UNL     1      17.570   9.103  12.621  1.00  0.00     0.031 C 
ATOM     57  C   UNL     1      18.966   6.732   6.298  1.00  0.00     0.029 A 
ATOM     58  C   UNL     1      20.069   7.411   6.979  1.00  0.00     0.049 A 
ATOM     59  H   UNL     1      20.086   8.137   8.931  1.00  0.00     0.167 HD
ATOM     60  C   UNL     1      19.895   9.877  12.956  1.00  0.00     0.034 A 
ATOM     61  C   UNL     1      21.283   7.670   6.454  1.00  0.00     0.034 A 
ATOM     62  C   UNL     1      21.258  10.050  12.538  1.00  0.00     0.049 A 
ATOM     63  C   UNL     1      22.320   8.362   7.303  1.00  0.00     0.074 A 
ATOM     64  C   UNL     1      22.312  10.594  13.248  1.00  0.00     0.029 A 
ATOM     65  N   UNL     1      21.750   9.702  11.290  1.00  0.00    -0.354 N 
ATOM     66  N   UNL     1      22.238   8.761   8.550  1.00  0.00    -0.248 NA
ATOM     67  C   UNL     1      23.629   8.613   6.681  1.00  0.00     0.031 C 
ATOM     68  C   UNL     1      23.438  10.600  12.417  1.00  0.00     0.029 A 
ATOM     69  C   UNL     1      23.090  10.034  11.200  1.00  0.00     0.049 A 
ATOM     70  H   UNL     1      21.223   9.280  10.573  1.00  0.00     0.167 HD
ATOM     71  C   UNL     1      23.490   9.274   8.873  1.00  0.00     0.074 A 
ATOM     72  C   UNL     1      24.318   9.122   7.694  1.00  0.00     0.031 C 
ATOM     73  C   UNL     1      23.915   9.829  10.036  1.00  0.00     0.034 A 
BRANCH  60  74
ATOM     74  C   UNL     1      19.485  10.364  14.319  1.00  0.00     0.023 A 
ATOM     75  C   UNL     1      19.220   9.431  15.343  1.00  0.00     0.012 A 
ATOM     76  C   UNL     1      19.375  11.740  14.593  1.00  0.00     0.148 A 
ATOM     77  C   UNL     1      18.812   9.859  16.606  1.00  0.00     0.002 A 
ATOM     78  C   UNL     1      19.011  12.161  15.867  1.00  0.00     0.091 A 
ATOM     79  F   UNL     1      19.601  12.611  13.599  1.00  0.00    -0.205 F 
ATOM     80  C   UNL     1      18.717  11.223  16.870  1.00  0.00     0.022 A 
BRANCH  78  81
ATOM     81  S   UNL     1      18.933  13.897  16.319  1.00  0.00     0.127 S 
ATOM     82  O   UNL     1      17.490  14.130  16.349  1.00  0.00    -0.237 OA
ATOM     83  O   UNL     1      19.579  13.903  17.633  1.00  0.00    -0.237 OA
ATOM     84  O   UNL     1      19.666  14.611  15.284  1.00  0.00    -0.744 OA
ENDBRANCH  78  81
ENDBRANCH  60  74
BRANCH  61  85
ATOM     85  C   UNL     1      21.605   7.224   5.069  1.00  0.00     0.023 A 
ATOM     86  C   UNL     1      22.519   6.170   4.879  1.00  0.00     0.012 A 
ATOM     87  C   UNL     1      20.995   7.817   3.946  1.00  0.00     0.148 A 
ATOM     88  C   UNL     1      22.839   5.729   3.594  1.00  0.00     0.002 A 
ATOM     89  C   UNL     1      21.280   7.339   2.672  1.00  0.00     0.091 A 
ATOM     90  F   UNL     1      20.140   8.828   4.150  1.00  0.00    -0.205 F 
ATOM     91  C   UNL     1      22.213   6.306   2.493  1.00  0.00     0.022 A 
BRANCH  89  92
ATOM     92  S   UNL     1      20.442   7.940   1.201  1.00  0.00     0.127 S 
ATOM     93  O   UNL     1      21.535   8.584   0.476  1.00  0.00    -0.237 OA
ATOM     94  O   UNL     1      19.956   6.695   0.605  1.00  0.00    -0.237 OA
ATOM     95  O   UNL     1      19.394   8.831   1.679  1.00  0.00    -0.744 OA
ENDBRANCH  89  92
ENDBRANCH  61  85
BRANCH  73  96
ATOM     96  C   UNL     1      25.349  10.289  10.115  1.00  0.00     0.023 A 
ATOM     97  C   UNL     1      25.751  11.453   9.432  1.00  0.00     0.012 A 
ATOM     98  C   UNL     1      26.274   9.617  10.940  1.00  0.00     0.148 A 
ATOM     99  C   UNL     1      27.059  11.924   9.544  1.00  0.00     0.002 A 
ATOM    100  C   UNL     1      27.561  10.120  11.085  1.00  0.00     0.091 A 
ATOM    101  F   UNL     1      25.877   8.501  11.569  1.00  0.00    -0.205 F 
ATOM    102  C   UNL     1      27.959  11.267  10.380  1.00  0.00     0.022 A 
BRANCH 100 103
ATOM    103  S   UNL     1      28.755   9.395  12.216  1.00  0.00     0.127 S 
ATOM    104  O   UNL     1      29.678   8.736  11.294  1.00  0.00    -0.237 OA
ATOM    105  O   UNL     1      29.303  10.574  12.888  1.00  0.00    -0.237 OA
ATOM    106  O   UNL     1      27.995   8.506  13.085  1.00  0.00    -0.744 OA
ENDBRANCH 100 103
ENDBRANCH  73  96
ENDBRANCH  47  48
ENDBRANCH  40  42
ENDBRANCH  39  40
ENDBRANCH  38  39
ENDBRANCH  37  38
ENDBRANCH  36  37
ENDBRANCH  35  36
ENDBRANCH  34  35
ENDBRANCH   1  34
TORSDOF 27
