REMARK SMILES Cc1coc2c(C)c3oc(=O)c(CCC(=O)N[C@H](CC(C)C)C(=O)OCCOCCOCCOCCOC(=O)c4ccc(-c5c6nc(c(-c7cccc(S(=O)(=O)[O-])c7F)c7ccc([nH]7)c(-c7cccc(S(=O)(=O)[O-])c7F)c7nc(c(-c8cccc(S(=O)(=O)[O-])c8F)c8ccc5[nH]8)C=C7)C=C6)cc4)c(C)c3cc12
REMARK SMILES IDX 30 1 29 2 28 3 27 4 26 5 25 6 23 7 24 8 18 9 17 10 15 11
REMARK SMILES IDX 16 12 14 14 13 15 12 16 1 17 2 18 3 19 107 20 4 21 5 22
REMARK SMILES IDX 106 23 6 24 105 25 7 26 8 27 103 28 9 29 104 30 10 31 11 32
REMARK SMILES IDX 19 33 20 34 21 35 22 36 31 37 32 38 33 39 34 40 35 41 36 42
REMARK SMILES IDX 37 43 38 44 39 45 40 46 41 47 102 48 42 49 101 50 43 51
REMARK SMILES IDX 44 52 45 53 95 54 46 55 100 56 94 57 96 58 47 59 99 60 93 61
REMARK SMILES IDX 92 62 48 64 80 65 60 66 79 67 61 68 64 69 78 70 97 71 62 72
REMARK SMILES IDX 63 73 77 75 98 76 65 77 49 78 50 79 58 80 51 81 53 82 59 83
REMARK SMILES IDX 52 84 54 85 55 86 56 87 57 88 81 89 82 90 90 91 83 92 85 93
REMARK SMILES IDX 91 94 84 95 86 96 87 97 88 98 89 99 66 100 67 101 75 102
REMARK SMILES IDX 68 103 70 104 76 105 69 106 71 107 72 108 73 109 74 110
REMARK H PARENT 17 13 96 63 64 74
REMARK Flexibility Score: inf
ROOT
ATOM      1  C   UNL     1       6.874   3.048   0.332  1.00  0.00     0.188 C 
ENDROOT
BRANCH   1   2
ATOM      2  C   UNL     1       6.614   4.292   1.187  1.00  0.00     0.188 C 
BRANCH   2   3
ATOM      3  O   UNL     1       6.458   4.157   2.591  1.00  0.00    -0.376 OA
BRANCH   3   4
ATOM      4  C   UNL     1       5.726   3.042   3.088  1.00  0.00     0.202 C 
BRANCH   4   5
ATOM      5  C   UNL     1       4.333   2.755   2.488  1.00  0.00     0.261 C 
BRANCH   5   6
ATOM      6  O   UNL     1       4.308   2.446   1.066  1.00  0.00    -0.462 OA
BRANCH   6   7
ATOM      7  C   UNL     1       3.520   3.218   0.285  1.00  0.00     0.328 C 
ATOM      8  O   UNL     1       2.737   4.051   0.750  1.00  0.00    -0.250 OA
BRANCH   7   9
ATOM      9  C   UNL     1       3.638   3.038  -1.273  1.00  0.00     0.192 C 
BRANCH   9  10
ATOM     10  N   UNL     1       2.212   2.969  -1.671  1.00  0.00    -0.343 N 
ATOM     11  C   UNL     1       1.532   3.265  -2.801  1.00  0.00     0.221 C 
ATOM     12  O   UNL     1       0.305   3.366  -2.714  1.00  0.00    -0.275 OA
ATOM     13  H   UNL     1       1.630   2.633  -0.951  1.00  0.00     0.164 HD
BRANCH  11  14
ATOM     14  C   UNL     1       2.219   3.437  -4.130  1.00  0.00     0.105 C 
BRANCH  14  15
ATOM     15  C   UNL     1       2.684   4.848  -4.551  1.00  0.00     0.053 C 
BRANCH  15  16
ATOM     16  C   UNL     1       3.515   5.698  -3.597  1.00  0.00     0.042 A 
ATOM     17  C   UNL     1       3.087   8.420   2.797  1.00  0.00     0.048 C 
ATOM     18  C   UNL     1       4.339   8.305   2.013  1.00  0.00    -0.005 A 
ATOM     19  C   UNL     1       5.626   8.620   2.393  1.00  0.00     0.199 A 
ATOM     20  C   UNL     1       4.447   7.813   0.683  1.00  0.00     0.024 A 
ATOM     21  O   UNL     1       6.510   8.332   1.400  1.00  0.00    -0.464 OA
ATOM     22  C   UNL     1       5.793   7.828   0.353  1.00  0.00     0.140 A 
ATOM     23  C   UNL     1       3.525   7.324  -0.254  1.00  0.00     0.024 A 
ATOM     24  C   UNL     1       6.317   7.368  -0.861  1.00  0.00     0.036 A 
ATOM     25  C   UNL     1       3.962   6.894  -1.513  1.00  0.00     0.022 A 
ATOM     26  C   UNL     1       7.790   7.324  -1.119  1.00  0.00     0.052 C 
ATOM     27  C   UNL     1       5.334   6.937  -1.786  1.00  0.00     0.145 A 
ATOM     28  C   UNL     1       3.028   6.293  -2.487  1.00  0.00    -0.030 A 
ATOM     29  O   UNL     1       5.782   6.511  -3.055  1.00  0.00    -0.422 OA
ATOM     30  C   UNL     1       1.563   6.306  -2.127  1.00  0.00     0.046 C 
ATOM     31  C   UNL     1       4.934   5.946  -4.000  1.00  0.00     0.339 A 
ATOM     32  O   UNL     1       5.351   5.655  -5.115  1.00  0.00    -0.246 OA
ENDBRANCH  15  16
ENDBRANCH  14  15
ENDBRANCH  11  14
ENDBRANCH   9  10
BRANCH   9  33
ATOM     33  C   UNL     1       4.521   1.971  -1.980  1.00  0.00     0.040 C 
BRANCH  33  34
ATOM     34  C   UNL     1       5.379   2.539  -3.178  1.00  0.00    -0.015 C 
ATOM     35  C   UNL     1       6.632   3.339  -2.833  1.00  0.00     0.007 C 
ATOM     36  C   UNL     1       5.783   1.446  -4.169  1.00  0.00     0.007 C 
ENDBRANCH  33  34
ENDBRANCH   9  33
ENDBRANCH   7   9
ENDBRANCH   6   7
ENDBRANCH   5   6
ENDBRANCH   4   5
ENDBRANCH   3   4
ENDBRANCH   2   3
ENDBRANCH   1   2
BRANCH   1  37
ATOM     37  O   UNL     1       6.862   1.810   1.006  1.00  0.00    -0.377 OA
BRANCH  37  38
ATOM     38  C   UNL     1       8.119   1.177   1.171  1.00  0.00     0.188 C 
BRANCH  38  39
ATOM     39  C   UNL     1       9.290   2.078   1.621  1.00  0.00     0.188 C 
BRANCH  39  40
ATOM     40  O   UNL     1       9.366   3.337   0.966  1.00  0.00    -0.376 OA
BRANCH  40  41
ATOM     41  C   UNL     1      10.189   3.623  -0.151  1.00  0.00     0.202 C 
BRANCH  41  42
ATOM     42  C   UNL     1      10.264   2.767  -1.420  1.00  0.00     0.261 C 
BRANCH  42  43
ATOM     43  O   UNL     1       9.735   1.466  -1.327  1.00  0.00    -0.460 OA
BRANCH  43  44
ATOM     44  C   UNL     1      10.592   0.604  -0.764  1.00  0.00     0.338 C 
ATOM     45  O   UNL     1      11.624   0.892  -0.149  1.00  0.00    -0.246 OA
BRANCH  44  46
ATOM     46  C   UNL     1      10.171  -0.762  -1.032  1.00  0.00     0.060 A 
ATOM     47  C   UNL     1      10.768  -1.744  -0.244  1.00  0.00     0.016 A 
ATOM     48  C   UNL     1       9.502  -1.046  -2.234  1.00  0.00     0.016 A 
ATOM     49  C   UNL     1      10.959  -2.973  -0.814  1.00  0.00     0.010 A 
ATOM     50  C   UNL     1       9.691  -2.282  -2.799  1.00  0.00     0.010 A 
ATOM     51  C   UNL     1      10.517  -3.176  -2.128  1.00  0.00    -0.014 A 
BRANCH  51  52
ATOM     52  C   UNL     1      10.961  -4.384  -2.773  1.00  0.00     0.031 A 
ATOM     53  C   UNL     1      10.306  -5.582  -2.227  1.00  0.00     0.074 A 
ATOM     54  C   UNL     1      11.896  -4.385  -3.738  1.00  0.00     0.049 A 
ATOM     55  N   UNL     1      10.811  -6.422  -1.388  1.00  0.00    -0.248 NA
ATOM     56  C   UNL     1       8.864  -5.726  -2.448  1.00  0.00     0.031 C 
ATOM     57  C   UNL     1      12.419  -3.255  -4.510  1.00  0.00     0.029 A 
ATOM     58  N   UNL     1      12.497  -5.457  -4.313  1.00  0.00    -0.354 N 
ATOM     59  C   UNL     1       9.807  -7.355  -1.169  1.00  0.00     0.074 A 
ATOM     60  C   UNL     1       8.590  -6.752  -1.642  1.00  0.00     0.031 C 
ATOM     61  C   UNL     1      13.048  -3.732  -5.611  1.00  0.00     0.029 A 
ATOM     62  C   UNL     1      13.097  -5.182  -5.533  1.00  0.00     0.049 A 
ATOM     63  H   UNL     1      12.506  -6.351  -3.900  1.00  0.00     0.167 HD
ATOM     64  C   UNL     1      10.118  -8.648  -0.885  1.00  0.00     0.034 A 
ATOM     65  C   UNL     1      13.502  -6.110  -6.434  1.00  0.00     0.034 A 
ATOM     66  C   UNL     1      11.498  -8.774  -0.481  1.00  0.00     0.049 A 
ATOM     67  C   UNL     1      13.689  -7.382  -5.692  1.00  0.00     0.074 A 
ATOM     68  C   UNL     1      12.271  -8.278   0.550  1.00  0.00     0.029 A 
ATOM     69  N   UNL     1      12.377  -9.226  -1.436  1.00  0.00    -0.354 N 
ATOM     70  N   UNL     1      14.618  -7.561  -4.794  1.00  0.00    -0.248 NA
ATOM     71  C   UNL     1      12.575  -8.314  -5.634  1.00  0.00     0.031 C 
ATOM     72  C   UNL     1      13.559  -8.062  -0.021  1.00  0.00     0.029 A 
ATOM     73  C   UNL     1      13.520  -8.479  -1.354  1.00  0.00     0.049 A 
ATOM     74  H   UNL     1      12.213  -9.960  -2.070  1.00  0.00     0.167 HD
ATOM     75  C   UNL     1      13.996  -8.303  -3.798  1.00  0.00     0.074 A 
ATOM     76  C   UNL     1      12.787  -8.836  -4.422  1.00  0.00     0.031 C 
ATOM     77  C   UNL     1      14.365  -8.172  -2.490  1.00  0.00     0.034 A 
BRANCH  64  78
ATOM     78  C   UNL     1       9.330  -9.846  -1.369  1.00  0.00     0.023 A 
ATOM     79  C   UNL     1       9.791 -11.114  -0.947  1.00  0.00     0.012 A 
ATOM     80  C   UNL     1       8.377  -9.831  -2.413  1.00  0.00     0.148 A 
ATOM     81  C   UNL     1       9.398 -12.290  -1.591  1.00  0.00     0.002 A 
ATOM     82  C   UNL     1       7.930 -11.008  -2.999  1.00  0.00     0.091 A 
ATOM     83  F   UNL     1       7.975  -8.679  -2.951  1.00  0.00    -0.205 F 
ATOM     84  C   UNL     1       8.467 -12.238  -2.619  1.00  0.00     0.022 A 
BRANCH  82  85
ATOM     85  S   UNL     1       6.690 -11.000  -4.301  1.00  0.00     0.127 S 
ATOM     86  O   UNL     1       7.494 -11.338  -5.471  1.00  0.00    -0.237 OA
ATOM     87  O   UNL     1       5.778 -12.050  -3.847  1.00  0.00    -0.237 OA
ATOM     88  O   UNL     1       6.110  -9.662  -4.287  1.00  0.00    -0.744 OA
ENDBRANCH  82  85
ENDBRANCH  64  78
BRANCH  65  89
ATOM     89  C   UNL     1      13.412  -6.080  -7.913  1.00  0.00     0.023 A 
ATOM     90  C   UNL     1      14.157  -7.011  -8.665  1.00  0.00     0.012 A 
ATOM     91  C   UNL     1      12.377  -5.372  -8.564  1.00  0.00     0.148 A 
ATOM     92  C   UNL     1      13.851  -7.264 -10.007  1.00  0.00     0.002 A 
ATOM     93  C   UNL     1      12.076  -5.628  -9.899  1.00  0.00     0.091 A 
ATOM     94  F   UNL     1      11.627  -4.521  -7.852  1.00  0.00    -0.205 F 
ATOM     95  C   UNL     1      12.803  -6.584 -10.620  1.00  0.00     0.022 A 
BRANCH  93  96
ATOM     96  S   UNL     1      10.706  -4.827 -10.745  1.00  0.00     0.127 S 
ATOM     97  O   UNL     1      11.348  -4.345 -11.967  1.00  0.00    -0.237 OA
ATOM     98  O   UNL     1       9.780  -5.940 -10.937  1.00  0.00    -0.237 OA
ATOM     99  O   UNL     1      10.246  -3.772  -9.851  1.00  0.00    -0.744 OA
ENDBRANCH  93  96
ENDBRANCH  65  89
BRANCH  77 100
ATOM    100  C   UNL     1      15.632  -7.412  -2.180  1.00  0.00     0.023 A 
ATOM    101  C   UNL     1      15.773  -6.036  -2.455  1.00  0.00     0.012 A 
ATOM    102  C   UNL     1      16.619  -8.055  -1.413  1.00  0.00     0.148 A 
ATOM    103  C   UNL     1      16.879  -5.321  -1.986  1.00  0.00     0.002 A 
ATOM    104  C   UNL     1      17.688  -7.330  -0.903  1.00  0.00     0.091 A 
ATOM    105  F   UNL     1      16.469  -9.365  -1.160  1.00  0.00    -0.205 F 
ATOM    106  C   UNL     1      17.828  -5.965  -1.195  1.00  0.00     0.022 A 
BRANCH 104 107
ATOM    107  S   UNL     1      18.859  -8.065   0.242  1.00  0.00     0.127 S 
ATOM    108  O   UNL     1      20.054  -8.200  -0.588  1.00  0.00    -0.237 OA
ATOM    109  O   UNL     1      18.953  -7.046   1.289  1.00  0.00    -0.237 OA
ATOM    110  O   UNL     1      18.258  -9.317   0.684  1.00  0.00    -0.744 OA
ENDBRANCH 104 107
ENDBRANCH  77 100
ENDBRANCH  51  52
ENDBRANCH  44  46
ENDBRANCH  43  44
ENDBRANCH  42  43
ENDBRANCH  41  42
ENDBRANCH  40  41
ENDBRANCH  39  40
ENDBRANCH  38  39
ENDBRANCH  37  38
ENDBRANCH   1  37
TORSDOF 29
