REMARK SMILES C[C@@H](C(=O)OCCOCCOCCOCCOC(=O)c1ccc(-c2c3nc(c(-c4cccc(S(=O)(=O)[O-])c4F)c4ccc([nH]4)c(-c4cccc(S(=O)(=O)[O-])c4F)c4nc(c(-c5cccc(S(=O)(=O)[O-])c5F)c5ccc2[nH]5)C=C4)C=C3)cc1)[C@H](C)[N@@H+]1C[C@H]2C[NH2+]C[C@@H]2[C@@H]1C
REMARK SMILES IDX 12 1 11 2 10 3 9 4 8 5 7 6 6 7 5 8 3 9 4 10 2 11 1 12 83 13
REMARK SMILES IDX 84 14 85 15 86 16 92 17 87 19 91 20 93 21 88 22 90 23 89 24
REMARK SMILES IDX 13 27 14 28 15 29 16 30 17 31 18 32 19 33 20 34 21 35 82 36
REMARK SMILES IDX 22 37 81 38 23 39 24 40 25 41 75 42 26 43 80 44 74 45 76 46
REMARK SMILES IDX 27 47 79 48 73 49 72 50 28 52 60 53 40 54 59 55 41 56 44 57
REMARK SMILES IDX 58 58 77 59 42 60 43 61 57 63 78 64 45 65 29 66 30 67 38 68
REMARK SMILES IDX 31 69 33 70 39 71 32 72 34 73 35 74 36 75 37 76 61 77 62 78
REMARK SMILES IDX 70 79 63 80 65 81 71 82 64 83 66 84 67 85 68 86 69 87 46 88
REMARK SMILES IDX 47 89 55 90 48 91 50 92 56 93 49 94 51 95 52 96 53 97 54 98
REMARK H PARENT 85 18 89 25 89 26 76 51 44 62
REMARK Flexibility Score: inf
ROOT
ATOM      1  C   UNL     1      -3.946  -3.186  -1.339  1.00  0.00     0.188 C 
ENDROOT
BRANCH   1   2
ATOM      2  O   UNL     1      -3.534  -2.171  -0.429  1.00  0.00    -0.377 OA
BRANCH   2   3
ATOM      3  C   UNL     1      -3.023  -0.951  -0.930  1.00  0.00     0.188 C 
BRANCH   3   4
ATOM      4  C   UNL     1      -1.693  -1.020  -1.702  1.00  0.00     0.188 C 
BRANCH   4   5
ATOM      5  O   UNL     1      -1.369  -2.316  -2.169  1.00  0.00    -0.376 OA
BRANCH   5   6
ATOM      6  C   UNL     1      -0.493  -3.118  -1.389  1.00  0.00     0.202 C 
BRANCH   6   7
ATOM      7  C   UNL     1      -0.585  -3.174   0.151  1.00  0.00     0.261 C 
BRANCH   7   8
ATOM      8  O   UNL     1      -1.002  -1.952   0.785  1.00  0.00    -0.463 OA
BRANCH   8   9
ATOM      9  C   UNL     1      -0.136  -1.260   1.558  1.00  0.00     0.314 C 
ATOM     10  O   UNL     1       1.040  -1.565   1.716  1.00  0.00    -0.252 OA
BRANCH   9  11
ATOM     11  C   UNL     1      -0.750   0.038   2.108  1.00  0.00     0.154 C 
ATOM     12  C   UNL     1      -2.217  -0.144   2.554  1.00  0.00     0.026 C 
BRANCH  11  13
ATOM     13  C   UNL     1      -0.577   1.201   1.084  1.00  0.00     0.195 C 
ATOM     14  C   UNL     1       0.805   1.222   0.420  1.00  0.00     0.076 C 
BRANCH  13  15
ATOM     15  N   UNL     1      -1.059   2.496   1.589  1.00  0.00    -0.329 N 
ATOM     16  C   UNL     1      -1.954   3.240   0.666  1.00  0.00     0.272 C 
ATOM     17  C   UNL     1      -0.252   3.450   2.402  1.00  0.00     0.190 C 
ATOM     18  H   UNL     1      -1.542   2.023   2.353  1.00  0.00     0.348 HD
ATOM     19  C   UNL     1      -1.250   4.559   0.569  1.00  0.00     0.114 C 
ATOM     20  C   UNL     1      -0.874   4.791   2.009  1.00  0.00     0.116 C 
ATOM     21  C   UNL     1       1.268   3.484   2.296  1.00  0.00     0.076 C 
ATOM     22  C   UNL     1      -1.912   5.863   0.228  1.00  0.00     0.270 C 
ATOM     23  C   UNL     1      -0.187   6.130   1.885  1.00  0.00     0.271 C 
ATOM     24  N   UNL     1      -1.005   6.855   0.870  1.00  0.00    -0.345 N 
ATOM     25  H   UNL     1      -1.554   7.585   1.323  1.00  0.00     0.346 HD
ATOM     26  H   UNL     1      -0.403   7.292   0.172  1.00  0.00     0.346 HD
ENDBRANCH  13  15
ENDBRANCH  11  13
ENDBRANCH   9  11
ENDBRANCH   8   9
ENDBRANCH   7   8
ENDBRANCH   6   7
ENDBRANCH   5   6
ENDBRANCH   4   5
ENDBRANCH   3   4
ENDBRANCH   2   3
ENDBRANCH   1   2
BRANCH   1  27
ATOM     27  C   UNL     1      -4.017  -2.940  -2.865  1.00  0.00     0.188 C 
BRANCH  27  28
ATOM     28  O   UNL     1      -4.156  -1.585  -3.263  1.00  0.00    -0.376 OA
BRANCH  28  29
ATOM     29  C   UNL     1      -5.455  -1.124  -3.599  1.00  0.00     0.202 C 
BRANCH  29  30
ATOM     30  C   UNL     1      -6.516  -1.134  -2.486  1.00  0.00     0.261 C 
BRANCH  30  31
ATOM     31  O   UNL     1      -6.807  -2.411  -1.899  1.00  0.00    -0.460 OA
BRANCH  31  32
ATOM     32  C   UNL     1      -7.248  -3.393  -2.712  1.00  0.00     0.338 C 
ATOM     33  O   UNL     1      -7.478  -3.309  -3.909  1.00  0.00    -0.246 OA
BRANCH  32  34
ATOM     34  C   UNL     1      -7.213  -4.658  -1.951  1.00  0.00     0.060 A 
ATOM     35  C   UNL     1      -6.394  -5.702  -2.404  1.00  0.00     0.016 A 
ATOM     36  C   UNL     1      -7.971  -4.806  -0.788  1.00  0.00     0.016 A 
ATOM     37  C   UNL     1      -6.363  -6.914  -1.715  1.00  0.00     0.010 A 
ATOM     38  C   UNL     1      -7.957  -6.029  -0.113  1.00  0.00     0.010 A 
ATOM     39  C   UNL     1      -7.184  -7.100  -0.596  1.00  0.00    -0.014 A 
BRANCH  39  40
ATOM     40  C   UNL     1      -7.396  -8.467  -0.062  1.00  0.00     0.031 A 
ATOM     41  C   UNL     1      -8.637  -9.207  -0.481  1.00  0.00     0.074 A 
ATOM     42  C   UNL     1      -6.511  -9.044   0.770  1.00  0.00     0.049 A 
ATOM     43  N   UNL     1      -9.067 -10.384  -0.111  1.00  0.00    -0.248 NA
ATOM     44  C   UNL     1      -9.514  -8.523  -1.448  1.00  0.00     0.031 C 
ATOM     45  C   UNL     1      -5.266  -8.438   1.236  1.00  0.00     0.029 A 
ATOM     46  N   UNL     1      -6.547 -10.267   1.394  1.00  0.00    -0.354 N 
ATOM     47  C   UNL     1     -10.276 -10.569  -0.771  1.00  0.00     0.074 A 
ATOM     48  C   UNL     1     -10.518  -9.379  -1.557  1.00  0.00     0.031 C 
ATOM     49  C   UNL     1      -4.671  -9.278   2.101  1.00  0.00     0.029 A 
ATOM     50  C   UNL     1      -5.508 -10.465   2.272  1.00  0.00     0.049 A 
ATOM     51  H   UNL     1      -7.249 -10.937   1.228  1.00  0.00     0.167 HD
ATOM     52  C   UNL     1     -11.106 -11.637  -0.738  1.00  0.00     0.034 A 
ATOM     53  C   UNL     1      -5.278 -11.474   3.137  1.00  0.00     0.034 A 
ATOM     54  C   UNL     1     -10.860 -12.822   0.037  1.00  0.00     0.049 A 
ATOM     55  C   UNL     1      -6.239 -12.636   3.187  1.00  0.00     0.074 A 
ATOM     56  C   UNL     1     -11.621 -13.975   0.109  1.00  0.00     0.029 A 
ATOM     57  N   UNL     1      -9.780 -13.001   0.888  1.00  0.00    -0.354 N 
ATOM     58  N   UNL     1      -7.325 -12.843   2.481  1.00  0.00    -0.248 NA
ATOM     59  C   UNL     1      -5.926 -13.719   4.132  1.00  0.00     0.031 C 
ATOM     60  C   UNL     1     -11.023 -14.835   1.036  1.00  0.00     0.029 A 
ATOM     61  C   UNL     1      -9.862 -14.238   1.502  1.00  0.00     0.049 A 
ATOM     62  H   UNL     1      -9.061 -12.344   1.033  1.00  0.00     0.167 HD
ATOM     63  C   UNL     1      -7.799 -14.094   2.866  1.00  0.00     0.074 A 
ATOM     64  C   UNL     1      -6.873 -14.604   3.854  1.00  0.00     0.031 C 
ATOM     65  C   UNL     1      -8.906 -14.756   2.446  1.00  0.00     0.034 A 
BRANCH  52  66
ATOM     66  C   UNL     1     -12.359 -11.575  -1.571  1.00  0.00     0.023 A 
ATOM     67  C   UNL     1     -12.275 -11.652  -2.976  1.00  0.00     0.012 A 
ATOM     68  C   UNL     1     -13.625 -11.492  -0.958  1.00  0.00     0.148 A 
ATOM     69  C   UNL     1     -13.427 -11.613  -3.760  1.00  0.00     0.002 A 
ATOM     70  C   UNL     1     -14.771 -11.502  -1.743  1.00  0.00     0.091 A 
ATOM     71  F   UNL     1     -13.683 -11.396   0.378  1.00  0.00    -0.205 F 
ATOM     72  C   UNL     1     -14.674 -11.550  -3.143  1.00  0.00     0.022 A 
BRANCH  70  73
ATOM     73  S   UNL     1     -16.425 -11.506  -1.043  1.00  0.00     0.127 S 
ATOM     74  O   UNL     1     -16.919 -10.191  -1.448  1.00  0.00    -0.237 OA
ATOM     75  O   UNL     1     -17.048 -12.632  -1.739  1.00  0.00    -0.237 OA
ATOM     76  O   UNL     1     -16.257 -11.693   0.391  1.00  0.00    -0.744 OA
ENDBRANCH  70  73
ENDBRANCH  52  66
BRANCH  53  77
ATOM     77  C   UNL     1      -4.082 -11.441   4.027  1.00  0.00     0.023 A 
ATOM     78  C   UNL     1      -3.048 -12.379   3.846  1.00  0.00     0.012 A 
ATOM     79  C   UNL     1      -3.970 -10.486   5.057  1.00  0.00     0.148 A 
ATOM     80  C   UNL     1      -1.941 -12.390   4.697  1.00  0.00     0.002 A 
ATOM     81  C   UNL     1      -2.838 -10.466   5.863  1.00  0.00     0.091 A 
ATOM     82  F   UNL     1      -4.973  -9.613   5.224  1.00  0.00    -0.205 F 
ATOM     83  C   UNL     1      -1.831 -11.429   5.697  1.00  0.00     0.022 A 
BRANCH  81  84
ATOM     84  S   UNL     1      -2.554  -9.190   7.095  1.00  0.00     0.127 S 
ATOM     85  O   UNL     1      -2.644  -9.951   8.339  1.00  0.00    -0.237 OA
ATOM     86  O   UNL     1      -1.208  -8.734   6.747  1.00  0.00    -0.237 OA
ATOM     87  O   UNL     1      -3.600  -8.198   6.885  1.00  0.00    -0.744 OA
ENDBRANCH  81  84
ENDBRANCH  53  77
BRANCH  65  88
ATOM     88  C   UNL     1      -9.158 -16.134   3.006  1.00  0.00     0.023 A 
ATOM     89  C   UNL     1      -9.559 -16.293   4.347  1.00  0.00     0.012 A 
ATOM     90  C   UNL     1      -9.070 -17.268   2.172  1.00  0.00     0.148 A 
ATOM     91  C   UNL     1      -9.832 -17.561   4.859  1.00  0.00     0.002 A 
ATOM     92  C   UNL     1      -9.396 -18.521   2.674  1.00  0.00     0.091 A 
ATOM     93  F   UNL     1      -8.673 -17.098   0.903  1.00  0.00    -0.205 F 
ATOM     94  C   UNL     1      -9.763 -18.672   4.021  1.00  0.00     0.022 A 
BRANCH  92  95
ATOM     95  S   UNL     1      -9.433 -19.993   1.646  1.00  0.00     0.127 S 
ATOM     96  O   UNL     1      -8.288 -20.744   2.159  1.00  0.00    -0.237 OA
ATOM     97  O   UNL     1     -10.737 -20.569   1.977  1.00  0.00    -0.237 OA
ATOM     98  O   UNL     1      -9.307 -19.529   0.271  1.00  0.00    -0.744 OA
ENDBRANCH  92  95
ENDBRANCH  65  88
ENDBRANCH  39  40
ENDBRANCH  32  34
ENDBRANCH  31  32
ENDBRANCH  30  31
ENDBRANCH  29  30
ENDBRANCH  28  29
ENDBRANCH  27  28
ENDBRANCH   1  27
TORSDOF 25
