REMARK SMILES O=C(OCCOCCOCCOCCOC(=O)c1cccc(Nc2ccc([N+](=O)[O-])cc2)c1)c1ccc(-c2c3nc(c(-c4cccc(S(=O)(=O)[O-])c4F)c4ccc([nH]4)c(-c4cccc(S(=O)(=O)[O-])c4F)c4nc(c(-c5cccc(S(=O)(=O)[O-])c5F)c5ccc2[nH]5)C=C4)C=C3)cc1
REMARK SMILES IDX 9 1 8 2 7 3 6 4 5 5 4 6 3 7 2 8 1 9 34 10 35 11 96 12 36 13
REMARK SMILES IDX 95 14 37 15 38 16 39 17 89 18 40 19 94 20 88 21 90 22 41 23
REMARK SMILES IDX 93 24 87 25 86 26 42 28 74 29 54 30 73 31 55 32 58 33 72 34
REMARK SMILES IDX 91 35 56 36 57 37 71 39 92 40 59 41 43 42 44 43 52 44 45 45
REMARK SMILES IDX 47 46 53 47 46 48 48 49 49 50 50 51 51 52 75 53 76 54 84 55
REMARK SMILES IDX 77 56 79 57 85 58 78 59 80 60 81 61 82 62 83 63 60 64 61 65
REMARK SMILES IDX 69 66 62 67 64 68 70 69 63 70 65 71 66 72 67 73 68 74 10 75
REMARK SMILES IDX 11 76 12 77 13 78 14 79 15 80 16 81 17 82 18 83 19 84 33 85
REMARK SMILES IDX 20 86 22 87 21 88 23 89 24 91 25 92 32 93 26 94 31 95 27 96
REMARK SMILES IDX 28 97 29 98 30 99
REMARK H PARENT 90 27 58 38 23 90
REMARK Flexibility Score: inf
ROOT
ATOM      1  O   UNL     1       2.502  -1.916   3.541  1.00  0.00    -0.377 OA
ENDROOT
BRANCH   1   2
ATOM      2  C   UNL     1       1.802  -1.613   2.335  1.00  0.00     0.188 C 
BRANCH   2   3
ATOM      3  C   UNL     1       2.269  -0.355   1.603  1.00  0.00     0.188 C 
BRANCH   3   4
ATOM      4  O   UNL     1       3.616  -0.489   1.153  1.00  0.00    -0.376 OA
BRANCH   4   5
ATOM      5  C   UNL     1       4.429   0.677   1.256  1.00  0.00     0.202 C 
BRANCH   5   6
ATOM      6  C   UNL     1       4.207   1.711   0.150  1.00  0.00     0.261 C 
BRANCH   6   7
ATOM      7  O   UNL     1       2.847   1.758  -0.300  1.00  0.00    -0.460 OA
BRANCH   7   8
ATOM      8  C   UNL     1       2.304   1.101  -1.356  1.00  0.00     0.338 C 
ATOM      9  O   UNL     1       1.138   1.361  -1.653  1.00  0.00    -0.246 OA
BRANCH   8  10
ATOM     10  C   UNL     1       3.026   0.076  -2.179  1.00  0.00     0.060 A 
ATOM     11  C   UNL     1       4.109  -0.697  -1.752  1.00  0.00     0.016 A 
ATOM     12  C   UNL     1       2.508  -0.186  -3.458  1.00  0.00     0.016 A 
ATOM     13  C   UNL     1       4.684  -1.670  -2.556  1.00  0.00     0.010 A 
ATOM     14  C   UNL     1       3.070  -1.172  -4.275  1.00  0.00     0.010 A 
ATOM     15  C   UNL     1       4.172  -1.906  -3.823  1.00  0.00    -0.014 A 
BRANCH  15  16
ATOM     16  C   UNL     1       4.905  -2.828  -4.703  1.00  0.00     0.031 A 
ATOM     17  C   UNL     1       5.766  -2.230  -5.769  1.00  0.00     0.074 A 
ATOM     18  C   UNL     1       4.853  -4.153  -4.483  1.00  0.00     0.049 A 
ATOM     19  N   UNL     1       6.423  -2.821  -6.726  1.00  0.00    -0.248 NA
ATOM     20  C   UNL     1       5.920  -0.763  -5.747  1.00  0.00     0.031 C 
ATOM     21  C   UNL     1       4.125  -4.799  -3.387  1.00  0.00     0.029 A 
ATOM     22  N   UNL     1       5.410  -5.195  -5.175  1.00  0.00    -0.354 N 
ATOM     23  C   UNL     1       7.001  -1.798  -7.465  1.00  0.00     0.074 A 
ATOM     24  C   UNL     1       6.662  -0.550  -6.823  1.00  0.00     0.031 C 
ATOM     25  C   UNL     1       4.253  -6.131  -3.503  1.00  0.00     0.029 A 
ATOM     26  C   UNL     1       5.008  -6.428  -4.714  1.00  0.00     0.049 A 
ATOM     27  H   UNL     1       6.035  -5.074  -5.926  1.00  0.00     0.167 HD
ATOM     28  C   UNL     1       7.730  -1.905  -8.596  1.00  0.00     0.034 A 
ATOM     29  C   UNL     1       5.180  -7.646  -5.261  1.00  0.00     0.034 A 
ATOM     30  C   UNL     1       8.059  -3.166  -9.195  1.00  0.00     0.049 A 
ATOM     31  C   UNL     1       5.948  -7.728  -6.555  1.00  0.00     0.074 A 
ATOM     32  C   UNL     1       8.797  -3.412 -10.335  1.00  0.00     0.029 A 
ATOM     33  N   UNL     1       7.645  -4.396  -8.703  1.00  0.00    -0.354 N 
ATOM     34  N   UNL     1       6.543  -6.766  -7.222  1.00  0.00    -0.248 NA
ATOM     35  C   UNL     1       6.072  -9.054  -7.174  1.00  0.00     0.031 C 
ATOM     36  C   UNL     1       8.792  -4.792 -10.557  1.00  0.00     0.029 A 
ATOM     37  C   UNL     1       8.082  -5.407  -9.534  1.00  0.00     0.049 A 
ATOM     38  H   UNL     1       7.117  -4.528  -7.882  1.00  0.00     0.167 HD
ATOM     39  C   UNL     1       7.123  -7.370  -8.330  1.00  0.00     0.074 A 
ATOM     40  C   UNL     1       6.836  -8.787  -8.225  1.00  0.00     0.031 C 
ATOM     41  C   UNL     1       7.809  -6.811  -9.357  1.00  0.00     0.034 A 
BRANCH  28  42
ATOM     42  C   UNL     1       8.150  -0.636  -9.279  1.00  0.00     0.023 A 
ATOM     43  C   UNL     1       9.196   0.149  -8.756  1.00  0.00     0.012 A 
ATOM     44  C   UNL     1       7.501  -0.230 -10.462  1.00  0.00     0.148 A 
ATOM     45  C   UNL     1       9.575   1.333  -9.390  1.00  0.00     0.002 A 
ATOM     46  C   UNL     1       7.911   0.927 -11.109  1.00  0.00     0.091 A 
ATOM     47  F   UNL     1       6.488  -0.978 -10.921  1.00  0.00    -0.205 F 
ATOM     48  C   UNL     1       8.939   1.716 -10.569  1.00  0.00     0.022 A 
BRANCH  46  49
ATOM     49  S   UNL     1       7.195   1.475 -12.662  1.00  0.00     0.127 S 
ATOM     50  O   UNL     1       6.586   2.747 -12.274  1.00  0.00    -0.237 OA
ATOM     51  O   UNL     1       8.378   1.599 -13.513  1.00  0.00    -0.237 OA
ATOM     52  O   UNL     1       6.255   0.438 -13.064  1.00  0.00    -0.744 OA
ENDBRANCH  46  49
ENDBRANCH  28  42
BRANCH  29  53
ATOM     53  C   UNL     1       4.575  -8.858  -4.633  1.00  0.00     0.023 A 
ATOM     54  C   UNL     1       5.403  -9.887  -4.146  1.00  0.00     0.012 A 
ATOM     55  C   UNL     1       3.176  -9.000  -4.520  1.00  0.00     0.148 A 
ATOM     56  C   UNL     1       4.851 -11.045  -3.593  1.00  0.00     0.002 A 
ATOM     57  C   UNL     1       2.634 -10.128  -3.914  1.00  0.00     0.091 A 
ATOM     58  F   UNL     1       2.395  -8.027  -5.013  1.00  0.00    -0.205 F 
ATOM     59  C   UNL     1       3.469 -11.161  -3.467  1.00  0.00     0.022 A 
BRANCH  57  60
ATOM     60  S   UNL     1       0.873 -10.290  -3.597  1.00  0.00     0.127 S 
ATOM     61  O   UNL     1       0.470 -11.243  -4.627  1.00  0.00    -0.237 OA
ATOM     62  O   UNL     1       0.855 -10.815  -2.231  1.00  0.00    -0.237 OA
ATOM     63  O   UNL     1       0.330  -8.944  -3.724  1.00  0.00    -0.744 OA
ENDBRANCH  57  60
ENDBRANCH  29  53
BRANCH  41  64
ATOM     64  C   UNL     1       8.312  -7.731 -10.432  1.00  0.00     0.023 A 
ATOM     65  C   UNL     1       7.410  -8.256 -11.376  1.00  0.00     0.012 A 
ATOM     66  C   UNL     1       9.692  -7.970 -10.572  1.00  0.00     0.148 A 
ATOM     67  C   UNL     1       7.875  -9.025 -12.440  1.00  0.00     0.002 A 
ATOM     68  C   UNL     1      10.153  -8.689 -11.665  1.00  0.00     0.091 A 
ATOM     69  F   UNL     1      10.525  -7.468  -9.648  1.00  0.00    -0.205 F 
ATOM     70  C   UNL     1       9.246  -9.227 -12.594  1.00  0.00     0.022 A 
BRANCH  68  71
ATOM     71  S   UNL     1      11.902  -8.902 -12.006  1.00  0.00     0.127 S 
ATOM     72  O   UNL     1      12.077 -10.335 -11.779  1.00  0.00    -0.237 OA
ATOM     73  O   UNL     1      11.995  -8.488 -13.406  1.00  0.00    -0.237 OA
ATOM     74  O   UNL     1      12.605  -8.034 -11.070  1.00  0.00    -0.744 OA
ENDBRANCH  68  71
ENDBRANCH  41  64
ENDBRANCH  15  16
ENDBRANCH   8  10
ENDBRANCH   7   8
ENDBRANCH   6   7
ENDBRANCH   5   6
ENDBRANCH   4   5
ENDBRANCH   3   4
ENDBRANCH   2   3
ENDBRANCH   1   2
BRANCH   1  75
ATOM     75  C   UNL     1       3.924  -1.944   3.474  1.00  0.00     0.188 C 
BRANCH  75  76
ATOM     76  C   UNL     1       4.625  -2.845   2.429  1.00  0.00     0.188 C 
BRANCH  76  77
ATOM     77  O   UNL     1       3.759  -3.583   1.583  1.00  0.00    -0.376 OA
BRANCH  77  78
ATOM     78  C   UNL     1       3.684  -4.982   1.847  1.00  0.00     0.202 C 
BRANCH  78  79
ATOM     79  C   UNL     1       2.901  -5.342   3.118  1.00  0.00     0.261 C 
BRANCH  79  80
ATOM     80  O   UNL     1       3.461  -4.831   4.344  1.00  0.00    -0.460 OA
BRANCH  80  81
ATOM     81  C   UNL     1       4.698  -5.241   4.699  1.00  0.00     0.338 C 
ATOM     82  O   UNL     1       5.393  -6.078   4.149  1.00  0.00    -0.246 OA
BRANCH  81  83
ATOM     83  C   UNL     1       5.178  -4.324   5.755  1.00  0.00     0.062 A 
ATOM     84  C   UNL     1       6.373  -3.625   5.547  1.00  0.00     0.016 A 
ATOM     85  C   UNL     1       4.401  -4.077   6.891  1.00  0.00     0.041 A 
ATOM     86  C   UNL     1       6.759  -2.641   6.452  1.00  0.00     0.003 A 
ATOM     87  C   UNL     1       4.830  -3.154   7.854  1.00  0.00     0.039 A 
ATOM     88  C   UNL     1       5.995  -2.415   7.600  1.00  0.00     0.026 A 
BRANCH  87  89
ATOM     89  N   UNL     1       4.088  -3.014   9.047  1.00  0.00    -0.355 N 
ATOM     90  H   UNL     1       3.127  -3.226   9.001  1.00  0.00     0.167 HD
BRANCH  89  91
ATOM     91  C   UNL     1       4.588  -2.603  10.293  1.00  0.00     0.039 A 
ATOM     92  C   UNL     1       4.937  -3.572  11.244  1.00  0.00     0.033 A 
ATOM     93  C   UNL     1       4.816  -1.252  10.578  1.00  0.00     0.033 A 
ATOM     94  C   UNL     1       5.506  -3.204  12.465  1.00  0.00     0.088 A 
ATOM     95  C   UNL     1       5.380  -0.867  11.798  1.00  0.00     0.088 A 
ATOM     96  C   UNL     1       5.725  -1.848  12.737  1.00  0.00     0.269 A 
BRANCH  96  97
ATOM     97  N   UNL     1       6.328  -1.455  14.016  1.00  0.00     0.062 N 
ATOM     98  O   UNL     1       6.593  -2.352  14.830  1.00  0.00    -0.258 OA
ATOM     99  O   UNL     1       6.534  -0.248  14.211  1.00  0.00    -0.258 OA
ENDBRANCH  96  97
ENDBRANCH  89  91
ENDBRANCH  87  89
ENDBRANCH  81  83
ENDBRANCH  80  81
ENDBRANCH  79  80
ENDBRANCH  78  79
ENDBRANCH  77  78
ENDBRANCH  76  77
ENDBRANCH  75  76
ENDBRANCH   1  75
TORSDOF 26
