REMARK SMILES O=C(OCCOCCOCCOCCOC(=O)c1ccc(-c2c3nc(c(-c4cccc(S(=O)(=O)[O-])c4F)c4ccc([nH]4)c(-c4cccc(S(=O)(=O)[O-])c4F)c4nc(c(-c5cccc(S(=O)(=O)[O-])c5F)c5ccc2[nH]5)C=C4)C=C3)cc1)C1=Cc2c(cc(Cl)c(Cl)c2Cl)O[C@H]1C(F)(F)F
REMARK SMILES IDX 10 1 9 2 8 3 7 4 6 5 5 6 4 7 3 8 2 9 1 10 81 11 82 12 93 13
REMARK SMILES IDX 83 14 92 15 84 16 90 17 85 18 88 19 91 20 86 21 89 22 87 23
REMARK SMILES IDX 94 24 95 25 96 26 97 27 11 28 12 29 13 30 14 31 15 32 16 33
REMARK SMILES IDX 17 34 18 35 19 36 80 37 20 38 79 39 21 40 22 41 23 42 73 43
REMARK SMILES IDX 24 44 78 45 72 46 74 47 25 48 77 49 71 50 70 51 26 53 58 54
REMARK SMILES IDX 38 55 57 56 39 57 42 58 56 59 75 60 40 61 41 62 55 64 76 65
REMARK SMILES IDX 43 66 27 67 28 68 36 69 29 70 31 71 37 72 30 73 32 74 33 75
REMARK SMILES IDX 34 76 35 77 59 78 60 79 68 80 61 81 63 82 69 83 62 84 64 85
REMARK SMILES IDX 65 86 66 87 67 88 44 89 45 90 53 91 46 92 48 93 54 94 47 95
REMARK SMILES IDX 49 96 50 97 51 98 52 99
REMARK H PARENT 74 52 42 63
REMARK Flexibility Score: inf
ROOT
ATOM      1  C   UNL     1       2.958  -2.701   3.053  1.00  0.00     0.188 C 
ENDROOT
BRANCH   1   2
ATOM      2  O   UNL     1       1.772  -3.342   2.589  1.00  0.00    -0.377 OA
BRANCH   2   3
ATOM      3  C   UNL     1       0.738  -2.531   2.052  1.00  0.00     0.188 C 
BRANCH   3   4
ATOM      4  C   UNL     1       1.076  -1.829   0.736  1.00  0.00     0.188 C 
BRANCH   4   5
ATOM      5  O   UNL     1       2.278  -1.078   0.817  1.00  0.00    -0.376 OA
BRANCH   5   6
ATOM      6  C   UNL     1       2.160   0.130   1.561  1.00  0.00     0.202 C 
BRANCH   6   7
ATOM      7  C   UNL     1       1.868   1.324   0.653  1.00  0.00     0.261 C 
BRANCH   7   8
ATOM      8  O   UNL     1       1.649   0.955  -0.736  1.00  0.00    -0.460 OA
BRANCH   8   9
ATOM      9  C   UNL     1       2.534   0.696  -1.730  1.00  0.00     0.338 C 
ATOM     10  O   UNL     1       2.112   0.486  -2.864  1.00  0.00    -0.246 OA
BRANCH   9  11
ATOM     11  C   UNL     1       4.001   0.781  -1.535  1.00  0.00     0.087 C 
ATOM     12  C   UNL     1       4.582   0.740  -0.343  1.00  0.00     0.029 C 
ATOM     13  C   UNL     1       4.901   0.521  -2.732  1.00  0.00     0.316 C 
ATOM     14  C   UNL     1       5.965   1.043  -0.122  1.00  0.00     0.038 A 
ATOM     15  O   UNL     1       6.351   0.646  -2.473  1.00  0.00    -0.475 OA
ATOM     16  C   UNL     1       6.807   0.899  -1.208  1.00  0.00     0.131 A 
ATOM     17  C   UNL     1       6.444   1.427   1.150  1.00  0.00     0.072 A 
ATOM     18  C   UNL     1       8.175   1.019  -0.995  1.00  0.00     0.069 A 
ATOM     19  C   UNL     1       7.816   1.513   1.374  1.00  0.00     0.079 A 
ATOM     20  Cl  UNL     1       5.318   1.868   2.406  1.00  0.00    -0.082 Cl
ATOM     21  C   UNL     1       8.678   1.293   0.292  1.00  0.00     0.064 A 
ATOM     22  Cl  UNL     1       8.429   1.842   2.964  1.00  0.00    -0.081 Cl
ATOM     23  Cl  UNL     1      10.396   1.355   0.474  1.00  0.00    -0.083 Cl
BRANCH  13  24
ATOM     24  C   UNL     1       4.618  -0.916  -3.274  1.00  0.00     0.430 C 
ATOM     25  F   UNL     1       4.066  -1.725  -2.334  1.00  0.00    -0.167 F 
ATOM     26  F   UNL     1       3.788  -0.905  -4.342  1.00  0.00    -0.167 F 
ATOM     27  F   UNL     1       5.755  -1.533  -3.683  1.00  0.00    -0.167 F 
ENDBRANCH  13  24
ENDBRANCH   9  11
ENDBRANCH   8   9
ENDBRANCH   7   8
ENDBRANCH   6   7
ENDBRANCH   5   6
ENDBRANCH   4   5
ENDBRANCH   3   4
ENDBRANCH   2   3
ENDBRANCH   1   2
BRANCH   1  28
ATOM     28  C   UNL     1       4.206  -2.999   2.189  1.00  0.00     0.188 C 
BRANCH  28  29
ATOM     29  O   UNL     1       4.533  -4.346   1.832  1.00  0.00    -0.376 OA
BRANCH  29  30
ATOM     30  C   UNL     1       3.461  -5.260   1.653  1.00  0.00     0.202 C 
BRANCH  30  31
ATOM     31  C   UNL     1       3.102  -6.028   2.943  1.00  0.00     0.261 C 
BRANCH  31  32
ATOM     32  O   UNL     1       3.432  -5.333   4.162  1.00  0.00    -0.460 OA
BRANCH  32  33
ATOM     33  C   UNL     1       4.751  -5.354   4.498  1.00  0.00     0.338 C 
ATOM     34  O   UNL     1       5.606  -6.062   4.014  1.00  0.00    -0.246 OA
BRANCH  33  35
ATOM     35  C   UNL     1       5.050  -4.264   5.475  1.00  0.00     0.060 A 
ATOM     36  C   UNL     1       6.271  -3.589   5.338  1.00  0.00     0.016 A 
ATOM     37  C   UNL     1       4.185  -3.917   6.519  1.00  0.00     0.016 A 
ATOM     38  C   UNL     1       6.676  -2.652   6.293  1.00  0.00     0.010 A 
ATOM     39  C   UNL     1       4.589  -2.973   7.477  1.00  0.00     0.010 A 
ATOM     40  C   UNL     1       5.870  -2.391   7.408  1.00  0.00    -0.014 A 
BRANCH  40  41
ATOM     41  C   UNL     1       6.492  -1.773   8.615  1.00  0.00     0.031 A 
ATOM     42  C   UNL     1       6.949  -2.699   9.719  1.00  0.00     0.074 A 
ATOM     43  C   UNL     1       6.716  -0.450   8.728  1.00  0.00     0.049 A 
ATOM     44  N   UNL     1       7.565  -2.423  10.840  1.00  0.00    -0.248 NA
ATOM     45  C   UNL     1       6.672  -4.133   9.529  1.00  0.00     0.031 C 
ATOM     46  C   UNL     1       6.356   0.562   7.739  1.00  0.00     0.029 A 
ATOM     47  N   UNL     1       7.305   0.268   9.744  1.00  0.00    -0.354 N 
ATOM     48  C   UNL     1       7.717  -3.639  11.499  1.00  0.00     0.074 A 
ATOM     49  C   UNL     1       7.112  -4.651  10.664  1.00  0.00     0.031 C 
ATOM     50  C   UNL     1       6.722   1.773   8.200  1.00  0.00     0.029 A 
ATOM     51  C   UNL     1       7.326   1.626   9.525  1.00  0.00     0.049 A 
ATOM     52  H   UNL     1       7.676  -0.151  10.553  1.00  0.00     0.167 HD
ATOM     53  C   UNL     1       8.318  -3.903  12.682  1.00  0.00     0.034 A 
ATOM     54  C   UNL     1       7.776   2.633  10.304  1.00  0.00     0.034 A 
ATOM     55  C   UNL     1       8.944  -2.910  13.510  1.00  0.00     0.049 A 
ATOM     56  C   UNL     1       8.416   2.317  11.636  1.00  0.00     0.074 A 
ATOM     57  C   UNL     1       9.624  -3.090  14.702  1.00  0.00     0.029 A 
ATOM     58  N   UNL     1       8.951  -1.551  13.246  1.00  0.00    -0.354 N 
ATOM     59  N   UNL     1       8.653   1.151  12.188  1.00  0.00    -0.248 NA
ATOM     60  C   UNL     1       8.884   3.460  12.438  1.00  0.00     0.031 C 
ATOM     61  C   UNL     1      10.001  -1.832  15.183  1.00  0.00     0.029 A 
ATOM     62  C   UNL     1       9.603  -0.875  14.263  1.00  0.00     0.049 A 
ATOM     63  H   UNL     1       8.550  -1.127  12.452  1.00  0.00     0.167 HD
ATOM     64  C   UNL     1       9.339   1.418  13.371  1.00  0.00     0.074 A 
ATOM     65  C   UNL     1       9.491   2.855  13.450  1.00  0.00     0.031 C 
ATOM     66  C   UNL     1       9.797   0.551  14.310  1.00  0.00     0.034 A 
BRANCH  53  67
ATOM     67  C   UNL     1       8.321  -5.334  13.157  1.00  0.00     0.023 A 
ATOM     68  C   UNL     1       9.114  -6.298  12.501  1.00  0.00     0.012 A 
ATOM     69  C   UNL     1       7.557  -5.715  14.277  1.00  0.00     0.148 A 
ATOM     70  C   UNL     1       9.112  -7.626  12.925  1.00  0.00     0.002 A 
ATOM     71  C   UNL     1       7.601  -7.028  14.726  1.00  0.00     0.091 A 
ATOM     72  F   UNL     1       6.791  -4.790  14.872  1.00  0.00    -0.205 F 
ATOM     73  C   UNL     1       8.365  -7.989  14.043  1.00  0.00     0.022 A 
BRANCH  71  74
ATOM     74  S   UNL     1       6.742  -7.572  16.206  1.00  0.00     0.127 S 
ATOM     75  O   UNL     1       5.690  -8.417  15.642  1.00  0.00    -0.237 OA
ATOM     76  O   UNL     1       7.791  -8.299  16.920  1.00  0.00    -0.237 OA
ATOM     77  O   UNL     1       6.281  -6.362  16.872  1.00  0.00    -0.744 OA
ENDBRANCH  71  74
ENDBRANCH  53  67
BRANCH  54  78
ATOM     78  C   UNL     1       7.681   4.049   9.838  1.00  0.00     0.023 A 
ATOM     79  C   UNL     1       8.858   4.770   9.550  1.00  0.00     0.012 A 
ATOM     80  C   UNL     1       6.435   4.690   9.699  1.00  0.00     0.148 A 
ATOM     81  C   UNL     1       8.797   6.112   9.168  1.00  0.00     0.002 A 
ATOM     82  C   UNL     1       6.378   6.009   9.262  1.00  0.00     0.091 A 
ATOM     83  F   UNL     1       5.328   3.996   9.997  1.00  0.00    -0.205 F 
ATOM     84  C   UNL     1       7.559   6.728   9.015  1.00  0.00     0.022 A 
BRANCH  82  85
ATOM     85  S   UNL     1       4.828   6.849   8.921  1.00  0.00     0.127 S 
ATOM     86  O   UNL     1       4.817   7.889   9.946  1.00  0.00    -0.237 OA
ATOM     87  O   UNL     1       5.043   7.331   7.556  1.00  0.00    -0.237 OA
ATOM     88  O   UNL     1       3.791   5.833   9.043  1.00  0.00    -0.744 OA
ENDBRANCH  82  85
ENDBRANCH  54  78
BRANCH  66  89
ATOM     89  C   UNL     1      10.564   1.115  15.482  1.00  0.00     0.023 A 
ATOM     90  C   UNL     1       9.902   1.873  16.468  1.00  0.00     0.012 A 
ATOM     91  C   UNL     1      11.936   0.831  15.637  1.00  0.00     0.148 A 
ATOM     92  C   UNL     1      10.603   2.377  17.565  1.00  0.00     0.002 A 
ATOM     93  C   UNL     1      12.615   1.289  16.761  1.00  0.00     0.091 A 
ATOM     94  F   UNL     1      12.555   0.120  14.684  1.00  0.00    -0.205 F 
ATOM     95  C   UNL     1      11.954   2.076  17.717  1.00  0.00     0.022 A 
BRANCH  93  96
ATOM     96  S   UNL     1      14.329   0.863  17.090  1.00  0.00     0.127 S 
ATOM     97  O   UNL     1      15.007   2.131  16.830  1.00  0.00    -0.237 OA
ATOM     98  O   UNL     1      14.286   0.473  18.500  1.00  0.00    -0.237 OA
ATOM     99  O   UNL     1      14.657  -0.222  16.174  1.00  0.00    -0.744 OA
ENDBRANCH  93  96
ENDBRANCH  66  89
ENDBRANCH  40  41
ENDBRANCH  33  35
ENDBRANCH  32  33
ENDBRANCH  31  32
ENDBRANCH  30  31
ENDBRANCH  29  30
ENDBRANCH  28  29
ENDBRANCH   1  28
TORSDOF 24
