REMARK SMILES Cc1ccc(C)c(N2C(=O)C[C@@H](SCC(=O)OCCOCCOCCOCCOC(=O)c3ccc(-c4c5nc(c(-c6cccc(S(=O)(=O)[O-])c6F)c6ccc([nH]6)c(-c6cccc(S(=O)(=O)[O-])c6F)c6nc(c(-c7cccc(S(=O)(=O)[O-])c7F)c7ccc4[nH]7)C=C6)C=C5)cc3)C2=O)c1
REMARK SMILES IDX 23 1 22 2 21 3 20 4 19 5 18 6 17 7 15 8 16 9 14 10 13 11
REMARK SMILES IDX 12 12 8 13 9 14 95 15 10 16 11 17 96 18 7 19 1 20 2 21 3 22
REMARK SMILES IDX 97 23 4 24 5 25 6 26 24 27 25 28 26 29 27 30 28 31 29 32
REMARK SMILES IDX 30 33 31 34 32 35 33 36 94 37 34 38 93 39 35 40 36 41 37 42
REMARK SMILES IDX 87 43 38 44 92 45 86 46 88 47 39 48 91 49 85 50 84 51 40 53
REMARK SMILES IDX 72 54 52 55 71 56 53 57 56 58 70 59 89 60 54 61 55 62 69 64
REMARK SMILES IDX 90 65 57 66 41 67 42 68 50 69 43 70 45 71 51 72 44 73 46 74
REMARK SMILES IDX 47 75 48 76 49 77 73 78 74 79 82 80 75 81 77 82 83 83 76 84
REMARK SMILES IDX 78 85 79 86 80 87 81 88 58 89 59 90 67 91 60 92 62 93 68 94
REMARK SMILES IDX 61 95 63 96 64 97 65 98 66 99
REMARK H PARENT 88 52 56 63
REMARK Flexibility Score: inf
ROOT
ATOM      1  O   UNL     1      -3.650   3.719   3.840  1.00  0.00    -0.377 OA
ENDROOT
BRANCH   1   2
ATOM      2  C   UNL     1      -3.658   4.660   2.778  1.00  0.00     0.188 C 
BRANCH   2   3
ATOM      3  C   UNL     1      -4.167   6.067   3.013  1.00  0.00     0.188 C 
BRANCH   3   4
ATOM      4  O   UNL     1      -5.213   6.015   3.961  1.00  0.00    -0.376 OA
BRANCH   4   5
ATOM      5  C   UNL     1      -6.495   6.460   3.571  1.00  0.00     0.202 C 
BRANCH   5   6
ATOM      6  C   UNL     1      -7.094   6.021   2.220  1.00  0.00     0.261 C 
BRANCH   6   7
ATOM      7  O   UNL     1      -7.218   4.591   1.959  1.00  0.00    -0.463 OA
BRANCH   7   8
ATOM      8  C   UNL     1      -6.408   4.108   0.985  1.00  0.00     0.315 C 
ATOM      9  O   UNL     1      -5.420   4.731   0.596  1.00  0.00    -0.251 OA
BRANCH   8  10
ATOM     10  C   UNL     1      -6.796   2.843   0.303  1.00  0.00     0.192 C 
BRANCH  10  11
ATOM     11  S   UNL     1      -5.429   1.732  -0.353  1.00  0.00    -0.136 SA
BRANCH  11  12
ATOM     12  C   UNL     1      -3.816   2.509   0.093  1.00  0.00     0.146 C 
ATOM     13  N   UNL     1      -1.723   1.532  -0.326  1.00  0.00    -0.249 N 
ATOM     14  C   UNL     1      -1.661   2.748  -0.947  1.00  0.00     0.235 C 
ATOM     15  C   UNL     1      -2.804   1.489   0.519  1.00  0.00     0.247 C 
ATOM     16  O   UNL     1      -0.674   3.325  -1.381  1.00  0.00    -0.274 OA
ATOM     17  C   UNL     1      -3.051   3.343  -0.925  1.00  0.00     0.125 C 
ATOM     18  O   UNL     1      -2.892   0.852   1.567  1.00  0.00    -0.273 OA
BRANCH  13  19
ATOM     19  C   UNL     1      -0.736   0.516  -0.300  1.00  0.00     0.055 A 
ATOM     20  C   UNL     1       3.056   0.001  -0.084  1.00  0.00     0.044 C 
ATOM     21  C   UNL     1       1.577  -0.251  -0.140  1.00  0.00    -0.049 A 
ATOM     22  C   UNL     1       1.123  -1.569  -0.025  1.00  0.00     0.004 A 
ATOM     23  C   UNL     1       0.643   0.791  -0.300  1.00  0.00     0.030 A 
ATOM     24  C   UNL     1      -0.234  -1.858  -0.100  1.00  0.00     0.006 A 
ATOM     25  C   UNL     1      -1.168  -0.833  -0.273  1.00  0.00    -0.027 A 
ATOM     26  C   UNL     1      -2.612  -1.229  -0.467  1.00  0.00     0.046 C 
ENDBRANCH  13  19
ENDBRANCH  11  12
ENDBRANCH  10  11
ENDBRANCH   8  10
ENDBRANCH   7   8
ENDBRANCH   6   7
ENDBRANCH   5   6
ENDBRANCH   4   5
ENDBRANCH   3   4
ENDBRANCH   2   3
ENDBRANCH   1   2
BRANCH   1  27
ATOM     27  C   UNL     1      -3.071   4.177   5.042  1.00  0.00     0.188 C 
BRANCH  27  28
ATOM     28  C   UNL     1      -1.572   4.386   4.888  1.00  0.00     0.188 C 
BRANCH  28  29
ATOM     29  O   UNL     1      -1.316   5.383   3.902  1.00  0.00    -0.376 OA
BRANCH  29  30
ATOM     30  C   UNL     1      -0.293   5.051   2.968  1.00  0.00     0.202 C 
BRANCH  30  31
ATOM     31  C   UNL     1       0.999   5.745   3.382  1.00  0.00     0.261 C 
BRANCH  31  32
ATOM     32  O   UNL     1       1.007   7.188   3.232  1.00  0.00    -0.460 OA
BRANCH  32  33
ATOM     33  C   UNL     1      -0.085   7.883   3.648  1.00  0.00     0.338 C 
ATOM     34  O   UNL     1      -0.285   8.219   4.805  1.00  0.00    -0.246 OA
BRANCH  33  35
ATOM     35  C   UNL     1      -0.987   8.187   2.493  1.00  0.00     0.060 A 
ATOM     36  C   UNL     1      -2.245   8.734   2.731  1.00  0.00     0.016 A 
ATOM     37  C   UNL     1      -0.658   7.779   1.189  1.00  0.00     0.016 A 
ATOM     38  C   UNL     1      -3.198   8.720   1.703  1.00  0.00     0.010 A 
ATOM     39  C   UNL     1      -1.626   7.716   0.180  1.00  0.00     0.010 A 
ATOM     40  C   UNL     1      -2.925   8.149   0.432  1.00  0.00    -0.014 A 
BRANCH  40  41
ATOM     41  C   UNL     1      -3.829   8.466  -0.710  1.00  0.00     0.031 A 
ATOM     42  C   UNL     1      -3.980   9.912  -0.752  1.00  0.00     0.074 A 
ATOM     43  C   UNL     1      -4.486   7.714  -1.632  1.00  0.00     0.049 A 
ATOM     44  N   UNL     1      -5.019  10.533  -0.294  1.00  0.00    -0.248 NA
ATOM     45  C   UNL     1      -2.810  10.760  -1.020  1.00  0.00     0.031 C 
ATOM     46  C   UNL     1      -4.600   6.293  -1.520  1.00  0.00     0.029 A 
ATOM     47  N   UNL     1      -5.237   7.921  -2.776  1.00  0.00    -0.354 N 
ATOM     48  C   UNL     1      -4.794  11.820  -0.722  1.00  0.00     0.074 A 
ATOM     49  C   UNL     1      -3.359  11.965  -0.857  1.00  0.00     0.031 C 
ATOM     50  C   UNL     1      -5.024   5.693  -2.644  1.00  0.00     0.029 A 
ATOM     51  C   UNL     1      -5.435   6.750  -3.543  1.00  0.00     0.049 A 
ATOM     52  H   UNL     1      -5.600   8.800  -3.031  1.00  0.00     0.167 HD
ATOM     53  C   UNL     1      -5.753  12.333  -1.536  1.00  0.00     0.034 A 
ATOM     54  C   UNL     1      -6.053   6.505  -4.731  1.00  0.00     0.034 A 
ATOM     55  C   UNL     1      -7.056  11.761  -1.324  1.00  0.00     0.049 A 
ATOM     56  C   UNL     1      -7.114   7.519  -4.859  1.00  0.00     0.074 A 
ATOM     57  C   UNL     1      -7.921  11.618  -0.260  1.00  0.00     0.029 A 
ATOM     58  N   UNL     1      -7.448  10.865  -2.279  1.00  0.00    -0.354 N 
ATOM     59  N   UNL     1      -8.265   7.431  -4.248  1.00  0.00    -0.248 NA
ATOM     60  C   UNL     1      -6.788   8.821  -5.424  1.00  0.00     0.031 C 
ATOM     61  C   UNL     1      -8.850  10.602  -0.617  1.00  0.00     0.029 A 
ATOM     62  C   UNL     1      -8.559  10.162  -1.904  1.00  0.00     0.049 A 
ATOM     63  H   UNL     1      -6.984  10.740  -3.138  1.00  0.00     0.167 HD
ATOM     64  C   UNL     1      -8.544   8.746  -3.925  1.00  0.00     0.074 A 
ATOM     65  C   UNL     1      -7.722   9.553  -4.815  1.00  0.00     0.031 C 
ATOM     66  C   UNL     1      -9.053   9.057  -2.700  1.00  0.00     0.034 A 
BRANCH  53  67
ATOM     67  C   UNL     1      -5.329  12.855  -2.875  1.00  0.00     0.023 A 
ATOM     68  C   UNL     1      -6.033  13.910  -3.453  1.00  0.00     0.012 A 
ATOM     69  C   UNL     1      -4.358  12.196  -3.666  1.00  0.00     0.148 A 
ATOM     70  C   UNL     1      -5.697  14.358  -4.735  1.00  0.00     0.002 A 
ATOM     71  C   UNL     1      -3.917  12.740  -4.854  1.00  0.00     0.091 A 
ATOM     72  F   UNL     1      -3.974  10.953  -3.345  1.00  0.00    -0.205 F 
ATOM     73  C   UNL     1      -4.601  13.816  -5.410  1.00  0.00     0.022 A 
BRANCH  71  74
ATOM     74  S   UNL     1      -2.407  12.147  -5.617  1.00  0.00     0.127 S 
ATOM     75  O   UNL     1      -2.930  11.332  -6.707  1.00  0.00    -0.237 OA
ATOM     76  O   UNL     1      -1.764  13.398  -6.020  1.00  0.00    -0.237 OA
ATOM     77  O   UNL     1      -1.705  11.438  -4.552  1.00  0.00    -0.744 OA
ENDBRANCH  71  74
ENDBRANCH  53  67
BRANCH  54  78
ATOM     78  C   UNL     1      -5.914   5.379  -5.715  1.00  0.00     0.023 A 
ATOM     79  C   UNL     1      -6.733   5.361  -6.871  1.00  0.00     0.012 A 
ATOM     80  C   UNL     1      -4.826   4.477  -5.696  1.00  0.00     0.148 A 
ATOM     81  C   UNL     1      -6.424   4.562  -7.985  1.00  0.00     0.002 A 
ATOM     82  C   UNL     1      -4.520   3.687  -6.806  1.00  0.00     0.091 A 
ATOM     83  F   UNL     1      -4.029   4.423  -4.623  1.00  0.00    -0.205 F 
ATOM     84  C   UNL     1      -5.302   3.743  -7.962  1.00  0.00     0.022 A 
BRANCH  82  85
ATOM     85  S   UNL     1      -3.059   2.634  -6.821  1.00  0.00     0.127 S 
ATOM     86  O   UNL     1      -3.488   1.506  -7.650  1.00  0.00    -0.237 OA
ATOM     87  O   UNL     1      -2.067   3.504  -7.445  1.00  0.00    -0.237 OA
ATOM     88  O   UNL     1      -2.827   2.284  -5.424  1.00  0.00    -0.744 OA
ENDBRANCH  82  85
ENDBRANCH  54  78
BRANCH  66  89
ATOM     89  C   UNL     1     -10.098   8.165  -2.106  1.00  0.00     0.023 A 
ATOM     90  C   UNL     1      -9.882   6.829  -1.727  1.00  0.00     0.012 A 
ATOM     91  C   UNL     1     -11.349   8.757  -1.842  1.00  0.00     0.148 A 
ATOM     92  C   UNL     1     -10.898   6.102  -1.096  1.00  0.00     0.002 A 
ATOM     93  C   UNL     1     -12.336   8.050  -1.175  1.00  0.00     0.091 A 
ATOM     94  F   UNL     1     -11.552  10.021  -2.247  1.00  0.00    -0.205 F 
ATOM     95  C   UNL     1     -12.118   6.716  -0.804  1.00  0.00     0.022 A 
BRANCH  93  96
ATOM     96  S   UNL     1     -13.874   8.839  -0.692  1.00  0.00     0.127 S 
ATOM     97  O   UNL     1     -14.797   8.363  -1.719  1.00  0.00    -0.237 OA
ATOM     98  O   UNL     1     -14.104   8.288   0.644  1.00  0.00    -0.237 OA
ATOM     99  O   UNL     1     -13.602  10.271  -0.701  1.00  0.00    -0.744 OA
ENDBRANCH  93  96
ENDBRANCH  66  89
ENDBRANCH  40  41
ENDBRANCH  33  35
ENDBRANCH  32  33
ENDBRANCH  31  32
ENDBRANCH  30  31
ENDBRANCH  29  30
ENDBRANCH  28  29
ENDBRANCH  27  28
ENDBRANCH   1  27
TORSDOF 26
