REMARK SMILES CC[C@@H]([NH3+])C(=O)NCCOCC(=O)OCCOCCOCCOCCOC(=O)c1ccc(-c2c3nc(c(-c4cccc(S(=O)(=O)[O-])c4F)c4ccc([nH]4)c(-c4cccc(S(=O)(=O)[O-])c4F)c4nc(c(-c5cccc(S(=O)(=O)[O-])c5F)c5ccc2[nH]5)C=C4)C=C3)cc1
REMARK SMILES IDX 18 1 17 2 16 3 15 4 14 5 12 6 13 7 11 8 10 9 9 10 8 11 7 12
REMARK SMILES IDX 5 13 6 14 3 16 2 17 1 18 4 19 19 23 20 24 21 25 22 26 23 27
REMARK SMILES IDX 24 28 25 29 26 30 27 31 28 32 29 33 30 34 91 35 31 36 90 37
REMARK SMILES IDX 32 38 33 39 34 40 84 41 35 42 89 43 83 44 85 45 36 46 88 47
REMARK SMILES IDX 82 48 81 49 37 51 69 52 49 53 68 54 50 55 53 56 67 57 86 58
REMARK SMILES IDX 51 59 52 60 66 62 87 63 54 64 38 65 39 66 47 67 40 68 42 69
REMARK SMILES IDX 48 70 41 71 43 72 44 73 45 74 46 75 70 76 71 77 79 78 72 79
REMARK SMILES IDX 74 80 80 81 73 82 75 83 76 84 77 85 78 86 55 87 56 88 64 89
REMARK SMILES IDX 57 90 59 91 65 92 58 93 60 94 61 95 62 96 63 97
REMARK H PARENT 7 15 4 20 4 21 4 22 85 50 53 61
REMARK Flexibility Score: inf
ROOT
ATOM      1  C   UNL     1       0.426  -4.579  -0.786  1.00  0.00     0.188 C 
ENDROOT
BRANCH   1   2
ATOM      2  O   UNL     1       0.772  -5.474  -1.839  1.00  0.00    -0.376 OA
BRANCH   2   3
ATOM      3  C   UNL     1      -0.270  -5.810  -2.754  1.00  0.00     0.202 C 
BRANCH   3   4
ATOM      4  C   UNL     1      -1.500  -6.548  -2.186  1.00  0.00     0.261 C 
BRANCH   4   5
ATOM      5  O   UNL     1      -2.233  -5.869  -1.130  1.00  0.00    -0.462 OA
BRANCH   5   6
ATOM      6  C   UNL     1      -2.165  -6.438   0.100  1.00  0.00     0.332 C 
ATOM      7  O   UNL     1      -1.505  -7.444   0.358  1.00  0.00    -0.250 OA
BRANCH   6   8
ATOM      8  C   UNL     1      -2.984  -5.736   1.220  1.00  0.00     0.282 C 
BRANCH   8   9
ATOM      9  O   UNL     1      -3.670  -4.513   1.306  1.00  0.00    -0.368 OA
BRANCH   9  10
ATOM     10  C   UNL     1      -2.982  -3.286   1.096  1.00  0.00     0.182 C 
BRANCH  10  11
ATOM     11  C   UNL     1      -2.008  -2.779   2.191  1.00  0.00     0.144 C 
BRANCH  11  12
ATOM     12  N   UNL     1      -0.759  -3.525   2.300  1.00  0.00    -0.349 N 
ATOM     13  C   UNL     1       0.535  -3.135   2.473  1.00  0.00     0.278 C 
ATOM     14  O   UNL     1       1.349  -4.043   2.687  1.00  0.00    -0.268 OA
ATOM     15  H   UNL     1      -0.873  -4.500   2.235  1.00  0.00     0.163 HD
BRANCH  13  16
ATOM     16  C   UNL     1       1.043  -1.673   2.387  1.00  0.00     0.270 C 
BRANCH  16  17
ATOM     17  C   UNL     1       1.001  -1.113   0.968  1.00  0.00     0.072 C 
ATOM     18  C   UNL     1       1.733   0.203   0.750  1.00  0.00     0.011 C 
ENDBRANCH  16  17
BRANCH  16  19
ATOM     19  N   UNL     1       0.351  -0.808   3.357  1.00  0.00    -0.347 N 
ATOM     20  H   UNL     1      -0.643  -0.771   3.131  1.00  0.00     0.345 HD
ATOM     21  H   UNL     1       0.745   0.132   3.316  1.00  0.00     0.345 HD
ATOM     22  H   UNL     1       0.472  -1.187   4.296  1.00  0.00     0.345 HD
ENDBRANCH  16  19
ENDBRANCH  13  16
ENDBRANCH  11  12
ENDBRANCH  10  11
ENDBRANCH   9  10
ENDBRANCH   8   9
ENDBRANCH   6   8
ENDBRANCH   5   6
ENDBRANCH   4   5
ENDBRANCH   3   4
ENDBRANCH   2   3
ENDBRANCH   1   2
BRANCH   1  23
ATOM     23  C   UNL     1      -0.212  -3.265  -1.232  1.00  0.00     0.188 C 
BRANCH  23  24
ATOM     24  O   UNL     1      -1.418  -3.444  -1.956  1.00  0.00    -0.377 OA
BRANCH  24  25
ATOM     25  C   UNL     1      -1.757  -2.514  -2.979  1.00  0.00     0.188 C 
BRANCH  25  26
ATOM     26  C   UNL     1      -0.679  -1.509  -3.387  1.00  0.00     0.188 C 
BRANCH  26  27
ATOM     27  O   UNL     1      -0.310  -0.521  -2.418  1.00  0.00    -0.376 OA
BRANCH  27  28
ATOM     28  C   UNL     1      -1.319  -0.000  -1.556  1.00  0.00     0.202 C 
BRANCH  28  29
ATOM     29  C   UNL     1      -2.219   1.091  -2.125  1.00  0.00     0.261 C 
BRANCH  29  30
ATOM     30  O   UNL     1      -3.035   0.599  -3.184  1.00  0.00    -0.460 OA
BRANCH  30  31
ATOM     31  C   UNL     1      -2.558   0.841  -4.426  1.00  0.00     0.338 C 
ATOM     32  O   UNL     1      -1.550   1.454  -4.736  1.00  0.00    -0.246 OA
BRANCH  31  33
ATOM     33  C   UNL     1      -3.363   0.047  -5.362  1.00  0.00     0.060 A 
ATOM     34  C   UNL     1      -2.705  -0.741  -6.316  1.00  0.00     0.016 A 
ATOM     35  C   UNL     1      -4.757   0.094  -5.292  1.00  0.00     0.016 A 
ATOM     36  C   UNL     1      -3.445  -1.466  -7.235  1.00  0.00     0.010 A 
ATOM     37  C   UNL     1      -5.498  -0.609  -6.229  1.00  0.00     0.010 A 
ATOM     38  C   UNL     1      -4.838  -1.349  -7.223  1.00  0.00    -0.014 A 
BRANCH  38  39
ATOM     39  C   UNL     1      -5.602  -1.780  -8.402  1.00  0.00     0.031 A 
ATOM     40  C   UNL     1      -5.927  -0.735  -9.427  1.00  0.00     0.074 A 
ATOM     41  C   UNL     1      -6.015  -3.051  -8.513  1.00  0.00     0.049 A 
ATOM     42  N   UNL     1      -6.670  -0.828 -10.493  1.00  0.00    -0.248 NA
ATOM     43  C   UNL     1      -5.345   0.605  -9.212  1.00  0.00     0.031 C 
ATOM     44  C   UNL     1      -5.721  -4.122  -7.561  1.00  0.00     0.029 A 
ATOM     45  N   UNL     1      -6.803  -3.642  -9.460  1.00  0.00    -0.354 N 
ATOM     46  C   UNL     1      -6.686   0.446 -11.047  1.00  0.00     0.074 A 
ATOM     47  C   UNL     1      -5.877   1.296 -10.207  1.00  0.00     0.031 C 
ATOM     48  C   UNL     1      -6.356  -5.239  -7.956  1.00  0.00     0.029 A 
ATOM     49  C   UNL     1      -7.125  -4.944  -9.162  1.00  0.00     0.049 A 
ATOM     50  H   UNL     1      -7.110  -3.181 -10.274  1.00  0.00     0.167 HD
ATOM     51  C   UNL     1      -7.327   0.861 -12.162  1.00  0.00     0.034 A 
ATOM     52  C   UNL     1      -7.977  -5.778  -9.786  1.00  0.00     0.034 A 
ATOM     53  C   UNL     1      -8.116  -0.013 -12.982  1.00  0.00     0.049 A 
ATOM     54  C   UNL     1      -8.691  -5.279 -11.015  1.00  0.00     0.074 A 
ATOM     55  C   UNL     1      -8.763   0.273 -14.168  1.00  0.00     0.029 A 
ATOM     56  N   UNL     1      -8.380  -1.341 -12.684  1.00  0.00    -0.354 N 
ATOM     57  N   UNL     1      -8.610  -4.107 -11.600  1.00  0.00    -0.248 NA
ATOM     58  C   UNL     1      -9.592  -6.225 -11.686  1.00  0.00     0.031 C 
ATOM     59  C   UNL     1      -9.458  -0.873 -14.564  1.00  0.00     0.029 A 
ATOM     60  C   UNL     1      -9.201  -1.886 -13.652  1.00  0.00     0.049 A 
ATOM     61  H   UNL     1      -8.035  -1.824 -11.899  1.00  0.00     0.167 HD
ATOM     62  C   UNL     1      -9.411  -4.189 -12.732  1.00  0.00     0.074 A 
ATOM     63  C   UNL     1      -9.958  -5.531 -12.755  1.00  0.00     0.031 C 
ATOM     64  C   UNL     1      -9.681  -3.244 -13.668  1.00  0.00     0.034 A 
BRANCH  51  65
ATOM     65  C   UNL     1      -7.212   2.310 -12.544  1.00  0.00     0.023 A 
ATOM     66  C   UNL     1      -5.995   2.821 -13.039  1.00  0.00     0.012 A 
ATOM     67  C   UNL     1      -8.334   3.157 -12.458  1.00  0.00     0.148 A 
ATOM     68  C   UNL     1      -5.890   4.159 -13.419  1.00  0.00     0.002 A 
ATOM     69  C   UNL     1      -8.236   4.475 -12.884  1.00  0.00     0.091 A 
ATOM     70  F   UNL     1      -9.472   2.660 -11.953  1.00  0.00    -0.205 F 
ATOM     71  C   UNL     1      -7.012   4.981 -13.354  1.00  0.00     0.022 A 
BRANCH  69  72
ATOM     72  S   UNL     1      -9.642   5.590 -12.915  1.00  0.00     0.127 S 
ATOM     73  O   UNL     1      -9.259   6.577 -11.905  1.00  0.00    -0.237 OA
ATOM     74  O   UNL     1      -9.611   6.082 -14.292  1.00  0.00    -0.237 OA
ATOM     75  O   UNL     1     -10.807   4.782 -12.581  1.00  0.00    -0.744 OA
ENDBRANCH  69  72
ENDBRANCH  51  65
BRANCH  52  76
ATOM     76  C   UNL     1      -8.181  -7.163  -9.279  1.00  0.00     0.023 A 
ATOM     77  C   UNL     1      -7.736  -8.255 -10.050  1.00  0.00     0.012 A 
ATOM     78  C   UNL     1      -8.805  -7.406  -8.040  1.00  0.00     0.148 A 
ATOM     79  C   UNL     1      -7.944  -9.564  -9.615  1.00  0.00     0.002 A 
ATOM     80  C   UNL     1      -8.959  -8.711  -7.587  1.00  0.00     0.091 A 
ATOM     81  F   UNL     1      -9.229  -6.355  -7.325  1.00  0.00    -0.205 F 
ATOM     82  C   UNL     1      -8.548  -9.792  -8.381  1.00  0.00     0.022 A 
BRANCH  80  83
ATOM     83  S   UNL     1      -9.612  -9.094  -5.958  1.00  0.00     0.127 S 
ATOM     84  O   UNL     1     -10.906  -9.685  -6.287  1.00  0.00    -0.237 OA
ATOM     85  O   UNL     1      -8.615 -10.037  -5.449  1.00  0.00    -0.237 OA
ATOM     86  O   UNL     1      -9.658  -7.825  -5.244  1.00  0.00    -0.744 OA
ENDBRANCH  80  83
ENDBRANCH  52  76
BRANCH  64  87
ATOM     87  C   UNL     1     -10.555  -3.643 -14.825  1.00  0.00     0.023 A 
ATOM     88  C   UNL     1     -11.936  -3.842 -14.635  1.00  0.00     0.012 A 
ATOM     89  C   UNL     1     -10.011  -3.732 -16.122  1.00  0.00     0.148 A 
ATOM     90  C   UNL     1     -12.757  -4.158 -15.715  1.00  0.00     0.002 A 
ATOM     91  C   UNL     1     -10.845  -3.989 -17.200  1.00  0.00     0.091 A 
ATOM     92  F   UNL     1      -8.691  -3.551 -16.275  1.00  0.00    -0.205 F 
ATOM     93  C   UNL     1     -12.215  -4.218 -16.997  1.00  0.00     0.022 A 
BRANCH  91  94
ATOM     94  S   UNL     1     -10.255  -3.974 -18.896  1.00  0.00     0.127 S 
ATOM     95  O   UNL     1     -10.346  -5.388 -19.254  1.00  0.00    -0.237 OA
ATOM     96  O   UNL     1     -11.235  -3.112 -19.555  1.00  0.00    -0.237 OA
ATOM     97  O   UNL     1      -8.904  -3.430 -18.849  1.00  0.00    -0.744 OA
ENDBRANCH  91  94
ENDBRANCH  64  87
ENDBRANCH  38  39
ENDBRANCH  31  33
ENDBRANCH  30  31
ENDBRANCH  29  30
ENDBRANCH  28  29
ENDBRANCH  27  28
ENDBRANCH  26  27
ENDBRANCH  25  26
ENDBRANCH  24  25
ENDBRANCH  23  24
ENDBRANCH   1  23
TORSDOF 30
