REMARK SMILES Nc1ncccc1C[N@@H+]1CC2(CC[NH2+]CC2)C[C@H]1C(=O)OCCOCCOCCOCCOC(=O)c1ccc(-c2c3nc(c(-c4cccc(S(=O)(=O)[O-])c4F)c4ccc([nH]4)c(-c4cccc(S(=O)(=O)[O-])c4F)c4nc(c(-c5cccc(S(=O)(=O)[O-])c5F)c5ccc2[nH]5)C=C4)C=C3)cc1
REMARK SMILES IDX 27 1 26 2 25 3 24 4 23 5 22 6 21 7 19 8 20 9 18 10 9 11
REMARK SMILES IDX 10 12 11 14 17 15 12 16 16 17 13 18 15 19 14 20 8 23 7 24
REMARK SMILES IDX 2 25 3 26 4 27 6 28 5 29 1 30 28 33 29 34 30 35 31 36 32 37
REMARK SMILES IDX 33 38 34 39 35 40 36 41 37 42 98 43 38 44 97 45 39 46 40 47
REMARK SMILES IDX 41 48 91 49 42 50 96 51 90 52 92 53 43 54 95 55 89 56 88 57
REMARK SMILES IDX 44 59 76 60 56 61 75 62 57 63 60 64 74 65 93 66 58 67 59 68
REMARK SMILES IDX 73 70 94 71 61 72 45 73 46 74 54 75 47 76 49 77 55 78 48 79
REMARK SMILES IDX 50 80 51 81 52 82 53 83 77 84 78 85 86 86 79 87 81 88 87 89
REMARK SMILES IDX 80 90 82 91 83 92 84 93 85 94 62 95 63 96 71 97 64 98 66 99
REMARK SMILES IDX 72 100 65 101 67 102 68 103 69 104 70 105
REMARK H PARENT 9 13 14 21 14 22 1 31 1 32 92 58 60 69
REMARK Flexibility Score: inf
ROOT
ATOM      1  O   UNL     1       0.577  -5.512   3.817  1.00  0.00    -0.377 OA
ENDROOT
BRANCH   1   2
ATOM      2  C   UNL     1       1.658  -4.793   3.261  1.00  0.00     0.188 C 
BRANCH   2   3
ATOM      3  C   UNL     1       2.368  -3.859   4.256  1.00  0.00     0.188 C 
BRANCH   3   4
ATOM      4  O   UNL     1       2.176  -4.000   5.659  1.00  0.00    -0.376 OA
BRANCH   4   5
ATOM      5  C   UNL     1       0.883  -4.183   6.218  1.00  0.00     0.202 C 
BRANCH   5   6
ATOM      6  C   UNL     1      -0.373  -3.452   5.717  1.00  0.00     0.261 C 
BRANCH   6   7
ATOM      7  O   UNL     1      -0.383  -3.044   4.349  1.00  0.00    -0.459 OA
BRANCH   7   8
ATOM      8  C   UNL     1      -0.065  -1.752   4.109  1.00  0.00     0.365 C 
ATOM      9  O   UNL     1       0.239  -0.945   4.986  1.00  0.00    -0.245 OA
BRANCH   8  10
ATOM     10  C   UNL     1      -0.181  -1.348   2.634  1.00  0.00     0.296 C 
ATOM     11  N   UNL     1      -0.054  -2.442   1.648  1.00  0.00    -0.319 N 
ATOM     12  C   UNL     1      -1.392  -2.962   1.352  1.00  0.00     0.270 C 
ATOM     13  H   UNL     1       0.494  -3.182   2.086  1.00  0.00     0.349 HD
ATOM     14  C   UNL     1      -2.423  -1.909   1.819  1.00  0.00     0.036 C 
ATOM     15  C   UNL     1      -1.565  -0.765   2.400  1.00  0.00     0.091 C 
ATOM     16  C   UNL     1      -3.389  -2.491   2.882  1.00  0.00     0.074 C 
ATOM     17  C   UNL     1      -3.291  -1.369   0.666  1.00  0.00     0.074 C 
ATOM     18  C   UNL     1      -4.422  -3.457   2.285  1.00  0.00     0.261 C 
ATOM     19  C   UNL     1      -4.262  -2.406   0.121  1.00  0.00     0.261 C 
ATOM     20  N   UNL     1      -5.154  -2.861   1.169  1.00  0.00    -0.346 N 
ATOM     21  H   UNL     1      -5.691  -2.065   1.514  1.00  0.00     0.346 HD
ATOM     22  H   UNL     1      -5.768  -3.574   0.775  1.00  0.00     0.346 HD
BRANCH  11  23
ATOM     23  C   UNL     1       0.825  -2.204   0.484  1.00  0.00     0.303 C 
BRANCH  23  24
ATOM     24  C   UNL     1       0.681  -0.865  -0.198  1.00  0.00     0.048 A 
ATOM     25  C   UNL     1       1.500   0.222   0.109  1.00  0.00     0.132 A 
ATOM     26  N   UNL     1       1.146   1.494  -0.152  1.00  0.00    -0.239 NA
ATOM     27  C   UNL     1      -0.015   1.695  -0.809  1.00  0.00     0.113 A 
ATOM     28  C   UNL     1      -0.401  -0.630  -1.048  1.00  0.00     0.015 A 
ATOM     29  C   UNL     1      -0.783   0.674  -1.329  1.00  0.00     0.021 A 
BRANCH  25  30
ATOM     30  N   UNL     1       2.724   0.072   0.734  1.00  0.00    -0.383 N 
ATOM     31  H   UNL     1       3.275   0.863   0.934  1.00  0.00     0.158 HD
ATOM     32  H   UNL     1       3.045  -0.826   0.978  1.00  0.00     0.158 HD
ENDBRANCH  25  30
ENDBRANCH  23  24
ENDBRANCH  11  23
ENDBRANCH   8  10
ENDBRANCH   7   8
ENDBRANCH   6   7
ENDBRANCH   5   6
ENDBRANCH   4   5
ENDBRANCH   3   4
ENDBRANCH   2   3
ENDBRANCH   1   2
BRANCH   1  33
ATOM     33  C   UNL     1       0.827  -6.866   4.158  1.00  0.00     0.188 C 
BRANCH  33  34
ATOM     34  C   UNL     1       2.180  -7.205   4.820  1.00  0.00     0.188 C 
BRANCH  34  35
ATOM     35  O   UNL     1       3.319  -6.692   4.136  1.00  0.00    -0.376 OA
BRANCH  35  36
ATOM     36  C   UNL     1       4.042  -7.562   3.277  1.00  0.00     0.202 C 
BRANCH  36  37
ATOM     37  C   UNL     1       3.343  -8.033   1.990  1.00  0.00     0.261 C 
BRANCH  37  38
ATOM     38  O   UNL     1       2.106  -8.739   2.158  1.00  0.00    -0.460 OA
BRANCH  38  39
ATOM     39  C   UNL     1       2.131  -9.875   2.894  1.00  0.00     0.338 C 
ATOM     40  O   UNL     1       3.102 -10.406   3.382  1.00  0.00    -0.246 OA
BRANCH  39  41
ATOM     41  C   UNL     1       0.727 -10.253   3.178  1.00  0.00     0.060 A 
ATOM     42  C   UNL     1       0.317 -10.360   4.514  1.00  0.00     0.016 A 
ATOM     43  C   UNL     1      -0.175 -10.493   2.140  1.00  0.00     0.016 A 
ATOM     44  C   UNL     1      -0.987 -10.754   4.815  1.00  0.00     0.010 A 
ATOM     45  C   UNL     1      -1.475 -10.909   2.443  1.00  0.00     0.010 A 
ATOM     46  C   UNL     1      -1.873 -11.080   3.781  1.00  0.00    -0.014 A 
BRANCH  46  47
ATOM     47  C   UNL     1      -3.130 -11.802   4.093  1.00  0.00     0.031 A 
ATOM     48  C   UNL     1      -3.149 -13.298   3.926  1.00  0.00     0.074 A 
ATOM     49  C   UNL     1      -4.229 -11.154   4.520  1.00  0.00     0.049 A 
ATOM     50  N   UNL     1      -4.134 -14.140   4.088  1.00  0.00    -0.248 NA
ATOM     51  C   UNL     1      -1.881 -13.928   3.517  1.00  0.00     0.031 C 
ATOM     52  C   UNL     1      -4.331  -9.713   4.742  1.00  0.00     0.029 A 
ATOM     53  N   UNL     1      -5.481 -11.632   4.819  1.00  0.00    -0.354 N 
ATOM     54  C   UNL     1      -3.617 -15.391   3.773  1.00  0.00     0.074 A 
ATOM     55  C   UNL     1      -2.235 -15.198   3.397  1.00  0.00     0.031 C 
ATOM     56  C   UNL     1      -5.589  -9.419   5.115  1.00  0.00     0.029 A 
ATOM     57  C   UNL     1      -6.386 -10.645   5.130  1.00  0.00     0.049 A 
ATOM     58  H   UNL     1      -5.708 -12.590   4.813  1.00  0.00     0.167 HD
ATOM     59  C   UNL     1      -4.232 -16.597   3.807  1.00  0.00     0.034 A 
ATOM     60  C   UNL     1      -7.711 -10.723   5.369  1.00  0.00     0.034 A 
ATOM     61  C   UNL     1      -5.604 -16.788   4.189  1.00  0.00     0.049 A 
ATOM     62  C   UNL     1      -8.385 -12.073   5.349  1.00  0.00     0.074 A 
ATOM     63  C   UNL     1      -6.311 -17.973   4.287  1.00  0.00     0.029 A 
ATOM     64  N   UNL     1      -6.482 -15.769   4.520  1.00  0.00    -0.354 N 
ATOM     65  N   UNL     1      -7.861 -13.259   5.149  1.00  0.00    -0.248 NA
ATOM     66  C   UNL     1      -9.831 -12.098   5.620  1.00  0.00     0.031 C 
ATOM     67  C   UNL     1      -7.629 -17.666   4.639  1.00  0.00     0.029 A 
ATOM     68  C   UNL     1      -7.730 -16.294   4.808  1.00  0.00     0.049 A 
ATOM     69  H   UNL     1      -6.253 -14.812   4.546  1.00  0.00     0.167 HD
ATOM     70  C   UNL     1      -8.900 -14.170   5.314  1.00  0.00     0.074 A 
ATOM     71  C   UNL     1     -10.080 -13.400   5.647  1.00  0.00     0.031 C 
ATOM     72  C   UNL     1      -8.883 -15.521   5.193  1.00  0.00     0.034 A 
BRANCH  59  73
ATOM     73  C   UNL     1      -3.418 -17.806   3.428  1.00  0.00     0.023 A 
ATOM     74  C   UNL     1      -2.401 -18.267   4.289  1.00  0.00     0.012 A 
ATOM     75  C   UNL     1      -3.691 -18.513   2.241  1.00  0.00     0.148 A 
ATOM     76  C   UNL     1      -1.646 -19.391   3.958  1.00  0.00     0.002 A 
ATOM     77  C   UNL     1      -2.967 -19.660   1.942  1.00  0.00     0.091 A 
ATOM     78  F   UNL     1      -4.646 -18.046   1.424  1.00  0.00    -0.205 F 
ATOM     79  C   UNL     1      -1.935 -20.093   2.792  1.00  0.00     0.022 A 
BRANCH  77  80
ATOM     80  S   UNL     1      -3.316 -20.680   0.505  1.00  0.00     0.127 S 
ATOM     81  O   UNL     1      -2.121 -20.460  -0.309  1.00  0.00    -0.237 OA
ATOM     82  O   UNL     1      -3.414 -22.015   1.095  1.00  0.00    -0.237 OA
ATOM     83  O   UNL     1      -4.557 -20.170  -0.060  1.00  0.00    -0.744 OA
ENDBRANCH  77  80
ENDBRANCH  59  73
BRANCH  60  84
ATOM     84  C   UNL     1      -8.497  -9.491   5.667  1.00  0.00     0.023 A 
ATOM     85  C   UNL     1      -9.057  -9.314   6.947  1.00  0.00     0.012 A 
ATOM     86  C   UNL     1      -8.706  -8.503   4.685  1.00  0.00     0.148 A 
ATOM     87  C   UNL     1      -9.842  -8.196   7.233  1.00  0.00     0.002 A 
ATOM     88  C   UNL     1      -9.440  -7.364   4.994  1.00  0.00     0.091 A 
ATOM     89  F   UNL     1      -8.178  -8.697   3.468  1.00  0.00    -0.205 F 
ATOM     90  C   UNL     1     -10.026  -7.218   6.260  1.00  0.00     0.022 A 
BRANCH  88  91
ATOM     91  S   UNL     1      -9.631  -5.997   3.846  1.00  0.00     0.127 S 
ATOM     92  O   UNL     1     -11.063  -6.044   3.560  1.00  0.00    -0.237 OA
ATOM     93  O   UNL     1      -9.202  -4.861   4.662  1.00  0.00    -0.237 OA
ATOM     94  O   UNL     1      -8.755  -6.301   2.724  1.00  0.00    -0.744 OA
ENDBRANCH  88  91
ENDBRANCH  60  84
BRANCH  72  95
ATOM     95  C   UNL     1     -10.159 -16.272   5.479  1.00  0.00     0.023 A 
ATOM     96  C   UNL     1     -11.243 -16.197   4.583  1.00  0.00     0.012 A 
ATOM     97  C   UNL     1     -10.251 -17.115   6.605  1.00  0.00     0.148 A 
ATOM     98  C   UNL     1     -12.412 -16.919   4.823  1.00  0.00     0.002 A 
ATOM     99  C   UNL     1     -11.397 -17.874   6.808  1.00  0.00     0.091 A 
ATOM    100  F   UNL     1      -9.214 -17.163   7.454  1.00  0.00    -0.205 F 
ATOM    101  C   UNL     1     -12.484 -17.766   5.926  1.00  0.00     0.022 A 
BRANCH  99 102
ATOM    102  S   UNL     1     -11.541 -19.067   8.144  1.00  0.00     0.127 S 
ATOM    103  O   UNL     1     -12.530 -18.426   9.009  1.00  0.00    -0.237 OA
ATOM    104  O   UNL     1     -12.024 -20.257   7.443  1.00  0.00    -0.237 OA
ATOM    105  O   UNL     1     -10.207 -19.199   8.713  1.00  0.00    -0.744 OA
ENDBRANCH  99 102
ENDBRANCH  72  95
ENDBRANCH  46  47
ENDBRANCH  39  41
ENDBRANCH  38  39
ENDBRANCH  37  38
ENDBRANCH  36  37
ENDBRANCH  35  36
ENDBRANCH  34  35
ENDBRANCH  33  34
ENDBRANCH   1  33
TORSDOF 26
