REMARK SMILES Cc1ccc(NC(=O)c2cnn3c2NC2=C(C(=O)CCC2)[C@H]3c2ccc(C(=O)OCCOCCOCCOCCOC(=O)c3ccc(-c4c5nc(c(-c6cccc(S(=O)(=O)[O-])c6F)c6ccc([nH]6)c(-c6cccc(S(=O)(=O)[O-])c6F)c6nc(c(-c7cccc(S(=O)(=O)[O-])c7F)c7ccc4[nH]7)C=C6)C=C5)cc3)cc2)cc1
REMARK SMILES IDX 35 1 34 2 33 3 32 4 31 5 30 6 29 7 27 8 28 9 26 10 23 11
REMARK SMILES IDX 24 12 108 13 25 14 107 15 22 16 9 17 10 18 13 19 11 20 12 21
REMARK SMILES IDX 14 22 15 23 16 25 21 26 17 27 20 28 18 29 19 30 7 31 6 32
REMARK SMILES IDX 8 34 5 35 1 36 2 37 3 38 110 39 4 40 109 41 36 42 37 43
REMARK SMILES IDX 38 44 39 45 40 46 41 47 42 48 43 49 44 50 45 51 106 52 46 53
REMARK SMILES IDX 105 54 47 55 48 56 49 57 99 58 50 59 104 60 98 61 100 62
REMARK SMILES IDX 51 63 103 64 97 65 96 66 52 68 84 69 64 70 83 71 65 72 68 73
REMARK SMILES IDX 82 74 101 75 66 76 67 77 81 79 102 80 69 81 53 82 54 83
REMARK SMILES IDX 62 84 55 85 57 86 63 87 56 88 58 89 59 90 60 91 61 92 85 93
REMARK SMILES IDX 86 94 94 95 87 96 89 97 95 98 88 99 90 100 91 101 92 102
REMARK SMILES IDX 93 103 70 104 71 105 79 106 72 107 74 108 80 109 73 110
REMARK SMILES IDX 75 111 76 112 77 113 78 114
REMARK H PARENT 14 24 6 33 100 67 68 78
REMARK Flexibility Score: inf
ROOT
ATOM      1  O   UNL     1       1.128  -2.826  -6.708  1.00  0.00    -0.377 OA
ENDROOT
BRANCH   1   2
ATOM      2  C   UNL     1       0.945  -4.479  -5.844  1.00  0.00     0.188 C 
BRANCH   2   3
ATOM      3  C   UNL     1       0.463  -6.170  -6.420  1.00  0.00     0.188 C 
BRANCH   3   4
ATOM      4  O   UNL     1      -0.923  -6.920  -6.657  1.00  0.00    -0.376 OA
BRANCH   4   5
ATOM      5  C   UNL     1      -2.158  -6.603  -7.492  1.00  0.00     0.202 C 
BRANCH   5   6
ATOM      6  C   UNL     1      -3.331  -5.570  -7.149  1.00  0.00     0.261 C 
BRANCH   6   7
ATOM      7  O   UNL     1      -4.350  -5.975  -6.282  1.00  0.00    -0.460 OA
BRANCH   7   8
ATOM      8  C   UNL     1      -3.901  -7.064  -5.676  1.00  0.00     0.338 C 
ATOM      9  O   UNL     1      -4.130  -8.202  -6.042  1.00  0.00    -0.246 OA
BRANCH   8  10
ATOM     10  C   UNL     1      -3.034  -6.697  -4.545  1.00  0.00     0.060 A 
ATOM     11  C   UNL     1      -1.967  -6.351  -2.044  1.00  0.00    -0.019 A 
ATOM     12  C   UNL     1      -1.853  -7.601  -2.682  1.00  0.00     0.007 A 
ATOM     13  C   UNL     1      -2.228  -5.218  -2.849  1.00  0.00     0.007 A 
ATOM     14  C   UNL     1      -2.351  -7.753  -3.964  1.00  0.00     0.016 A 
ATOM     15  C   UNL     1      -2.915  -5.403  -4.038  1.00  0.00     0.016 A 
BRANCH  11  16
ATOM     16  C   UNL     1      -2.430  -6.359  -0.522  1.00  0.00     0.175 C 
ATOM     17  C   UNL     1      -3.591  -3.027  -0.117  1.00  0.00     0.102 A 
ATOM     18  C   UNL     1      -2.658  -3.209   0.949  1.00  0.00     0.151 A 
ATOM     19  C   UNL     1      -3.857  -4.324  -0.531  1.00  0.00     0.142 A 
ATOM     20  N   UNL     1      -2.070  -4.403   0.930  1.00  0.00    -0.178 NA
ATOM     21  N   UNL     1      -2.725  -5.007  -0.067  1.00  0.00    -0.237 N 
ATOM     22  N   UNL     1      -4.752  -5.059  -1.304  1.00  0.00    -0.343 N 
ATOM     23  C   UNL     1      -4.718  -6.485  -1.265  1.00  0.00     0.026 C 
ATOM     24  H   UNL     1      -5.407  -4.596  -1.875  1.00  0.00     0.168 HD
ATOM     25  C   UNL     1      -3.792  -7.039  -0.448  1.00  0.00     0.044 C 
ATOM     26  C   UNL     1      -5.858  -7.407  -1.582  1.00  0.00     0.055 C 
ATOM     27  C   UNL     1      -4.507  -7.109   0.895  1.00  0.00     0.163 C 
ATOM     28  C   UNL     1      -6.671  -7.645  -0.310  1.00  0.00     0.014 C 
ATOM     29  O   UNL     1      -3.870  -7.168   1.944  1.00  0.00    -0.294 OA
ATOM     30  C   UNL     1      -6.046  -6.918   0.886  1.00  0.00     0.081 C 
BRANCH  17  31
ATOM     31  C   UNL     1      -4.128  -1.759  -0.549  1.00  0.00     0.261 C 
ATOM     32  N   UNL     1      -3.306  -0.635  -0.526  1.00  0.00    -0.322 N 
ATOM     33  H   UNL     1      -3.803   0.214  -0.566  1.00  0.00     0.170 HD
ATOM     34  O   UNL     1      -5.309  -1.628  -0.867  1.00  0.00    -0.269 OA
BRANCH  32  35
ATOM     35  C   UNL     1      -1.897  -0.460  -0.456  1.00  0.00     0.041 A 
ATOM     36  C   UNL     1       2.367   0.234   0.024  1.00  0.00     0.044 C 
ATOM     37  C   UNL     1       0.893   0.022  -0.165  1.00  0.00    -0.051 A 
ATOM     38  C   UNL     1       0.417  -1.238  -0.524  1.00  0.00     0.005 A 
ATOM     39  C   UNL     1      -0.032   1.053   0.016  1.00  0.00     0.005 A 
ATOM     40  C   UNL     1      -0.954  -1.459  -0.712  1.00  0.00     0.026 A 
ATOM     41  C   UNL     1      -1.411   0.813  -0.129  1.00  0.00     0.026 A 
ENDBRANCH  32  35
ENDBRANCH  17  31
ENDBRANCH  11  16
ENDBRANCH   8  10
ENDBRANCH   7   8
ENDBRANCH   6   7
ENDBRANCH   5   6
ENDBRANCH   4   5
ENDBRANCH   3   4
ENDBRANCH   2   3
ENDBRANCH   1   2
BRANCH   1  42
ATOM     42  C   UNL     1       2.726  -1.556  -6.756  1.00  0.00     0.188 C 
BRANCH  42  43
ATOM     43  C   UNL     1       4.483  -2.272  -7.303  1.00  0.00     0.188 C 
BRANCH  43  44
ATOM     44  O   UNL     1       4.929  -3.786  -7.733  1.00  0.00    -0.376 OA
BRANCH  44  45
ATOM     45  C   UNL     1       4.579  -5.143  -7.212  1.00  0.00     0.202 C 
BRANCH  45  46
ATOM     46  C   UNL     1       5.739  -6.123  -7.117  1.00  0.00     0.261 C 
BRANCH  46  47
ATOM     47  O   UNL     1       6.164  -6.841  -8.283  1.00  0.00    -0.460 OA
BRANCH  47  48
ATOM     48  C   UNL     1       5.860  -6.349  -9.513  1.00  0.00     0.338 C 
ATOM     49  O   UNL     1       6.718  -5.861 -10.231  1.00  0.00    -0.246 OA
BRANCH  48  50
ATOM     50  C   UNL     1       4.420  -6.570  -9.891  1.00  0.00     0.060 A 
ATOM     51  C   UNL     1       3.816  -5.689 -10.766  1.00  0.00     0.016 A 
ATOM     52  C   UNL     1       3.575  -7.461  -9.231  1.00  0.00     0.016 A 
ATOM     53  C   UNL     1       2.424  -5.430 -10.661  1.00  0.00     0.010 A 
ATOM     54  C   UNL     1       2.187  -7.163  -9.135  1.00  0.00     0.010 A 
ATOM     55  C   UNL     1       1.621  -5.970  -9.651  1.00  0.00    -0.014 A 
BRANCH  55  56
ATOM     56  C   UNL     1       0.125  -5.552  -9.443  1.00  0.00     0.031 A 
ATOM     57  C   UNL     1      -0.750  -6.494 -10.335  1.00  0.00     0.074 A 
ATOM     58  C   UNL     1      -0.572  -4.608  -8.609  1.00  0.00     0.049 A 
ATOM     59  N   UNL     1      -2.026  -6.677 -10.208  1.00  0.00    -0.248 NA
ATOM     60  C   UNL     1      -0.225  -7.329 -11.429  1.00  0.00     0.031 C 
ATOM     61  C   UNL     1      -1.024  -4.502  -7.144  1.00  0.00     0.029 A 
ATOM     62  N   UNL     1      -0.685  -3.247  -8.743  1.00  0.00    -0.354 N 
ATOM     63  C   UNL     1      -2.436  -7.776 -10.916  1.00  0.00     0.074 A 
ATOM     64  C   UNL     1      -1.284  -8.098 -11.732  1.00  0.00     0.031 C 
ATOM     65  C   UNL     1      -1.483  -3.377  -6.644  1.00  0.00     0.029 A 
ATOM     66  C   UNL     1      -1.433  -2.543  -7.760  1.00  0.00     0.049 A 
ATOM     67  H   UNL     1      -0.262  -2.774  -9.496  1.00  0.00     0.167 HD
ATOM     68  C   UNL     1      -3.676  -8.290 -10.644  1.00  0.00     0.034 A 
ATOM     69  C   UNL     1      -1.512  -1.348  -7.152  1.00  0.00     0.034 A 
ATOM     70  C   UNL     1      -4.582  -7.318  -9.856  1.00  0.00     0.049 A 
ATOM     71  C   UNL     1      -2.993  -1.480  -7.867  1.00  0.00     0.074 A 
ATOM     72  C   UNL     1      -5.430  -7.439  -8.761  1.00  0.00     0.029 A 
ATOM     73  N   UNL     1      -4.648  -5.920 -10.149  1.00  0.00    -0.354 N 
ATOM     74  N   UNL     1      -3.837  -2.555  -7.759  1.00  0.00    -0.248 NA
ATOM     75  C   UNL     1      -3.535  -0.538  -8.829  1.00  0.00     0.031 C 
ATOM     76  C   UNL     1      -5.992  -6.146  -8.416  1.00  0.00     0.029 A 
ATOM     77  C   UNL     1      -5.395  -5.144  -9.193  1.00  0.00     0.049 A 
ATOM     78  H   UNL     1      -4.217  -5.521 -10.939  1.00  0.00     0.167 HD
ATOM     79  C   UNL     1      -4.772  -2.591  -8.814  1.00  0.00     0.074 A 
ATOM     80  C   UNL     1      -4.582  -1.219  -9.347  1.00  0.00     0.031 C 
ATOM     81  C   UNL     1      -5.575  -3.635  -9.363  1.00  0.00     0.034 A 
BRANCH  68  82
ATOM     82  C   UNL     1      -4.052  -9.790 -10.934  1.00  0.00     0.023 A 
ATOM     83  C   UNL     1      -5.269 -10.273 -10.398  1.00  0.00     0.012 A 
ATOM     84  C   UNL     1      -3.277 -10.794 -11.596  1.00  0.00     0.148 A 
ATOM     85  C   UNL     1      -5.669 -11.621 -10.446  1.00  0.00     0.002 A 
ATOM     86  C   UNL     1      -3.705 -12.135 -11.704  1.00  0.00     0.091 A 
ATOM     87  F   UNL     1      -2.083 -10.500 -12.106  1.00  0.00    -0.205 F 
ATOM     88  C   UNL     1      -4.891 -12.555 -11.105  1.00  0.00     0.022 A 
BRANCH  86  89
ATOM     89  S   UNL     1      -2.794 -13.409 -12.615  1.00  0.00     0.127 S 
ATOM     90  O   UNL     1      -2.503 -14.393 -11.570  1.00  0.00    -0.237 OA
ATOM     91  O   UNL     1      -3.781 -13.852 -13.600  1.00  0.00    -0.237 OA
ATOM     92  O   UNL     1      -1.621 -12.756 -13.181  1.00  0.00    -0.744 OA
ENDBRANCH  86  89
ENDBRANCH  68  82
BRANCH  69  93
ATOM     93  C   UNL     1       0.119  -0.950  -6.904  1.00  0.00     0.023 A 
ATOM     94  C   UNL     1       0.794  -1.407  -5.332  1.00  0.00     0.012 A 
ATOM     95  C   UNL     1       0.975  -1.444  -8.248  1.00  0.00     0.148 A 
ATOM     96  C   UNL     1       2.103  -2.600  -5.088  1.00  0.00     0.002 A 
ATOM     97  C   UNL     1       2.211  -2.768  -8.269  1.00  0.00     0.091 A 
ATOM     98  F   UNL     1       0.489  -0.955  -9.408  1.00  0.00    -0.205 F 
ATOM     99  C   UNL     1       2.789  -3.434  -6.605  1.00  0.00     0.022 A 
BRANCH  97 100
ATOM    100  S   UNL     1       2.914  -2.318  -9.968  1.00  0.00     0.127 S 
ATOM    101  O   UNL     1       3.131  -0.875  -9.835  1.00  0.00    -0.237 OA
ATOM    102  O   UNL     1       4.141  -3.061 -10.146  1.00  0.00    -0.237 OA
ATOM    103  O   UNL     1       1.811  -2.671 -10.857  1.00  0.00    -0.744 OA
ENDBRANCH  97 100
ENDBRANCH  69  93
BRANCH  81 104
ATOM    104  C   UNL     1      -6.748  -3.320 -10.323  1.00  0.00     0.023 A 
ATOM    105  C   UNL     1      -7.354  -2.054 -10.395  1.00  0.00     0.012 A 
ATOM    106  C   UNL     1      -7.358  -4.335 -11.118  1.00  0.00     0.148 A 
ATOM    107  C   UNL     1      -8.305  -1.749 -11.377  1.00  0.00     0.002 A 
ATOM    108  C   UNL     1      -8.347  -4.052 -12.044  1.00  0.00     0.091 A 
ATOM    109  F   UNL     1      -7.041  -5.620 -10.951  1.00  0.00    -0.205 F 
ATOM    110  C   UNL     1      -8.777  -2.742 -12.226  1.00  0.00     0.022 A 
BRANCH 108 111
ATOM    111  S   UNL     1      -9.147  -5.350 -12.999  1.00  0.00     0.127 S 
ATOM    112  O   UNL     1     -10.501  -5.320 -12.445  1.00  0.00    -0.237 OA
ATOM    113  O   UNL     1      -9.028  -4.831 -14.361  1.00  0.00    -0.237 OA
ATOM    114  O   UNL     1      -8.405  -6.578 -12.750  1.00  0.00    -0.744 OA
ENDBRANCH 108 111
ENDBRANCH  81 104
ENDBRANCH  55  56
ENDBRANCH  48  50
ENDBRANCH  47  48
ENDBRANCH  46  47
ENDBRANCH  45  46
ENDBRANCH  44  45
ENDBRANCH  43  44
ENDBRANCH  42  43
ENDBRANCH   1  42
TORSDOF 26
