REMARK SMILES CN(C)S(=O)(=O)c1cccc(-c2cc(Cl)cc(C(=O)OCCOCCOCCOCCOC(=O)c3ccc(-c4c5nc(c(-c6cccc(S(=O)(=O)[O-])c6F)c6ccc([nH]6)c(-c6cccc(S(=O)(=O)[O-])c6F)c6nc(c(-c7cccc(S(=O)(=O)[O-])c7F)c7ccc4[nH]7)C=C6)C=C5)cc3)c2)c1
REMARK SMILES IDX 26 1 25 2 24 3 23 4 22 5 21 6 20 7 18 8 19 9 17 10 12 11
REMARK SMILES IDX 13 12 98 13 14 14 15 15 16 16 11 17 7 18 8 19 99 20 9 21
REMARK SMILES IDX 10 22 4 23 5 24 6 25 2 26 1 27 3 28 27 29 28 30 29 31 30 32
REMARK SMILES IDX 31 33 32 34 33 35 34 36 35 37 36 38 97 39 37 40 96 41 38 42
REMARK SMILES IDX 39 43 40 44 90 45 41 46 95 47 89 48 91 49 42 50 94 51 88 52
REMARK SMILES IDX 87 53 43 55 75 56 55 57 74 58 56 59 59 60 73 61 92 62 57 63
REMARK SMILES IDX 58 64 72 66 93 67 60 68 44 69 45 70 53 71 46 72 48 73 54 74
REMARK SMILES IDX 47 75 49 76 50 77 51 78 52 79 76 80 77 81 85 82 78 83 80 84
REMARK SMILES IDX 86 85 79 86 81 87 82 88 83 89 84 90 61 91 62 92 70 93 63 94
REMARK SMILES IDX 65 95 71 96 64 97 66 98 67 99 68 100 69 101
REMARK H PARENT 91 54 59 65
REMARK Flexibility Score: inf
ROOT
ATOM      1  O   UNL     1      -2.280  -7.432  -2.731  1.00  0.00    -0.377 OA
ENDROOT
BRANCH   1   2
ATOM      2  C   UNL     1      -1.462  -8.155  -3.633  1.00  0.00     0.188 C 
BRANCH   2   3
ATOM      3  C   UNL     1      -0.645  -9.317  -3.036  1.00  0.00     0.188 C 
BRANCH   3   4
ATOM      4  O   UNL     1      -1.066  -9.689  -1.735  1.00  0.00    -0.376 OA
BRANCH   4   5
ATOM      5  C   UNL     1      -0.309  -9.282  -0.610  1.00  0.00     0.202 C 
BRANCH   5   6
ATOM      6  C   UNL     1       0.059  -7.806  -0.396  1.00  0.00     0.261 C 
BRANCH   6   7
ATOM      7  O   UNL     1       0.468  -7.074  -1.555  1.00  0.00    -0.460 OA
BRANCH   7   8
ATOM      8  C   UNL     1       1.691  -7.305  -2.071  1.00  0.00     0.338 C 
ATOM      9  O   UNL     1       2.531  -8.088  -1.661  1.00  0.00    -0.246 OA
BRANCH   8  10
ATOM     10  C   UNL     1       1.739  -6.613  -3.382  1.00  0.00     0.062 A 
ATOM     11  C   UNL     1       1.129  -4.710  -4.796  1.00  0.00    -0.016 A 
ATOM     12  C   UNL     1       1.599  -5.429  -5.906  1.00  0.00     0.029 A 
ATOM     13  C   UNL     1       1.184  -5.336  -3.537  1.00  0.00     0.024 A 
ATOM     14  C   UNL     1       2.137  -6.711  -5.750  1.00  0.00     0.042 A 
ATOM     15  Cl  UNL     1       2.672  -7.581  -7.137  1.00  0.00    -0.084 Cl
ATOM     16  C   UNL     1       2.231  -7.301  -4.492  1.00  0.00     0.036 A 
BRANCH  11  17
ATOM     17  C   UNL     1       0.623  -3.330  -4.914  1.00  0.00    -0.017 A 
ATOM     18  C   UNL     1       0.527  -1.058  -4.035  1.00  0.00     0.083 A 
ATOM     19  C   UNL     1      -0.329  -0.664  -5.061  1.00  0.00     0.022 A 
ATOM     20  C   UNL     1       1.010  -2.367  -3.969  1.00  0.00     0.030 A 
ATOM     21  C   UNL     1      -0.714  -1.603  -6.017  1.00  0.00     0.002 A 
ATOM     22  C   UNL     1      -0.247  -2.923  -5.941  1.00  0.00     0.009 A 
BRANCH  18  23
ATOM     23  S   UNL     1       1.037   0.084  -2.776  1.00  0.00     0.242 S 
ATOM     24  O   UNL     1       0.338   1.333  -2.989  1.00  0.00    -0.207 OA
ATOM     25  O   UNL     1       2.485   0.037  -2.746  1.00  0.00    -0.207 OA
BRANCH  23  26
ATOM     26  N   UNL     1       0.439  -0.639  -1.349  1.00  0.00    -0.204 NA
ATOM     27  C   UNL     1       0.980  -0.028  -0.109  1.00  0.00     0.124 C 
ATOM     28  C   UNL     1      -1.039  -0.760  -1.262  1.00  0.00     0.124 C 
ENDBRANCH  23  26
ENDBRANCH  18  23
ENDBRANCH  11  17
ENDBRANCH   8  10
ENDBRANCH   7   8
ENDBRANCH   6   7
ENDBRANCH   5   6
ENDBRANCH   4   5
ENDBRANCH   3   4
ENDBRANCH   2   3
ENDBRANCH   1   2
BRANCH   1  29
ATOM     29  C   UNL     1      -3.353  -8.095  -2.062  1.00  0.00     0.188 C 
BRANCH  29  30
ATOM     30  C   UNL     1      -3.754  -9.562  -2.358  1.00  0.00     0.188 C 
BRANCH  30  31
ATOM     31  O   UNL     1      -3.348 -10.060  -3.625  1.00  0.00    -0.376 OA
BRANCH  31  32
ATOM     32  C   UNL     1      -4.349 -10.240  -4.611  1.00  0.00     0.202 C 
BRANCH  32  33
ATOM     33  C   UNL     1      -4.974  -8.950  -5.159  1.00  0.00     0.261 C 
BRANCH  33  34
ATOM     34  O   UNL     1      -5.618  -8.118  -4.183  1.00  0.00    -0.460 OA
BRANCH  34  35
ATOM     35  C   UNL     1      -6.689  -8.646  -3.550  1.00  0.00     0.338 C 
ATOM     36  O   UNL     1      -7.189  -9.740  -3.744  1.00  0.00    -0.246 OA
BRANCH  35  37
ATOM     37  C   UNL     1      -7.046  -7.751  -2.432  1.00  0.00     0.060 A 
ATOM     38  C   UNL     1      -7.043  -8.269  -1.132  1.00  0.00     0.016 A 
ATOM     39  C   UNL     1      -7.386  -6.416  -2.665  1.00  0.00     0.016 A 
ATOM     40  C   UNL     1      -7.426  -7.462  -0.063  1.00  0.00     0.010 A 
ATOM     41  C   UNL     1      -7.785  -5.613  -1.593  1.00  0.00     0.010 A 
ATOM     42  C   UNL     1      -7.846  -6.145  -0.293  1.00  0.00    -0.014 A 
BRANCH  42  43
ATOM     43  C   UNL     1      -8.505  -5.398   0.805  1.00  0.00     0.031 A 
ATOM     44  C   UNL     1     -10.008  -5.331   0.835  1.00  0.00     0.074 A 
ATOM     45  C   UNL     1      -7.783  -4.825   1.785  1.00  0.00     0.049 A 
ATOM     46  N   UNL     1     -10.794  -4.788   1.727  1.00  0.00    -0.248 NA
ATOM     47  C   UNL     1     -10.719  -5.964  -0.289  1.00  0.00     0.031 C 
ATOM     48  C   UNL     1      -6.323  -4.819   1.865  1.00  0.00     0.029 A 
ATOM     49  N   UNL     1      -8.186  -4.128   2.896  1.00  0.00    -0.354 N 
ATOM     50  C   UNL     1     -12.089  -4.993   1.264  1.00  0.00     0.074 A 
ATOM     51  C   UNL     1     -11.982  -5.694   0.004  1.00  0.00     0.031 C 
ATOM     52  C   UNL     1      -5.952  -4.133   2.960  1.00  0.00     0.029 A 
ATOM     53  C   UNL     1      -7.145  -3.637   3.646  1.00  0.00     0.049 A 
ATOM     54  H   UNL     1      -9.132  -3.992   3.132  1.00  0.00     0.167 HD
ATOM     55  C   UNL     1     -13.262  -4.646   1.844  1.00  0.00     0.034 A 
ATOM     56  C   UNL     1      -7.154  -2.865   4.751  1.00  0.00     0.034 A 
ATOM     57  C   UNL     1     -13.368  -3.957   3.102  1.00  0.00     0.049 A 
ATOM     58  C   UNL     1      -8.474  -2.478   5.368  1.00  0.00     0.074 A 
ATOM     59  C   UNL     1     -14.513  -3.601   3.793  1.00  0.00     0.029 A 
ATOM     60  N   UNL     1     -12.293  -3.500   3.848  1.00  0.00    -0.354 N 
ATOM     61  N   UNL     1      -9.690  -2.790   4.986  1.00  0.00    -0.248 NA
ATOM     62  C   UNL     1      -8.422  -1.667   6.593  1.00  0.00     0.031 C 
ATOM     63  C   UNL     1     -14.130  -2.895   4.939  1.00  0.00     0.029 A 
ATOM     64  C   UNL     1     -12.746  -2.851   4.985  1.00  0.00     0.049 A 
ATOM     65  H   UNL     1     -11.347  -3.620   3.606  1.00  0.00     0.167 HD
ATOM     66  C   UNL     1     -10.543  -2.243   5.940  1.00  0.00     0.074 A 
ATOM     67  C   UNL     1      -9.702  -1.607   6.933  1.00  0.00     0.031 C 
ATOM     68  C   UNL     1     -11.899  -2.254   5.986  1.00  0.00     0.034 A 
BRANCH  55  69
ATOM     69  C   UNL     1     -14.533  -5.017   1.125  1.00  0.00     0.023 A 
ATOM     70  C   UNL     1     -14.939  -6.366   1.066  1.00  0.00     0.012 A 
ATOM     71  C   UNL     1     -15.352  -4.024   0.553  1.00  0.00     0.148 A 
ATOM     72  C   UNL     1     -16.124  -6.724   0.423  1.00  0.00     0.002 A 
ATOM     73  C   UNL     1     -16.554  -4.382  -0.044  1.00  0.00     0.091 A 
ATOM     74  F   UNL     1     -14.936  -2.750   0.598  1.00  0.00    -0.205 F 
ATOM     75  C   UNL     1     -16.936  -5.732  -0.121  1.00  0.00     0.022 A 
BRANCH  73  76
ATOM     76  S   UNL     1     -17.707  -3.173  -0.702  1.00  0.00     0.127 S 
ATOM     77  O   UNL     1     -17.622  -3.436  -2.138  1.00  0.00    -0.237 OA
ATOM     78  O   UNL     1     -18.967  -3.583  -0.081  1.00  0.00    -0.237 OA
ATOM     79  O   UNL     1     -17.213  -1.871  -0.276  1.00  0.00    -0.744 OA
ENDBRANCH  73  76
ENDBRANCH  55  69
BRANCH  56  80
ATOM     80  C   UNL     1      -5.867  -2.428   5.366  1.00  0.00     0.023 A 
ATOM     81  C   UNL     1      -5.494  -2.915   6.634  1.00  0.00     0.012 A 
ATOM     82  C   UNL     1      -5.009  -1.537   4.694  1.00  0.00     0.148 A 
ATOM     83  C   UNL     1      -4.309  -2.491   7.237  1.00  0.00     0.002 A 
ATOM     84  C   UNL     1      -3.799  -1.169   5.271  1.00  0.00     0.091 A 
ATOM     85  F   UNL     1      -5.389  -1.069   3.496  1.00  0.00    -0.205 F 
ATOM     86  C   UNL     1      -3.457  -1.628   6.552  1.00  0.00     0.022 A 
BRANCH  84  87
ATOM     87  S   UNL     1      -2.582  -0.177   4.398  1.00  0.00     0.127 S 
ATOM     88  O   UNL     1      -2.641   1.084   5.131  1.00  0.00    -0.237 OA
ATOM     89  O   UNL     1      -1.357  -0.952   4.600  1.00  0.00    -0.237 OA
ATOM     90  O   UNL     1      -3.029  -0.127   3.012  1.00  0.00    -0.744 OA
ENDBRANCH  84  87
ENDBRANCH  56  80
BRANCH  68  91
ATOM     91  C   UNL     1     -12.562  -1.588   7.166  1.00  0.00     0.023 A 
ATOM     92  C   UNL     1     -12.519  -0.186   7.303  1.00  0.00     0.012 A 
ATOM     93  C   UNL     1     -13.267  -2.351   8.120  1.00  0.00     0.148 A 
ATOM     94  C   UNL     1     -13.118   0.441   8.396  1.00  0.00     0.002 A 
ATOM     95  C   UNL     1     -13.908  -1.714   9.176  1.00  0.00     0.091 A 
ATOM     96  F   UNL     1     -13.287  -3.685   7.985  1.00  0.00    -0.205 F 
ATOM     97  C   UNL     1     -13.820  -0.322   9.326  1.00  0.00     0.022 A 
BRANCH  95  98
ATOM     98  S   UNL     1     -14.918  -2.606  10.365  1.00  0.00     0.127 S 
ATOM     99  O   UNL     1     -14.059  -2.601  11.548  1.00  0.00    -0.237 OA
ATOM    100  O   UNL     1     -16.103  -1.754  10.468  1.00  0.00    -0.237 OA
ATOM    101  O   UNL     1     -15.166  -3.915   9.776  1.00  0.00    -0.744 OA
ENDBRANCH  95  98
ENDBRANCH  68  91
ENDBRANCH  42  43
ENDBRANCH  35  37
ENDBRANCH  34  35
ENDBRANCH  33  34
ENDBRANCH  32  33
ENDBRANCH  31  32
ENDBRANCH  30  31
ENDBRANCH  29  30
ENDBRANCH   1  29
TORSDOF 26
