REMARK SMILES Cc1cccc(N2C(=O)/C(=C/c3ccc(C(=O)OCCOCCOCCOCCOC(=O)c4ccc(-c5c6nc(c(-c7cccc(S(=O)(=O)[O-])c7F)c7ccc([nH]7)c(-c7cccc(S(=O)(=O)[O-])c7F)c7nc(c(-c8cccc(S(=O)(=O)[O-])c8F)c8ccc5[nH]8)C=C7)C=C6)cc4)cc3)c3ccccc3C2=O)c1
REMARK SMILES IDX 25 1 24 2 23 3 22 4 21 5 20 6 19 7 18 8 16 9 17 10 15 11
REMARK SMILES IDX 12 12 13 13 97 14 14 15 96 16 11 17 7 18 8 19 104 20 9 21
REMARK SMILES IDX 10 22 103 23 105 24 98 25 102 26 99 27 101 28 100 29 6 30
REMARK SMILES IDX 1 31 2 32 3 33 106 34 4 35 5 36 26 37 27 38 28 39 29 40
REMARK SMILES IDX 30 41 31 42 32 43 33 44 34 45 95 46 35 47 94 48 36 49 37 50
REMARK SMILES IDX 38 51 88 52 39 53 93 54 87 55 89 56 40 57 92 58 86 59 85 60
REMARK SMILES IDX 41 62 73 63 53 64 72 65 54 66 57 67 71 68 90 69 55 70 56 71
REMARK SMILES IDX 70 73 91 74 58 75 42 76 43 77 51 78 44 79 46 80 52 81 45 82
REMARK SMILES IDX 47 83 48 84 49 85 50 86 74 87 75 88 83 89 76 90 78 91 84 92
REMARK SMILES IDX 77 93 79 94 80 95 81 96 82 97 59 98 60 99 68 100 61 101
REMARK SMILES IDX 63 102 69 103 62 104 64 105 65 106 66 107 67 108
REMARK H PARENT 89 61 57 72
REMARK Flexibility Score: inf
ROOT
ATOM      1  C   UNL     1      -1.980  13.417   1.714  1.00  0.00     0.188 C 
ENDROOT
BRANCH   1   2
ATOM      2  O   UNL     1      -1.903  12.032   1.952  1.00  0.00    -0.377 OA
BRANCH   2   3
ATOM      3  C   UNL     1      -1.995  11.181   0.827  1.00  0.00     0.188 C 
BRANCH   3   4
ATOM      4  C   UNL     1      -1.160  11.590  -0.394  1.00  0.00     0.188 C 
BRANCH   4   5
ATOM      5  O   UNL     1      -1.466  12.755  -1.156  1.00  0.00    -0.376 OA
BRANCH   5   6
ATOM      6  C   UNL     1      -2.827  13.063  -1.401  1.00  0.00     0.202 C 
BRANCH   6   7
ATOM      7  C   UNL     1      -3.463  12.352  -2.560  1.00  0.00     0.261 C 
BRANCH   7   8
ATOM      8  O   UNL     1      -3.441  10.956  -2.380  1.00  0.00    -0.460 OA
BRANCH   8   9
ATOM      9  C   UNL     1      -2.671  10.332  -3.262  1.00  0.00     0.338 C 
ATOM     10  O   UNL     1      -2.009  10.785  -4.175  1.00  0.00    -0.246 OA
BRANCH   9  11
ATOM     11  C   UNL     1      -2.470   9.034  -2.649  1.00  0.00     0.060 A 
ATOM     12  C   UNL     1      -1.753   6.784  -1.276  1.00  0.00    -0.025 A 
ATOM     13  C   UNL     1      -0.772   7.556  -1.908  1.00  0.00     0.009 A 
ATOM     14  C   UNL     1      -3.105   7.150  -1.321  1.00  0.00     0.009 A 
ATOM     15  C   UNL     1      -1.133   8.667  -2.618  1.00  0.00     0.016 A 
ATOM     16  C   UNL     1      -3.468   8.316  -1.975  1.00  0.00     0.016 A 
BRANCH  12  17
ATOM     17  C   UNL     1      -1.244   5.562  -0.691  1.00  0.00     0.022 C 
ATOM     18  N   UNL     1      -1.662   2.456   0.590  1.00  0.00    -0.242 N 
ATOM     19  C   UNL     1      -0.875   3.612   0.516  1.00  0.00     0.265 C 
ATOM     20  C   UNL     1      -3.030   2.557   0.955  1.00  0.00     0.265 C 
ATOM     21  O   UNL     1       0.347   3.733   0.541  1.00  0.00    -0.268 OA
ATOM     22  C   UNL     1      -1.665   4.853   0.363  1.00  0.00     0.049 C 
ATOM     23  C   UNL     1      -3.507   3.861   1.514  1.00  0.00     0.048 A 
ATOM     24  O   UNL     1      -3.884   1.675   0.892  1.00  0.00    -0.268 OA
ATOM     25  C   UNL     1      -2.806   5.029   1.231  1.00  0.00    -0.000 A 
ATOM     26  C   UNL     1      -4.661   3.921   2.306  1.00  0.00     0.014 A 
ATOM     27  C   UNL     1      -3.209   6.248   1.789  1.00  0.00     0.010 A 
ATOM     28  C   UNL     1      -5.090   5.144   2.826  1.00  0.00     0.001 A 
ATOM     29  C   UNL     1      -4.362   6.306   2.572  1.00  0.00     0.001 A 
BRANCH  18  30
ATOM     30  C   UNL     1      -1.039   1.159   0.323  1.00  0.00     0.053 A 
ATOM     31  C   UNL     1       2.504  -0.259  -0.057  1.00  0.00     0.044 C 
ATOM     32  C   UNL     1       1.005  -0.213   0.008  1.00  0.00    -0.049 A 
ATOM     33  C   UNL     1       0.238  -1.367  -0.071  1.00  0.00     0.003 A 
ATOM     34  C   UNL     1       0.358   1.019   0.192  1.00  0.00     0.030 A 
ATOM     35  C   UNL     1      -1.147  -1.271   0.002  1.00  0.00     0.002 A 
ATOM     36  C   UNL     1      -1.772  -0.028   0.189  1.00  0.00     0.027 A 
ENDBRANCH  18  30
ENDBRANCH  12  17
ENDBRANCH   9  11
ENDBRANCH   8   9
ENDBRANCH   7   8
ENDBRANCH   6   7
ENDBRANCH   5   6
ENDBRANCH   4   5
ENDBRANCH   3   4
ENDBRANCH   2   3
ENDBRANCH   1   2
BRANCH   1  37
ATOM     37  C   UNL     1      -0.765  14.314   2.087  1.00  0.00     0.188 C 
BRANCH  37  38
ATOM     38  O   UNL     1       0.411  13.674   2.495  1.00  0.00    -0.376 OA
BRANCH  38  39
ATOM     39  C   UNL     1       0.106  12.678   3.439  1.00  0.00     0.202 C 
BRANCH  39  40
ATOM     40  C   UNL     1      -1.034  12.936   4.496  1.00  0.00     0.261 C 
BRANCH  40  41
ATOM     41  O   UNL     1      -2.092  14.102   4.554  1.00  0.00    -0.460 OA
BRANCH  41  42
ATOM     42  C   UNL     1      -2.993  15.121   4.538  1.00  0.00     0.338 C 
ATOM     43  O   UNL     1      -3.472  15.443   5.622  1.00  0.00    -0.246 OA
BRANCH  42  44
ATOM     44  C   UNL     1      -3.631  15.798   3.308  1.00  0.00     0.060 A 
ATOM     45  C   UNL     1      -4.987  16.089   3.297  1.00  0.00     0.016 A 
ATOM     46  C   UNL     1      -3.058  16.083   2.093  1.00  0.00     0.016 A 
ATOM     47  C   UNL     1      -5.744  15.887   2.123  1.00  0.00     0.010 A 
ATOM     48  C   UNL     1      -3.773  15.704   0.951  1.00  0.00     0.010 A 
ATOM     49  C   UNL     1      -5.122  15.352   1.026  1.00  0.00    -0.014 A 
BRANCH  49  50
ATOM     50  C   UNL     1      -5.706  14.447  -0.022  1.00  0.00     0.031 A 
ATOM     51  C   UNL     1      -5.505  14.935  -1.470  1.00  0.00     0.074 A 
ATOM     52  C   UNL     1      -5.935  13.137   0.363  1.00  0.00     0.049 A 
ATOM     53  N   UNL     1      -5.756  14.309  -2.575  1.00  0.00    -0.248 NA
ATOM     54  C   UNL     1      -4.942  16.265  -1.771  1.00  0.00     0.031 C 
ATOM     55  C   UNL     1      -5.534  11.886  -0.284  1.00  0.00     0.029 A 
ATOM     56  N   UNL     1      -6.500  12.588   1.526  1.00  0.00    -0.354 N 
ATOM     57  C   UNL     1      -5.041  14.930  -3.626  1.00  0.00     0.074 A 
ATOM     58  C   UNL     1      -4.615  16.183  -3.067  1.00  0.00     0.031 C 
ATOM     59  C   UNL     1      -5.930  10.776   0.336  1.00  0.00     0.029 A 
ATOM     60  C   UNL     1      -6.841  11.219   1.314  1.00  0.00     0.049 A 
ATOM     61  H   UNL     1      -6.640  13.078   2.368  1.00  0.00     0.167 HD
ATOM     62  C   UNL     1      -4.749  14.250  -4.792  1.00  0.00     0.034 A 
ATOM     63  C   UNL     1      -8.123  10.764   1.230  1.00  0.00     0.034 A 
ATOM     64  C   UNL     1      -5.443  12.928  -4.818  1.00  0.00     0.049 A 
ATOM     65  C   UNL     1      -8.675  10.677  -0.221  1.00  0.00     0.074 A 
ATOM     66  C   UNL     1      -5.063  11.620  -5.088  1.00  0.00     0.029 A 
ATOM     67  N   UNL     1      -6.740  12.825  -4.326  1.00  0.00    -0.354 N 
ATOM     68  N   UNL     1      -7.994  10.945  -1.324  1.00  0.00    -0.248 NA
ATOM     69  C   UNL     1     -10.018  10.192  -0.548  1.00  0.00     0.031 C 
ATOM     70  C   UNL     1      -6.037  10.743  -4.519  1.00  0.00     0.029 A 
ATOM     71  C   UNL     1      -7.085  11.515  -4.048  1.00  0.00     0.049 A 
ATOM     72  H   UNL     1      -7.342  13.593  -4.192  1.00  0.00     0.167 HD
ATOM     73  C   UNL     1      -8.802  10.835  -2.440  1.00  0.00     0.074 A 
ATOM     74  C   UNL     1     -10.029  10.277  -1.892  1.00  0.00     0.031 C 
ATOM     75  C   UNL     1      -8.471  11.219  -3.723  1.00  0.00     0.034 A 
BRANCH  62  76
ATOM     76  C   UNL     1      -3.665  14.592  -5.882  1.00  0.00     0.023 A 
ATOM     77  C   UNL     1      -3.622  13.732  -7.016  1.00  0.00     0.012 A 
ATOM     78  C   UNL     1      -2.645  15.590  -5.877  1.00  0.00     0.148 A 
ATOM     79  C   UNL     1      -2.638  13.788  -8.018  1.00  0.00     0.002 A 
ATOM     80  C   UNL     1      -1.705  15.704  -6.935  1.00  0.00     0.091 A 
ATOM     81  F   UNL     1      -2.532  16.419  -4.835  1.00  0.00    -0.205 F 
ATOM     82  C   UNL     1      -1.684  14.783  -7.987  1.00  0.00     0.022 A 
BRANCH  80  83
ATOM     83  S   UNL     1      -0.490  17.042  -7.095  1.00  0.00     0.127 S 
ATOM     84  O   UNL     1       0.782  16.320  -7.132  1.00  0.00    -0.237 OA
ATOM     85  O   UNL     1      -0.867  17.653  -8.372  1.00  0.00    -0.237 OA
ATOM     86  O   UNL     1      -0.676  17.900  -5.932  1.00  0.00    -0.744 OA
ENDBRANCH  80  83
ENDBRANCH  62  76
BRANCH  63  87
ATOM     87  C   UNL     1      -8.731  10.960   2.593  1.00  0.00     0.023 A 
ATOM     88  C   UNL     1      -7.998  10.278   3.623  1.00  0.00     0.012 A 
ATOM     89  C   UNL     1      -9.186  12.255   2.858  1.00  0.00     0.148 A 
ATOM     90  C   UNL     1      -7.424  10.995   4.682  1.00  0.00     0.002 A 
ATOM     91  C   UNL     1      -8.591  12.967   3.899  1.00  0.00     0.091 A 
ATOM     92  F   UNL     1      -9.990  12.839   1.959  1.00  0.00    -0.205 F 
ATOM     93  C   UNL     1      -7.671  12.357   4.778  1.00  0.00     0.022 A 
BRANCH  91  94
ATOM     94  S   UNL     1      -8.653  14.757   3.869  1.00  0.00     0.127 S 
ATOM     95  O   UNL     1      -9.810  15.063   4.698  1.00  0.00    -0.237 OA
ATOM     96  O   UNL     1      -7.375  15.104   4.481  1.00  0.00    -0.237 OA
ATOM     97  O   UNL     1      -8.772  15.096   2.458  1.00  0.00    -0.744 OA
ENDBRANCH  91  94
ENDBRANCH  63  87
BRANCH  75  98
ATOM     98  C   UNL     1      -9.449  11.435  -4.896  1.00  0.00     0.023 A 
ATOM     99  C   UNL     1     -10.823  11.618  -4.685  1.00  0.00     0.012 A 
ATOM    100  C   UNL     1      -8.982  11.683  -6.230  1.00  0.00     0.148 A 
ATOM    101  C   UNL     1     -11.694  11.954  -5.729  1.00  0.00     0.002 A 
ATOM    102  C   UNL     1      -9.829  12.156  -7.227  1.00  0.00     0.091 A 
ATOM    103  F   UNL     1      -7.709  11.441  -6.565  1.00  0.00    -0.205 F 
ATOM    104  C   UNL     1     -11.197  12.251  -6.990  1.00  0.00     0.022 A 
BRANCH 102 105
ATOM    105  S   UNL     1      -9.201  12.812  -8.786  1.00  0.00     0.127 S 
ATOM    106  O   UNL     1      -9.510  11.726  -9.714  1.00  0.00    -0.237 OA
ATOM    107  O   UNL     1     -10.020  14.014  -8.961  1.00  0.00    -0.237 OA
ATOM    108  O   UNL     1      -7.786  13.079  -8.569  1.00  0.00    -0.744 OA
ENDBRANCH 102 105
ENDBRANCH  75  98
ENDBRANCH  49  50
ENDBRANCH  42  44
ENDBRANCH  41  42
ENDBRANCH  40  41
ENDBRANCH  39  40
ENDBRANCH  38  39
ENDBRANCH  37  38
ENDBRANCH   1  37
TORSDOF 25
