REMARK SMILES C[C@H](NC(=O)c1c(C(=O)OCCOCCOCCOCCOC(=O)c2ccc(-c3c4nc(c(-c5cccc(S(=O)(=O)[O-])c5F)c5ccc([nH]5)c(-c5cccc(S(=O)(=O)[O-])c5F)c5nc(c(-c6cccc(S(=O)(=O)[O-])c6F)c6ccc3[nH]6)C=C5)C=C4)cc2)cnn1C)[C@]12C[C@H]3C[C@H](C[C@H](C3)C1)C2
REMARK SMILES IDX 16 1 15 2 14 3 13 4 12 5 11 6 10 7 8 8 9 9 7 10 6 11 90 12
REMARK SMILES IDX 88 13 89 14 91 15 4 16 3 17 5 19 2 20 1 21 92 22 93 23
REMARK SMILES IDX 100 24 101 25 94 26 98 27 96 28 95 29 99 30 97 31 17 32
REMARK SMILES IDX 18 33 19 34 20 35 21 36 22 37 23 38 24 39 25 40 26 41 87 42
REMARK SMILES IDX 27 43 86 44 28 45 29 46 30 47 80 48 31 49 85 50 79 51 81 52
REMARK SMILES IDX 32 53 84 54 78 55 77 56 33 58 65 59 45 60 64 61 46 62 49 63
REMARK SMILES IDX 63 64 82 65 47 66 48 67 62 69 83 70 50 71 34 72 35 73 43 74
REMARK SMILES IDX 36 75 38 76 44 77 37 78 39 79 40 80 41 81 42 82 66 83 67 84
REMARK SMILES IDX 75 85 68 86 70 87 76 88 69 89 71 90 72 91 73 92 74 93 51 94
REMARK SMILES IDX 52 95 60 96 53 97 55 98 61 99 54 100 56 101 57 102 58 103
REMARK SMILES IDX 59 104
REMARK H PARENT 3 18 81 57 49 68
REMARK Flexibility Score: inf
ROOT
ATOM      1  O   UNL     1       4.148  -2.843  -0.540  1.00  0.00    -0.377 OA
ENDROOT
BRANCH   1   2
ATOM      2  C   UNL     1       3.764  -3.437  -1.766  1.00  0.00     0.188 C 
BRANCH   2   3
ATOM      3  C   UNL     1       4.745  -3.442  -2.954  1.00  0.00     0.188 C 
BRANCH   3   4
ATOM      4  O   UNL     1       6.009  -2.838  -2.704  1.00  0.00    -0.376 OA
BRANCH   4   5
ATOM      5  C   UNL     1       6.265  -1.610  -3.374  1.00  0.00     0.202 C 
BRANCH   5   6
ATOM      6  C   UNL     1       5.600  -0.394  -2.716  1.00  0.00     0.261 C 
BRANCH   6   7
ATOM      7  O   UNL     1       4.169  -0.478  -2.652  1.00  0.00    -0.460 OA
BRANCH   7   8
ATOM      8  C   UNL     1       3.530  -0.503  -3.846  1.00  0.00     0.342 C 
ATOM      9  O   UNL     1       4.085  -0.410  -4.935  1.00  0.00    -0.246 OA
BRANCH   8  10
ATOM     10  C   UNL     1       2.125  -0.819  -3.734  1.00  0.00     0.111 A 
ATOM     11  C   UNL     1       1.208  -0.469  -2.742  1.00  0.00     0.140 A 
ATOM     12  N   UNL     1       0.003  -0.685  -3.370  1.00  0.00    -0.262 N 
ATOM     13  C   UNL     1       1.381  -1.558  -4.677  1.00  0.00     0.151 A 
ATOM     14  N   UNL     1       0.078  -1.554  -4.402  1.00  0.00    -0.180 NA
ATOM     15  C   UNL     1      -1.180   0.142  -3.278  1.00  0.00     0.174 C 
BRANCH  11  16
ATOM     16  C   UNL     1       1.408   0.350  -1.578  1.00  0.00     0.270 C 
ATOM     17  N   UNL     1       1.004  -0.056  -0.330  1.00  0.00    -0.348 N 
ATOM     18  H   UNL     1       1.023   0.677   0.327  1.00  0.00     0.164 HD
ATOM     19  O   UNL     1       1.909   1.467  -1.681  1.00  0.00    -0.267 OA
BRANCH  17  20
ATOM     20  C   UNL     1       0.547  -1.336   0.262  1.00  0.00     0.085 C 
ATOM     21  C   UNL     1       1.365  -1.553   1.546  1.00  0.00     0.031 C 
BRANCH  20  22
ATOM     22  C   UNL     1      -1.020  -1.387   0.526  1.00  0.00    -0.009 C 
ATOM     23  C   UNL     1      -1.457  -2.170   1.810  1.00  0.00     0.012 C 
ATOM     24  C   UNL     1      -1.693  -2.144  -0.649  1.00  0.00     0.012 C 
ATOM     25  C   UNL     1      -1.625   0.040   0.663  1.00  0.00     0.012 C 
ATOM     26  C   UNL     1      -3.000  -2.212   1.952  1.00  0.00    -0.010 C 
ATOM     27  C   UNL     1      -3.223  -2.142  -0.543  1.00  0.00    -0.010 C 
ATOM     28  C   UNL     1      -3.156   0.001   0.778  1.00  0.00    -0.010 C 
ATOM     29  C   UNL     1      -3.547  -0.779   2.039  1.00  0.00     0.007 C 
ATOM     30  C   UNL     1      -3.622  -2.901   0.728  1.00  0.00     0.007 C 
ATOM     31  C   UNL     1      -3.735  -0.696  -0.461  1.00  0.00     0.007 C 
ENDBRANCH  20  22
ENDBRANCH  17  20
ENDBRANCH  11  16
ENDBRANCH   8  10
ENDBRANCH   7   8
ENDBRANCH   6   7
ENDBRANCH   5   6
ENDBRANCH   4   5
ENDBRANCH   3   4
ENDBRANCH   2   3
ENDBRANCH   1   2
BRANCH   1  32
ATOM     32  C   UNL     1       5.442  -3.090  -0.005  1.00  0.00     0.188 C 
BRANCH  32  33
ATOM     33  C   UNL     1       6.162  -4.425  -0.281  1.00  0.00     0.188 C 
BRANCH  33  34
ATOM     34  O   UNL     1       5.322  -5.473  -0.753  1.00  0.00    -0.376 OA
BRANCH  34  35
ATOM     35  C   UNL     1       5.031  -6.501   0.184  1.00  0.00     0.202 C 
BRANCH  35  36
ATOM     36  C   UNL     1       4.025  -6.089   1.265  1.00  0.00     0.261 C 
BRANCH  36  37
ATOM     37  O   UNL     1       4.491  -5.077   2.170  1.00  0.00    -0.460 OA
BRANCH  37  38
ATOM     38  C   UNL     1       5.596  -5.359   2.895  1.00  0.00     0.338 C 
ATOM     39  O   UNL     1       6.230  -6.399   2.903  1.00  0.00    -0.246 OA
BRANCH  38  40
ATOM     40  C   UNL     1       6.022  -4.115   3.561  1.00  0.00     0.060 A 
ATOM     41  C   UNL     1       7.318  -3.634   3.336  1.00  0.00     0.016 A 
ATOM     42  C   UNL     1       5.141  -3.433   4.403  1.00  0.00     0.016 A 
ATOM     43  C   UNL     1       7.750  -2.480   3.989  1.00  0.00     0.010 A 
ATOM     44  C   UNL     1       5.581  -2.289   5.067  1.00  0.00     0.010 A 
ATOM     45  C   UNL     1       6.897  -1.829   4.890  1.00  0.00    -0.014 A 
BRANCH  45  46
ATOM     46  C   UNL     1       7.429  -0.789   5.799  1.00  0.00     0.031 A 
ATOM     47  C   UNL     1       7.884  -1.212   7.169  1.00  0.00     0.074 A 
ATOM     48  C   UNL     1       7.466   0.505   5.437  1.00  0.00     0.049 A 
ATOM     49  N   UNL     1       8.350  -0.484   8.148  1.00  0.00    -0.248 NA
ATOM     50  C   UNL     1       7.793  -2.651   7.478  1.00  0.00     0.031 C 
ATOM     51  C   UNL     1       7.038   1.037   4.145  1.00  0.00     0.029 A 
ATOM     52  N   UNL     1       7.858   1.613   6.147  1.00  0.00    -0.354 N 
ATOM     53  C   UNL     1       8.580  -1.367   9.196  1.00  0.00     0.074 A 
ATOM     54  C   UNL     1       8.199  -2.684   8.739  1.00  0.00     0.031 C 
ATOM     55  C   UNL     1       7.163   2.377   4.164  1.00  0.00     0.029 A 
ATOM     56  C   UNL     1       7.663   2.795   5.473  1.00  0.00     0.049 A 
ATOM     57  H   UNL     1       8.242   1.565   7.052  1.00  0.00     0.167 HD
ATOM     58  C   UNL     1       9.079  -1.107  10.426  1.00  0.00     0.034 A 
ATOM     59  C   UNL     1       7.854   4.067   5.878  1.00  0.00     0.034 A 
ATOM     60  C   UNL     1       9.480   0.198  10.874  1.00  0.00     0.049 A 
ATOM     61  C   UNL     1       8.399   4.327   7.260  1.00  0.00     0.074 A 
ATOM     62  C   UNL     1      10.063   0.551  12.077  1.00  0.00     0.029 A 
ATOM     63  N   UNL     1       9.322   1.364  10.144  1.00  0.00    -0.354 N 
ATOM     64  N   UNL     1       8.765   3.468   8.181  1.00  0.00    -0.248 NA
ATOM     65  C   UNL     1       8.588   5.734   7.647  1.00  0.00     0.031 C 
ATOM     66  C   UNL     1      10.238   1.939  12.084  1.00  0.00     0.029 A 
ATOM     67  C   UNL     1       9.781   2.444  10.877  1.00  0.00     0.049 A 
ATOM     68  H   UNL     1       8.940   1.417   9.239  1.00  0.00     0.167 HD
ATOM     69  C   UNL     1       9.263   4.227   9.236  1.00  0.00     0.074 A 
ATOM     70  C   UNL     1       9.167   5.615   8.835  1.00  0.00     0.031 C 
ATOM     71  C   UNL     1       9.741   3.814  10.437  1.00  0.00     0.034 A 
BRANCH  58  72
ATOM     72  C   UNL     1       9.251  -2.266  11.368  1.00  0.00     0.023 A 
ATOM     73  C   UNL     1      10.314  -3.169  11.171  1.00  0.00     0.012 A 
ATOM     74  C   UNL     1       8.397  -2.428  12.476  1.00  0.00     0.148 A 
ATOM     75  C   UNL     1      10.512  -4.231  12.051  1.00  0.00     0.002 A 
ATOM     76  C   UNL     1       8.624  -3.467  13.370  1.00  0.00     0.091 A 
ATOM     77  F   UNL     1       7.375  -1.574  12.626  1.00  0.00    -0.205 F 
ATOM     78  C   UNL     1       9.676  -4.373  13.155  1.00  0.00     0.022 A 
BRANCH  76  79
ATOM     79  S   UNL     1       7.643  -3.692  14.857  1.00  0.00     0.127 S 
ATOM     80  O   UNL     1       6.859  -4.878  14.516  1.00  0.00    -0.237 OA
ATOM     81  O   UNL     1       8.671  -3.913  15.875  1.00  0.00    -0.237 OA
ATOM     82  O   UNL     1       6.880  -2.463  15.024  1.00  0.00    -0.744 OA
ENDBRANCH  76  79
ENDBRANCH  58  72
BRANCH  59  83
ATOM     83  C   UNL     1       7.572   5.201   4.953  1.00  0.00     0.023 A 
ATOM     84  C   UNL     1       8.644   5.966   4.452  1.00  0.00     0.012 A 
ATOM     85  C   UNL     1       6.257   5.533   4.575  1.00  0.00     0.148 A 
ATOM     86  C   UNL     1       8.409   7.060   3.619  1.00  0.00     0.002 A 
ATOM     87  C   UNL     1       6.033   6.594   3.705  1.00  0.00     0.091 A 
ATOM     88  F   UNL     1       5.248   4.810   5.082  1.00  0.00    -0.205 F 
ATOM     89  C   UNL     1       7.106   7.369   3.238  1.00  0.00     0.022 A 
BRANCH  87  90
ATOM     90  S   UNL     1       4.396   6.987   3.080  1.00  0.00     0.127 S 
ATOM     91  O   UNL     1       4.046   8.162   3.873  1.00  0.00    -0.237 OA
ATOM     92  O   UNL     1       4.664   7.256   1.666  1.00  0.00    -0.237 OA
ATOM     93  O   UNL     1       3.595   5.794   3.320  1.00  0.00    -0.744 OA
ENDBRANCH  87  90
ENDBRANCH  59  83
BRANCH  71  94
ATOM     94  C   UNL     1      10.238   4.864  11.396  1.00  0.00     0.023 A 
ATOM     95  C   UNL     1       9.313   5.677  12.081  1.00  0.00     0.012 A 
ATOM     96  C   UNL     1      11.611   4.979  11.689  1.00  0.00     0.148 A 
ATOM     97  C   UNL     1       9.751   6.608  13.023  1.00  0.00     0.002 A 
ATOM     98  C   UNL     1      12.035   5.876  12.663  1.00  0.00     0.091 A 
ATOM     99  F   UNL     1      12.477   4.209  11.014  1.00  0.00    -0.205 F 
ATOM    100  C   UNL     1      11.108   6.698  13.323  1.00  0.00     0.022 A 
BRANCH  98 101
ATOM    101  S   UNL     1      13.752   5.986  13.181  1.00  0.00     0.127 S 
ATOM    102  O   UNL     1      14.185   7.217  12.524  1.00  0.00    -0.237 OA
ATOM    103  O   UNL     1      13.636   6.080  14.637  1.00  0.00    -0.237 OA
ATOM    104  O   UNL     1      14.389   4.763  12.708  1.00  0.00    -0.744 OA
ENDBRANCH  98 101
ENDBRANCH  71  94
ENDBRANCH  45  46
ENDBRANCH  38  40
ENDBRANCH  37  38
ENDBRANCH  36  37
ENDBRANCH  35  36
ENDBRANCH  34  35
ENDBRANCH  33  34
ENDBRANCH  32  33
ENDBRANCH   1  32
TORSDOF 26
