REMARK SMILES COc1cc(/C=C/C(=O)OCCOCCOCCOCCOC(=O)c2ccc(-c3c4nc(c(-c5cccc(S(=O)(=O)[O-])c5F)c5ccc([nH]5)c(-c5cccc(S(=O)(=O)[O-])c5F)c5nc(c(-c6cccc(S(=O)(=O)[O-])c6F)c6ccc3[nH]6)C=C5)C=C4)cc2)cc(OC)c1O
REMARK SMILES IDX 17 1 16 2 15 3 14 4 13 5 12 6 11 7 10 8 8 9 9 10 7 11 6 12
REMARK SMILES IDX 5 13 3 14 4 15 92 16 89 17 88 18 2 19 1 20 93 21 90 23 91 24
REMARK SMILES IDX 18 25 19 26 20 27 21 28 22 29 23 30 24 31 25 32 26 33 87 34
REMARK SMILES IDX 27 35 86 36 28 37 29 38 30 39 80 40 31 41 85 42 79 43 81 44
REMARK SMILES IDX 32 45 84 46 78 47 77 48 33 50 65 51 45 52 64 53 46 54 49 55
REMARK SMILES IDX 63 56 82 57 47 58 48 59 62 61 83 62 50 63 34 64 35 65 43 66
REMARK SMILES IDX 36 67 38 68 44 69 37 70 39 71 40 72 41 73 42 74 66 75 67 76
REMARK SMILES IDX 75 77 68 78 70 79 76 80 69 81 71 82 72 83 73 84 74 85 51 86
REMARK SMILES IDX 52 87 60 88 53 89 55 90 61 91 54 92 56 93 57 94 58 95 59 96
REMARK H PARENT 93 22 81 49 49 60
REMARK Flexibility Score: inf
ROOT
ATOM      1  C   UNL     1      -4.570   1.117  -8.710  1.00  0.00     0.188 C 
ENDROOT
BRANCH   1   2
ATOM      2  O   UNL     1      -3.653   0.758  -7.677  1.00  0.00    -0.377 OA
BRANCH   2   3
ATOM      3  C   UNL     1      -3.095   1.755  -6.840  1.00  0.00     0.188 C 
BRANCH   3   4
ATOM      4  C   UNL     1      -2.237   2.839  -7.518  1.00  0.00     0.188 C 
BRANCH   4   5
ATOM      5  O   UNL     1      -2.474   2.967  -8.909  1.00  0.00    -0.376 OA
BRANCH   5   6
ATOM      6  C   UNL     1      -1.544   2.432  -9.834  1.00  0.00     0.202 C 
BRANCH   6   7
ATOM      7  C   UNL     1      -1.052   0.978  -9.723  1.00  0.00     0.261 C 
BRANCH   7   8
ATOM      8  O   UNL     1      -0.808   0.483  -8.405  1.00  0.00    -0.460 OA
BRANCH   8   9
ATOM      9  C   UNL     1       0.339   0.861  -7.809  1.00  0.00     0.330 C 
ATOM     10  O   UNL     1       1.187   1.604  -8.278  1.00  0.00    -0.247 OA
BRANCH   9  11
ATOM     11  C   UNL     1       0.386   0.391  -6.406  1.00  0.00     0.094 C 
ATOM     12  C   UNL     1      -0.379  -0.585  -5.886  1.00  0.00     0.016 C 
BRANCH  12  13
ATOM     13  C   UNL     1      -0.293  -0.993  -4.474  1.00  0.00    -0.018 A 
ATOM     14  C   UNL     1       0.169  -0.489  -2.126  1.00  0.00     0.165 A 
ATOM     15  C   UNL     1      -0.021  -0.078  -3.452  1.00  0.00     0.058 A 
ATOM     16  C   UNL     1       0.046  -1.850  -1.810  1.00  0.00     0.200 A 
ATOM     17  C   UNL     1      -0.314  -2.776  -2.804  1.00  0.00     0.165 A 
ATOM     18  C   UNL     1      -0.489  -2.331  -4.125  1.00  0.00     0.058 A 
BRANCH  14  19
ATOM     19  O   UNL     1       0.473   0.563  -1.303  1.00  0.00    -0.493 OA
ATOM     20  C   UNL     1       0.912   0.309   0.020  1.00  0.00     0.278 C 
ENDBRANCH  14  19
BRANCH  16  21
ATOM     21  O   UNL     1       0.313  -2.279  -0.540  1.00  0.00    -0.502 OA
ATOM     22  H   UNL     1       0.553  -1.661   0.122  1.00  0.00     0.293 HD
ENDBRANCH  16  21
BRANCH  17  23
ATOM     23  O   UNL     1      -0.503  -4.126  -2.685  1.00  0.00    -0.493 OA
ATOM     24  C   UNL     1      -0.272  -4.763  -1.440  1.00  0.00     0.278 C 
ENDBRANCH  17  23
ENDBRANCH  12  13
ENDBRANCH   9  11
ENDBRANCH   8   9
ENDBRANCH   7   8
ENDBRANCH   6   7
ENDBRANCH   5   6
ENDBRANCH   4   5
ENDBRANCH   3   4
ENDBRANCH   2   3
ENDBRANCH   1   2
BRANCH   1  25
ATOM     25  C   UNL     1      -5.184   2.533  -8.844  1.00  0.00     0.188 C 
BRANCH  25  26
ATOM     26  O   UNL     1      -5.085   3.345  -7.685  1.00  0.00    -0.376 OA
BRANCH  26  27
ATOM     27  C   UNL     1      -6.272   3.603  -6.958  1.00  0.00     0.202 C 
BRANCH  27  28
ATOM     28  C   UNL     1      -6.932   2.402  -6.270  1.00  0.00     0.261 C 
BRANCH  28  29
ATOM     29  O   UNL     1      -7.221   1.277  -7.109  1.00  0.00    -0.460 OA
BRANCH  29  30
ATOM     30  C   UNL     1      -8.143   1.438  -8.082  1.00  0.00     0.338 C 
ATOM     31  O   UNL     1      -8.756   2.455  -8.359  1.00  0.00    -0.246 OA
BRANCH  30  32
ATOM     32  C   UNL     1      -8.150   0.193  -8.875  1.00  0.00     0.060 A 
ATOM     33  C   UNL     1      -7.811   0.230 -10.235  1.00  0.00     0.016 A 
ATOM     34  C   UNL     1      -8.463  -1.016  -8.251  1.00  0.00     0.016 A 
ATOM     35  C   UNL     1      -7.814  -0.949 -10.985  1.00  0.00     0.010 A 
ATOM     36  C   UNL     1      -8.484  -2.187  -9.005  1.00  0.00     0.010 A 
ATOM     37  C   UNL     1      -8.193  -2.154 -10.381  1.00  0.00    -0.014 A 
BRANCH  37  38
ATOM     38  C   UNL     1      -8.514  -3.351 -11.193  1.00  0.00     0.031 A 
ATOM     39  C   UNL     1      -9.964  -3.620 -11.487  1.00  0.00     0.074 A 
ATOM     40  C   UNL     1      -7.565  -4.219 -11.582  1.00  0.00     0.049 A 
ATOM     41  N   UNL     1     -10.525  -4.681 -11.999  1.00  0.00    -0.248 NA
ATOM     42  C   UNL     1     -10.911  -2.546 -11.133  1.00  0.00     0.031 C 
ATOM     43  C   UNL     1      -6.128  -4.055 -11.372  1.00  0.00     0.029 A 
ATOM     44  N   UNL     1      -7.681  -5.442 -12.197  1.00  0.00    -0.354 N 
ATOM     45  C   UNL     1     -11.891  -4.426 -11.984  1.00  0.00     0.074 A 
ATOM     46  C   UNL     1     -12.075  -3.110 -11.414  1.00  0.00     0.031 C 
ATOM     47  C   UNL     1      -5.497  -5.160 -11.808  1.00  0.00     0.029 A 
ATOM     48  C   UNL     1      -6.489  -6.123 -12.286  1.00  0.00     0.049 A 
ATOM     49  H   UNL     1      -8.533  -5.796 -12.540  1.00  0.00     0.167 HD
ATOM     50  C   UNL     1     -12.903  -5.218 -12.407  1.00  0.00     0.034 A 
ATOM     51  C   UNL     1      -6.239  -7.393 -12.667  1.00  0.00     0.034 A 
ATOM     52  C   UNL     1     -12.711  -6.521 -12.978  1.00  0.00     0.049 A 
ATOM     53  C   UNL     1      -7.387  -8.270 -13.104  1.00  0.00     0.074 A 
ATOM     54  C   UNL     1     -13.665  -7.389 -13.476  1.00  0.00     0.029 A 
ATOM     55  N   UNL     1     -11.483  -7.150 -13.112  1.00  0.00    -0.354 N 
ATOM     56  N   UNL     1      -8.666  -7.988 -13.170  1.00  0.00    -0.248 NA
ATOM     57  C   UNL     1      -7.055  -9.634 -13.544  1.00  0.00     0.031 C 
ATOM     58  C   UNL     1     -13.017  -8.561 -13.876  1.00  0.00     0.029 A 
ATOM     59  C   UNL     1     -11.655  -8.400 -13.677  1.00  0.00     0.049 A 
ATOM     60  H   UNL     1     -10.618  -6.765 -12.844  1.00  0.00     0.167 HD
ATOM     61  C   UNL     1      -9.281  -9.114 -13.709  1.00  0.00     0.074 A 
ATOM     62  C   UNL     1      -8.235 -10.085 -13.950  1.00  0.00     0.031 C 
ATOM     63  C   UNL     1     -10.593  -9.326 -13.977  1.00  0.00     0.034 A 
BRANCH  50  64
ATOM     64  C   UNL     1     -14.307  -4.695 -12.265  1.00  0.00     0.023 A 
ATOM     65  C   UNL     1     -14.752  -3.638 -13.085  1.00  0.00     0.012 A 
ATOM     66  C   UNL     1     -15.201  -5.285 -11.350  1.00  0.00     0.148 A 
ATOM     67  C   UNL     1     -16.053  -3.151 -12.970  1.00  0.00     0.002 A 
ATOM     68  C   UNL     1     -16.511  -4.828 -11.278  1.00  0.00     0.091 A 
ATOM     69  F   UNL     1     -14.752  -6.273 -10.563  1.00  0.00    -0.205 F 
ATOM     70  C   UNL     1     -16.935  -3.753 -12.076  1.00  0.00     0.022 A 
BRANCH  68  71
ATOM     71  S   UNL     1     -17.745  -5.592 -10.220  1.00  0.00     0.127 S 
ATOM     72  O   UNL     1     -17.972  -4.543  -9.227  1.00  0.00    -0.237 OA
ATOM     73  O   UNL     1     -18.856  -5.802 -11.149  1.00  0.00    -0.237 OA
ATOM     74  O   UNL     1     -17.139  -6.813  -9.709  1.00  0.00    -0.744 OA
ENDBRANCH  68  71
ENDBRANCH  50  64
BRANCH  51  75
ATOM     75  C   UNL     1      -4.842  -7.914 -12.670  1.00  0.00     0.023 A 
ATOM     76  C   UNL     1      -4.215  -8.211 -13.896  1.00  0.00     0.012 A 
ATOM     77  C   UNL     1      -4.133  -8.119 -11.470  1.00  0.00     0.148 A 
ATOM     78  C   UNL     1      -2.921  -8.734 -13.926  1.00  0.00     0.002 A 
ATOM     79  C   UNL     1      -2.825  -8.588 -11.509  1.00  0.00     0.091 A 
ATOM     80  F   UNL     1      -4.751  -7.845 -10.313  1.00  0.00    -0.205 F 
ATOM     81  C   UNL     1      -2.224  -8.914 -12.735  1.00  0.00     0.022 A 
BRANCH  79  82
ATOM     82  S   UNL     1      -1.805  -8.739 -10.039  1.00  0.00     0.127 S 
ATOM     83  O   UNL     1      -1.628 -10.187  -9.945  1.00  0.00    -0.237 OA
ATOM     84  O   UNL     1      -0.606  -7.996 -10.429  1.00  0.00    -0.237 OA
ATOM     85  O   UNL     1      -2.571  -8.127  -8.961  1.00  0.00    -0.744 OA
ENDBRANCH  79  82
ENDBRANCH  51  75
BRANCH  63  86
ATOM     86  C   UNL     1     -10.984 -10.616 -14.649  1.00  0.00     0.023 A 
ATOM     87  C   UNL     1     -10.987 -11.825 -13.928  1.00  0.00     0.012 A 
ATOM     88  C   UNL     1     -11.467 -10.598 -15.974  1.00  0.00     0.148 A 
ATOM     89  C   UNL     1     -11.443 -13.001 -14.524  1.00  0.00     0.002 A 
ATOM     90  C   UNL     1     -11.970 -11.760 -16.542  1.00  0.00     0.091 A 
ATOM     91  F   UNL     1     -11.441  -9.437 -16.645  1.00  0.00    -0.205 F 
ATOM     92  C   UNL     1     -11.948 -12.966 -15.823  1.00  0.00     0.022 A 
BRANCH  90  93
ATOM     93  S   UNL     1     -12.737 -11.786 -18.166  1.00  0.00     0.127 S 
ATOM     94  O   UNL     1     -11.774 -12.571 -18.937  1.00  0.00    -0.237 OA
ATOM     95  O   UNL     1     -14.004 -12.467 -17.897  1.00  0.00    -0.237 OA
ATOM     96  O   UNL     1     -12.871 -10.394 -18.573  1.00  0.00    -0.744 OA
ENDBRANCH  90  93
ENDBRANCH  63  86
ENDBRANCH  37  38
ENDBRANCH  30  32
ENDBRANCH  29  30
ENDBRANCH  28  29
ENDBRANCH  27  28
ENDBRANCH  26  27
ENDBRANCH  25  26
ENDBRANCH   1  25
TORSDOF 27
