REMARK SMILES C[C@H](O)C[C@@H](Cc1cccc(Br)c1)C(=O)OCCOCCOCCOCCOC(=O)c1ccc(-c2c3nc(c(-c4cccc(S(=O)(=O)[O-])c4F)c4ccc([nH]4)c(-c4cccc(S(=O)(=O)[O-])c4F)c4nc(c(-c5cccc(S(=O)(=O)[O-])c5F)c5ccc2[nH]5)C=C4)C=C3)cc1
REMARK SMILES IDX 22 1 21 2 20 3 19 4 18 5 17 6 16 7 14 8 15 9 5 10 4 11 2 12
REMARK SMILES IDX 1 13 3 14 6 16 7 17 8 18 13 19 9 20 11 21 10 22 12 23 23 24
REMARK SMILES IDX 24 25 25 26 26 27 27 28 28 29 29 30 30 31 31 32 32 33 93 34
REMARK SMILES IDX 33 35 92 36 34 37 35 38 36 39 86 40 37 41 91 42 85 43 87 44
REMARK SMILES IDX 38 45 90 46 84 47 83 48 39 50 71 51 51 52 70 53 52 54 55 55
REMARK SMILES IDX 69 56 88 57 53 58 54 59 68 61 89 62 56 63 40 64 41 65 49 66
REMARK SMILES IDX 42 67 44 68 50 69 43 70 45 71 46 72 47 73 48 74 72 75 73 76
REMARK SMILES IDX 81 77 74 78 76 79 82 80 75 81 77 82 78 83 79 84 80 85 57 86
REMARK SMILES IDX 58 87 66 88 59 89 61 90 67 91 60 92 62 93 63 94 64 95 65 96
REMARK H PARENT 3 15 87 49 55 60
REMARK Flexibility Score: inf
ROOT
ATOM      1  O   UNL     1      -4.333   1.925   0.394  1.00  0.00    -0.377 OA
ENDROOT
BRANCH   1   2
ATOM      2  C   UNL     1      -3.600   1.050  -0.433  1.00  0.00     0.188 C 
BRANCH   2   3
ATOM      3  C   UNL     1      -4.138  -0.389  -0.535  1.00  0.00     0.188 C 
BRANCH   3   4
ATOM      4  O   UNL     1      -5.337  -0.774   0.124  1.00  0.00    -0.376 OA
BRANCH   4   5
ATOM      5  C   UNL     1      -5.670  -0.197   1.378  1.00  0.00     0.202 C 
BRANCH   5   6
ATOM      6  C   UNL     1      -4.665  -0.251   2.542  1.00  0.00     0.261 C 
BRANCH   6   7
ATOM      7  O   UNL     1      -3.289   0.067   2.248  1.00  0.00    -0.463 OA
BRANCH   7   8
ATOM      8  C   UNL     1      -2.415  -0.970   2.227  1.00  0.00     0.309 C 
ATOM      9  O   UNL     1      -2.741  -2.151   2.293  1.00  0.00    -0.252 OA
BRANCH   8  10
ATOM     10  C   UNL     1      -0.945  -0.542   2.208  1.00  0.00     0.106 C 
BRANCH  10  11
ATOM     11  C   UNL     1      -0.575   0.598   1.238  1.00  0.00     0.047 C 
BRANCH  11  12
ATOM     12  C   UNL     1       0.917   0.956   1.188  1.00  0.00     0.112 C 
ATOM     13  C   UNL     1       1.175   2.229   0.384  1.00  0.00     0.038 C 
BRANCH  12  14
ATOM     14  O   UNL     1       1.647  -0.125   0.612  1.00  0.00    -0.393 OA
ATOM     15  H   UNL     1       1.341  -0.274  -0.296  1.00  0.00     0.210 HD
ENDBRANCH  12  14
ENDBRANCH  11  12
ENDBRANCH  10  11
BRANCH  10  16
ATOM     16  C   UNL     1      -0.480  -0.352   3.660  1.00  0.00     0.051 C 
BRANCH  16  17
ATOM     17  C   UNL     1      -1.098   0.812   4.401  1.00  0.00    -0.046 A 
ATOM     18  C   UNL     1      -2.093   0.581   5.362  1.00  0.00     0.004 A 
ATOM     19  C   UNL     1      -0.712   2.136   4.149  1.00  0.00     0.019 A 
ATOM     20  C   UNL     1      -2.688   1.647   6.042  1.00  0.00     0.001 A 
ATOM     21  C   UNL     1      -1.326   3.198   4.812  1.00  0.00     0.018 A 
ATOM     22  C   UNL     1      -2.310   2.960   5.763  1.00  0.00     0.016 A 
ATOM     23  Br  UNL     1      -0.814   4.969   4.392  1.00  0.00    -0.051 Br
ENDBRANCH  16  17
ENDBRANCH  10  16
ENDBRANCH   8  10
ENDBRANCH   7   8
ENDBRANCH   6   7
ENDBRANCH   5   6
ENDBRANCH   4   5
ENDBRANCH   3   4
ENDBRANCH   2   3
ENDBRANCH   1   2
BRANCH   1  24
ATOM     24  C   UNL     1      -5.188   2.846  -0.262  1.00  0.00     0.188 C 
BRANCH  24  25
ATOM     25  C   UNL     1      -6.008   2.295  -1.441  1.00  0.00     0.188 C 
BRANCH  25  26
ATOM     26  O   UNL     1      -5.222   1.669  -2.453  1.00  0.00    -0.376 OA
BRANCH  26  27
ATOM     27  C   UNL     1      -4.823   2.443  -3.578  1.00  0.00     0.202 C 
BRANCH  27  28
ATOM     28  C   UNL     1      -3.800   3.570  -3.342  1.00  0.00     0.261 C 
BRANCH  28  29
ATOM     29  O   UNL     1      -4.217   4.635  -2.473  1.00  0.00    -0.460 OA
BRANCH  29  30
ATOM     30  C   UNL     1      -5.358   5.284  -2.793  1.00  0.00     0.338 C 
ATOM     31  O   UNL     1      -6.018   5.138  -3.801  1.00  0.00    -0.246 OA
BRANCH  30  32
ATOM     32  C   UNL     1      -5.806   6.049  -1.609  1.00  0.00     0.060 A 
ATOM     33  C   UNL     1      -7.086   5.788  -1.108  1.00  0.00     0.016 A 
ATOM     34  C   UNL     1      -4.995   7.018  -1.011  1.00  0.00     0.016 A 
ATOM     35  C   UNL     1      -7.584   6.536  -0.045  1.00  0.00     0.010 A 
ATOM     36  C   UNL     1      -5.506   7.785   0.043  1.00  0.00     0.010 A 
ATOM     37  C   UNL     1      -6.819   7.576   0.499  1.00  0.00    -0.014 A 
BRANCH  37  38
ATOM     38  C   UNL     1      -7.491   8.541   1.402  1.00  0.00     0.031 A 
ATOM     39  C   UNL     1      -7.984   9.844   0.829  1.00  0.00     0.074 A 
ATOM     40  C   UNL     1      -7.738   8.230   2.687  1.00  0.00     0.049 A 
ATOM     41  N   UNL     1      -8.666  10.798   1.407  1.00  0.00    -0.248 NA
ATOM     42  C   UNL     1      -7.674  10.102  -0.587  1.00  0.00     0.031 C 
ATOM     43  C   UNL     1      -7.317   6.999   3.354  1.00  0.00     0.029 A 
ATOM     44  N   UNL     1      -8.399   8.934   3.661  1.00  0.00    -0.354 N 
ATOM     45  C   UNL     1      -8.859  11.770   0.433  1.00  0.00     0.074 A 
ATOM     46  C   UNL     1      -8.199  11.305  -0.767  1.00  0.00     0.031 C 
ATOM     47  C   UNL     1      -7.712   7.044   4.638  1.00  0.00     0.029 A 
ATOM     48  C   UNL     1      -8.396   8.312   4.887  1.00  0.00     0.049 A 
ATOM     49  H   UNL     1      -8.834   9.802   3.498  1.00  0.00     0.167 HD
ATOM     50  C   UNL     1      -9.542  12.936   0.520  1.00  0.00     0.034 A 
ATOM     51  C   UNL     1      -8.874   8.729   6.077  1.00  0.00     0.034 A 
ATOM     52  C   UNL     1     -10.200  13.397   1.713  1.00  0.00     0.049 A 
ATOM     53  C   UNL     1      -9.605  10.045   6.153  1.00  0.00     0.074 A 
ATOM     54  C   UNL     1     -10.934  14.556   1.897  1.00  0.00     0.029 A 
ATOM     55  N   UNL     1     -10.195  12.731   2.928  1.00  0.00    -0.354 N 
ATOM     56  N   UNL     1      -9.870  10.903   5.197  1.00  0.00    -0.248 NA
ATOM     57  C   UNL     1     -10.140  10.430   7.467  1.00  0.00     0.031 C 
ATOM     58  C   UNL     1     -11.347  14.605   3.233  1.00  0.00     0.029 A 
ATOM     59  C   UNL     1     -10.905  13.457   3.870  1.00  0.00     0.049 A 
ATOM     60  H   UNL     1      -9.752  11.868   3.097  1.00  0.00     0.167 HD
ATOM     61  C   UNL     1     -10.625  11.912   5.786  1.00  0.00     0.074 A 
ATOM     62  C   UNL     1     -10.806  11.537   7.174  1.00  0.00     0.031 C 
ATOM     63  C   UNL     1     -11.110  13.054   5.238  1.00  0.00     0.034 A 
BRANCH  50  64
ATOM     64  C   UNL     1      -9.636  13.786  -0.721  1.00  0.00     0.023 A 
ATOM     65  C   UNL     1     -10.451  13.367  -1.793  1.00  0.00     0.012 A 
ATOM     66  C   UNL     1      -8.969  15.023  -0.803  1.00  0.00     0.148 A 
ATOM     67  C   UNL     1     -10.580  14.153  -2.937  1.00  0.00     0.002 A 
ATOM     68  C   UNL     1      -9.138  15.823  -1.927  1.00  0.00     0.091 A 
ATOM     69  F   UNL     1      -8.182  15.393   0.217  1.00  0.00    -0.205 F 
ATOM     70  C   UNL     1      -9.933  15.385  -2.999  1.00  0.00     0.022 A 
BRANCH  68  71
ATOM     71  S   UNL     1      -8.412  17.459  -2.075  1.00  0.00     0.127 S 
ATOM     72  O   UNL     1      -7.457  17.261  -3.164  1.00  0.00    -0.237 OA
ATOM     73  O   UNL     1      -9.574  18.277  -2.423  1.00  0.00    -0.237 OA
ATOM     74  O   UNL     1      -7.821  17.757  -0.778  1.00  0.00    -0.744 OA
ENDBRANCH  68  71
ENDBRANCH  50  64
BRANCH  51  75
ATOM     75  C   UNL     1      -8.684   7.890   7.294  1.00  0.00     0.023 A 
ATOM     76  C   UNL     1      -9.796   7.312   7.938  1.00  0.00     0.012 A 
ATOM     77  C   UNL     1      -7.397   7.669   7.821  1.00  0.00     0.148 A 
ATOM     78  C   UNL     1      -9.633   6.567   9.107  1.00  0.00     0.002 A 
ATOM     79  C   UNL     1      -7.235   6.872   8.947  1.00  0.00     0.091 A 
ATOM     80  F   UNL     1      -6.352   8.243   7.208  1.00  0.00    -0.205 F 
ATOM     81  C   UNL     1      -8.353   6.338   9.606  1.00  0.00     0.022 A 
BRANCH  79  82
ATOM     82  S   UNL     1      -5.615   6.409   9.569  1.00  0.00     0.127 S 
ATOM     83  O   UNL     1      -5.542   7.173  10.811  1.00  0.00    -0.237 OA
ATOM     84  O   UNL     1      -5.760   4.962   9.740  1.00  0.00    -0.237 OA
ATOM     85  O   UNL     1      -4.670   6.794   8.529  1.00  0.00    -0.744 OA
ENDBRANCH  79  82
ENDBRANCH  51  75
BRANCH  63  86
ATOM     86  C   UNL     1     -11.911  13.967   6.133  1.00  0.00     0.023 A 
ATOM     87  C   UNL     1     -11.273  14.669   7.176  1.00  0.00     0.012 A 
ATOM     88  C   UNL     1     -13.291  14.155   5.921  1.00  0.00     0.148 A 
ATOM     89  C   UNL     1     -12.005  15.496   8.027  1.00  0.00     0.002 A 
ATOM     90  C   UNL     1     -14.004  15.024   6.739  1.00  0.00     0.091 A 
ATOM     91  F   UNL     1     -13.887  13.470   4.933  1.00  0.00    -0.205 F 
ATOM     92  C   UNL     1     -13.367  15.681   7.803  1.00  0.00     0.022 A 
BRANCH  90  93
ATOM     93  S   UNL     1     -15.739  15.398   6.465  1.00  0.00     0.127 S 
ATOM     94  O   UNL     1     -16.377  14.667   7.558  1.00  0.00    -0.237 OA
ATOM     95  O   UNL     1     -15.769  16.854   6.606  1.00  0.00    -0.237 OA
ATOM     96  O   UNL     1     -16.046  14.916   5.125  1.00  0.00    -0.744 OA
ENDBRANCH  90  93
ENDBRANCH  63  86
ENDBRANCH  37  38
ENDBRANCH  30  32
ENDBRANCH  29  30
ENDBRANCH  28  29
ENDBRANCH  27  28
ENDBRANCH  26  27
ENDBRANCH  25  26
ENDBRANCH  24  25
ENDBRANCH   1  24
TORSDOF 28
