REMARK SMILES O=C(COc1ccc(NC(=O)c2ccc(Br)cc2)cc1-c1nc2ccccc2o1)OCCOCCOCCOCCOC(=O)c1ccc(-c2c3nc(c(-c4cccc(S(=O)(=O)[O-])c4F)c4ccc([nH]4)c(-c4cccc(S(=O)(=O)[O-])c4F)c4nc(c(-c5cccc(S(=O)(=O)[O-])c5F)c5ccc2[nH]5)C=C4)C=C3)cc1
REMARK SMILES IDX 35 1 34 2 33 3 32 4 31 5 30 6 2 7 1 8 3 9 4 10 5 11 6 12
REMARK SMILES IDX 20 13 7 14 19 15 8 16 21 17 22 18 29 19 23 20 28 21 24 22
REMARK SMILES IDX 27 23 25 24 26 25 9 26 10 27 11 29 12 30 13 31 18 32 14 33
REMARK SMILES IDX 17 34 15 35 16 36 36 37 37 38 38 39 39 40 40 41 41 42 42 43
REMARK SMILES IDX 43 44 44 45 45 46 46 47 107 48 47 49 106 50 48 51 49 52
REMARK SMILES IDX 50 53 100 54 51 55 105 56 99 57 101 58 52 59 104 60 98 61
REMARK SMILES IDX 97 62 53 64 85 65 65 66 84 67 66 68 69 69 83 70 102 71 67 72
REMARK SMILES IDX 68 73 82 75 103 76 70 77 54 78 55 79 63 80 56 81 58 82 64 83
REMARK SMILES IDX 57 84 59 85 60 86 61 87 62 88 86 89 87 90 95 91 88 92 90 93
REMARK SMILES IDX 96 94 89 95 91 96 92 97 93 98 94 99 71 100 72 101 80 102
REMARK SMILES IDX 73 103 75 104 81 105 74 106 76 107 77 108 78 109 79 110
REMARK H PARENT 9 28 101 63 69 74
REMARK Flexibility Score: inf
ROOT
ATOM      1  C   UNL     1       2.638  -1.175  -2.596  1.00  0.00     0.188 C 
ENDROOT
BRANCH   1   2
ATOM      2  C   UNL     1       3.701  -0.080  -2.838  1.00  0.00     0.188 C 
BRANCH   2   3
ATOM      3  O   UNL     1       4.944  -0.265  -2.158  1.00  0.00    -0.376 OA
BRANCH   3   4
ATOM      4  C   UNL     1       5.100   0.272  -0.851  1.00  0.00     0.202 C 
BRANCH   4   5
ATOM      5  C   UNL     1       4.132  -0.295   0.177  1.00  0.00     0.261 C 
BRANCH   5   6
ATOM      6  O   UNL     1       2.755   0.081  -0.091  1.00  0.00    -0.461 OA
BRANCH   6   7
ATOM      7  C   UNL     1       2.241   1.300  -0.339  1.00  0.00     0.344 C 
ATOM      8  O   UNL     1       1.222   1.430  -1.015  1.00  0.00    -0.248 OA
BRANCH   7   9
ATOM      9  C   UNL     1       2.957   2.485   0.233  1.00  0.00     0.352 C 
BRANCH   9  10
ATOM     10  O   UNL     1       3.842   2.100   1.273  1.00  0.00    -0.481 OA
BRANCH  10  11
ATOM     11  C   UNL     1       3.366   2.407   2.509  1.00  0.00     0.133 A 
ATOM     12  C   UNL     1       4.208   3.278   3.174  1.00  0.00     0.049 A 
ATOM     13  C   UNL     1       2.164   1.958   3.091  1.00  0.00     0.081 A 
ATOM     14  C   UNL     1       3.751   3.893   4.313  1.00  0.00     0.030 A 
ATOM     15  C   UNL     1       1.663   2.695   4.172  1.00  0.00     0.043 A 
ATOM     16  C   UNL     1       2.422   3.748   4.704  1.00  0.00     0.042 A 
BRANCH  13  17
ATOM     17  C   UNL     1       1.550   0.690   2.687  1.00  0.00     0.231 A 
ATOM     18  N   UNL     1       2.111  -0.505   2.707  1.00  0.00    -0.209 NA
ATOM     19  O   UNL     1       0.319   0.734   2.074  1.00  0.00    -0.436 OA
ATOM     20  C   UNL     1       1.262  -1.288   1.964  1.00  0.00     0.110 A 
ATOM     21  C   UNL     1       0.161  -0.540   1.573  1.00  0.00     0.155 A 
ATOM     22  C   UNL     1       1.407  -2.600   1.487  1.00  0.00     0.032 A 
ATOM     23  C   UNL     1      -0.844  -1.016   0.733  1.00  0.00     0.049 A 
ATOM     24  C   UNL     1       0.441  -3.095   0.599  1.00  0.00     0.003 A 
ATOM     25  C   UNL     1      -0.665  -2.318   0.235  1.00  0.00     0.004 A 
ENDBRANCH  13  17
BRANCH  16  26
ATOM     26  N   UNL     1       1.831   4.649   5.609  1.00  0.00    -0.322 N 
ATOM     27  C   UNL     1       2.210   5.949   5.914  1.00  0.00     0.255 C 
ATOM     28  H   UNL     1       1.042   4.311   6.092  1.00  0.00     0.170 HD
ATOM     29  O   UNL     1       1.695   6.558   6.848  1.00  0.00    -0.269 OA
BRANCH  27  30
ATOM     30  C   UNL     1       3.205   6.665   5.070  1.00  0.00     0.040 A 
ATOM     31  C   UNL     1       4.432   7.033   5.638  1.00  0.00     0.015 A 
ATOM     32  C   UNL     1       2.973   6.864   3.700  1.00  0.00     0.015 A 
ATOM     33  C   UNL     1       5.454   7.527   4.820  1.00  0.00     0.016 A 
ATOM     34  C   UNL     1       3.995   7.367   2.888  1.00  0.00     0.016 A 
ATOM     35  C   UNL     1       5.234   7.680   3.450  1.00  0.00     0.018 A 
ATOM     36  Br  UNL     1       6.638   8.286   2.337  1.00  0.00    -0.051 Br
ENDBRANCH  27  30
ENDBRANCH  16  26
ENDBRANCH  10  11
ENDBRANCH   9  10
ENDBRANCH   7   9
ENDBRANCH   6   7
ENDBRANCH   5   6
ENDBRANCH   4   5
ENDBRANCH   3   4
ENDBRANCH   2   3
ENDBRANCH   1   2
BRANCH   1  37
ATOM     37  O   UNL     1       2.967  -2.515  -2.932  1.00  0.00    -0.377 OA
BRANCH  37  38
ATOM     38  C   UNL     1       4.291  -2.933  -2.674  1.00  0.00     0.188 C 
BRANCH  38  39
ATOM     39  C   UNL     1       5.280  -2.642  -3.822  1.00  0.00     0.188 C 
BRANCH  39  40
ATOM     40  O   UNL     1       4.841  -2.340  -5.147  1.00  0.00    -0.376 OA
BRANCH  40  41
ATOM     41  C   UNL     1       3.539  -2.683  -5.592  1.00  0.00     0.202 C 
BRANCH  41  42
ATOM     42  C   UNL     1       3.188  -4.164  -5.765  1.00  0.00     0.261 C 
BRANCH  42  43
ATOM     43  O   UNL     1       3.558  -5.015  -4.675  1.00  0.00    -0.460 OA
BRANCH  43  44
ATOM     44  C   UNL     1       4.770  -5.604  -4.813  1.00  0.00     0.338 C 
ATOM     45  O   UNL     1       5.529  -5.506  -5.761  1.00  0.00    -0.246 OA
BRANCH  44  46
ATOM     46  C   UNL     1       5.147  -6.287  -3.558  1.00  0.00     0.060 A 
ATOM     47  C   UNL     1       6.444  -6.071  -3.073  1.00  0.00     0.016 A 
ATOM     48  C   UNL     1       4.277  -7.161  -2.901  1.00  0.00     0.016 A 
ATOM     49  C   UNL     1       6.904  -6.786  -1.975  1.00  0.00     0.010 A 
ATOM     50  C   UNL     1       4.750  -7.904  -1.815  1.00  0.00     0.010 A 
ATOM     51  C   UNL     1       6.082  -7.757  -1.393  1.00  0.00    -0.014 A 
BRANCH  51  52
ATOM     52  C   UNL     1       6.732  -8.782  -0.547  1.00  0.00     0.031 A 
ATOM     53  C   UNL     1       7.234 -10.031  -1.223  1.00  0.00     0.074 A 
ATOM     54  C   UNL     1       6.947  -8.569   0.761  1.00  0.00     0.049 A 
ATOM     55  N   UNL     1       7.912 -11.028  -0.723  1.00  0.00    -0.248 NA
ATOM     56  C   UNL     1       6.941 -10.165  -2.663  1.00  0.00     0.031 C 
ATOM     57  C   UNL     1       6.515  -7.390   1.508  1.00  0.00     0.029 A 
ATOM     58  N   UNL     1       7.583  -9.348   1.692  1.00  0.00    -0.354 N 
ATOM     59  C   UNL     1       8.124 -11.906  -1.780  1.00  0.00     0.074 A 
ATOM     60  C   UNL     1       7.484 -11.339  -2.944  1.00  0.00     0.031 C 
ATOM     61  C   UNL     1       6.873  -7.538   2.796  1.00  0.00     0.029 A 
ATOM     62  C   UNL     1       7.554  -8.821   2.960  1.00  0.00     0.049 A 
ATOM     63  H   UNL     1       8.018 -10.204   1.473  1.00  0.00     0.167 HD
ATOM     64  C   UNL     1       8.814 -13.070  -1.786  1.00  0.00     0.034 A 
ATOM     65  C   UNL     1       8.018  -9.330   4.118  1.00  0.00     0.034 A 
ATOM     66  C   UNL     1       9.449 -13.627  -0.625  1.00  0.00     0.049 A 
ATOM     67  C   UNL     1       8.760 -10.641   4.089  1.00  0.00     0.074 A 
ATOM     68  C   UNL     1      10.175 -14.799  -0.517  1.00  0.00     0.029 A 
ATOM     69  N   UNL     1       9.426 -13.051   0.636  1.00  0.00    -0.354 N 
ATOM     70  N   UNL     1       9.045 -11.408   3.063  1.00  0.00    -0.248 NA
ATOM     71  C   UNL     1       9.282 -11.137   5.370  1.00  0.00     0.031 C 
ATOM     72  C   UNL     1      10.579 -14.938   0.815  1.00  0.00     0.029 A 
ATOM     73  C   UNL     1      10.122 -13.843   1.531  1.00  0.00     0.049 A 
ATOM     74  H   UNL     1       8.980 -12.202   0.861  1.00  0.00     0.167 HD
ATOM     75  C   UNL     1       9.798 -12.461   3.569  1.00  0.00     0.074 A 
ATOM     76  C   UNL     1       9.955 -12.214   4.989  1.00  0.00     0.031 C 
ATOM     77  C   UNL     1      10.298 -13.549   2.930  1.00  0.00     0.034 A 
BRANCH  64  78
ATOM     78  C   UNL     1       8.941 -13.796  -3.098  1.00  0.00     0.023 A 
ATOM     79  C   UNL     1       9.813 -13.292  -4.085  1.00  0.00     0.012 A 
ATOM     80  C   UNL     1       8.237 -14.990  -3.341  1.00  0.00     0.148 A 
ATOM     81  C   UNL     1       9.965 -13.954  -5.303  1.00  0.00     0.002 A 
ATOM     82  C   UNL     1       8.423 -15.666  -4.541  1.00  0.00     0.091 A 
ATOM     83  F   UNL     1       7.392 -15.436  -2.400  1.00  0.00    -0.205 F 
ATOM     84  C   UNL     1       9.279 -15.145  -5.526  1.00  0.00     0.022 A 
BRANCH  82  85
ATOM     85  S   UNL     1       7.637 -17.240  -4.903  1.00  0.00     0.127 S 
ATOM     86  O   UNL     1       6.713 -16.870  -5.974  1.00  0.00    -0.237 OA
ATOM     87  O   UNL     1       8.772 -18.057  -5.331  1.00  0.00    -0.237 OA
ATOM     88  O   UNL     1       7.009 -17.671  -3.662  1.00  0.00    -0.744 OA
ENDBRANCH  82  85
ENDBRANCH  64  78
BRANCH  65  89
ATOM     89  C   UNL     1       7.819  -8.585   5.394  1.00  0.00     0.023 A 
ATOM     90  C   UNL     1       8.925  -8.030   6.066  1.00  0.00     0.012 A 
ATOM     91  C   UNL     1       6.531  -8.416   5.939  1.00  0.00     0.148 A 
ATOM     92  C   UNL     1       8.755  -7.351   7.274  1.00  0.00     0.002 A 
ATOM     93  C   UNL     1       6.363  -7.690   7.112  1.00  0.00     0.091 A 
ATOM     94  F   UNL     1       5.491  -8.972   5.300  1.00  0.00    -0.205 F 
ATOM     95  C   UNL     1       7.475  -7.171   7.791  1.00  0.00     0.022 A 
BRANCH  93  96
ATOM     96  S   UNL     1       4.735  -7.303   7.765  1.00  0.00     0.127 S 
ATOM     97  O   UNL     1       4.620  -8.252   8.868  1.00  0.00    -0.237 OA
ATOM     98  O   UNL     1       4.891  -5.904   8.168  1.00  0.00    -0.237 OA
ATOM     99  O   UNL     1       3.816  -7.501   6.651  1.00  0.00    -0.744 OA
ENDBRANCH  93  96
ENDBRANCH  65  89
BRANCH  77 100
ATOM    100  C   UNL     1      11.069 -14.542   3.758  1.00  0.00     0.023 A 
ATOM    101  C   UNL     1      10.382 -15.374   4.664  1.00  0.00     0.012 A 
ATOM    102  C   UNL     1      12.461 -14.690   3.602  1.00  0.00     0.148 A 
ATOM    103  C   UNL     1      11.073 -16.309   5.433  1.00  0.00     0.002 A 
ATOM    104  C   UNL     1      13.137 -15.657   4.336  1.00  0.00     0.091 A 
ATOM    105  F   UNL     1      13.101 -13.877   2.748  1.00  0.00    -0.205 F 
ATOM    106  C   UNL     1      12.447 -16.457   5.262  1.00  0.00     0.022 A 
BRANCH 104 107
ATOM    107  S   UNL     1      14.889 -15.976   4.107  1.00  0.00     0.127 S 
ATOM    108  O   UNL     1      15.471 -15.284   5.256  1.00  0.00    -0.237 OA
ATOM    109  O   UNL     1      14.956 -17.436   4.177  1.00  0.00    -0.237 OA
ATOM    110  O   UNL     1      15.223 -15.423   2.801  1.00  0.00    -0.744 OA
ENDBRANCH 104 107
ENDBRANCH  77 100
ENDBRANCH  51  52
ENDBRANCH  44  46
ENDBRANCH  43  44
ENDBRANCH  42  43
ENDBRANCH  41  42
ENDBRANCH  40  41
ENDBRANCH  39  40
ENDBRANCH  38  39
ENDBRANCH  37  38
ENDBRANCH   1  37
TORSDOF 28
