REMARK SMILES Cc1cccc2c1N=CN1C2=[NH+]NC(=O)[C@@H]1CC(=O)OCCOCCOCCOCCOC(=O)c1ccc(-c2c3nc(c(-c4cccc(S(=O)(=O)[O-])c4F)c4ccc([nH]4)c(-c4cccc(S(=O)(=O)[O-])c4F)c4nc(c(-c5cccc(S(=O)(=O)[O-])c5F)c5ccc2[nH]5)C=C4)C=C3)cc1
REMARK SMILES IDX 27 1 26 2 25 3 24 4 23 5 22 6 21 7 20 8 18 9 19 10 17 11
REMARK SMILES IDX 16 12 1 13 2 14 3 15 7 16 4 17 6 18 8 19 5 20 11 21 9 22
REMARK SMILES IDX 10 23 12 24 13 25 14 27 15 29 28 30 29 31 30 32 31 33 32 34
REMARK SMILES IDX 33 35 34 36 35 37 36 38 97 39 37 40 96 41 38 42 39 43 40 44
REMARK SMILES IDX 90 45 41 46 95 47 89 48 91 49 42 50 94 51 88 52 87 53 43 55
REMARK SMILES IDX 75 56 55 57 74 58 56 59 59 60 73 61 92 62 57 63 58 64 72 66
REMARK SMILES IDX 93 67 60 68 44 69 45 70 53 71 46 72 48 73 54 74 47 75 49 76
REMARK SMILES IDX 50 77 51 78 52 79 76 80 77 81 85 82 78 83 80 84 86 85 79 86
REMARK SMILES IDX 81 87 82 88 83 89 84 90 61 91 62 92 70 93 63 94 65 95 71 96
REMARK SMILES IDX 64 97 66 98 67 99 68 100 69 101
REMARK H PARENT 12 26 13 28 91 54 59 65
REMARK Flexibility Score: inf
ROOT
ATOM      1  C   UNL     1      -1.704   7.162   0.195  1.00  0.00     0.188 C 
ENDROOT
BRANCH   1   2
ATOM      2  O   UNL     1      -0.881   7.267  -0.952  1.00  0.00    -0.377 OA
BRANCH   2   3
ATOM      3  C   UNL     1      -0.457   8.502  -1.480  1.00  0.00     0.188 C 
BRANCH   3   4
ATOM      4  C   UNL     1      -0.657   8.570  -2.998  1.00  0.00     0.188 C 
BRANCH   4   5
ATOM      5  O   UNL     1      -1.897   8.111  -3.521  1.00  0.00    -0.376 OA
BRANCH   5   6
ATOM      6  C   UNL     1      -2.304   6.774  -3.218  1.00  0.00     0.202 C 
BRANCH   6   7
ATOM      7  C   UNL     1      -1.306   5.606  -3.434  1.00  0.00     0.261 C 
BRANCH   7   8
ATOM      8  O   UNL     1      -0.167   5.575  -2.522  1.00  0.00    -0.463 OA
BRANCH   8   9
ATOM      9  C   UNL     1       1.062   5.637  -3.070  1.00  0.00     0.310 C 
ATOM     10  O   UNL     1       1.260   5.554  -4.283  1.00  0.00    -0.252 OA
BRANCH   9  11
ATOM     11  C   UNL     1       2.211   6.052  -2.163  1.00  0.00     0.183 C 
BRANCH  11  12
ATOM     12  C   UNL     1       2.544   5.606  -0.736  1.00  0.00     0.286 C 
ATOM     13  C   UNL     1       1.077  -0.658  -0.236  1.00  0.00     0.047 C 
ATOM     14  C   UNL     1       1.143   0.430   0.794  1.00  0.00    -0.024 A 
ATOM     15  C   UNL     1       0.638   0.197   2.087  1.00  0.00     0.006 A 
ATOM     16  C   UNL     1       1.676   1.682   0.472  1.00  0.00     0.085 A 
ATOM     17  C   UNL     1       0.637   1.196   3.058  1.00  0.00     0.001 A 
ATOM     18  C   UNL     1       1.681   2.667   1.473  1.00  0.00     0.092 A 
ATOM     19  N   UNL     1       2.121   1.939  -0.849  1.00  0.00    -0.215 NA
ATOM     20  C   UNL     1       1.178   2.435   2.759  1.00  0.00     0.019 A 
ATOM     21  C   UNL     1       2.066   4.039   1.066  1.00  0.00     0.309 C 
ATOM     22  C   UNL     1       2.327   3.176  -1.154  1.00  0.00     0.317 C 
ATOM     23  N   UNL     1       2.206   4.251  -0.305  1.00  0.00    -0.202 N 
ATOM     24  N   UNL     1       2.206   4.922   2.010  1.00  0.00    -0.169 N 
ATOM     25  N   UNL     1       2.366   6.207   1.644  1.00  0.00    -0.193 N 
ATOM     26  H   UNL     1       2.196   4.660   2.959  1.00  0.00     0.340 HD
ATOM     27  C   UNL     1       2.289   6.660   0.351  1.00  0.00     0.300 C 
ATOM     28  H   UNL     1       2.551   6.867   2.352  1.00  0.00     0.216 HD
ATOM     29  O   UNL     1       2.209   7.869   0.140  1.00  0.00    -0.267 OA
ENDBRANCH  11  12
ENDBRANCH   9  11
ENDBRANCH   8   9
ENDBRANCH   7   8
ENDBRANCH   6   7
ENDBRANCH   5   6
ENDBRANCH   4   5
ENDBRANCH   3   4
ENDBRANCH   2   3
ENDBRANCH   1   2
BRANCH   1  30
ATOM     30  C   UNL     1      -2.635   8.326   0.544  1.00  0.00     0.188 C 
BRANCH  30  31
ATOM     31  O   UNL     1      -1.945   9.548   0.765  1.00  0.00    -0.376 OA
BRANCH  31  32
ATOM     32  C   UNL     1      -1.577   9.874   2.097  1.00  0.00     0.202 C 
BRANCH  32  33
ATOM     33  C   UNL     1      -0.512   8.984   2.754  1.00  0.00     0.261 C 
BRANCH  33  34
ATOM     34  O   UNL     1      -0.903   7.633   3.058  1.00  0.00    -0.460 OA
BRANCH  34  35
ATOM     35  C   UNL     1      -2.015   7.431   3.790  1.00  0.00     0.338 C 
ATOM     36  O   UNL     1      -2.731   8.275   4.302  1.00  0.00    -0.246 OA
BRANCH  35  37
ATOM     37  C   UNL     1      -2.318   5.990   3.757  1.00  0.00     0.060 A 
ATOM     38  C   UNL     1      -3.380   5.528   2.970  1.00  0.00     0.016 A 
ATOM     39  C   UNL     1      -1.587   5.110   4.554  1.00  0.00     0.016 A 
ATOM     40  C   UNL     1      -3.738   4.180   3.003  1.00  0.00     0.010 A 
ATOM     41  C   UNL     1      -1.962   3.764   4.603  1.00  0.00     0.010 A 
ATOM     42  C   UNL     1      -3.062   3.301   3.857  1.00  0.00    -0.014 A 
BRANCH  42  43
ATOM     43  C   UNL     1      -3.655   1.978   4.164  1.00  0.00     0.031 A 
ATOM     44  C   UNL     1      -4.489   1.857   5.412  1.00  0.00     0.074 A 
ATOM     45  C   UNL     1      -3.484   0.909   3.364  1.00  0.00     0.049 A 
ATOM     46  N   UNL     1      -5.074   0.801   5.911  1.00  0.00    -0.248 NA
ATOM     47  C   UNL     1      -4.713   3.091   6.188  1.00  0.00     0.031 C 
ATOM     48  C   UNL     1      -2.763   0.898   2.094  1.00  0.00     0.029 A 
ATOM     49  N   UNL     1      -3.878  -0.397   3.536  1.00  0.00    -0.354 N 
ATOM     50  C   UNL     1      -5.742   1.243   7.045  1.00  0.00     0.074 A 
ATOM     51  C   UNL     1      -5.463   2.653   7.189  1.00  0.00     0.031 C 
ATOM     52  C   UNL     1      -2.691  -0.369   1.645  1.00  0.00     0.029 A 
ATOM     53  C   UNL     1      -3.348  -1.256   2.601  1.00  0.00     0.049 A 
ATOM     54  H   UNL     1      -4.480  -0.690   4.258  1.00  0.00     0.167 HD
ATOM     55  C   UNL     1      -6.553   0.546   7.869  1.00  0.00     0.034 A 
ATOM     56  C   UNL     1      -3.361  -2.603   2.546  1.00  0.00     0.034 A 
ATOM     57  C   UNL     1      -6.860  -0.846   7.715  1.00  0.00     0.049 A 
ATOM     58  C   UNL     1      -4.163  -3.380   3.555  1.00  0.00     0.074 A 
ATOM     59  C   UNL     1      -7.732  -1.614   8.465  1.00  0.00     0.029 A 
ATOM     60  N   UNL     1      -6.297  -1.678   6.766  1.00  0.00    -0.354 N 
ATOM     61  N   UNL     1      -4.891  -2.928   4.546  1.00  0.00    -0.248 NA
ATOM     62  C   UNL     1      -4.197  -4.844   3.405  1.00  0.00     0.031 C 
ATOM     63  C   UNL     1      -7.678  -2.923   7.983  1.00  0.00     0.029 A 
ATOM     64  C   UNL     1      -6.784  -2.961   6.925  1.00  0.00     0.049 A 
ATOM     65  H   UNL     1      -5.647  -1.399   6.082  1.00  0.00     0.167 HD
ATOM     66  C   UNL     1      -5.511  -4.041   5.101  1.00  0.00     0.074 A 
ATOM     67  C   UNL     1      -5.064  -5.193   4.349  1.00  0.00     0.031 C 
ATOM     68  C   UNL     1      -6.381  -4.095   6.138  1.00  0.00     0.034 A 
BRANCH  55  69
ATOM     69  C   UNL     1      -7.231   1.282   8.985  1.00  0.00     0.023 A 
ATOM     70  C   UNL     1      -8.394   2.025   8.704  1.00  0.00     0.012 A 
ATOM     71  C   UNL     1      -6.800   1.127  10.314  1.00  0.00     0.148 A 
ATOM     72  C   UNL     1      -9.127   2.601   9.738  1.00  0.00     0.002 A 
ATOM     73  C   UNL     1      -7.551   1.680  11.342  1.00  0.00     0.091 A 
ATOM     74  F   UNL     1      -5.683   0.423  10.544  1.00  0.00    -0.205 F 
ATOM     75  C   UNL     1      -8.713   2.418  11.056  1.00  0.00     0.022 A 
BRANCH  73  76
ATOM     76  S   UNL     1      -7.136   1.462  13.074  1.00  0.00     0.127 S 
ATOM     77  O   UNL     1      -6.957   2.847  13.511  1.00  0.00    -0.237 OA
ATOM     78  O   UNL     1      -8.336   0.808  13.593  1.00  0.00    -0.237 OA
ATOM     79  O   UNL     1      -5.928   0.651  13.102  1.00  0.00    -0.744 OA
ENDBRANCH  73  76
ENDBRANCH  55  69
BRANCH  56  80
ATOM     80  C   UNL     1      -2.601  -3.319   1.485  1.00  0.00     0.023 A 
ATOM     81  C   UNL     1      -3.280  -3.837   0.369  1.00  0.00     0.012 A 
ATOM     82  C   UNL     1      -1.209  -3.501   1.593  1.00  0.00     0.148 A 
ATOM     83  C   UNL     1      -2.584  -4.532  -0.623  1.00  0.00     0.002 A 
ATOM     84  C   UNL     1      -0.517  -4.173   0.590  1.00  0.00     0.091 A 
ATOM     85  F   UNL     1      -0.591  -3.018   2.680  1.00  0.00    -0.205 F 
ATOM     86  C   UNL     1      -1.204  -4.691  -0.518  1.00  0.00     0.022 A 
BRANCH  84  87
ATOM     87  S   UNL     1       1.270  -4.375   0.605  1.00  0.00     0.127 S 
ATOM     88  O   UNL     1       1.406  -5.819   0.780  1.00  0.00    -0.237 OA
ATOM     89  O   UNL     1       1.637  -3.879  -0.721  1.00  0.00    -0.237 OA
ATOM     90  O   UNL     1       1.744  -3.557   1.712  1.00  0.00    -0.744 OA
ENDBRANCH  84  87
ENDBRANCH  56  80
BRANCH  68  91
ATOM     91  C   UNL     1      -6.960  -5.425   6.529  1.00  0.00     0.023 A 
ATOM     92  C   UNL     1      -6.199  -6.305   7.319  1.00  0.00     0.012 A 
ATOM     93  C   UNL     1      -8.313  -5.717   6.262  1.00  0.00     0.148 A 
ATOM     94  C   UNL     1      -6.778  -7.460   7.843  1.00  0.00     0.002 A 
ATOM     95  C   UNL     1      -8.893  -6.851   6.816  1.00  0.00     0.091 A 
ATOM     96  F   UNL     1      -9.014  -4.858   5.507  1.00  0.00    -0.205 F 
ATOM     97  C   UNL     1      -8.126  -7.725   7.605  1.00  0.00     0.022 A 
BRANCH  95  98
ATOM     98  S   UNL     1     -10.638  -7.236   6.637  1.00  0.00     0.127 S 
ATOM     99  O   UNL     1     -10.590  -8.493   5.890  1.00  0.00    -0.237 OA
ATOM    100  O   UNL     1     -11.069  -7.368   8.028  1.00  0.00    -0.237 OA
ATOM    101  O   UNL     1     -11.230  -6.116   5.917  1.00  0.00    -0.744 OA
ENDBRANCH  95  98
ENDBRANCH  68  91
ENDBRANCH  42  43
ENDBRANCH  35  37
ENDBRANCH  34  35
ENDBRANCH  33  34
ENDBRANCH  32  33
ENDBRANCH  31  32
ENDBRANCH  30  31
ENDBRANCH   1  30
TORSDOF 24
