REMARK SMILES Cc1cccc2nc(C(=O)NCC(=O)OCCOCCOCCOCCOC(=O)c3ccc(-c4c5nc(c(-c6cccc(S(=O)(=O)[O-])c6F)c6ccc([nH]6)c(-c6cccc(S(=O)(=O)[O-])c6F)c6nc(c(-c7cccc(S(=O)(=O)[O-])c7F)c7ccc4[nH]7)C=C6)C=C5)cc3)cn12
REMARK SMILES IDX 22 1 21 2 20 3 19 4 18 5 17 6 16 7 15 8 13 9 14 10 12 11
REMARK SMILES IDX 11 12 9 13 10 14 8 16 1 17 2 18 3 19 94 20 4 21 6 22 93 23
REMARK SMILES IDX 5 24 7 25 23 26 24 27 25 28 26 29 27 30 28 31 29 32 30 33
REMARK SMILES IDX 31 34 92 35 32 36 91 37 33 38 34 39 35 40 85 41 36 42 90 43
REMARK SMILES IDX 84 44 86 45 37 46 89 47 83 48 82 49 38 51 70 52 50 53 69 54
REMARK SMILES IDX 51 55 54 56 68 57 87 58 52 59 53 60 67 62 88 63 55 64 39 65
REMARK SMILES IDX 40 66 48 67 41 68 43 69 49 70 42 71 44 72 45 73 46 74 47 75
REMARK SMILES IDX 71 76 72 77 80 78 73 79 75 80 81 81 74 82 76 83 77 84 78 85
REMARK SMILES IDX 79 86 56 87 57 88 65 89 58 90 60 91 66 92 59 93 61 94 62 95
REMARK SMILES IDX 63 96 64 97
REMARK H PARENT 11 15 86 50 54 61
REMARK Flexibility Score: inf
ROOT
ATOM      1  C   UNL     1      -8.823  -1.773  -3.256  1.00  0.00     0.188 C 
ENDROOT
BRANCH   1   2
ATOM      2  O   UNL     1      -7.515  -2.325  -3.237  1.00  0.00    -0.377 OA
BRANCH   2   3
ATOM      3  C   UNL     1      -6.949  -2.528  -4.516  1.00  0.00     0.188 C 
BRANCH   3   4
ATOM      4  C   UNL     1      -6.944  -3.991  -5.012  1.00  0.00     0.188 C 
BRANCH   4   5
ATOM      5  O   UNL     1      -7.535  -5.035  -4.243  1.00  0.00    -0.376 OA
BRANCH   5   6
ATOM      6  C   UNL     1      -7.485  -4.977  -2.825  1.00  0.00     0.202 C 
BRANCH   6   7
ATOM      7  C   UNL     1      -6.117  -4.839  -2.131  1.00  0.00     0.261 C 
BRANCH   7   8
ATOM      8  O   UNL     1      -5.201  -3.915  -2.752  1.00  0.00    -0.462 OA
BRANCH   8   9
ATOM      9  C   UNL     1      -4.102  -4.448  -3.352  1.00  0.00     0.325 C 
ATOM     10  O   UNL     1      -3.801  -5.639  -3.310  1.00  0.00    -0.250 OA
BRANCH   9  11
ATOM     11  C   UNL     1      -3.382  -3.462  -4.296  1.00  0.00     0.239 C 
BRANCH  11  12
ATOM     12  N   UNL     1      -3.620  -2.023  -4.217  1.00  0.00    -0.340 N 
ATOM     13  C   UNL     1      -3.084  -1.103  -3.358  1.00  0.00     0.272 C 
ATOM     14  O   UNL     1      -3.361   0.088  -3.515  1.00  0.00    -0.267 OA
ATOM     15  H   UNL     1      -4.257  -1.663  -4.876  1.00  0.00     0.164 HD
BRANCH  13  16
ATOM     16  C   UNL     1      -2.129  -1.559  -2.359  1.00  0.00     0.147 A 
ATOM     17  C   UNL     1       1.103   0.119   0.065  1.00  0.00     0.065 C 
ATOM     18  C   UNL     1       0.726  -1.305  -0.211  1.00  0.00     0.021 A 
ATOM     19  C   UNL     1       1.462  -2.347   0.233  1.00  0.00     0.022 A 
ATOM     20  N   UNL     1      -0.413  -1.588  -0.983  1.00  0.00    -0.304 N 
ATOM     21  C   UNL     1       1.053  -3.709  -0.075  1.00  0.00     0.006 A 
ATOM     22  C   UNL     1      -0.821  -2.881  -1.297  1.00  0.00     0.137 A 
ATOM     23  C   UNL     1      -1.292  -0.747  -1.617  1.00  0.00     0.127 A 
ATOM     24  C   UNL     1      -0.049  -3.962  -0.801  1.00  0.00     0.048 A 
ATOM     25  N   UNL     1      -1.866  -2.885  -2.086  1.00  0.00    -0.223 NA
ENDBRANCH  13  16
ENDBRANCH  11  12
ENDBRANCH   9  11
ENDBRANCH   8   9
ENDBRANCH   7   8
ENDBRANCH   6   7
ENDBRANCH   5   6
ENDBRANCH   4   5
ENDBRANCH   3   4
ENDBRANCH   2   3
ENDBRANCH   1   2
BRANCH   1  26
ATOM     26  C   UNL     1      -9.844  -2.488  -4.174  1.00  0.00     0.188 C 
BRANCH  26  27
ATOM     27  O   UNL     1      -9.390  -2.730  -5.509  1.00  0.00    -0.376 OA
BRANCH  27  28
ATOM     28  C   UNL     1      -9.815  -1.905  -6.588  1.00  0.00     0.202 C 
BRANCH  28  29
ATOM     29  C   UNL     1      -9.208  -0.499  -6.659  1.00  0.00     0.261 C 
BRANCH  29  30
ATOM     30  O   UNL     1      -9.328   0.216  -5.444  1.00  0.00    -0.460 OA
BRANCH  30  31
ATOM     31  C   UNL     1     -10.594   0.352  -5.007  1.00  0.00     0.338 C 
ATOM     32  O   UNL     1     -11.616  -0.040  -5.541  1.00  0.00    -0.246 OA
BRANCH  31  33
ATOM     33  C   UNL     1     -10.569   1.069  -3.735  1.00  0.00     0.060 A 
ATOM     34  C   UNL     1     -11.758   1.004  -3.004  1.00  0.00     0.016 A 
ATOM     35  C   UNL     1      -9.671   2.135  -3.672  1.00  0.00     0.016 A 
ATOM     36  C   UNL     1     -12.250   2.188  -2.532  1.00  0.00     0.010 A 
ATOM     37  C   UNL     1     -10.190   3.324  -3.265  1.00  0.00     0.010 A 
ATOM     38  C   UNL     1     -11.509   3.336  -2.810  1.00  0.00    -0.014 A 
BRANCH  38  39
ATOM     39  C   UNL     1     -12.167   4.606  -2.699  1.00  0.00     0.031 A 
ATOM     40  C   UNL     1     -11.974   5.234  -1.386  1.00  0.00     0.074 A 
ATOM     41  C   UNL     1     -12.767   5.162  -3.765  1.00  0.00     0.049 A 
ATOM     42  N   UNL     1     -12.851   5.345  -0.447  1.00  0.00    -0.248 NA
ATOM     43  C   UNL     1     -10.601   5.579  -0.990  1.00  0.00     0.031 C 
ATOM     44  C   UNL     1     -12.736   4.730  -5.166  1.00  0.00     0.029 A 
ATOM     45  N   UNL     1     -13.412   6.350  -3.822  1.00  0.00    -0.354 N 
ATOM     46  C   UNL     1     -12.175   5.982   0.581  1.00  0.00     0.074 A 
ATOM     47  C   UNL     1     -10.768   5.866   0.298  1.00  0.00     0.031 C 
ATOM     48  C   UNL     1     -13.109   5.770  -5.949  1.00  0.00     0.029 A 
ATOM     49  C   UNL     1     -13.492   6.886  -5.101  1.00  0.00     0.049 A 
ATOM     50  H   UNL     1     -13.791   6.794  -3.029  1.00  0.00     0.167 HD
ATOM     51  C   UNL     1     -12.802   6.821   1.443  1.00  0.00     0.034 A 
ATOM     52  C   UNL     1     -13.736   8.190  -5.383  1.00  0.00     0.034 A 
ATOM     53  C   UNL     1     -14.230   6.755   1.337  1.00  0.00     0.049 A 
ATOM     54  C   UNL     1     -14.355   8.778  -4.161  1.00  0.00     0.074 A 
ATOM     55  C   UNL     1     -15.166   5.757   1.516  1.00  0.00     0.029 A 
ATOM     56  N   UNL     1     -14.835   7.727   0.574  1.00  0.00    -0.354 N 
ATOM     57  N   UNL     1     -15.532   8.437  -3.711  1.00  0.00    -0.248 NA
ATOM     58  C   UNL     1     -13.482   9.420  -3.186  1.00  0.00     0.031 C 
ATOM     59  C   UNL     1     -16.134   5.972   0.494  1.00  0.00     0.029 A 
ATOM     60  C   UNL     1     -15.760   7.109  -0.227  1.00  0.00     0.049 A 
ATOM     61  H   UNL     1     -14.639   8.691   0.598  1.00  0.00     0.167 HD
ATOM     62  C   UNL     1     -15.390   8.416  -2.328  1.00  0.00     0.074 A 
ATOM     63  C   UNL     1     -14.148   9.139  -2.061  1.00  0.00     0.031 C 
ATOM     64  C   UNL     1     -16.121   7.558  -1.556  1.00  0.00     0.034 A 
BRANCH  51  65
ATOM     65  C   UNL     1     -12.090   7.943   2.121  1.00  0.00     0.023 A 
ATOM     66  C   UNL     1     -12.598   8.420   3.340  1.00  0.00     0.012 A 
ATOM     67  C   UNL     1     -11.043   8.670   1.510  1.00  0.00     0.148 A 
ATOM     68  C   UNL     1     -12.057   9.559   3.942  1.00  0.00     0.002 A 
ATOM     69  C   UNL     1     -10.445   9.737   2.158  1.00  0.00     0.091 A 
ATOM     70  F   UNL     1     -10.702   8.400   0.242  1.00  0.00    -0.205 F 
ATOM     71  C   UNL     1     -10.962  10.200   3.368  1.00  0.00     0.022 A 
BRANCH  69  72
ATOM     72  S   UNL     1      -8.978  10.521   1.486  1.00  0.00     0.127 S 
ATOM     73  O   UNL     1      -9.536  11.728   0.886  1.00  0.00    -0.237 OA
ATOM     74  O   UNL     1      -8.171  10.738   2.687  1.00  0.00    -0.237 OA
ATOM     75  O   UNL     1      -8.414   9.542   0.563  1.00  0.00    -0.744 OA
ENDBRANCH  69  72
ENDBRANCH  51  65
BRANCH  52  76
ATOM     76  C   UNL     1     -13.244   9.031  -6.505  1.00  0.00     0.023 A 
ATOM     77  C   UNL     1     -13.814  10.306  -6.699  1.00  0.00     0.012 A 
ATOM     78  C   UNL     1     -12.064   8.725  -7.221  1.00  0.00     0.148 A 
ATOM     79  C   UNL     1     -13.210  11.255  -7.533  1.00  0.00     0.002 A 
ATOM     80  C   UNL     1     -11.477   9.665  -8.066  1.00  0.00     0.091 A 
ATOM     81  F   UNL     1     -11.451   7.554  -7.007  1.00  0.00    -0.205 F 
ATOM     82  C   UNL     1     -12.038  10.938  -8.212  1.00  0.00     0.022 A 
BRANCH  80  83
ATOM     83  S   UNL     1      -9.960   9.312  -8.969  1.00  0.00     0.127 S 
ATOM     84  O   UNL     1     -10.229   9.916 -10.275  1.00  0.00    -0.237 OA
ATOM     85  O   UNL     1      -8.960  10.009  -8.166  1.00  0.00    -0.237 OA
ATOM     86  O   UNL     1      -9.852   7.858  -8.999  1.00  0.00    -0.744 OA
ENDBRANCH  80  83
ENDBRANCH  52  76
BRANCH  64  87
ATOM     87  C   UNL     1     -17.233   6.785  -2.222  1.00  0.00     0.023 A 
ATOM     88  C   UNL     1     -16.964   5.768  -3.162  1.00  0.00     0.012 A 
ATOM     89  C   UNL     1     -18.539   6.926  -1.725  1.00  0.00     0.148 A 
ATOM     90  C   UNL     1     -17.976   4.911  -3.602  1.00  0.00     0.002 A 
ATOM     91  C   UNL     1     -19.534   6.046  -2.133  1.00  0.00     0.091 A 
ATOM     92  F   UNL     1     -18.770   7.889  -0.820  1.00  0.00    -0.205 F 
ATOM     93  C   UNL     1     -19.258   5.041  -3.075  1.00  0.00     0.022 A 
BRANCH  91  94
ATOM     94  S   UNL     1     -21.174   6.068  -1.405  1.00  0.00     0.127 S 
ATOM     95  O   UNL     1     -21.995   6.545  -2.515  1.00  0.00    -0.237 OA
ATOM     96  O   UNL     1     -21.377   4.661  -1.053  1.00  0.00    -0.237 OA
ATOM     97  O   UNL     1     -21.096   6.964  -0.258  1.00  0.00    -0.744 OA
ENDBRANCH  91  94
ENDBRANCH  64  87
ENDBRANCH  38  39
ENDBRANCH  31  33
ENDBRANCH  30  31
ENDBRANCH  29  30
ENDBRANCH  28  29
ENDBRANCH  27  28
ENDBRANCH  26  27
ENDBRANCH   1  26
TORSDOF 25
