REMARK SMILES CN1C(=O)/C(=C\c2ccc(C(=O)Nc3ccc(O)cc3C(=O)OCCOCCOCCOCCOC(=O)c3ccc(-c4c5nc(c(-c6cccc(S(=O)(=O)[O-])c6F)c6ccc([nH]6)c(-c6cccc(S(=O)(=O)[O-])c6F)c6nc(c(-c7cccc(S(=O)(=O)[O-])c7F)c7ccc4[nH]7)C=C6)C=C5)cc3)cc2)SC1=S
REMARK SMILES IDX 29 1 28 2 27 3 26 4 25 5 24 6 23 7 21 8 22 9 20 10 14 11
REMARK SMILES IDX 15 12 16 13 19 14 17 15 13 16 11 17 12 18 10 20 7 21 8 22
REMARK SMILES IDX 102 23 9 24 101 25 6 26 1 27 2 28 3 29 104 30 4 31 5 32
REMARK SMILES IDX 103 33 105 34 18 35 30 37 31 38 32 39 33 40 34 41 35 42
REMARK SMILES IDX 36 43 37 44 38 45 39 46 100 47 40 48 99 49 41 50 42 51 43 52
REMARK SMILES IDX 93 53 44 54 98 55 92 56 94 57 45 58 97 59 91 60 90 61 46 63
REMARK SMILES IDX 78 64 58 65 77 66 59 67 62 68 76 69 95 70 60 71 61 72 75 74
REMARK SMILES IDX 96 75 63 76 47 77 48 78 56 79 49 80 51 81 57 82 50 83 52 84
REMARK SMILES IDX 53 85 54 86 55 87 79 88 80 89 88 90 81 91 83 92 89 93 82 94
REMARK SMILES IDX 84 95 85 96 86 97 87 98 64 99 65 100 73 101 66 102 68 103
REMARK SMILES IDX 74 104 67 105 69 106 70 107 71 108 72 109
REMARK H PARENT 13 19 18 36 94 62 62 73
REMARK Flexibility Score: inf
ROOT
ATOM      1  O   UNL     1      -1.139  -9.888   3.952  1.00  0.00    -0.377 OA
ENDROOT
BRANCH   1   2
ATOM      2  C   UNL     1      -2.320  -9.664   3.217  1.00  0.00     0.188 C 
BRANCH   2   3
ATOM      3  C   UNL     1      -2.195  -9.513   1.685  1.00  0.00     0.188 C 
BRANCH   3   4
ATOM      4  O   UNL     1      -1.065  -9.984   0.978  1.00  0.00    -0.376 OA
BRANCH   4   5
ATOM      5  C   UNL     1       0.254  -9.517   1.181  1.00  0.00     0.202 C 
BRANCH   5   6
ATOM      6  C   UNL     1       0.648  -8.216   1.876  1.00  0.00     0.261 C 
BRANCH   6   7
ATOM      7  O   UNL     1      -0.265  -7.654   2.808  1.00  0.00    -0.460 OA
BRANCH   7   8
ATOM      8  C   UNL     1      -1.088  -6.720   2.299  1.00  0.00     0.340 C 
ATOM      9  O   UNL     1      -1.197  -6.431   1.114  1.00  0.00    -0.246 OA
BRANCH   8  10
ATOM     10  C   UNL     1      -2.005  -6.185   3.337  1.00  0.00     0.087 A 
ATOM     11  C   UNL     1      -1.733  -6.022   4.715  1.00  0.00     0.056 A 
ATOM     12  C   UNL     1      -2.803  -5.631   5.544  1.00  0.00     0.031 A 
ATOM     13  C   UNL     1      -4.068  -5.333   5.022  1.00  0.00     0.048 A 
ATOM     14  C   UNL     1      -3.288  -5.888   2.824  1.00  0.00     0.064 A 
ATOM     15  C   UNL     1      -4.299  -5.457   3.664  1.00  0.00     0.116 A 
BRANCH  11  16
ATOM     16  N   UNL     1      -0.493  -6.155   5.395  1.00  0.00    -0.321 N 
ATOM     17  C   UNL     1       0.826  -5.948   5.026  1.00  0.00     0.255 C 
ATOM     18  O   UNL     1       1.734  -6.365   5.739  1.00  0.00    -0.269 OA
ATOM     19  H   UNL     1      -0.592  -6.460   6.326  1.00  0.00     0.170 HD
BRANCH  17  20
ATOM     20  C   UNL     1       1.172  -5.186   3.806  1.00  0.00     0.040 A 
ATOM     21  C   UNL     1       1.302  -4.428   1.123  1.00  0.00    -0.024 A 
ATOM     22  C   UNL     1       2.341  -5.180   1.686  1.00  0.00     0.009 A 
ATOM     23  C   UNL     1       0.293  -3.964   1.970  1.00  0.00     0.009 A 
ATOM     24  C   UNL     1       2.268  -5.578   3.028  1.00  0.00     0.014 A 
ATOM     25  C   UNL     1       0.296  -4.225   3.329  1.00  0.00     0.014 A 
BRANCH  21  26
ATOM     26  C   UNL     1       1.215  -4.248  -0.335  1.00  0.00     0.029 C 
ATOM     27  C   UNL     1       0.984   0.488  -0.506  1.00  0.00     0.155 C 
ATOM     28  N   UNL     1       0.885  -0.818  -1.126  1.00  0.00    -0.296 N 
ATOM     29  C   UNL     1       0.388  -1.847  -0.369  1.00  0.00     0.265 C 
ATOM     30  C   UNL     1       1.163  -1.130  -2.433  1.00  0.00     0.148 C 
ATOM     31  O   UNL     1      -0.377  -1.684   0.568  1.00  0.00    -0.268 OA
ATOM     32  C   UNL     1       0.808  -3.139  -0.972  1.00  0.00     0.081 C 
ATOM     33  S   UNL     1       1.025  -2.879  -2.668  1.00  0.00    -0.054 SA
ATOM     34  S   UNL     1       1.577  -0.079  -3.657  1.00  0.00    -0.052 S 
ENDBRANCH  21  26
ENDBRANCH  17  20
ENDBRANCH  11  16
BRANCH  15  35
ATOM     35  O   UNL     1      -5.537  -5.156   3.182  1.00  0.00    -0.508 OA
ATOM     36  H   UNL     1      -6.210  -4.866   3.767  1.00  0.00     0.293 HD
ENDBRANCH  15  35
ENDBRANCH   8  10
ENDBRANCH   7   8
ENDBRANCH   6   7
ENDBRANCH   5   6
ENDBRANCH   4   5
ENDBRANCH   3   4
ENDBRANCH   2   3
ENDBRANCH   1   2
BRANCH   1  37
ATOM     37  C   UNL     1      -0.489 -11.149   3.895  1.00  0.00     0.188 C 
BRANCH  37  38
ATOM     38  C   UNL     1      -0.928 -12.245   2.898  1.00  0.00     0.188 C 
BRANCH  38  39
ATOM     39  O   UNL     1      -2.284 -12.186   2.494  1.00  0.00    -0.376 OA
BRANCH  39  40
ATOM     40  C   UNL     1      -3.228 -13.056   3.089  1.00  0.00     0.202 C 
BRANCH  40  41
ATOM     41  C   UNL     1      -3.431 -12.979   4.609  1.00  0.00     0.261 C 
BRANCH  41  42
ATOM     42  O   UNL     1      -2.253 -13.100   5.414  1.00  0.00    -0.460 OA
BRANCH  42  43
ATOM     43  C   UNL     1      -1.571 -14.267   5.337  1.00  0.00     0.338 C 
ATOM     44  O   UNL     1      -1.853 -15.237   4.671  1.00  0.00    -0.246 OA
BRANCH  43  45
ATOM     45  C   UNL     1      -0.296 -14.071   6.061  1.00  0.00     0.060 A 
ATOM     46  C   UNL     1       0.910 -14.208   5.361  1.00  0.00     0.016 A 
ATOM     47  C   UNL     1      -0.300 -13.740   7.417  1.00  0.00     0.016 A 
ATOM     48  C   UNL     1       2.123 -14.057   6.031  1.00  0.00     0.010 A 
ATOM     49  C   UNL     1       0.915 -13.614   8.092  1.00  0.00     0.010 A 
ATOM     50  C   UNL     1       2.128 -13.815   7.409  1.00  0.00    -0.014 A 
BRANCH  50  51
ATOM     51  C   UNL     1       3.381 -14.003   8.175  1.00  0.00     0.031 A 
ATOM     52  C   UNL     1       3.590 -15.321   8.868  1.00  0.00     0.074 A 
ATOM     53  C   UNL     1       4.309 -13.035   8.253  1.00  0.00     0.049 A 
ATOM     54  N   UNL     1       4.574 -15.711   9.632  1.00  0.00    -0.248 NA
ATOM     55  C   UNL     1       2.539 -16.337   8.676  1.00  0.00     0.031 C 
ATOM     56  C   UNL     1       4.221 -11.724   7.614  1.00  0.00     0.029 A 
ATOM     57  N   UNL     1       5.499 -13.002   8.935  1.00  0.00    -0.354 N 
ATOM     58  C   UNL     1       4.246 -16.997  10.043  1.00  0.00     0.074 A 
ATOM     59  C   UNL     1       2.968 -17.322   9.449  1.00  0.00     0.031 C 
ATOM     60  C   UNL     1       5.297 -10.998   7.966  1.00  0.00     0.029 A 
ATOM     61  C   UNL     1       6.130 -11.783   8.875  1.00  0.00     0.049 A 
ATOM     62  H   UNL     1       5.865 -13.777   9.420  1.00  0.00     0.167 HD
ATOM     63  C   UNL     1       4.949 -17.837  10.837  1.00  0.00     0.034 A 
ATOM     64  C   UNL     1       7.236 -11.345   9.510  1.00  0.00     0.034 A 
ATOM     65  C   UNL     1       6.223 -17.512  11.417  1.00  0.00     0.049 A 
ATOM     66  C   UNL     1       7.988 -12.290  10.413  1.00  0.00     0.074 A 
ATOM     67  C   UNL     1       7.041 -18.310  12.195  1.00  0.00     0.029 A 
ATOM     68  N   UNL     1       6.852 -16.282  11.302  1.00  0.00    -0.354 N 
ATOM     69  N   UNL     1       7.728 -13.543  10.702  1.00  0.00    -0.248 NA
ATOM     70  C   UNL     1       9.206 -11.770  11.052  1.00  0.00     0.031 C 
ATOM     71  C   UNL     1       8.145 -17.547  12.588  1.00  0.00     0.029 A 
ATOM     72  C   UNL     1       8.040 -16.291  12.012  1.00  0.00     0.049 A 
ATOM     73  H   UNL     1       6.505 -15.515  10.791  1.00  0.00     0.167 HD
ATOM     74  C   UNL     1       8.766 -13.971  11.524  1.00  0.00     0.074 A 
ATOM     75  C   UNL     1       9.669 -12.848  11.670  1.00  0.00     0.031 C 
ATOM     76  C   UNL     1       8.952 -15.180  12.111  1.00  0.00     0.034 A 
BRANCH  63  77
ATOM     77  C   UNL     1       4.350 -19.187  11.128  1.00  0.00     0.023 A 
ATOM     78  C   UNL     1       4.274 -20.161  10.111  1.00  0.00     0.012 A 
ATOM     79  C   UNL     1       3.897 -19.504  12.423  1.00  0.00     0.148 A 
ATOM     80  C   UNL     1       3.724 -21.416  10.370  1.00  0.00     0.002 A 
ATOM     81  C   UNL     1       3.397 -20.773  12.687  1.00  0.00     0.091 A 
ATOM     82  F   UNL     1       3.954 -18.556  13.370  1.00  0.00    -0.205 F 
ATOM     83  C   UNL     1       3.296 -21.725  11.659  1.00  0.00     0.022 A 
BRANCH  81  84
ATOM     84  S   UNL     1       2.899 -21.294  14.331  1.00  0.00     0.127 S 
ATOM     85  O   UNL     1       1.450 -21.419  14.174  1.00  0.00    -0.237 OA
ATOM     86  O   UNL     1       3.608 -22.566  14.476  1.00  0.00    -0.237 OA
ATOM     87  O   UNL     1       3.339 -20.244  15.238  1.00  0.00    -0.744 OA
ENDBRANCH  81  84
ENDBRANCH  63  77
BRANCH  64  88
ATOM     88  C   UNL     1       7.707  -9.946   9.307  1.00  0.00     0.023 A 
ATOM     89  C   UNL     1       8.911  -9.706   8.618  1.00  0.00     0.012 A 
ATOM     90  C   UNL     1       6.962  -8.852   9.791  1.00  0.00     0.148 A 
ATOM     91  C   UNL     1       9.382  -8.405   8.442  1.00  0.00     0.002 A 
ATOM     92  C   UNL     1       7.410  -7.556   9.566  1.00  0.00     0.091 A 
ATOM     93  F   UNL     1       5.828  -9.103  10.459  1.00  0.00    -0.205 F 
ATOM     94  C   UNL     1       8.627  -7.330   8.906  1.00  0.00     0.022 A 
BRANCH  92  95
ATOM     95  S   UNL     1       6.455  -6.108  10.032  1.00  0.00     0.127 S 
ATOM     96  O   UNL     1       7.290  -5.527  11.081  1.00  0.00    -0.237 OA
ATOM     97  O   UNL     1       6.429  -5.352   8.780  1.00  0.00    -0.237 OA
ATOM     98  O   UNL     1       5.160  -6.610  10.467  1.00  0.00    -0.744 OA
ENDBRANCH  92  95
ENDBRANCH  64  88
BRANCH  76  99
ATOM     99  C   UNL     1      10.203 -15.379  12.929  1.00  0.00     0.023 A 
ATOM    100  C   UNL     1      10.348 -14.735  14.173  1.00  0.00     0.012 A 
ATOM    101  C   UNL     1      11.205 -16.270  12.492  1.00  0.00     0.148 A 
ATOM    102  C   UNL     1      11.487 -14.943  14.951  1.00  0.00     0.002 A 
ATOM    103  C   UNL     1      12.310 -16.515  13.297  1.00  0.00     0.091 A 
ATOM    104  F   UNL     1      11.056 -16.863  11.299  1.00  0.00    -0.205 F 
ATOM    105  C   UNL     1      12.460 -15.841  14.520  1.00  0.00     0.022 A 
BRANCH 103 106
ATOM    106  S   UNL     1      13.563 -17.730  12.871  1.00  0.00     0.127 S 
ATOM    107  O   UNL     1      14.710 -16.878  12.560  1.00  0.00    -0.237 OA
ATOM    108  O   UNL     1      13.689 -18.492  14.114  1.00  0.00    -0.237 OA
ATOM    109  O   UNL     1      13.026 -18.487  11.748  1.00  0.00    -0.744 OA
ENDBRANCH 103 106
ENDBRANCH  76  99
ENDBRANCH  50  51
ENDBRANCH  43  45
ENDBRANCH  42  43
ENDBRANCH  41  42
ENDBRANCH  40  41
ENDBRANCH  39  40
ENDBRANCH  38  39
ENDBRANCH  37  38
ENDBRANCH   1  37
TORSDOF 27
