REMARK SMILES O=C(CCc1cccnc1)Nc1ccsc1C(=O)OCCOCCOCCOCCOC(=O)c1ccc(-c2c3nc(c(-c4cccc(S(=O)(=O)[O-])c4F)c4ccc([nH]4)c(-c4cccc(S(=O)(=O)[O-])c4F)c4nc(c(-c5cccc(S(=O)(=O)[O-])c5F)c5ccc2[nH]5)C=C4)C=C3)cc1
REMARK SMILES IDX 24 1 23 2 22 3 21 4 20 5 19 6 17 7 18 8 16 9 12 10 13 11
REMARK SMILES IDX 14 12 15 13 11 14 1 15 2 16 3 18 4 19 5 20 6 21 10 22 7 23
REMARK SMILES IDX 9 24 8 25 25 26 26 27 27 28 28 29 29 30 30 31 31 32 32 33
REMARK SMILES IDX 33 34 34 35 35 36 96 37 36 38 95 39 37 40 38 41 39 42 89 43
REMARK SMILES IDX 40 44 94 45 88 46 90 47 41 48 93 49 87 50 86 51 42 53 74 54
REMARK SMILES IDX 54 55 73 56 55 57 58 58 72 59 91 60 56 61 57 62 71 64 92 65
REMARK SMILES IDX 59 66 43 67 44 68 52 69 45 70 47 71 53 72 46 73 48 74 49 75
REMARK SMILES IDX 50 76 51 77 75 78 76 79 84 80 77 81 79 82 85 83 78 84 80 85
REMARK SMILES IDX 81 86 82 87 83 88 60 89 61 90 69 91 62 92 64 93 70 94 63 95
REMARK SMILES IDX 65 96 66 97 67 98 68 99
REMARK H PARENT 11 17 90 52 58 63
REMARK Flexibility Score: inf
ROOT
ATOM      1  C   UNL     1       2.442   3.301  -3.010  1.00  0.00     0.188 C 
ENDROOT
BRANCH   1   2
ATOM      2  C   UNL     1       2.888   4.746  -3.268  1.00  0.00     0.188 C 
BRANCH   2   3
ATOM      3  O   UNL     1       4.168   4.951  -3.864  1.00  0.00    -0.376 OA
BRANCH   3   4
ATOM      4  C   UNL     1       5.324   4.390  -3.242  1.00  0.00     0.202 C 
BRANCH   4   5
ATOM      5  C   UNL     1       5.496   4.687  -1.752  1.00  0.00     0.261 C 
BRANCH   5   6
ATOM      6  O   UNL     1       4.595   3.846  -1.008  1.00  0.00    -0.459 OA
BRANCH   6   7
ATOM      7  C   UNL     1       4.338   4.249   0.266  1.00  0.00     0.350 C 
ATOM      8  O   UNL     1       5.056   5.017   0.894  1.00  0.00    -0.245 OA
BRANCH   7   9
ATOM      9  C   UNL     1       3.001   3.824   0.621  1.00  0.00     0.136 A 
ATOM     10  C   UNL     1       2.362   2.589   0.580  1.00  0.00     0.066 A 
ATOM     11  C   UNL     1       0.951   2.751   0.795  1.00  0.00     0.039 A 
ATOM     12  C   UNL     1       0.578   4.053   1.031  1.00  0.00     0.068 A 
ATOM     13  S   UNL     1       1.914   5.101   1.021  1.00  0.00    -0.135 S 
BRANCH  10  14
ATOM     14  N   UNL     1       3.005   1.361   0.376  1.00  0.00    -0.325 N 
ATOM     15  O   UNL     1       1.170   0.102  -0.294  1.00  0.00    -0.275 OA
ATOM     16  C   UNL     1       2.352   0.183   0.032  1.00  0.00     0.224 C 
ATOM     17  H   UNL     1       3.983   1.330   0.482  1.00  0.00     0.169 HD
BRANCH  16  18
ATOM     18  C   UNL     1       3.228  -1.061   0.053  1.00  0.00     0.105 C 
BRANCH  18  19
ATOM     19  C   UNL     1       4.045  -1.238  -1.229  1.00  0.00     0.047 C 
BRANCH  19  20
ATOM     20  C   UNL     1       5.439  -0.689  -1.082  1.00  0.00    -0.029 A 
ATOM     21  C   UNL     1       5.710   0.667  -1.278  1.00  0.00     0.007 A 
ATOM     22  C   UNL     1       6.493  -1.498  -0.664  1.00  0.00     0.114 A 
ATOM     23  C   UNL     1       6.969   1.173  -0.976  1.00  0.00     0.020 A 
ATOM     24  N   UNL     1       7.738  -1.031  -0.420  1.00  0.00    -0.264 NA
ATOM     25  C   UNL     1       7.943   0.291  -0.551  1.00  0.00     0.111 A 
ENDBRANCH  19  20
ENDBRANCH  18  19
ENDBRANCH  16  18
ENDBRANCH  10  14
ENDBRANCH   7   9
ENDBRANCH   6   7
ENDBRANCH   5   6
ENDBRANCH   4   5
ENDBRANCH   3   4
ENDBRANCH   2   3
ENDBRANCH   1   2
BRANCH   1  26
ATOM     26  O   UNL     1       2.087   2.582  -4.182  1.00  0.00    -0.377 OA
BRANCH  26  27
ATOM     27  C   UNL     1       3.172   1.973  -4.877  1.00  0.00     0.188 C 
BRANCH  27  28
ATOM     28  C   UNL     1       3.569   2.737  -6.150  1.00  0.00     0.188 C 
BRANCH  28  29
ATOM     29  O   UNL     1       2.621   2.869  -7.210  1.00  0.00    -0.376 OA
BRANCH  29  30
ATOM     30  C   UNL     1       1.262   3.095  -6.861  1.00  0.00     0.202 C 
BRANCH  30  31
ATOM     31  C   UNL     1       0.407   1.820  -6.973  1.00  0.00     0.261 C 
BRANCH  31  32
ATOM     32  O   UNL     1       1.133   0.609  -6.707  1.00  0.00    -0.460 OA
BRANCH  32  33
ATOM     33  C   UNL     1       1.887   0.161  -7.743  1.00  0.00     0.338 C 
ATOM     34  O   UNL     1       1.910   0.595  -8.883  1.00  0.00    -0.246 OA
BRANCH  33  35
ATOM     35  C   UNL     1       2.785  -0.917  -7.274  1.00  0.00     0.060 A 
ATOM     36  C   UNL     1       4.125  -0.894  -7.681  1.00  0.00     0.016 A 
ATOM     37  C   UNL     1       2.298  -1.980  -6.508  1.00  0.00     0.016 A 
ATOM     38  C   UNL     1       4.964  -1.970  -7.382  1.00  0.00     0.010 A 
ATOM     39  C   UNL     1       3.134  -3.062  -6.220  1.00  0.00     0.010 A 
ATOM     40  C   UNL     1       4.457  -3.081  -6.694  1.00  0.00    -0.014 A 
BRANCH  40  41
ATOM     41  C   UNL     1       5.240  -4.339  -6.645  1.00  0.00     0.031 A 
ATOM     42  C   UNL     1       5.029  -5.358  -7.734  1.00  0.00     0.074 A 
ATOM     43  C   UNL     1       6.108  -4.582  -5.648  1.00  0.00     0.049 A 
ATOM     44  N   UNL     1       5.603  -6.521  -7.902  1.00  0.00    -0.248 NA
ATOM     45  C   UNL     1       4.040  -5.019  -8.772  1.00  0.00     0.031 C 
ATOM     46  C   UNL     1       6.394  -3.680  -4.535  1.00  0.00     0.029 A 
ATOM     47  N   UNL     1       6.893  -5.682  -5.403  1.00  0.00    -0.354 N 
ATOM     48  C   UNL     1       5.042  -7.055  -9.056  1.00  0.00     0.074 A 
ATOM     49  C   UNL     1       4.071  -6.099  -9.540  1.00  0.00     0.031 C 
ATOM     50  C   UNL     1       7.267  -4.277  -3.704  1.00  0.00     0.029 A 
ATOM     51  C   UNL     1       7.592  -5.606  -4.222  1.00  0.00     0.049 A 
ATOM     52  H   UNL     1       6.950  -6.451  -6.015  1.00  0.00     0.167 HD
ATOM     53  C   UNL     1       5.324  -8.226  -9.672  1.00  0.00     0.034 A 
ATOM     54  C   UNL     1       8.392  -6.513  -3.624  1.00  0.00     0.034 A 
ATOM     55  C   UNL     1       6.295  -9.174  -9.200  1.00  0.00     0.049 A 
ATOM     56  C   UNL     1       8.673  -7.822  -4.319  1.00  0.00     0.074 A 
ATOM     57  C   UNL     1       6.684 -10.368  -9.779  1.00  0.00     0.029 A 
ATOM     58  N   UNL     1       7.022  -9.039  -8.029  1.00  0.00    -0.354 N 
ATOM     59  N   UNL     1       8.250  -8.245  -5.486  1.00  0.00    -0.248 NA
ATOM     60  C   UNL     1       9.570  -8.764  -3.632  1.00  0.00     0.031 C 
ATOM     61  C   UNL     1       7.640 -10.963  -8.949  1.00  0.00     0.029 A 
ATOM     62  C   UNL     1       7.851 -10.133  -7.859  1.00  0.00     0.049 A 
ATOM     63  H   UNL     1       6.958  -8.277  -7.408  1.00  0.00     0.167 HD
ATOM     64  C   UNL     1       8.857  -9.481  -5.689  1.00  0.00     0.074 A 
ATOM     65  C   UNL     1       9.689  -9.733  -4.531  1.00  0.00     0.031 C 
ATOM     66  C   UNL     1       8.724 -10.338  -6.732  1.00  0.00     0.034 A 
BRANCH  53  67
ATOM     67  C   UNL     1       4.603  -8.526 -10.957  1.00  0.00     0.023 A 
ATOM     68  C   UNL     1       5.016  -7.882 -12.141  1.00  0.00     0.012 A 
ATOM     69  C   UNL     1       3.562  -9.472 -11.007  1.00  0.00     0.148 A 
ATOM     70  C   UNL     1       4.389  -8.160 -13.354  1.00  0.00     0.002 A 
ATOM     71  C   UNL     1       2.962  -9.767 -12.226  1.00  0.00     0.091 A 
ATOM     72  F   UNL     1       3.167 -10.050  -9.864  1.00  0.00    -0.205 F 
ATOM     73  C   UNL     1       3.370  -9.109 -13.399  1.00  0.00     0.022 A 
BRANCH  71  74
ATOM     74  S   UNL     1       1.681 -11.015 -12.394  1.00  0.00     0.127 S 
ATOM     75  O   UNL     1       0.487 -10.191 -12.570  1.00  0.00    -0.237 OA
ATOM     76  O   UNL     1       2.106 -11.738 -13.594  1.00  0.00    -0.237 OA
ATOM     77  O   UNL     1       1.728 -11.800 -11.168  1.00  0.00    -0.744 OA
ENDBRANCH  71  74
ENDBRANCH  53  67
BRANCH  54  78
ATOM     78  C   UNL     1       9.019  -6.194  -2.311  1.00  0.00     0.023 A 
ATOM     79  C   UNL     1      10.407  -5.974  -2.234  1.00  0.00     0.012 A 
ATOM     80  C   UNL     1       8.244  -6.082  -1.141  1.00  0.00     0.148 A 
ATOM     81  C   UNL     1      11.012  -5.673  -1.012  1.00  0.00     0.002 A 
ATOM     82  C   UNL     1       8.845  -5.731   0.063  1.00  0.00     0.091 A 
ATOM     83  F   UNL     1       6.925  -6.318  -1.218  1.00  0.00    -0.205 F 
ATOM     84  C   UNL     1      10.231  -5.540   0.135  1.00  0.00     0.022 A 
BRANCH  82  85
ATOM     85  S   UNL     1       7.843  -5.432   1.523  1.00  0.00     0.127 S 
ATOM     86  O   UNL     1       7.686  -6.777   2.068  1.00  0.00    -0.237 OA
ATOM     87  O   UNL     1       8.685  -4.543   2.325  1.00  0.00    -0.237 OA
ATOM     88  O   UNL     1       6.634  -4.797   1.005  1.00  0.00    -0.744 OA
ENDBRANCH  82  85
ENDBRANCH  54  78
BRANCH  66  89
ATOM     89  C   UNL     1       9.510 -11.621  -6.695  1.00  0.00     0.023 A 
ATOM     90  C   UNL     1       9.080 -12.673  -5.864  1.00  0.00     0.012 A 
ATOM     91  C   UNL     1      10.608 -11.822  -7.555  1.00  0.00     0.148 A 
ATOM     92  C   UNL     1       9.744 -13.899  -5.873  1.00  0.00     0.002 A 
ATOM     93  C   UNL     1      11.240 -13.060  -7.587  1.00  0.00     0.091 A 
ATOM     94  F   UNL     1      11.016 -10.802  -8.324  1.00  0.00    -0.205 F 
ATOM     95  C   UNL     1      10.814 -14.098  -6.743  1.00  0.00     0.022 A 
BRANCH  93  96
ATOM     96  S   UNL     1      12.566 -13.422  -8.745  1.00  0.00     0.127 S 
ATOM     97  O   UNL     1      13.750 -13.274  -7.901  1.00  0.00    -0.237 OA
ATOM     98  O   UNL     1      12.271 -14.799  -9.146  1.00  0.00    -0.237 OA
ATOM     99  O   UNL     1      12.429 -12.445  -9.818  1.00  0.00    -0.744 OA
ENDBRANCH  93  96
ENDBRANCH  66  89
ENDBRANCH  40  41
ENDBRANCH  33  35
ENDBRANCH  32  33
ENDBRANCH  31  32
ENDBRANCH  30  31
ENDBRANCH  29  30
ENDBRANCH  28  29
ENDBRANCH  27  28
ENDBRANCH  26  27
ENDBRANCH   1  26
TORSDOF 27
