REMARK SMILES CSCC[C@@H](C(=O)OCCOCCOCCOCCOC(=O)c1ccc(-c2c3nc(c(-c4cccc(S(=O)(=O)[O-])c4F)c4ccc([nH]4)c(-c4cccc(S(=O)(=O)[O-])c4F)c4nc(c(-c5cccc(S(=O)(=O)[O-])c5F)c5ccc2[nH]5)C=C4)C=C3)cc1)N1C(=O)/C(=C/c2ccccc2F)SC1=S
REMARK SMILES IDX 14 1 13 2 12 3 11 4 10 5 9 6 8 7 6 8 7 9 5 10 4 11 3 12 2 13
REMARK SMILES IDX 1 14 86 15 87 16 99 17 88 18 89 19 98 20 100 21 90 22 91 23
REMARK SMILES IDX 92 24 96 25 93 26 95 27 97 28 94 29 15 30 16 31 17 32 18 33
REMARK SMILES IDX 19 34 20 35 21 36 22 37 23 38 24 39 85 40 25 41 84 42 26 43
REMARK SMILES IDX 27 44 28 45 78 46 29 47 83 48 77 49 79 50 30 51 82 52 76 53
REMARK SMILES IDX 75 54 31 56 63 57 43 58 62 59 44 60 47 61 61 62 80 63 45 64
REMARK SMILES IDX 46 65 60 67 81 68 48 69 32 70 33 71 41 72 34 73 36 74 42 75
REMARK SMILES IDX 35 76 37 77 38 78 39 79 40 80 64 81 65 82 73 83 66 84 68 85
REMARK SMILES IDX 74 86 67 87 69 88 70 89 71 90 72 91 49 92 50 93 58 94 51 95
REMARK SMILES IDX 53 96 59 97 52 98 54 99 55 100 56 101 57 102
REMARK H PARENT 79 55 47 66
REMARK Flexibility Score: inf
ROOT
ATOM      1  O   UNL     1       3.548   3.156   2.506  1.00  0.00    -0.377 OA
ENDROOT
BRANCH   1   2
ATOM      2  C   UNL     1       3.008   2.790   3.754  1.00  0.00     0.188 C 
BRANCH   2   3
ATOM      3  C   UNL     1       3.706   1.633   4.473  1.00  0.00     0.188 C 
BRANCH   3   4
ATOM      4  O   UNL     1       4.975   1.194   4.037  1.00  0.00    -0.376 OA
BRANCH   4   5
ATOM      5  C   UNL     1       5.245   0.870   2.683  1.00  0.00     0.202 C 
BRANCH   5   6
ATOM      6  C   UNL     1       4.218   0.381   1.637  1.00  0.00     0.261 C 
BRANCH   6   7
ATOM      7  O   UNL     1       2.847   0.797   1.744  1.00  0.00    -0.462 OA
BRANCH   7   8
ATOM      8  C   UNL     1       2.015  -0.066   2.363  1.00  0.00     0.329 C 
ATOM      9  O   UNL     1       2.425  -1.110   2.862  1.00  0.00    -0.250 OA
BRANCH   8  10
ATOM     10  C   UNL     1       0.523   0.396   2.440  1.00  0.00     0.202 C 
BRANCH  10  11
ATOM     11  C   UNL     1       0.119   1.742   1.799  1.00  0.00     0.048 C 
BRANCH  11  12
ATOM     12  C   UNL     1       0.529   2.056   0.360  1.00  0.00     0.072 C 
BRANCH  12  13
ATOM     13  S   UNL     1      -0.289   0.998  -0.862  1.00  0.00    -0.165 SA
ATOM     14  C   UNL     1       0.900  -0.358  -0.946  1.00  0.00     0.085 C 
ENDBRANCH  12  13
ENDBRANCH  11  12
ENDBRANCH  10  11
BRANCH  10  15
ATOM     15  N   UNL     1       0.117   0.187   3.883  1.00  0.00    -0.278 N 
ATOM     16  C   UNL     1       0.041  -1.148   4.283  1.00  0.00     0.266 C 
ATOM     17  C   UNL     1      -0.194   1.093   4.883  1.00  0.00     0.149 C 
ATOM     18  O   UNL     1      -0.016  -2.122   3.543  1.00  0.00    -0.268 OA
ATOM     19  C   UNL     1      -0.068  -1.262   5.755  1.00  0.00     0.081 C 
ATOM     20  S   UNL     1      -0.223   0.286   6.454  1.00  0.00    -0.054 SA
ATOM     21  S   UNL     1      -0.582   2.715   4.843  1.00  0.00    -0.052 S 
ATOM     22  C   UNL     1      -0.091  -2.452   6.370  1.00  0.00     0.032 C 
BRANCH  22  23
ATOM     23  C   UNL     1      -0.461  -2.660   7.773  1.00  0.00     0.012 A 
ATOM     24  C   UNL     1       0.442  -3.197   8.694  1.00  0.00     0.011 A 
ATOM     25  C   UNL     1      -1.770  -2.382   8.190  1.00  0.00     0.130 A 
ATOM     26  C   UNL     1       0.031  -3.445  10.010  1.00  0.00     0.001 A 
ATOM     27  C   UNL     1      -2.180  -2.622   9.495  1.00  0.00     0.040 A 
ATOM     28  F   UNL     1      -2.667  -1.892   7.319  1.00  0.00    -0.206 F 
ATOM     29  C   UNL     1      -1.278  -3.159  10.409  1.00  0.00     0.003 A 
ENDBRANCH  22  23
ENDBRANCH  10  15
ENDBRANCH   8  10
ENDBRANCH   7   8
ENDBRANCH   6   7
ENDBRANCH   5   6
ENDBRANCH   4   5
ENDBRANCH   3   4
ENDBRANCH   2   3
ENDBRANCH   1   2
BRANCH   1  30
ATOM     30  C   UNL     1       4.582   4.125   2.482  1.00  0.00     0.188 C 
BRANCH  30  31
ATOM     31  C   UNL     1       5.427   4.365   3.748  1.00  0.00     0.188 C 
BRANCH  31  32
ATOM     32  O   UNL     1       4.691   4.402   4.964  1.00  0.00    -0.376 OA
BRANCH  32  33
ATOM     33  C   UNL     1       4.282   5.659   5.483  1.00  0.00     0.202 C 
BRANCH  33  34
ATOM     34  C   UNL     1       3.278   6.491   4.668  1.00  0.00     0.261 C 
BRANCH  34  35
ATOM     35  O   UNL     1       3.682   6.865   3.344  1.00  0.00    -0.460 OA
BRANCH  35  36
ATOM     36  C   UNL     1       4.831   7.555   3.196  1.00  0.00     0.338 C 
ATOM     37  O   UNL     1       5.575   7.949   4.079  1.00  0.00    -0.246 OA
BRANCH  36  38
ATOM     38  C   UNL     1       5.147   7.575   1.754  1.00  0.00     0.060 A 
ATOM     39  C   UNL     1       6.328   6.968   1.304  1.00  0.00     0.016 A 
ATOM     40  C   UNL     1       4.263   8.165   0.850  1.00  0.00     0.016 A 
ATOM     41  C   UNL     1       6.645   6.978  -0.055  1.00  0.00     0.010 A 
ATOM     42  C   UNL     1       4.593   8.197  -0.505  1.00  0.00     0.010 A 
ATOM     43  C   UNL     1       5.800   7.635  -0.958  1.00  0.00    -0.014 A 
BRANCH  43  44
ATOM     44  C   UNL     1       6.266   7.932  -2.332  1.00  0.00     0.031 A 
ATOM     45  C   UNL     1       6.818   9.303  -2.605  1.00  0.00     0.074 A 
ATOM     46  C   UNL     1       6.155   7.033  -3.324  1.00  0.00     0.049 A 
ATOM     47  N   UNL     1       7.169   9.846  -3.739  1.00  0.00    -0.248 NA
ATOM     48  C   UNL     1       6.984  10.183  -1.435  1.00  0.00     0.031 C 
ATOM     49  C   UNL     1       5.644   5.672  -3.179  1.00  0.00     0.029 A 
ATOM     50  N   UNL     1       6.424   7.155  -4.665  1.00  0.00    -0.354 N 
ATOM     51  C   UNL     1       7.549  11.146  -3.429  1.00  0.00     0.074 A 
ATOM     52  C   UNL     1       7.388  11.309  -2.002  1.00  0.00     0.031 C 
ATOM     53  C   UNL     1       5.586   5.100  -4.394  1.00  0.00     0.029 A 
ATOM     54  C   UNL     1       6.019   6.067  -5.402  1.00  0.00     0.049 A 
ATOM     55  H   UNL     1       6.863   7.943  -5.060  1.00  0.00     0.167 HD
ATOM     56  C   UNL     1       7.991  12.118  -4.260  1.00  0.00     0.034 A 
ATOM     57  C   UNL     1       5.958   5.894  -6.739  1.00  0.00     0.034 A 
ATOM     58  C   UNL     1       8.152  11.947  -5.677  1.00  0.00     0.049 A 
ATOM     59  C   UNL     1       6.428   6.998  -7.651  1.00  0.00     0.074 A 
ATOM     60  C   UNL     1       8.653  12.848  -6.599  1.00  0.00     0.029 A 
ATOM     61  N   UNL     1       7.786  10.811  -6.382  1.00  0.00    -0.354 N 
ATOM     62  N   UNL     1       6.898   8.182  -7.339  1.00  0.00    -0.248 NA
ATOM     63  C   UNL     1       6.385   6.735  -9.098  1.00  0.00     0.031 C 
ATOM     64  C   UNL     1       8.543  12.275  -7.869  1.00  0.00     0.029 A 
ATOM     65  C   UNL     1       8.026  10.996  -7.732  1.00  0.00     0.049 A 
ATOM     66  H   UNL     1       7.411   9.994  -5.982  1.00  0.00     0.167 HD
ATOM     67  C   UNL     1       7.241   8.789  -8.543  1.00  0.00     0.074 A 
ATOM     68  C   UNL     1       6.933   7.838  -9.591  1.00  0.00     0.031 C 
ATOM     69  C   UNL     1       7.760  10.022  -8.761  1.00  0.00     0.034 A 
BRANCH  56  70
ATOM     70  C   UNL     1       8.314  13.457  -3.654  1.00  0.00     0.023 A 
ATOM     71  C   UNL     1       9.435  13.604  -2.812  1.00  0.00     0.012 A 
ATOM     72  C   UNL     1       7.514  14.581  -3.941  1.00  0.00     0.148 A 
ATOM     73  C   UNL     1       9.728  14.836  -2.228  1.00  0.00     0.002 A 
ATOM     74  C   UNL     1       7.843  15.816  -3.399  1.00  0.00     0.091 A 
ATOM     75  F   UNL     1       6.437  14.417  -4.723  1.00  0.00    -0.205 F 
ATOM     76  C   UNL     1       8.939  15.943  -2.530  1.00  0.00     0.022 A 
BRANCH  74  77
ATOM     77  S   UNL     1       6.937  17.315  -3.795  1.00  0.00     0.127 S 
ATOM     78  O   UNL     1       6.239  17.578  -2.537  1.00  0.00    -0.237 OA
ATOM     79  O   UNL     1       8.017  18.254  -4.100  1.00  0.00    -0.237 OA
ATOM     80  O   UNL     1       6.084  16.982  -4.926  1.00  0.00    -0.744 OA
ENDBRANCH  74  77
ENDBRANCH  56  70
BRANCH  57  81
ATOM     81  C   UNL     1       5.420   4.619  -7.292  1.00  0.00     0.023 A 
ATOM     82  C   UNL     1       6.283   3.714  -7.939  1.00  0.00     0.012 A 
ATOM     83  C   UNL     1       4.059   4.287  -7.145  1.00  0.00     0.148 A 
ATOM     84  C   UNL     1       5.795   2.511  -8.451  1.00  0.00     0.002 A 
ATOM     85  C   UNL     1       3.591   3.063  -7.606  1.00  0.00     0.091 A 
ATOM     86  F   UNL     1       3.254   5.170  -6.537  1.00  0.00    -0.205 F 
ATOM     87  C   UNL     1       4.453   2.181  -8.275  1.00  0.00     0.022 A 
BRANCH  85  88
ATOM     88  S   UNL     1       1.915   2.494  -7.306  1.00  0.00     0.127 S 
ATOM     89  O   UNL     1       1.379   2.416  -8.663  1.00  0.00    -0.237 OA
ATOM     90  O   UNL     1       2.153   1.202  -6.661  1.00  0.00    -0.237 OA
ATOM     91  O   UNL     1       1.304   3.498  -6.447  1.00  0.00    -0.744 OA
ENDBRANCH  85  88
ENDBRANCH  57  81
BRANCH  69  92
ATOM     92  C   UNL     1       8.092  10.416 -10.177  1.00  0.00     0.023 A 
ATOM     93  C   UNL     1       7.065  10.730 -11.087  1.00  0.00     0.012 A 
ATOM     94  C   UNL     1       9.437  10.588 -10.565  1.00  0.00     0.148 A 
ATOM     95  C   UNL     1       7.372  11.190 -12.368  1.00  0.00     0.002 A 
ATOM     96  C   UNL     1       9.734  11.097 -11.822  1.00  0.00     0.091 A 
ATOM     97  F   UNL     1      10.399  10.269  -9.687  1.00  0.00    -0.205 F 
ATOM     98  C   UNL     1       8.703  11.387 -12.730  1.00  0.00     0.022 A 
BRANCH  96  99
ATOM     99  S   UNL     1      11.411  11.482 -12.338  1.00  0.00     0.127 S 
ATOM    100  O   UNL     1      11.630  10.500 -13.399  1.00  0.00    -0.237 OA
ATOM    101  O   UNL     1      11.281  12.863 -12.801  1.00  0.00    -0.237 OA
ATOM    102  O   UNL     1      12.247  11.313 -11.157  1.00  0.00    -0.744 OA
ENDBRANCH  96  99
ENDBRANCH  69  92
ENDBRANCH  43  44
ENDBRANCH  36  38
ENDBRANCH  35  36
ENDBRANCH  34  35
ENDBRANCH  33  34
ENDBRANCH  32  33
ENDBRANCH  31  32
ENDBRANCH  30  31
ENDBRANCH   1  30
TORSDOF 28
