REMARK SMILES O=C(OCCOCCOCCOCCOC(=O)[C@@H]1[C@H](C(=O)Nc2ccc(Cn3cncn3)cc2)[C@@H]2C=C[C@H]1CC2)c1ccc(-c2c3nc(c(-c4cccc(S(=O)(=O)[O-])c4F)c4ccc([nH]4)c(-c4cccc(S(=O)(=O)[O-])c4F)c4nc(c(-c5cccc(S(=O)(=O)[O-])c5F)c5ccc2[nH]5)C=C4)C=C3)cc1
REMARK SMILES IDX 10 1 9 2 8 3 7 4 6 5 5 6 4 7 3 8 2 9 1 10 41 11 42 12 103 13
REMARK SMILES IDX 43 14 102 15 44 16 45 17 46 18 96 19 47 20 101 21 95 22
REMARK SMILES IDX 97 23 48 24 100 25 94 26 93 27 49 29 81 30 61 31 80 32 62 33
REMARK SMILES IDX 65 34 79 35 98 36 63 37 64 38 78 40 99 41 66 42 50 43 51 44
REMARK SMILES IDX 59 45 52 46 54 47 60 48 53 49 55 50 56 51 57 52 58 53 82 54
REMARK SMILES IDX 83 55 91 56 84 57 86 58 92 59 85 60 87 61 88 62 89 63 90 64
REMARK SMILES IDX 67 65 68 66 76 67 69 68 71 69 77 70 70 71 72 72 73 73 74 74
REMARK SMILES IDX 75 75 11 76 12 77 13 78 14 79 15 80 16 81 17 82 18 83 19 84
REMARK SMILES IDX 38 85 35 86 37 87 39 88 36 89 40 90 20 91 21 92 22 93 23 95
REMARK SMILES IDX 24 96 34 97 25 98 33 99 26 100 27 101 28 102 29 103 32 104
REMARK SMILES IDX 30 105 31 106
REMARK H PARENT 97 28 65 39 22 94
REMARK Flexibility Score: inf
ROOT
ATOM      1  C   UNL     1       4.973  -0.740   3.052  1.00  0.00     0.188 C 
ENDROOT
BRANCH   1   2
ATOM      2  O   UNL     1       4.064  -0.215   2.114  1.00  0.00    -0.377 OA
BRANCH   2   3
ATOM      3  C   UNL     1       3.068  -1.073   1.609  1.00  0.00     0.188 C 
BRANCH   3   4
ATOM      4  C   UNL     1       3.467  -1.780   0.312  1.00  0.00     0.188 C 
BRANCH   4   5
ATOM      5  O   UNL     1       4.497  -1.280  -0.542  1.00  0.00    -0.376 OA
BRANCH   5   6
ATOM      6  C   UNL     1       5.368  -0.220  -0.187  1.00  0.00     0.202 C 
BRANCH   6   7
ATOM      7  C   UNL     1       4.849   1.229  -0.284  1.00  0.00     0.261 C 
BRANCH   7   8
ATOM      8  O   UNL     1       3.480   1.470   0.058  1.00  0.00    -0.460 OA
BRANCH   8   9
ATOM      9  C   UNL     1       2.345   1.105  -0.575  1.00  0.00     0.338 C 
ATOM     10  O   UNL     1       1.286   1.312  -0.006  1.00  0.00    -0.246 OA
BRANCH   9  11
ATOM     11  C   UNL     1       2.309   0.434  -1.902  1.00  0.00     0.060 A 
ATOM     12  C   UNL     1       3.412   0.235  -2.730  1.00  0.00     0.016 A 
ATOM     13  C   UNL     1       1.044  -0.019  -2.331  1.00  0.00     0.016 A 
ATOM     14  C   UNL     1       3.263  -0.306  -3.981  1.00  0.00     0.010 A 
ATOM     15  C   UNL     1       0.879  -0.561  -3.593  1.00  0.00     0.010 A 
ATOM     16  C   UNL     1       1.989  -0.636  -4.420  1.00  0.00    -0.014 A 
BRANCH  16  17
ATOM     17  C   UNL     1       1.907  -1.010  -5.809  1.00  0.00     0.031 A 
ATOM     18  C   UNL     1       2.606  -2.274  -6.147  1.00  0.00     0.074 A 
ATOM     19  C   UNL     1       1.320  -0.172  -6.679  1.00  0.00     0.049 A 
ATOM     20  N   UNL     1       3.671  -2.425  -6.866  1.00  0.00    -0.248 NA
ATOM     21  C   UNL     1       2.165  -3.494  -5.458  1.00  0.00     0.031 C 
ATOM     22  C   UNL     1       0.443   0.968  -6.393  1.00  0.00     0.029 A 
ATOM     23  N   UNL     1       1.292  -0.253  -8.029  1.00  0.00    -0.354 N 
ATOM     24  C   UNL     1       3.904  -3.797  -6.899  1.00  0.00     0.074 A 
ATOM     25  C   UNL     1       3.061  -4.381  -5.889  1.00  0.00     0.031 C 
ATOM     26  C   UNL     1      -0.245   1.279  -7.513  1.00  0.00     0.029 A 
ATOM     27  C   UNL     1       0.256   0.465  -8.605  1.00  0.00     0.049 A 
ATOM     28  H   UNL     1       1.944  -0.772  -8.552  1.00  0.00     0.167 HD
ATOM     29  C   UNL     1       4.597  -4.378  -7.916  1.00  0.00     0.034 A 
ATOM     30  C   UNL     1      -0.216   0.292  -9.861  1.00  0.00     0.034 A 
ATOM     31  C   UNL     1       5.415  -3.426  -8.616  1.00  0.00     0.049 A 
ATOM     32  C   UNL     1       0.849  -0.387 -10.640  1.00  0.00     0.074 A 
ATOM     33  C   UNL     1       6.481  -2.622  -8.263  1.00  0.00     0.029 A 
ATOM     34  N   UNL     1       4.917  -2.903  -9.784  1.00  0.00    -0.354 N 
ATOM     35  N   UNL     1       1.999   0.168 -10.911  1.00  0.00    -0.248 NA
ATOM     36  C   UNL     1       0.828  -1.841 -10.702  1.00  0.00     0.031 C 
ATOM     37  C   UNL     1       6.258  -1.396  -8.955  1.00  0.00     0.029 A 
ATOM     38  C   UNL     1       5.112  -1.546  -9.740  1.00  0.00     0.049 A 
ATOM     39  H   UNL     1       4.498  -3.408 -10.518  1.00  0.00     0.167 HD
ATOM     40  C   UNL     1       2.930  -0.849 -10.733  1.00  0.00     0.074 A 
ATOM     41  C   UNL     1       2.143  -2.082 -10.703  1.00  0.00     0.031 C 
ATOM     42  C   UNL     1       4.209  -0.581 -10.333  1.00  0.00     0.034 A 
BRANCH  29  43
ATOM     43  C   UNL     1       4.265  -5.733  -8.488  1.00  0.00     0.023 A 
ATOM     44  C   UNL     1       5.165  -6.301  -9.414  1.00  0.00     0.012 A 
ATOM     45  C   UNL     1       2.996  -6.347  -8.366  1.00  0.00     0.148 A 
ATOM     46  C   UNL     1       4.806  -7.403 -10.200  1.00  0.00     0.002 A 
ATOM     47  C   UNL     1       2.674  -7.489  -9.088  1.00  0.00     0.091 A 
ATOM     48  F   UNL     1       2.032  -5.756  -7.654  1.00  0.00    -0.205 F 
ATOM     49  C   UNL     1       3.564  -8.005 -10.030  1.00  0.00     0.022 A 
BRANCH  47  50
ATOM     50  S   UNL     1       1.101  -8.328  -8.860  1.00  0.00     0.127 S 
ATOM     51  O   UNL     1       0.389  -7.951 -10.077  1.00  0.00    -0.237 OA
ATOM     52  O   UNL     1       1.518  -9.729  -8.794  1.00  0.00    -0.237 OA
ATOM     53  O   UNL     1       0.560  -7.809  -7.610  1.00  0.00    -0.744 OA
ENDBRANCH  47  50
ENDBRANCH  29  43
BRANCH  30  54
ATOM     54  C   UNL     1      -1.630   0.334 -10.297  1.00  0.00     0.023 A 
ATOM     55  C   UNL     1      -1.935   0.531 -11.656  1.00  0.00     0.012 A 
ATOM     56  C   UNL     1      -2.670  -0.076  -9.429  1.00  0.00     0.148 A 
ATOM     57  C   UNL     1      -3.230   0.308 -12.139  1.00  0.00     0.002 A 
ATOM     58  C   UNL     1      -3.956  -0.286  -9.912  1.00  0.00     0.091 A 
ATOM     59  F   UNL     1      -2.377  -0.351  -8.152  1.00  0.00    -0.205 F 
ATOM     60  C   UNL     1      -4.238  -0.105 -11.271  1.00  0.00     0.022 A 
BRANCH  58  61
ATOM     61  S   UNL     1      -5.299  -0.842  -8.853  1.00  0.00     0.127 S 
ATOM     62  O   UNL     1      -6.362   0.105  -9.192  1.00  0.00    -0.237 OA
ATOM     63  O   UNL     1      -5.517  -2.204  -9.335  1.00  0.00    -0.237 OA
ATOM     64  O   UNL     1      -4.806  -0.725  -7.487  1.00  0.00    -0.744 OA
ENDBRANCH  58  61
ENDBRANCH  30  54
BRANCH  42  65
ATOM     65  C   UNL     1       4.638   0.867 -10.258  1.00  0.00     0.023 A 
ATOM     66  C   UNL     1       4.050   1.779  -9.355  1.00  0.00     0.012 A 
ATOM     67  C   UNL     1       5.776   1.269 -10.976  1.00  0.00     0.148 A 
ATOM     68  C   UNL     1       4.567   3.069  -9.194  1.00  0.00     0.002 A 
ATOM     69  C   UNL     1       6.315   2.535 -10.780  1.00  0.00     0.091 A 
ATOM     70  F   UNL     1       6.334   0.389 -11.821  1.00  0.00    -0.205 F 
ATOM     71  C   UNL     1       5.708   3.443  -9.898  1.00  0.00     0.022 A 
BRANCH  69  72
ATOM     72  S   UNL     1       7.855   3.028 -11.557  1.00  0.00     0.127 S 
ATOM     73  O   UNL     1       7.392   3.926 -12.612  1.00  0.00    -0.237 OA
ATOM     74  O   UNL     1       8.564   3.689 -10.459  1.00  0.00    -0.237 OA
ATOM     75  O   UNL     1       8.486   1.795 -12.012  1.00  0.00    -0.744 OA
ENDBRANCH  69  72
ENDBRANCH  42  65
ENDBRANCH  16  17
ENDBRANCH   9  11
ENDBRANCH   8   9
ENDBRANCH   7   8
ENDBRANCH   6   7
ENDBRANCH   5   6
ENDBRANCH   4   5
ENDBRANCH   3   4
ENDBRANCH   2   3
ENDBRANCH   1   2
BRANCH   1  76
ATOM     76  C   UNL     1       5.631  -2.116   2.882  1.00  0.00     0.188 C 
BRANCH  76  77
ATOM     77  O   UNL     1       4.835  -3.241   2.586  1.00  0.00    -0.376 OA
BRANCH  77  78
ATOM     78  C   UNL     1       3.878  -3.795   3.468  1.00  0.00     0.202 C 
BRANCH  78  79
ATOM     79  C   UNL     1       3.860  -3.534   4.978  1.00  0.00     0.261 C 
BRANCH  79  80
ATOM     80  O   UNL     1       3.871  -2.159   5.392  1.00  0.00    -0.463 OA
BRANCH  80  81
ATOM     81  C   UNL     1       4.944  -1.711   6.085  1.00  0.00     0.310 C 
ATOM     82  O   UNL     1       5.965  -2.373   6.247  1.00  0.00    -0.252 OA
BRANCH  81  83
ATOM     83  C   UNL     1       4.775  -0.329   6.731  1.00  0.00     0.119 C 
ATOM     84  C   UNL     1       3.777  -0.326   7.896  1.00  0.00     0.100 C 
ATOM     85  C   UNL     1       4.764   1.082   6.024  1.00  0.00     0.026 C 
ATOM     86  C   UNL     1       3.411   1.137   8.260  1.00  0.00     0.025 C 
ATOM     87  C   UNL     1       3.398   1.750   5.956  1.00  0.00    -0.027 C 
ATOM     88  C   UNL     1       5.473   2.052   7.013  1.00  0.00     0.009 C 
ATOM     89  C   UNL     1       2.697   1.770   7.103  1.00  0.00    -0.027 C 
ATOM     90  C   UNL     1       4.736   1.972   8.389  1.00  0.00     0.009 C 
BRANCH  84  91
ATOM     91  C   UNL     1       2.660  -1.389   7.907  1.00  0.00     0.228 C 
ATOM     92  O   UNL     1       2.813  -2.341   8.694  1.00  0.00    -0.274 OA
ATOM     93  N   UNL     1       1.480  -1.408   7.233  1.00  0.00    -0.326 N 
ATOM     94  H   UNL     1       0.861  -2.073   7.612  1.00  0.00     0.169 HD
BRANCH  93  95
ATOM     95  C   UNL     1       0.904  -0.736   6.142  1.00  0.00     0.041 A 
ATOM     96  C   UNL     1      -0.479  -0.552   6.140  1.00  0.00     0.026 A 
ATOM     97  C   UNL     1       1.596  -0.277   5.038  1.00  0.00     0.026 A 
ATOM     98  C   UNL     1      -1.090   0.272   5.178  1.00  0.00     0.008 A 
ATOM     99  C   UNL     1       1.001   0.518   4.055  1.00  0.00     0.008 A 
ATOM    100  C   UNL     1      -0.338   0.867   4.156  1.00  0.00    -0.026 A 
BRANCH 100 101
ATOM    101  C   UNL     1      -0.896   1.904   3.210  1.00  0.00     0.181 C 
BRANCH 101 102
ATOM    102  N   UNL     1      -1.637   1.350   2.098  1.00  0.00    -0.249 N 
ATOM    103  C   UNL     1      -2.600   0.392   2.103  1.00  0.00     0.220 A 
ATOM    104  N   UNL     1      -1.493   1.864   0.864  1.00  0.00    -0.160 NA
ATOM    105  N   UNL     1      -2.973   0.136   0.871  1.00  0.00    -0.224 NA
ATOM    106  C   UNL     1      -2.236   1.025   0.141  1.00  0.00     0.246 A 
ENDBRANCH 101 102
ENDBRANCH 100 101
ENDBRANCH  93  95
ENDBRANCH  84  91
ENDBRANCH  81  83
ENDBRANCH  80  81
ENDBRANCH  79  80
ENDBRANCH  78  79
ENDBRANCH  77  78
ENDBRANCH  76  77
ENDBRANCH   1  76
TORSDOF 27
