REMARK SMILES [NH3+][C@H]1C=C[C@@H](C(=O)N2CCC(CC(=O)OCCOCCOCCOCCOC(=O)c3ccc(-c4c5nc(c(-c6cccc(S(=O)(=O)[O-])c6F)c6ccc([nH]6)c(-c6cccc(S(=O)(=O)[O-])c6F)c6nc(c(-c7cccc(S(=O)(=O)[O-])c7F)c7ccc4[nH]7)C=C6)C=C5)cc3)CC2)C1
REMARK SMILES IDX 21 1 20 2 19 3 18 4 17 5 16 6 15 7 13 8 14 9 12 10 11 11
REMARK SMILES IDX 6 12 7 13 8 14 9 15 94 16 10 17 93 18 5 19 2 20 3 21 95 22
REMARK SMILES IDX 4 23 1 24 22 28 23 29 24 30 25 31 26 32 27 33 28 34 29 35
REMARK SMILES IDX 30 36 31 37 92 38 32 39 91 40 33 41 34 42 35 43 85 44 36 45
REMARK SMILES IDX 90 46 84 47 86 48 37 49 89 50 83 51 82 52 38 54 70 55 50 56
REMARK SMILES IDX 69 57 51 58 54 59 68 60 87 61 52 62 53 63 67 65 88 66 55 67
REMARK SMILES IDX 39 68 40 69 48 70 41 71 43 72 49 73 42 74 44 75 45 76 46 77
REMARK SMILES IDX 47 78 71 79 72 80 80 81 73 82 75 83 81 84 74 85 76 86 77 87
REMARK SMILES IDX 78 88 79 89 56 90 57 91 65 92 58 93 60 94 66 95 59 96 61 97
REMARK SMILES IDX 62 98 63 99 64 100
REMARK H PARENT 1 25 1 26 1 27 86 53 54 64
REMARK Flexibility Score: inf
ROOT
ATOM      1  O   UNL     1       1.573  -4.095  -7.440  1.00  0.00    -0.377 OA
ENDROOT
BRANCH   1   2
ATOM      2  C   UNL     1       2.809  -3.506  -7.791  1.00  0.00     0.188 C 
BRANCH   2   3
ATOM      3  C   UNL     1       3.700  -4.246  -8.795  1.00  0.00     0.188 C 
BRANCH   3   4
ATOM      4  O   UNL     1       3.090  -4.965  -9.843  1.00  0.00    -0.376 OA
BRANCH   4   5
ATOM      5  C   UNL     1       2.516  -6.245  -9.620  1.00  0.00     0.202 C 
BRANCH   5   6
ATOM      6  C   UNL     1       2.717  -7.107  -8.358  1.00  0.00     0.261 C 
BRANCH   6   7
ATOM      7  O   UNL     1       2.823  -6.428  -7.100  1.00  0.00    -0.463 OA
BRANCH   7   8
ATOM      8  C   UNL     1       3.985  -6.606  -6.433  1.00  0.00     0.306 C 
ATOM      9  O   UNL     1       4.947  -7.230  -6.878  1.00  0.00    -0.252 OA
BRANCH   8  10
ATOM     10  C   UNL     1       4.079  -5.923  -5.087  1.00  0.00     0.126 C 
BRANCH  10  11
ATOM     11  C   UNL     1       2.963  -5.033  -4.526  1.00  0.00     0.003 C 
ATOM     12  C   UNL     1       0.721  -4.557  -1.221  1.00  0.00     0.229 C 
ATOM     13  O   UNL     1       0.595  -5.766  -1.011  1.00  0.00    -0.274 OA
ATOM     14  N   UNL     1       1.154  -4.092  -2.452  1.00  0.00    -0.342 N 
ATOM     15  C   UNL     1       0.631  -4.744  -3.651  1.00  0.00     0.120 C 
ATOM     16  C   UNL     1       2.439  -3.436  -2.614  1.00  0.00     0.120 C 
ATOM     17  C   UNL     1       1.631  -5.739  -4.252  1.00  0.00     0.026 C 
ATOM     18  C   UNL     1       3.471  -4.381  -3.226  1.00  0.00     0.026 C 
BRANCH  12  19
ATOM     19  C   UNL     1       0.199  -3.543  -0.183  1.00  0.00     0.107 C 
ATOM     20  C   UNL     1       0.273  -1.196   0.528  1.00  0.00     0.205 C 
ATOM     21  C   UNL     1      -0.892  -1.461  -0.357  1.00  0.00     0.033 C 
ATOM     22  C   UNL     1       1.130  -2.461   0.366  1.00  0.00     0.087 C 
ATOM     23  C   UNL     1      -0.949  -2.743  -0.735  1.00  0.00    -0.012 C 
BRANCH  20  24
ATOM     24  N   UNL     1       1.001  -0.006   0.118  1.00  0.00    -0.352 N 
ATOM     25  H   UNL     1       0.407   0.814   0.237  1.00  0.00     0.345 HD
ATOM     26  H   UNL     1       1.270  -0.092  -0.862  1.00  0.00     0.345 HD
ATOM     27  H   UNL     1       1.839   0.095   0.692  1.00  0.00     0.345 HD
ENDBRANCH  20  24
ENDBRANCH  12  19
ENDBRANCH  10  11
ENDBRANCH   8  10
ENDBRANCH   7   8
ENDBRANCH   6   7
ENDBRANCH   5   6
ENDBRANCH   4   5
ENDBRANCH   3   4
ENDBRANCH   2   3
ENDBRANCH   1   2
BRANCH   1  28
ATOM     28  C   UNL     1       0.469  -4.039  -8.338  1.00  0.00     0.188 C 
BRANCH  28  29
ATOM     29  C   UNL     1       0.555  -3.252  -9.662  1.00  0.00     0.188 C 
BRANCH  29  30
ATOM     30  O   UNL     1       1.393  -2.109  -9.633  1.00  0.00    -0.376 OA
BRANCH  30  31
ATOM     31  C   UNL     1       0.810  -0.850  -9.330  1.00  0.00     0.202 C 
BRANCH  31  32
ATOM     32  C   UNL     1       0.086  -0.700  -7.983  1.00  0.00     0.261 C 
BRANCH  32  33
ATOM     33  O   UNL     1      -1.078  -1.520  -7.792  1.00  0.00    -0.460 OA
BRANCH  33  34
ATOM     34  C   UNL     1      -2.068  -1.440  -8.709  1.00  0.00     0.338 C 
ATOM     35  O   UNL     1      -2.127  -0.696  -9.666  1.00  0.00    -0.246 OA
BRANCH  34  36
ATOM     36  C   UNL     1      -2.999  -2.560  -8.458  1.00  0.00     0.060 A 
ATOM     37  C   UNL     1      -3.179  -3.526  -9.456  1.00  0.00     0.016 A 
ATOM     38  C   UNL     1      -3.702  -2.641  -7.255  1.00  0.00     0.016 A 
ATOM     39  C   UNL     1      -4.101  -4.556  -9.269  1.00  0.00     0.010 A 
ATOM     40  C   UNL     1      -4.639  -3.662  -7.078  1.00  0.00     0.010 A 
ATOM     41  C   UNL     1      -4.871  -4.599  -8.100  1.00  0.00    -0.014 A 
BRANCH  41  42
ATOM     42  C   UNL     1      -6.050  -5.496  -8.029  1.00  0.00     0.031 A 
ATOM     43  C   UNL     1      -7.411  -4.908  -8.295  1.00  0.00     0.074 A 
ATOM     44  C   UNL     1      -5.921  -6.804  -7.744  1.00  0.00     0.049 A 
ATOM     45  N   UNL     1      -8.585  -5.478  -8.245  1.00  0.00    -0.248 NA
ATOM     46  C   UNL     1      -7.449  -3.483  -8.665  1.00  0.00     0.031 C 
ATOM     47  C   UNL     1      -4.659  -7.494  -7.489  1.00  0.00     0.029 A 
ATOM     48  N   UNL     1      -6.876  -7.779  -7.597  1.00  0.00    -0.354 N 
ATOM     49  C   UNL     1      -9.504  -4.480  -8.548  1.00  0.00     0.074 A 
ATOM     50  C   UNL     1      -8.752  -3.264  -8.766  1.00  0.00     0.031 C 
ATOM     51  C   UNL     1      -4.919  -8.779  -7.189  1.00  0.00     0.029 A 
ATOM     52  C   UNL     1      -6.365  -8.993  -7.201  1.00  0.00     0.049 A 
ATOM     53  H   UNL     1      -7.834  -7.625  -7.760  1.00  0.00     0.167 HD
ATOM     54  C   UNL     1     -10.851  -4.568  -8.650  1.00  0.00     0.034 A 
ATOM     55  C   UNL     1      -6.997 -10.134  -6.860  1.00  0.00     0.034 A 
ATOM     56  C   UNL     1     -11.596  -5.779  -8.440  1.00  0.00     0.049 A 
ATOM     57  C   UNL     1      -8.503 -10.191  -6.929  1.00  0.00     0.074 A 
ATOM     58  C   UNL     1     -12.960  -5.978  -8.548  1.00  0.00     0.029 A 
ATOM     59  N   UNL     1     -11.042  -6.992  -8.062  1.00  0.00    -0.354 N 
ATOM     60  N   UNL     1      -9.351  -9.267  -7.313  1.00  0.00    -0.248 NA
ATOM     61  C   UNL     1      -9.139 -11.462  -6.547  1.00  0.00     0.031 C 
ATOM     62  C   UNL     1     -13.236  -7.304  -8.199  1.00  0.00     0.029 A 
ATOM     63  C   UNL     1     -12.039  -7.942  -7.920  1.00  0.00     0.049 A 
ATOM     64  H   UNL     1     -10.082  -7.154  -7.917  1.00  0.00     0.167 HD
ATOM     65  C   UNL     1     -10.610  -9.856  -7.261  1.00  0.00     0.074 A 
ATOM     66  C   UNL     1     -10.413 -11.223  -6.825  1.00  0.00     0.031 C 
ATOM     67  C   UNL     1     -11.822  -9.315  -7.539  1.00  0.00     0.034 A 
BRANCH  54  68
ATOM     68  C   UNL     1     -11.606  -3.317  -9.019  1.00  0.00     0.023 A 
ATOM     69  C   UNL     1     -11.510  -2.800 -10.327  1.00  0.00     0.012 A 
ATOM     70  C   UNL     1     -12.448  -2.682  -8.085  1.00  0.00     0.148 A 
ATOM     71  C   UNL     1     -12.212  -1.651 -10.690  1.00  0.00     0.002 A 
ATOM     72  C   UNL     1     -13.182  -1.566  -8.468  1.00  0.00     0.091 A 
ATOM     73  F   UNL     1     -12.509  -3.176  -6.841  1.00  0.00    -0.205 F 
ATOM     74  C   UNL     1     -13.055  -1.042  -9.765  1.00  0.00     0.022 A 
BRANCH  72  75
ATOM     75  S   UNL     1     -14.354  -0.755  -7.377  1.00  0.00     0.127 S 
ATOM     76  O   UNL     1     -13.698   0.530  -7.141  1.00  0.00    -0.237 OA
ATOM     77  O   UNL     1     -15.552  -0.683  -8.214  1.00  0.00    -0.237 OA
ATOM     78  O   UNL     1     -14.479  -1.613  -6.207  1.00  0.00    -0.744 OA
ENDBRANCH  72  75
ENDBRANCH  54  68
BRANCH  55  79
ATOM     79  C   UNL     1      -6.216 -11.332  -6.438  1.00  0.00     0.023 A 
ATOM     80  C   UNL     1      -6.210 -12.483  -7.250  1.00  0.00     0.012 A 
ATOM     81  C   UNL     1      -5.492 -11.342  -5.230  1.00  0.00     0.148 A 
ATOM     82  C   UNL     1      -5.532 -13.635  -6.848  1.00  0.00     0.002 A 
ATOM     83  C   UNL     1      -4.771 -12.473  -4.864  1.00  0.00     0.091 A 
ATOM     84  F   UNL     1      -5.522 -10.243  -4.463  1.00  0.00    -0.205 F 
ATOM     85  C   UNL     1      -4.806 -13.627  -5.661  1.00  0.00     0.022 A 
BRANCH  83  86
ATOM     86  S   UNL     1      -3.713 -12.516  -3.414  1.00  0.00     0.127 S 
ATOM     87  O   UNL     1      -4.415 -13.472  -2.561  1.00  0.00    -0.237 OA
ATOM     88  O   UNL     1      -2.454 -13.003  -3.979  1.00  0.00    -0.237 OA
ATOM     89  O   UNL     1      -3.665 -11.147  -2.921  1.00  0.00    -0.744 OA
ENDBRANCH  83  86
ENDBRANCH  55  79
BRANCH  67  90
ATOM     90  C   UNL     1     -13.033 -10.209  -7.443  1.00  0.00     0.023 A 
ATOM     91  C   UNL     1     -13.501 -10.637  -6.185  1.00  0.00     0.012 A 
ATOM     92  C   UNL     1     -13.751 -10.564  -8.603  1.00  0.00     0.148 A 
ATOM     93  C   UNL     1     -14.641 -11.434  -6.086  1.00  0.00     0.002 A 
ATOM     94  C   UNL     1     -14.916 -11.312  -8.493  1.00  0.00     0.091 A 
ATOM     95  F   UNL     1     -13.282 -10.159  -9.793  1.00  0.00    -0.205 F 
ATOM     96  C   UNL     1     -15.354 -11.761  -7.237  1.00  0.00     0.022 A 
BRANCH  94  97
ATOM     97  S   UNL     1     -15.955 -11.696  -9.908  1.00  0.00     0.127 S 
ATOM     98  O   UNL     1     -15.750 -13.137 -10.046  1.00  0.00    -0.237 OA
ATOM     99  O   UNL     1     -17.283 -11.311  -9.429  1.00  0.00    -0.237 OA
ATOM    100  O   UNL     1     -15.451 -10.887 -11.010  1.00  0.00    -0.744 OA
ENDBRANCH  94  97
ENDBRANCH  67  90
ENDBRANCH  41  42
ENDBRANCH  34  36
ENDBRANCH  33  34
ENDBRANCH  32  33
ENDBRANCH  31  32
ENDBRANCH  30  31
ENDBRANCH  29  30
ENDBRANCH  28  29
ENDBRANCH   1  28
TORSDOF 26
