REMARK SMILES C=CCn1nc(C(=O)OCCOCCOCCOCCOC(=O)c2ccc(-c3c4nc(c(-c5cccc(S(=O)(=O)[O-])c5F)c5ccc([nH]5)c(-c5cccc(S(=O)(=O)[O-])c5F)c5nc(c(-c6cccc(S(=O)(=O)[O-])c6F)c6ccc3[nH]6)C=C5)C=C4)cc2)c2c1CC[C@@H]([NH+]1CCC(C(C)(C)O)CC1)C2
REMARK SMILES IDX 15 1 14 2 13 3 12 4 11 5 10 6 9 7 7 8 8 9 6 10 4 11 5 12
REMARK SMILES IDX 88 13 87 14 89 15 102 16 90 17 91 18 3 19 2 20 1 21 92 22
REMARK SMILES IDX 93 23 101 24 94 26 100 27 95 28 96 29 97 30 98 31 99 32
REMARK SMILES IDX 16 34 17 35 18 36 19 37 20 38 21 39 22 40 23 41 24 42 25 43
REMARK SMILES IDX 86 44 26 45 85 46 27 47 28 48 29 49 79 50 30 51 84 52 78 53
REMARK SMILES IDX 80 54 31 55 83 56 77 57 76 58 32 60 64 61 44 62 63 63 45 64
REMARK SMILES IDX 48 65 62 66 81 67 46 68 47 69 61 71 82 72 49 73 33 74 34 75
REMARK SMILES IDX 42 76 35 77 37 78 43 79 36 80 38 81 39 82 40 83 41 84 65 85
REMARK SMILES IDX 66 86 74 87 67 88 69 89 75 90 68 91 70 92 71 93 72 94 73 95
REMARK SMILES IDX 50 96 51 97 59 98 52 99 54 100 60 101 53 102 55 103 56 104
REMARK SMILES IDX 57 105 58 106
REMARK H PARENT 92 25 99 33 80 59 48 70
REMARK Flexibility Score: inf
ROOT
ATOM      1  O   UNL     1      -5.090   6.629  -0.408  1.00  0.00    -0.377 OA
ENDROOT
BRANCH   1   2
ATOM      2  C   UNL     1      -5.201   5.250  -0.125  1.00  0.00     0.188 C 
BRANCH   2   3
ATOM      3  C   UNL     1      -5.672   4.736   1.252  1.00  0.00     0.188 C 
BRANCH   3   4
ATOM      4  O   UNL     1      -6.303   5.655   2.112  1.00  0.00    -0.376 OA
BRANCH   4   5
ATOM      5  C   UNL     1      -5.681   6.408   3.122  1.00  0.00     0.202 C 
BRANCH   5   6
ATOM      6  C   UNL     1      -4.189   6.723   3.202  1.00  0.00     0.261 C 
BRANCH   6   7
ATOM      7  O   UNL     1      -3.343   6.005   2.327  1.00  0.00    -0.458 OA
BRANCH   7   8
ATOM      8  C   UNL     1      -2.958   4.761   2.727  1.00  0.00     0.359 C 
ATOM      9  O   UNL     1      -3.294   4.243   3.784  1.00  0.00    -0.244 OA
BRANCH   8  10
ATOM     10  C   UNL     1      -2.142   4.129   1.686  1.00  0.00     0.174 A 
ATOM     11  N   UNL     1      -1.075   2.643   0.587  1.00  0.00    -0.265 N 
ATOM     12  N   UNL     1      -1.950   2.792   1.611  1.00  0.00    -0.165 NA
ATOM     13  C   UNL     1      -0.557   3.847   0.208  1.00  0.00     0.043 A 
ATOM     14  C   UNL     1      -1.464   4.787   0.626  1.00  0.00     0.014 A 
ATOM     15  C   UNL     1       0.667   4.126  -0.558  1.00  0.00     0.062 C 
ATOM     16  C   UNL     1      -1.467   6.196   0.126  1.00  0.00     0.105 C 
ATOM     17  C   UNL     1       0.807   5.634  -0.809  1.00  0.00     0.072 C 
ATOM     18  C   UNL     1      -0.513   6.391  -1.105  1.00  0.00     0.189 C 
BRANCH  11  19
ATOM     19  C   UNL     1      -1.019   1.373  -0.140  1.00  0.00     0.171 C 
BRANCH  19  20
ATOM     20  C   UNL     1       0.367   0.851  -0.382  1.00  0.00    -0.011 C 
ATOM     21  C   UNL     1       0.888  -0.237   0.198  1.00  0.00     0.006 C 
ENDBRANCH  19  20
ENDBRANCH  11  19
BRANCH  18  22
ATOM     22  N   UNL     1      -1.170   6.255  -2.422  1.00  0.00    -0.332 N 
ATOM     23  C   UNL     1      -1.802   5.022  -2.848  1.00  0.00     0.262 C 
ATOM     24  C   UNL     1      -0.507   6.885  -3.558  1.00  0.00     0.262 C 
ATOM     25  H   UNL     1      -1.963   6.815  -2.109  1.00  0.00     0.348 HD
ATOM     26  C   UNL     1      -0.894   4.011  -3.556  1.00  0.00     0.068 C 
ATOM     27  C   UNL     1       0.623   6.051  -4.146  1.00  0.00     0.068 C 
ATOM     28  C   UNL     1       0.309   4.553  -4.376  1.00  0.00     0.031 C 
BRANCH  28  29
ATOM     29  C   UNL     1       1.617   3.673  -4.274  1.00  0.00     0.062 C 
ATOM     30  C   UNL     1       1.355   2.166  -4.378  1.00  0.00     0.042 C 
ATOM     31  C   UNL     1       2.644   4.080  -5.340  1.00  0.00     0.042 C 
BRANCH  29  32
ATOM     32  O   UNL     1       2.261   3.883  -3.011  1.00  0.00    -0.390 OA
ATOM     33  H   UNL     1       1.653   3.641  -2.295  1.00  0.00     0.211 HD
ENDBRANCH  29  32
ENDBRANCH  28  29
ENDBRANCH  18  22
ENDBRANCH   8  10
ENDBRANCH   7   8
ENDBRANCH   6   7
ENDBRANCH   5   6
ENDBRANCH   4   5
ENDBRANCH   3   4
ENDBRANCH   2   3
ENDBRANCH   1   2
BRANCH   1  34
ATOM     34  C   UNL     1      -6.099   7.553  -0.041  1.00  0.00     0.188 C 
BRANCH  34  35
ATOM     35  C   UNL     1      -7.591   7.176   0.141  1.00  0.00     0.188 C 
BRANCH  35  36
ATOM     36  O   UNL     1      -7.911   5.801   0.136  1.00  0.00    -0.376 OA
BRANCH  36  37
ATOM     37  C   UNL     1      -8.456   5.092  -0.954  1.00  0.00     0.202 C 
BRANCH  37  38
ATOM     38  C   UNL     1      -8.001   5.311  -2.389  1.00  0.00     0.261 C 
BRANCH  38  39
ATOM     39  O   UNL     1      -7.381   6.551  -2.619  1.00  0.00    -0.460 OA
BRANCH  39  40
ATOM     40  C   UNL     1      -8.260   7.562  -2.756  1.00  0.00     0.338 C 
ATOM     41  O   UNL     1      -9.443   7.554  -2.474  1.00  0.00    -0.246 OA
BRANCH  40  42
ATOM     42  C   UNL     1      -7.571   8.658  -3.433  1.00  0.00     0.060 A 
ATOM     43  C   UNL     1      -8.319   9.823  -3.574  1.00  0.00     0.016 A 
ATOM     44  C   UNL     1      -6.477   8.339  -4.255  1.00  0.00     0.016 A 
ATOM     45  C   UNL     1      -8.174  10.511  -4.747  1.00  0.00     0.010 A 
ATOM     46  C   UNL     1      -6.346   9.018  -5.433  1.00  0.00     0.010 A 
ATOM     47  C   UNL     1      -7.274  10.016  -5.700  1.00  0.00    -0.014 A 
BRANCH  47  48
ATOM     48  C   UNL     1      -7.284  10.648  -6.990  1.00  0.00     0.031 A 
ATOM     49  C   UNL     1      -6.679  11.989  -6.932  1.00  0.00     0.074 A 
ATOM     50  C   UNL     1      -7.769  10.039  -8.085  1.00  0.00     0.049 A 
ATOM     51  N   UNL     1      -7.296  13.119  -6.998  1.00  0.00    -0.248 NA
ATOM     52  C   UNL     1      -5.273  12.083  -6.511  1.00  0.00     0.031 C 
ATOM     53  C   UNL     1      -8.124   8.630  -8.269  1.00  0.00     0.029 A 
ATOM     54  N   UNL     1      -7.906  10.555  -9.331  1.00  0.00    -0.354 N 
ATOM     55  C   UNL     1      -6.295  14.073  -6.887  1.00  0.00     0.074 A 
ATOM     56  C   UNL     1      -5.142  13.399  -6.353  1.00  0.00     0.031 C 
ATOM     57  C   UNL     1      -8.156   8.360  -9.595  1.00  0.00     0.029 A 
ATOM     58  C   UNL     1      -7.947   9.595 -10.333  1.00  0.00     0.049 A 
ATOM     59  H   UNL     1      -7.971  11.521  -9.509  1.00  0.00     0.167 HD
ATOM     60  C   UNL     1      -6.401  15.261  -7.535  1.00  0.00     0.034 A 
ATOM     61  C   UNL     1      -7.691   9.816 -11.647  1.00  0.00     0.034 A 
ATOM     62  C   UNL     1      -7.763  15.537  -7.918  1.00  0.00     0.049 A 
ATOM     63  C   UNL     1      -7.858  11.275 -11.887  1.00  0.00     0.074 A 
ATOM     64  C   UNL     1      -8.958  15.625  -7.231  1.00  0.00     0.029 A 
ATOM     65  N   UNL     1      -8.099  15.340  -9.237  1.00  0.00    -0.354 N 
ATOM     66  N   UNL     1      -9.005  11.890 -11.788  1.00  0.00    -0.248 NA
ATOM     67  C   UNL     1      -6.681  12.122 -11.752  1.00  0.00     0.031 C 
ATOM     68  C   UNL     1      -9.914  14.989  -8.076  1.00  0.00     0.029 A 
ATOM     69  C   UNL     1      -9.268  14.623  -9.258  1.00  0.00     0.049 A 
ATOM     70  H   UNL     1      -7.594  15.655 -10.021  1.00  0.00     0.167 HD
ATOM     71  C   UNL     1      -8.706  13.074 -11.124  1.00  0.00     0.074 A 
ATOM     72  C   UNL     1      -7.251  13.204 -11.213  1.00  0.00     0.031 C 
ATOM     73  C   UNL     1      -9.613  13.679 -10.300  1.00  0.00     0.034 A 
BRANCH  60  74
ATOM     74  C   UNL     1      -5.227  15.963  -8.162  1.00  0.00     0.023 A 
ATOM     75  C   UNL     1      -5.434  17.274  -8.633  1.00  0.00     0.012 A 
ATOM     76  C   UNL     1      -4.025  15.321  -8.547  1.00  0.00     0.148 A 
ATOM     77  C   UNL     1      -4.508  17.899  -9.474  1.00  0.00     0.002 A 
ATOM     78  C   UNL     1      -3.067  15.979  -9.303  1.00  0.00     0.091 A 
ATOM     79  F   UNL     1      -3.851  14.017  -8.313  1.00  0.00    -0.205 F 
ATOM     80  C   UNL     1      -3.318  17.258  -9.799  1.00  0.00     0.022 A 
BRANCH  78  81
ATOM     81  S   UNL     1      -1.492  15.208  -9.695  1.00  0.00     0.127 S 
ATOM     82  O   UNL     1      -1.664  14.893 -11.110  1.00  0.00    -0.237 OA
ATOM     83  O   UNL     1      -0.551  16.291  -9.408  1.00  0.00    -0.237 OA
ATOM     84  O   UNL     1      -1.379  14.068  -8.793  1.00  0.00    -0.744 OA
ENDBRANCH  78  81
ENDBRANCH  60  74
BRANCH  61  85
ATOM     85  C   UNL     1      -6.983   8.931 -12.606  1.00  0.00     0.023 A 
ATOM     86  C   UNL     1      -7.078   9.179 -13.990  1.00  0.00     0.012 A 
ATOM     87  C   UNL     1      -6.005   8.009 -12.167  1.00  0.00     0.148 A 
ATOM     88  C   UNL     1      -6.219   8.547 -14.900  1.00  0.00     0.002 A 
ATOM     89  C   UNL     1      -5.165   7.370 -13.074  1.00  0.00     0.091 A 
ATOM     90  F   UNL     1      -5.828   7.827 -10.852  1.00  0.00    -0.205 F 
ATOM     91  C   UNL     1      -5.261   7.645 -14.442  1.00  0.00     0.022 A 
BRANCH  89  92
ATOM     92  S   UNL     1      -3.903   6.203 -12.543  1.00  0.00     0.127 S 
ATOM     93  O   UNL     1      -4.105   5.091 -13.473  1.00  0.00    -0.237 OA
ATOM     94  O   UNL     1      -2.675   6.964 -12.757  1.00  0.00    -0.237 OA
ATOM     95  O   UNL     1      -4.214   5.882 -11.155  1.00  0.00    -0.744 OA
ENDBRANCH  89  92
ENDBRANCH  61  85
BRANCH  73  96
ATOM     96  C   UNL     1     -11.031  13.162 -10.283  1.00  0.00     0.023 A 
ATOM     97  C   UNL     1     -11.357  11.849  -9.880  1.00  0.00     0.012 A 
ATOM     98  C   UNL     1     -12.073  14.082 -10.489  1.00  0.00     0.148 A 
ATOM     99  C   UNL     1     -12.689  11.460  -9.706  1.00  0.00     0.002 A 
ATOM    100  C   UNL     1     -13.393  13.707 -10.268  1.00  0.00     0.091 A 
ATOM    101  F   UNL     1     -11.750  15.329 -10.866  1.00  0.00    -0.205 F 
ATOM    102  C   UNL     1     -13.707  12.394  -9.885  1.00  0.00     0.022 A 
BRANCH 100 103
ATOM    103  S   UNL     1     -14.732  14.898 -10.358  1.00  0.00     0.127 S 
ATOM    104  O   UNL     1     -15.374  14.539 -11.620  1.00  0.00    -0.237 OA
ATOM    105  O   UNL     1     -15.514  14.583  -9.162  1.00  0.00    -0.237 OA
ATOM    106  O   UNL     1     -14.102  16.213 -10.325  1.00  0.00    -0.744 OA
ENDBRANCH 100 103
ENDBRANCH  73  96
ENDBRANCH  47  48
ENDBRANCH  40  42
ENDBRANCH  39  40
ENDBRANCH  38  39
ENDBRANCH  37  38
ENDBRANCH  36  37
ENDBRANCH  35  36
ENDBRANCH  34  35
ENDBRANCH   1  34
TORSDOF 28
