REMARK SMILES COc1ccc2c(c1)c(CC(=O)OCCOCCOCCOCCOC(=O)c1ccc(-c3c4nc(c(-c5cccc(S(=O)(=O)[O-])c5F)c5ccc([nH]5)c(-c5cccc(S(=O)(=O)[O-])c5F)c5nc(c(-c6cccc(S(=O)(=O)[O-])c6F)c6ccc3[nH]6)C=C5)C=C4)cc1)c(C)n2C(=O)c1ccc(Cl)cc1
REMARK SMILES IDX 19 1 18 2 17 3 16 4 15 5 14 6 13 7 11 8 12 9 10 10 9 11 3 12
REMARK SMILES IDX 4 13 8 14 5 15 7 16 6 17 93 18 91 19 92 20 2 21 1 22 94 23
REMARK SMILES IDX 95 24 96 25 97 26 102 27 98 28 101 29 99 30 100 31 20 32
REMARK SMILES IDX 21 33 22 34 23 35 24 36 25 37 26 38 27 39 28 40 29 41 90 42
REMARK SMILES IDX 30 43 89 44 31 45 32 46 33 47 83 48 34 49 88 50 82 51 84 52
REMARK SMILES IDX 35 53 87 54 81 55 80 56 36 58 68 59 48 60 67 61 49 62 52 63
REMARK SMILES IDX 66 64 85 65 50 66 51 67 65 69 86 70 53 71 37 72 38 73 46 74
REMARK SMILES IDX 39 75 41 76 47 77 40 78 42 79 43 80 44 81 45 82 69 83 70 84
REMARK SMILES IDX 78 85 71 86 73 87 79 88 72 89 74 90 75 91 76 92 77 93 54 94
REMARK SMILES IDX 55 95 63 96 56 97 58 98 64 99 57 100 59 101 60 102 61 103
REMARK SMILES IDX 62 104
REMARK H PARENT 84 57 52 68
REMARK Flexibility Score: inf
ROOT
ATOM      1  O   UNL     1       0.030   3.234   2.916  1.00  0.00    -0.377 OA
ENDROOT
BRANCH   1   2
ATOM      2  C   UNL     1      -1.080   2.525   3.396  1.00  0.00     0.188 C 
BRANCH   2   3
ATOM      3  C   UNL     1      -2.478   2.702   2.811  1.00  0.00     0.188 C 
BRANCH   3   4
ATOM      4  O   UNL     1      -3.493   3.146   3.712  1.00  0.00    -0.376 OA
BRANCH   4   5
ATOM      5  C   UNL     1      -3.265   4.372   4.392  1.00  0.00     0.202 C 
BRANCH   5   6
ATOM      6  C   UNL     1      -2.892   4.180   5.877  1.00  0.00     0.261 C 
BRANCH   6   7
ATOM      7  O   UNL     1      -2.184   2.946   6.166  1.00  0.00    -0.463 OA
BRANCH   7   8
ATOM      8  C   UNL     1      -2.956   1.835   6.277  1.00  0.00     0.310 C 
ATOM      9  O   UNL     1      -4.185   1.870   6.335  1.00  0.00    -0.252 OA
BRANCH   8  10
ATOM     10  C   UNL     1      -2.231   0.495   6.335  1.00  0.00     0.160 C 
BRANCH  10  11
ATOM     11  C   UNL     1      -0.732   0.359   6.120  1.00  0.00    -0.008 A 
ATOM     12  C   UNL     1       0.342  -0.926   2.658  1.00  0.00     0.119 A 
ATOM     13  C   UNL     1       1.703  -0.848   2.880  1.00  0.00     0.048 A 
ATOM     14  C   UNL     1      -0.544  -0.700   3.722  1.00  0.00     0.057 A 
ATOM     15  C   UNL     1       2.193  -0.472   4.131  1.00  0.00     0.031 A 
ATOM     16  C   UNL     1      -0.076  -0.193   4.967  1.00  0.00     0.008 A 
ATOM     17  C   UNL     1       1.307  -0.109   5.171  1.00  0.00     0.057 A 
ATOM     18  N   UNL     1       1.528   0.333   6.490  1.00  0.00    -0.280 N 
ATOM     19  C   UNL     1       0.269   0.616   7.055  1.00  0.00     0.028 A 
ATOM     20  C   UNL     1       0.050   1.125   8.447  1.00  0.00     0.065 C 
BRANCH  12  21
ATOM     21  O   UNL     1      -0.231  -1.171   1.438  1.00  0.00    -0.497 OA
ATOM     22  C   UNL     1       0.561  -0.847   0.295  1.00  0.00     0.278 C 
ENDBRANCH  12  21
BRANCH  18  23
ATOM     23  C   UNL     1       2.803   0.425   7.131  1.00  0.00     0.262 C 
ATOM     24  O   UNL     1       2.867   0.675   8.333  1.00  0.00    -0.268 OA
BRANCH  23  25
ATOM     25  C   UNL     1       4.105   0.186   6.483  1.00  0.00     0.040 A 
ATOM     26  C   UNL     1       4.697   1.188   5.706  1.00  0.00     0.015 A 
ATOM     27  C   UNL     1       4.729  -1.058   6.645  1.00  0.00     0.015 A 
ATOM     28  C   UNL     1       5.893   0.916   5.033  1.00  0.00     0.021 A 
ATOM     29  C   UNL     1       5.925  -1.321   5.973  1.00  0.00     0.021 A 
ATOM     30  C   UNL     1       6.495  -0.338   5.161  1.00  0.00     0.041 A 
ATOM     31  Cl  UNL     1       7.942  -0.684   4.295  1.00  0.00    -0.084 Cl
ENDBRANCH  23  25
ENDBRANCH  18  23
ENDBRANCH  10  11
ENDBRANCH   8  10
ENDBRANCH   7   8
ENDBRANCH   6   7
ENDBRANCH   5   6
ENDBRANCH   4   5
ENDBRANCH   3   4
ENDBRANCH   2   3
ENDBRANCH   1   2
BRANCH   1  32
ATOM     32  C   UNL     1      -0.109   4.597   2.651  1.00  0.00     0.188 C 
BRANCH  32  33
ATOM     33  C   UNL     1      -0.466   4.905   1.197  1.00  0.00     0.188 C 
BRANCH  33  34
ATOM     34  O   UNL     1       0.005   4.100   0.111  1.00  0.00    -0.376 OA
BRANCH  34  35
ATOM     35  C   UNL     1       0.825   2.961   0.330  1.00  0.00     0.202 C 
BRANCH  35  36
ATOM     36  C   UNL     1       2.324   3.232   0.554  1.00  0.00     0.261 C 
BRANCH  36  37
ATOM     37  O   UNL     1       2.575   4.228   1.548  1.00  0.00    -0.460 OA
BRANCH  37  38
ATOM     38  C   UNL     1       3.322   5.299   1.185  1.00  0.00     0.338 C 
ATOM     39  O   UNL     1       4.073   5.399   0.229  1.00  0.00    -0.246 OA
BRANCH  38  40
ATOM     40  C   UNL     1       2.812   6.416   2.000  1.00  0.00     0.060 A 
ATOM     41  C   UNL     1       2.825   6.338   3.398  1.00  0.00     0.016 A 
ATOM     42  C   UNL     1       2.006   7.348   1.332  1.00  0.00     0.016 A 
ATOM     43  C   UNL     1       1.917   7.109   4.118  1.00  0.00     0.010 A 
ATOM     44  C   UNL     1       1.087   8.101   2.056  1.00  0.00     0.010 A 
ATOM     45  C   UNL     1       1.008   7.942   3.442  1.00  0.00    -0.014 A 
BRANCH  45  46
ATOM     46  C   UNL     1       0.158   8.819   4.249  1.00  0.00     0.031 A 
ATOM     47  C   UNL     1       0.940   9.876   4.939  1.00  0.00     0.074 A 
ATOM     48  C   UNL     1      -1.189   8.867   4.264  1.00  0.00     0.049 A 
ATOM     49  N   UNL     1       1.047  10.099   6.208  1.00  0.00    -0.248 NA
ATOM     50  C   UNL     1       1.813  10.702   4.090  1.00  0.00     0.031 C 
ATOM     51  C   UNL     1      -2.121   8.145   3.400  1.00  0.00     0.029 A 
ATOM     52  N   UNL     1      -2.006   9.710   4.974  1.00  0.00    -0.354 N 
ATOM     53  C   UNL     1       1.857  11.225   6.300  1.00  0.00     0.074 A 
ATOM     54  C   UNL     1       2.438  11.441   4.999  1.00  0.00     0.031 C 
ATOM     55  C   UNL     1      -3.333   8.740   3.468  1.00  0.00     0.029 A 
ATOM     56  C   UNL     1      -3.279   9.835   4.423  1.00  0.00     0.049 A 
ATOM     57  H   UNL     1      -1.721  10.180   5.790  1.00  0.00     0.167 HD
ATOM     58  C   UNL     1       1.833  12.070   7.361  1.00  0.00     0.034 A 
ATOM     59  C   UNL     1      -4.166  10.838   4.648  1.00  0.00     0.034 A 
ATOM     60  C   UNL     1       1.196  11.523   8.518  1.00  0.00     0.049 A 
ATOM     61  C   UNL     1      -3.788  11.495   5.924  1.00  0.00     0.074 A 
ATOM     62  C   UNL     1       1.392  10.408   9.306  1.00  0.00     0.029 A 
ATOM     63  N   UNL     1      -0.050  12.004   8.835  1.00  0.00    -0.354 N 
ATOM     64  N   UNL     1      -3.876  10.933   7.098  1.00  0.00    -0.248 NA
ATOM     65  C   UNL     1      -2.990  12.710   5.873  1.00  0.00     0.031 C 
ATOM     66  C   UNL     1       0.090  10.022   9.733  1.00  0.00     0.029 A 
ATOM     67  C   UNL     1      -0.819  10.923   9.175  1.00  0.00     0.049 A 
ATOM     68  H   UNL     1      -0.335  12.946   8.822  1.00  0.00     0.167 HD
ATOM     69  C   UNL     1      -2.831  11.479   7.830  1.00  0.00     0.074 A 
ATOM     70  C   UNL     1      -2.408  12.651   7.073  1.00  0.00     0.031 C 
ATOM     71  C   UNL     1      -2.216  10.774   8.824  1.00  0.00     0.034 A 
BRANCH  58  72
ATOM     72  C   UNL     1       2.119  13.532   7.213  1.00  0.00     0.023 A 
ATOM     73  C   UNL     1       2.548  14.260   8.336  1.00  0.00     0.012 A 
ATOM     74  C   UNL     1       1.785  14.258   6.047  1.00  0.00     0.148 A 
ATOM     75  C   UNL     1       2.669  15.652   8.285  1.00  0.00     0.002 A 
ATOM     76  C   UNL     1       2.005  15.623   5.970  1.00  0.00     0.091 A 
ATOM     77  F   UNL     1       1.141  13.644   5.044  1.00  0.00    -0.205 F 
ATOM     78  C   UNL     1       2.428  16.332   7.094  1.00  0.00     0.022 A 
BRANCH  76  79
ATOM     79  S   UNL     1       1.804  16.483   4.409  1.00  0.00     0.127 S 
ATOM     80  O   UNL     1       0.431  16.965   4.509  1.00  0.00    -0.237 OA
ATOM     81  O   UNL     1       2.835  17.519   4.491  1.00  0.00    -0.237 OA
ATOM     82  O   UNL     1       2.068  15.466   3.397  1.00  0.00    -0.744 OA
ENDBRANCH  76  79
ENDBRANCH  58  72
BRANCH  59  83
ATOM     83  C   UNL     1      -5.197  11.412   3.737  1.00  0.00     0.023 A 
ATOM     84  C   UNL     1      -6.184  12.281   4.250  1.00  0.00     0.012 A 
ATOM     85  C   UNL     1      -5.104  11.302   2.331  1.00  0.00     0.148 A 
ATOM     86  C   UNL     1      -7.028  13.014   3.400  1.00  0.00     0.002 A 
ATOM     87  C   UNL     1      -5.973  11.996   1.492  1.00  0.00     0.091 A 
ATOM     88  F   UNL     1      -4.099  10.600   1.791  1.00  0.00    -0.205 F 
ATOM     89  C   UNL     1      -6.928  12.866   2.020  1.00  0.00     0.022 A 
BRANCH  87  90
ATOM     90  S   UNL     1      -5.890  11.778  -0.292  1.00  0.00     0.127 S 
ATOM     91  O   UNL     1      -7.284  11.958  -0.700  1.00  0.00    -0.237 OA
ATOM     92  O   UNL     1      -4.990  12.853  -0.694  1.00  0.00    -0.237 OA
ATOM     93  O   UNL     1      -5.393  10.418  -0.478  1.00  0.00    -0.744 OA
ENDBRANCH  87  90
ENDBRANCH  59  83
BRANCH  71  94
ATOM     94  C   UNL     1      -2.879   9.527   9.348  1.00  0.00     0.023 A 
ATOM     95  C   UNL     1      -3.038   8.386   8.534  1.00  0.00     0.012 A 
ATOM     96  C   UNL     1      -3.101   9.419  10.733  1.00  0.00     0.148 A 
ATOM     97  C   UNL     1      -3.410   7.162   9.091  1.00  0.00     0.002 A 
ATOM     98  C   UNL     1      -3.426   8.188  11.288  1.00  0.00     0.091 A 
ATOM     99  F   UNL     1      -2.921  10.513  11.489  1.00  0.00    -0.205 F 
ATOM    100  C   UNL     1      -3.587   7.058  10.469  1.00  0.00     0.022 A 
BRANCH  98 101
ATOM    101  S   UNL     1      -3.534   7.936  13.062  1.00  0.00     0.127 S 
ATOM    102  O   UNL     1      -4.927   7.526  13.230  1.00  0.00    -0.237 OA
ATOM    103  O   UNL     1      -2.552   6.872  13.280  1.00  0.00    -0.237 OA
ATOM    104  O   UNL     1      -3.188   9.211  13.678  1.00  0.00    -0.744 OA
ENDBRANCH  98 101
ENDBRANCH  71  94
ENDBRANCH  45  46
ENDBRANCH  38  40
ENDBRANCH  37  38
ENDBRANCH  36  37
ENDBRANCH  35  36
ENDBRANCH  34  35
ENDBRANCH  33  34
ENDBRANCH  32  33
ENDBRANCH   1  32
TORSDOF 27
