REMARK SMILES O=C(C[C@H]1C[C@H]2CC[C@@H](C1)N2C(=O)c1c[nH]c(=O)[nH]1)OCCOCCOCCOCCOC(=O)c1ccc(-c2c3nc(c(-c4cccc(S(=O)(=O)[O-])c4F)c4ccc([nH]4)c(-c4cccc(S(=O)(=O)[O-])c4F)c4nc(c(-c5cccc(S(=O)(=O)[O-])c5F)c5ccc2[nH]5)C=C4)C=C3)cc1
REMARK SMILES IDX 26 1 25 2 24 3 23 4 22 5 21 6 20 7 2 8 1 9 3 10 4 11 5 12
REMARK SMILES IDX 10 13 6 14 9 15 7 16 11 17 8 18 12 19 13 20 14 21 15 22
REMARK SMILES IDX 19 23 16 24 17 25 18 28 27 29 28 30 29 31 30 32 31 33 32 34
REMARK SMILES IDX 33 35 34 36 35 37 36 38 97 39 37 40 96 41 38 42 39 43 40 44
REMARK SMILES IDX 90 45 41 46 95 47 89 48 91 49 42 50 94 51 88 52 87 53 43 55
REMARK SMILES IDX 75 56 55 57 74 58 56 59 59 60 73 61 92 62 57 63 58 64 72 66
REMARK SMILES IDX 93 67 60 68 44 69 45 70 53 71 46 72 48 73 54 74 47 75 49 76
REMARK SMILES IDX 50 77 51 78 52 79 76 80 77 81 85 82 78 83 80 84 86 85 79 86
REMARK SMILES IDX 81 87 82 88 83 89 84 90 61 91 62 92 70 93 63 94 65 95 71 96
REMARK SMILES IDX 64 97 66 98 67 99 68 100 69 101
REMARK H PARENT 19 26 16 27 91 54 59 65
REMARK Flexibility Score: inf
ROOT
ATOM      1  O   UNL     1       3.050   0.954   3.666  1.00  0.00    -0.377 OA
ENDROOT
BRANCH   1   2
ATOM      2  C   UNL     1       2.015   0.852   2.697  1.00  0.00     0.188 C 
BRANCH   2   3
ATOM      3  C   UNL     1       2.246  -0.029   1.476  1.00  0.00     0.188 C 
BRANCH   3   4
ATOM      4  O   UNL     1       3.244   0.403   0.559  1.00  0.00    -0.376 OA
BRANCH   4   5
ATOM      5  C   UNL     1       3.324   1.769   0.169  1.00  0.00     0.202 C 
BRANCH   5   6
ATOM      6  C   UNL     1       2.775   2.037  -1.241  1.00  0.00     0.261 C 
BRANCH   6   7
ATOM      7  O   UNL     1       2.939   0.909  -2.120  1.00  0.00    -0.463 OA
BRANCH   7   8
ATOM      8  C   UNL     1       2.166  -0.159  -1.816  1.00  0.00     0.306 C 
ATOM      9  O   UNL     1       0.974  -0.078  -1.535  1.00  0.00    -0.252 OA
BRANCH   8  10
ATOM     10  C   UNL     1       2.957  -1.458  -1.685  1.00  0.00     0.126 C 
BRANCH  10  11
ATOM     11  C   UNL     1       4.397  -1.548  -2.246  1.00  0.00     0.004 C 
ATOM     12  C   UNL     1       5.398  -0.421  -1.871  1.00  0.00     0.029 C 
ATOM     13  C   UNL     1       4.994  -2.973  -2.008  1.00  0.00     0.029 C 
ATOM     14  C   UNL     1       6.492  -0.755  -0.863  1.00  0.00     0.086 C 
ATOM     15  C   UNL     1       6.184  -3.038  -1.027  1.00  0.00     0.086 C 
ATOM     16  C   UNL     1       6.044  -1.196   0.520  1.00  0.00     0.027 C 
ATOM     17  N   UNL     1       7.114  -1.955  -1.335  1.00  0.00    -0.331 N 
ATOM     18  C   UNL     1       5.732  -2.686   0.396  1.00  0.00     0.027 C 
BRANCH  17  19
ATOM     19  C   UNL     1       8.438  -1.949  -1.673  1.00  0.00     0.272 C 
ATOM     20  O   UNL     1       9.152  -0.950  -1.628  1.00  0.00    -0.267 OA
BRANCH  19  21
ATOM     21  C   UNL     1       9.037  -3.234  -2.041  1.00  0.00     0.125 A 
ATOM     22  C   UNL     1       8.609  -4.128  -2.941  1.00  0.00     0.119 A 
ATOM     23  N   UNL     1      10.230  -3.659  -1.513  1.00  0.00    -0.302 N 
ATOM     24  N   UNL     1       9.511  -5.160  -2.973  1.00  0.00    -0.312 N 
ATOM     25  C   UNL     1      10.560  -4.893  -2.074  1.00  0.00     0.323 A 
ATOM     26  H   UNL     1      10.766  -3.172  -0.847  1.00  0.00     0.172 HD
ATOM     27  H   UNL     1       9.436  -5.964  -3.537  1.00  0.00     0.171 HD
ATOM     28  O   UNL     1      11.527  -5.585  -1.844  1.00  0.00    -0.248 OA
ENDBRANCH  19  21
ENDBRANCH  17  19
ENDBRANCH  10  11
ENDBRANCH   8  10
ENDBRANCH   7   8
ENDBRANCH   6   7
ENDBRANCH   5   6
ENDBRANCH   4   5
ENDBRANCH   3   4
ENDBRANCH   2   3
ENDBRANCH   1   2
BRANCH   1  29
ATOM     29  C   UNL     1       4.406   0.804   3.288  1.00  0.00     0.188 C 
BRANCH  29  30
ATOM     30  C   UNL     1       5.112  -0.396   3.945  1.00  0.00     0.188 C 
BRANCH  30  31
ATOM     31  O   UNL     1       4.393  -1.615   4.066  1.00  0.00    -0.376 OA
BRANCH  31  32
ATOM     32  C   UNL     1       3.195  -1.608   4.845  1.00  0.00     0.202 C 
BRANCH  32  33
ATOM     33  C   UNL     1       3.144  -0.906   6.222  1.00  0.00     0.261 C 
BRANCH  33  34
ATOM     34  O   UNL     1       3.406   0.512   6.206  1.00  0.00    -0.460 OA
BRANCH  34  35
ATOM     35  C   UNL     1       4.530   0.933   6.836  1.00  0.00     0.338 C 
ATOM     36  O   UNL     1       5.285   0.246   7.505  1.00  0.00    -0.246 OA
BRANCH  35  37
ATOM     37  C   UNL     1       4.875   2.313   6.417  1.00  0.00     0.060 A 
ATOM     38  C   UNL     1       6.132   2.531   5.828  1.00  0.00     0.016 A 
ATOM     39  C   UNL     1       4.019   3.390   6.649  1.00  0.00     0.016 A 
ATOM     40  C   UNL     1       6.547   3.821   5.492  1.00  0.00     0.010 A 
ATOM     41  C   UNL     1       4.454   4.690   6.349  1.00  0.00     0.010 A 
ATOM     42  C   UNL     1       5.733   4.915   5.803  1.00  0.00    -0.014 A 
BRANCH  42  43
ATOM     43  C   UNL     1       6.315   6.283   5.798  1.00  0.00     0.031 A 
ATOM     44  C   UNL     1       6.863   6.819   7.095  1.00  0.00     0.074 A 
ATOM     45  C   UNL     1       6.366   7.039   4.687  1.00  0.00     0.049 A 
ATOM     46  N   UNL     1       7.374   7.992   7.362  1.00  0.00    -0.248 NA
ATOM     47  C   UNL     1       6.824   5.903   8.247  1.00  0.00     0.031 C 
ATOM     48  C   UNL     1       5.899   6.634   3.364  1.00  0.00     0.029 A 
ATOM     49  N   UNL     1       6.814   8.326   4.508  1.00  0.00    -0.354 N 
ATOM     50  C   UNL     1       7.684   7.969   8.717  1.00  0.00     0.074 A 
ATOM     51  C   UNL     1       7.296   6.669   9.218  1.00  0.00     0.031 C 
ATOM     52  C   UNL     1       6.054   7.666   2.514  1.00  0.00     0.029 A 
ATOM     53  C   UNL     1       6.603   8.812   3.239  1.00  0.00     0.049 A 
ATOM     54  H   UNL     1       7.246   8.851   5.221  1.00  0.00     0.167 HD
ATOM     55  C   UNL     1       8.245   8.937   9.479  1.00  0.00     0.034 A 
ATOM     56  C   UNL     1       6.803  10.046   2.731  1.00  0.00     0.034 A 
ATOM     57  C   UNL     1       8.631  10.230   8.984  1.00  0.00     0.049 A 
ATOM     58  C   UNL     1       7.385  11.127   3.610  1.00  0.00     0.074 A 
ATOM     59  C   UNL     1       9.243  11.264   9.669  1.00  0.00     0.029 A 
ATOM     60  N   UNL     1       8.421  10.676   7.689  1.00  0.00    -0.354 N 
ATOM     61  N   UNL     1       7.768  11.059   4.862  1.00  0.00    -0.248 NA
ATOM     62  C   UNL     1       7.590  12.448   2.996  1.00  0.00     0.031 C 
ATOM     63  C   UNL     1       9.361  12.353   8.799  1.00  0.00     0.029 A 
ATOM     64  C   UNL     1       8.872  11.978   7.558  1.00  0.00     0.049 A 
ATOM     65  H   UNL     1       8.011  10.145   6.968  1.00  0.00     0.167 HD
ATOM     66  C   UNL     1       8.296  12.309   5.172  1.00  0.00     0.074 A 
ATOM     67  C   UNL     1       8.196  13.112   3.971  1.00  0.00     0.031 C 
ATOM     68  C   UNL     1       8.811  12.755   6.346  1.00  0.00     0.034 A 
BRANCH  55  69
ATOM     69  C   UNL     1       8.467   8.630  10.938  1.00  0.00     0.023 A 
ATOM     70  C   UNL     1       9.450   7.695  11.320  1.00  0.00     0.012 A 
ATOM     71  C   UNL     1       7.716   9.288  11.931  1.00  0.00     0.148 A 
ATOM     72  C   UNL     1       9.652   7.386  12.665  1.00  0.00     0.002 A 
ATOM     73  C   UNL     1       7.958   9.014  13.271  1.00  0.00     0.091 A 
ATOM     74  F   UNL     1       6.770  10.157  11.547  1.00  0.00    -0.205 F 
ATOM     75  C   UNL     1       8.913   8.053  13.640  1.00  0.00     0.022 A 
BRANCH  73  76
ATOM     76  S   UNL     1       7.118   9.878  14.602  1.00  0.00     0.127 S 
ATOM     77  O   UNL     1       6.268   8.821  15.150  1.00  0.00    -0.237 OA
ATOM     78  O   UNL     1       8.233  10.272  15.464  1.00  0.00    -0.237 OA
ATOM     79  O   UNL     1       6.410  10.988  13.979  1.00  0.00    -0.744 OA
ENDBRANCH  73  76
ENDBRANCH  55  69
BRANCH  56  80
ATOM     80  C   UNL     1       6.467  10.332   1.306  1.00  0.00     0.023 A 
ATOM     81  C   UNL     1       7.498  10.604   0.386  1.00  0.00     0.012 A 
ATOM     82  C   UNL     1       5.131  10.333   0.858  1.00  0.00     0.148 A 
ATOM     83  C   UNL     1       7.205  10.900  -0.947  1.00  0.00     0.002 A 
ATOM     84  C   UNL     1       4.850  10.572  -0.482  1.00  0.00     0.091 A 
ATOM     85  F   UNL     1       4.163  10.089   1.751  1.00  0.00    -0.205 F 
ATOM     86  C   UNL     1       5.883  10.874  -1.383  1.00  0.00     0.022 A 
BRANCH  84  87
ATOM     87  S   UNL     1       3.193  10.434  -1.162  1.00  0.00     0.127 S 
ATOM     88  O   UNL     1       2.925  11.808  -1.580  1.00  0.00    -0.237 OA
ATOM     89  O   UNL     1       3.398   9.484  -2.256  1.00  0.00    -0.237 OA
ATOM     90  O   UNL     1       2.359   9.933  -0.078  1.00  0.00    -0.744 OA
ENDBRANCH  84  87
ENDBRANCH  56  80
BRANCH  68  91
ATOM     91  C   UNL     1       9.361  14.159   6.391  1.00  0.00     0.023 A 
ATOM     92  C   UNL     1       8.489  15.266   6.344  1.00  0.00     0.012 A 
ATOM     93  C   UNL     1      10.743  14.378   6.563  1.00  0.00     0.148 A 
ATOM     94  C   UNL     1       8.988  16.566   6.431  1.00  0.00     0.002 A 
ATOM     95  C   UNL     1      11.227  15.673   6.704  1.00  0.00     0.091 A 
ATOM     96  F   UNL     1      11.559  13.314   6.591  1.00  0.00    -0.205 F 
ATOM     97  C   UNL     1      10.353  16.769   6.623  1.00  0.00     0.022 A 
BRANCH  95  98
ATOM     98  S   UNL     1      12.953  16.026   7.056  1.00  0.00     0.127 S 
ATOM     99  O   UNL     1      13.393  16.636   5.802  1.00  0.00    -0.237 OA
ATOM    100  O   UNL     1      12.854  16.954   8.183  1.00  0.00    -0.237 OA
ATOM    101  O   UNL     1      13.570  14.747   7.376  1.00  0.00    -0.744 OA
ENDBRANCH  95  98
ENDBRANCH  68  91
ENDBRANCH  42  43
ENDBRANCH  35  37
ENDBRANCH  34  35
ENDBRANCH  33  34
ENDBRANCH  32  33
ENDBRANCH  31  32
ENDBRANCH  30  31
ENDBRANCH  29  30
ENDBRANCH   1  29
TORSDOF 26
