REMARK SMILES C#CC[NH2+]CC(=O)N1CC[C@](CCC)(C(=O)OCCOCCOCCOCCOC(=O)c2ccc(-c3c4nc(c(-c5cccc(S(=O)(=O)[O-])c5F)c5ccc([nH]5)c(-c5cccc(S(=O)(=O)[O-])c5F)c5nc(c(-c6cccc(S(=O)(=O)[O-])c6F)c6ccc3[nH]6)C=C5)C=C4)cc2)C1
REMARK SMILES IDX 22 1 21 2 20 3 19 4 18 5 17 6 15 7 16 8 11 9 8 10 9 11 95 12
REMARK SMILES IDX 10 13 6 14 7 15 5 16 4 17 3 20 2 21 1 22 12 23 13 24 14 25
REMARK SMILES IDX 23 26 24 27 25 28 26 29 27 30 28 31 29 32 30 33 31 34 32 35
REMARK SMILES IDX 33 36 94 37 34 38 93 39 35 40 36 41 37 42 87 43 38 44 92 45
REMARK SMILES IDX 86 46 88 47 39 48 91 49 85 50 84 51 40 53 72 54 52 55 71 56
REMARK SMILES IDX 53 57 56 58 70 59 89 60 54 61 55 62 69 64 90 65 57 66 41 67
REMARK SMILES IDX 42 68 50 69 43 70 45 71 51 72 44 73 46 74 47 75 48 76 49 77
REMARK SMILES IDX 73 78 74 79 82 80 75 81 77 82 83 83 76 84 78 85 79 86 80 87
REMARK SMILES IDX 81 88 58 89 59 90 67 91 60 92 62 93 68 94 61 95 63 96 64 97
REMARK SMILES IDX 65 98 66 99
REMARK H PARENT 4 18 4 19 88 52 56 63
REMARK Flexibility Score: inf
ROOT
ATOM      1  C   UNL     1      -6.642   5.928  -0.726  1.00  0.00     0.188 C 
ENDROOT
BRANCH   1   2
ATOM      2  C   UNL     1      -7.695   5.272   0.155  1.00  0.00     0.188 C 
BRANCH   2   3
ATOM      3  O   UNL     1      -7.857   5.571   1.533  1.00  0.00    -0.376 OA
BRANCH   3   4
ATOM      4  C   UNL     1      -6.900   6.290   2.298  1.00  0.00     0.202 C 
BRANCH   4   5
ATOM      5  C   UNL     1      -5.528   5.661   2.621  1.00  0.00     0.261 C 
BRANCH   5   6
ATOM      6  O   UNL     1      -4.686   5.378   1.484  1.00  0.00    -0.463 OA
BRANCH   6   7
ATOM      7  C   UNL     1      -4.836   4.132   0.998  1.00  0.00     0.314 C 
ATOM      8  O   UNL     1      -5.473   3.267   1.599  1.00  0.00    -0.252 OA
BRANCH   7   9
ATOM      9  C   UNL     1      -4.093   3.829  -0.317  1.00  0.00     0.087 C 
ATOM     10  N   UNL     1      -3.716   1.625  -1.108  1.00  0.00    -0.337 N 
ATOM     11  C   UNL     1      -2.432   2.383  -0.995  1.00  0.00     0.121 C 
ATOM     12  C   UNL     1      -4.789   2.546  -0.863  1.00  0.00     0.138 C 
ATOM     13  C   UNL     1      -2.728   3.316   0.147  1.00  0.00     0.042 C 
BRANCH  10  14
ATOM     14  C   UNL     1      -4.087   0.320  -1.453  1.00  0.00     0.277 C 
ATOM     15  O   UNL     1      -4.760   0.115  -2.469  1.00  0.00    -0.268 OA
BRANCH  14  16
ATOM     16  C   UNL     1      -3.978  -0.820  -0.355  1.00  0.00     0.362 C 
BRANCH  16  17
ATOM     17  N   UNL     1      -2.598  -1.224   0.047  1.00  0.00    -0.328 N 
ATOM     18  H   UNL     1      -2.602  -1.669   0.965  1.00  0.00     0.347 HD
ATOM     19  H   UNL     1      -2.183  -1.904  -0.590  1.00  0.00     0.347 HD
BRANCH  17  20
ATOM     20  C   UNL     1      -1.877   0.020   0.082  1.00  0.00     0.352 C 
BRANCH  20  21
ATOM     21  C   UNL     1      -0.357   0.020   0.082  1.00  0.00    -0.047 C 
ATOM     22  C   UNL     1       0.947   0.020   0.082  1.00  0.00     0.010 C 
ENDBRANCH  20  21
ENDBRANCH  17  20
ENDBRANCH  16  17
ENDBRANCH  14  16
ENDBRANCH  10  14
BRANCH   9  23
ATOM     23  C   UNL     1      -3.745   4.877  -1.475  1.00  0.00     0.020 C 
BRANCH  23  24
ATOM     24  C   UNL     1      -3.910   4.454  -2.972  1.00  0.00    -0.002 C 
ATOM     25  C   UNL     1      -5.288   4.546  -3.605  1.00  0.00     0.004 C 
ENDBRANCH  23  24
ENDBRANCH   9  23
ENDBRANCH   7   9
ENDBRANCH   6   7
ENDBRANCH   5   6
ENDBRANCH   4   5
ENDBRANCH   3   4
ENDBRANCH   2   3
ENDBRANCH   1   2
BRANCH   1  26
ATOM     26  O   UNL     1      -5.823   6.889  -0.108  1.00  0.00    -0.377 OA
BRANCH  26  27
ATOM     27  C   UNL     1      -6.066   8.263  -0.336  1.00  0.00     0.188 C 
BRANCH  27  28
ATOM     28  C   UNL     1      -7.515   8.639  -0.648  1.00  0.00     0.188 C 
BRANCH  28  29
ATOM     29  O   UNL     1      -8.059   7.923  -1.746  1.00  0.00    -0.376 OA
BRANCH  29  30
ATOM     30  C   UNL     1      -7.881   8.392  -3.074  1.00  0.00     0.202 C 
BRANCH  30  31
ATOM     31  C   UNL     1      -6.481   8.694  -3.642  1.00  0.00     0.261 C 
BRANCH  31  32
ATOM     32  O   UNL     1      -5.644   9.630  -2.949  1.00  0.00    -0.460 OA
BRANCH  32  33
ATOM     33  C   UNL     1      -6.158  10.819  -2.592  1.00  0.00     0.338 C 
ATOM     34  O   UNL     1      -7.271  11.251  -2.867  1.00  0.00    -0.246 OA
BRANCH  33  35
ATOM     35  C   UNL     1      -5.237  11.439  -1.621  1.00  0.00     0.060 A 
ATOM     36  C   UNL     1      -5.730  11.807  -0.362  1.00  0.00     0.016 A 
ATOM     37  C   UNL     1      -3.905  11.690  -1.963  1.00  0.00     0.016 A 
ATOM     38  C   UNL     1      -4.919  12.505   0.528  1.00  0.00     0.010 A 
ATOM     39  C   UNL     1      -3.099  12.411  -1.080  1.00  0.00     0.010 A 
ATOM     40  C   UNL     1      -3.627  12.875   0.138  1.00  0.00    -0.014 A 
BRANCH  40  41
ATOM     41  C   UNL     1      -2.955  13.978   0.864  1.00  0.00     0.031 A 
ATOM     42  C   UNL     1      -3.058  15.363   0.281  1.00  0.00     0.074 A 
ATOM     43  C   UNL     1      -2.307  13.769   2.023  1.00  0.00     0.049 A 
ATOM     44  N   UNL     1      -2.542  16.485   0.707  1.00  0.00    -0.248 NA
ATOM     45  C   UNL     1      -3.850  15.500  -0.955  1.00  0.00     0.031 C 
ATOM     46  C   UNL     1      -2.169  12.480   2.697  1.00  0.00     0.029 A 
ATOM     47  N   UNL     1      -1.626  14.648   2.826  1.00  0.00    -0.354 N 
ATOM     48  C   UNL     1      -2.916  17.449  -0.222  1.00  0.00     0.074 A 
ATOM     49  C   UNL     1      -3.688  16.780  -1.244  1.00  0.00     0.031 C 
ATOM     50  C   UNL     1      -1.420  12.647   3.801  1.00  0.00     0.029 A 
ATOM     51  C   UNL     1      -1.006  14.046   3.895  1.00  0.00     0.049 A 
ATOM     52  H   UNL     1      -1.585  15.616   2.654  1.00  0.00     0.167 HD
ATOM     53  C   UNL     1      -2.653  18.776  -0.219  1.00  0.00     0.034 A 
ATOM     54  C   UNL     1      -0.180  14.567   4.824  1.00  0.00     0.034 A 
ATOM     55  C   UNL     1      -1.897  19.437   0.807  1.00  0.00     0.049 A 
ATOM     56  C   UNL     1       0.128  16.043   4.786  1.00  0.00     0.074 A 
ATOM     57  C   UNL     1      -1.596  20.782   0.922  1.00  0.00     0.029 A 
ATOM     58  N   UNL     1      -1.310  18.799   1.889  1.00  0.00    -0.354 N 
ATOM     59  N   UNL     1      -0.302  16.957   3.950  1.00  0.00    -0.248 NA
ATOM     60  C   UNL     1       1.008  16.565   5.841  1.00  0.00     0.031 C 
ATOM     61  C   UNL     1      -0.795  20.952   2.055  1.00  0.00     0.029 A 
ATOM     62  C   UNL     1      -0.641  19.721   2.674  1.00  0.00     0.049 A 
ATOM     63  H   UNL     1      -1.362  17.834   2.071  1.00  0.00     0.167 HD
ATOM     64  C   UNL     1       0.211  18.167   4.408  1.00  0.00     0.074 A 
ATOM     65  C   UNL     1       0.976  17.868   5.601  1.00  0.00     0.031 C 
ATOM     66  C   UNL     1       0.067  19.412   3.889  1.00  0.00     0.034 A 
BRANCH  53  67
ATOM     67  C   UNL     1      -3.192  19.597  -1.361  1.00  0.00     0.023 A 
ATOM     68  C   UNL     1      -4.578  19.836  -1.466  1.00  0.00     0.012 A 
ATOM     69  C   UNL     1      -2.320  20.166  -2.309  1.00  0.00     0.148 A 
ATOM     70  C   UNL     1      -5.090  20.596  -2.517  1.00  0.00     0.002 A 
ATOM     71  C   UNL     1      -2.832  20.964  -3.324  1.00  0.00     0.091 A 
ATOM     72  F   UNL     1      -1.008  19.906  -2.207  1.00  0.00    -0.205 F 
ATOM     73  C   UNL     1      -4.216  21.169  -3.438  1.00  0.00     0.022 A 
BRANCH  71  74
ATOM     74  S   UNL     1      -1.784  21.811  -4.511  1.00  0.00     0.127 S 
ATOM     75  O   UNL     1      -2.112  21.107  -5.750  1.00  0.00    -0.237 OA
ATOM     76  O   UNL     1      -2.288  23.183  -4.438  1.00  0.00    -0.237 OA
ATOM     77  O   UNL     1      -0.418  21.638  -4.040  1.00  0.00    -0.744 OA
ENDBRANCH  71  74
ENDBRANCH  53  67
BRANCH  54  78
ATOM     78  C   UNL     1       0.397  13.696   5.887  1.00  0.00     0.023 A 
ATOM     79  C   UNL     1       0.006  13.878   7.228  1.00  0.00     0.012 A 
ATOM     80  C   UNL     1       1.333  12.692   5.575  1.00  0.00     0.148 A 
ATOM     81  C   UNL     1       0.567  13.102   8.244  1.00  0.00     0.002 A 
ATOM     82  C   UNL     1       1.845  11.885   6.583  1.00  0.00     0.091 A 
ATOM     83  F   UNL     1       1.701  12.544   4.295  1.00  0.00    -0.205 F 
ATOM     84  C   UNL     1       1.480  12.101   7.921  1.00  0.00     0.022 A 
BRANCH  82  85
ATOM     85  S   UNL     1       2.929  10.493   6.248  1.00  0.00     0.127 S 
ATOM     86  O   UNL     1       4.185  10.941   6.845  1.00  0.00    -0.237 OA
ATOM     87  O   UNL     1       2.256   9.410   6.965  1.00  0.00    -0.237 OA
ATOM     88  O   UNL     1       2.939  10.340   4.799  1.00  0.00    -0.744 OA
ENDBRANCH  82  85
ENDBRANCH  54  78
BRANCH  66  89
ATOM     89  C   UNL     1       0.683  20.563   4.642  1.00  0.00     0.023 A 
ATOM     90  C   UNL     1       2.081  20.730   4.673  1.00  0.00     0.012 A 
ATOM     91  C   UNL     1      -0.142  21.526   5.258  1.00  0.00     0.148 A 
ATOM     92  C   UNL     1       2.649  21.814   5.341  1.00  0.00     0.002 A 
ATOM     93  C   UNL     1       0.428  22.634   5.871  1.00  0.00     0.091 A 
ATOM     94  F   UNL     1      -1.470  21.342   5.231  1.00  0.00    -0.205 F 
ATOM     95  C   UNL     1       1.824  22.771   5.928  1.00  0.00     0.022 A 
BRANCH  93  96
ATOM     96  S   UNL     1      -0.558  23.967   6.560  1.00  0.00     0.127 S 
ATOM     97  O   UNL     1      -0.357  23.775   7.995  1.00  0.00    -0.237 OA
ATOM     98  O   UNL     1       0.095  25.153   6.006  1.00  0.00    -0.237 OA
ATOM     99  O   UNL     1      -1.918  23.748   6.086  1.00  0.00    -0.744 OA
ENDBRANCH  93  96
ENDBRANCH  66  89
ENDBRANCH  40  41
ENDBRANCH  33  35
ENDBRANCH  32  33
ENDBRANCH  31  32
ENDBRANCH  30  31
ENDBRANCH  29  30
ENDBRANCH  28  29
ENDBRANCH  27  28
ENDBRANCH  26  27
ENDBRANCH   1  26
TORSDOF 30
