REMARK SMILES C=CCN(CC(=O)OCCOCCOCCOCCOC(=O)c1ccc(-c2c3nc(c(-c4cccc(S(=O)(=O)[O-])c4F)c4ccc([nH]4)c(-c4cccc(S(=O)(=O)[O-])c4F)c4nc(c(-c5cccc(S(=O)(=O)[O-])c5F)c5ccc2[nH]5)C=C4)C=C3)cc1)C(=O)Nc1ccc(OC)cc1OC
REMARK SMILES IDX 13 1 12 2 11 3 10 4 9 5 8 6 6 7 7 8 5 9 4 10 3 11 2 12 1 13
REMARK SMILES IDX 86 14 87 15 88 16 89 18 90 19 96 20 91 21 95 22 92 23 97 24
REMARK SMILES IDX 98 25 93 26 94 27 14 28 15 29 16 30 17 31 18 32 19 33 20 34
REMARK SMILES IDX 21 35 22 36 23 37 24 38 85 39 25 40 84 41 26 42 27 43 28 44
REMARK SMILES IDX 78 45 29 46 83 47 77 48 79 49 30 50 82 51 76 52 75 53 31 55
REMARK SMILES IDX 63 56 43 57 62 58 44 59 47 60 61 61 80 62 45 63 46 64 60 66
REMARK SMILES IDX 81 67 48 68 32 69 33 70 41 71 34 72 36 73 42 74 35 75 37 76
REMARK SMILES IDX 38 77 39 78 40 79 64 80 65 81 73 82 66 83 68 84 74 85 67 86
REMARK SMILES IDX 69 87 70 88 71 89 72 90 49 91 50 92 58 93 51 94 53 95 59 96
REMARK SMILES IDX 52 97 54 98 55 99 56 100 57 101
REMARK H PARENT 88 17 79 54 47 65
REMARK Flexibility Score: inf
ROOT
ATOM      1  C   UNL     1      -5.583   5.293  -0.779  1.00  0.00     0.188 C 
ENDROOT
BRANCH   1   2
ATOM      2  C   UNL     1      -6.212   4.293  -1.745  1.00  0.00     0.188 C 
BRANCH   2   3
ATOM      3  O   UNL     1      -7.090   3.321  -1.185  1.00  0.00    -0.376 OA
BRANCH   3   4
ATOM      4  C   UNL     1      -6.451   2.084  -0.772  1.00  0.00     0.202 C 
BRANCH   4   5
ATOM      5  C   UNL     1      -5.958   1.141  -1.917  1.00  0.00     0.261 C 
BRANCH   5   6
ATOM      6  O   UNL     1      -4.518   0.813  -1.870  1.00  0.00    -0.462 OA
BRANCH   6   7
ATOM      7  C   UNL     1      -3.958   0.468  -3.072  1.00  0.00     0.325 C 
ATOM      8  O   UNL     1      -4.659   0.195  -4.052  1.00  0.00    -0.250 OA
BRANCH   7   9
ATOM      9  C   UNL     1      -2.372   0.528  -3.259  1.00  0.00     0.244 C 
BRANCH   9  10
ATOM     10  N   UNL     1      -1.218   0.712  -2.315  1.00  0.00    -0.310 N 
BRANCH  10  11
ATOM     11  C   UNL     1      -0.989  -0.460  -1.443  1.00  0.00     0.149 C 
BRANCH  11  12
ATOM     12  C   UNL     1       0.459  -0.851  -1.299  1.00  0.00    -0.013 C 
ATOM     13  C   UNL     1       1.098  -0.926  -0.121  1.00  0.00     0.006 C 
ENDBRANCH  11  12
ENDBRANCH  10  11
BRANCH  10  14
ATOM     14  C   UNL     1      -0.328   1.779  -2.215  1.00  0.00     0.322 C 
ATOM     15  O   UNL     1       0.735   1.723  -1.580  1.00  0.00    -0.248 OA
ATOM     16  N   UNL     1      -0.463   2.993  -2.798  1.00  0.00    -0.304 N 
ATOM     17  H   UNL     1       0.403   3.445  -2.919  1.00  0.00     0.172 HD
BRANCH  16  18
ATOM     18  C   UNL     1      -1.525   3.759  -3.267  1.00  0.00     0.085 A 
ATOM     19  C   UNL     1      -1.264   4.822  -4.137  1.00  0.00     0.034 A 
ATOM     20  C   UNL     1      -2.828   3.474  -2.971  1.00  0.00     0.146 A 
ATOM     21  C   UNL     1      -2.296   5.352  -4.922  1.00  0.00     0.049 A 
ATOM     22  C   UNL     1      -3.786   3.786  -3.935  1.00  0.00     0.095 A 
ATOM     23  C   UNL     1      -3.545   4.746  -4.905  1.00  0.00     0.122 A 
BRANCH  20  24
ATOM     24  O   UNL     1      -3.262   2.837  -1.856  1.00  0.00    -0.494 OA
ATOM     25  C   UNL     1      -2.559   2.959  -0.621  1.00  0.00     0.278 C 
ENDBRANCH  20  24
BRANCH  23  26
ATOM     26  O   UNL     1      -4.458   5.167  -5.830  1.00  0.00    -0.497 OA
ATOM     27  C   UNL     1      -5.624   4.352  -5.973  1.00  0.00     0.278 C 
ENDBRANCH  23  26
ENDBRANCH  16  18
ENDBRANCH  10  14
ENDBRANCH   9  10
ENDBRANCH   7   9
ENDBRANCH   6   7
ENDBRANCH   5   6
ENDBRANCH   4   5
ENDBRANCH   3   4
ENDBRANCH   2   3
ENDBRANCH   1   2
BRANCH   1  28
ATOM     28  O   UNL     1      -4.776   4.610   0.160  1.00  0.00    -0.377 OA
BRANCH  28  29
ATOM     29  C   UNL     1      -5.087   4.848   1.522  1.00  0.00     0.188 C 
BRANCH  29  30
ATOM     30  C   UNL     1      -4.808   6.288   1.970  1.00  0.00     0.188 C 
BRANCH  30  31
ATOM     31  O   UNL     1      -3.590   6.904   1.549  1.00  0.00    -0.376 OA
BRANCH  31  32
ATOM     32  C   UNL     1      -2.399   6.125   1.498  1.00  0.00     0.202 C 
BRANCH  32  33
ATOM     33  C   UNL     1      -1.723   5.818   2.833  1.00  0.00     0.261 C 
BRANCH  33  34
ATOM     34  O   UNL     1      -2.381   4.731   3.502  1.00  0.00    -0.460 OA
BRANCH  34  35
ATOM     35  C   UNL     1      -3.141   5.090   4.556  1.00  0.00     0.338 C 
ATOM     36  O   UNL     1      -3.289   6.212   5.018  1.00  0.00    -0.246 OA
BRANCH  35  37
ATOM     37  C   UNL     1      -3.940   3.939   4.996  1.00  0.00     0.060 A 
ATOM     38  C   UNL     1      -5.328   4.109   5.072  1.00  0.00     0.016 A 
ATOM     39  C   UNL     1      -3.329   2.767   5.446  1.00  0.00     0.016 A 
ATOM     40  C   UNL     1      -6.105   3.143   5.691  1.00  0.00     0.010 A 
ATOM     41  C   UNL     1      -4.109   1.804   6.087  1.00  0.00     0.010 A 
ATOM     42  C   UNL     1      -5.483   2.031   6.271  1.00  0.00    -0.014 A 
BRANCH  42  43
ATOM     43  C   UNL     1      -6.231   1.297   7.310  1.00  0.00     0.031 A 
ATOM     44  C   UNL     1      -6.067   1.742   8.738  1.00  0.00     0.074 A 
ATOM     45  C   UNL     1      -7.073   0.304   6.985  1.00  0.00     0.049 A 
ATOM     46  N   UNL     1      -6.668   1.313   9.814  1.00  0.00    -0.248 NA
ATOM     47  C   UNL     1      -5.093   2.821   8.983  1.00  0.00     0.031 C 
ATOM     48  C   UNL     1      -7.299  -0.199   5.633  1.00  0.00     0.029 A 
ATOM     49  N   UNL     1      -7.880  -0.465   7.778  1.00  0.00    -0.354 N 
ATOM     50  C   UNL     1      -6.129   2.048  10.863  1.00  0.00     0.074 A 
ATOM     51  C   UNL     1      -5.143   2.941  10.300  1.00  0.00     0.031 C 
ATOM     52  C   UNL     1      -8.165  -1.225   5.694  1.00  0.00     0.029 A 
ATOM     53  C   UNL     1      -8.546  -1.447   7.088  1.00  0.00     0.049 A 
ATOM     54  H   UNL     1      -7.974  -0.328   8.749  1.00  0.00     0.167 HD
ATOM     55  C   UNL     1      -6.440   1.996  12.179  1.00  0.00     0.034 A 
ATOM     56  C   UNL     1      -9.360  -2.420   7.541  1.00  0.00     0.034 A 
ATOM     57  C   UNL     1      -7.432   1.114  12.725  1.00  0.00     0.049 A 
ATOM     58  C   UNL     1      -9.707  -2.451   9.005  1.00  0.00     0.074 A 
ATOM     59  C   UNL     1      -7.867   1.007  14.032  1.00  0.00     0.029 A 
ATOM     60  N   UNL     1      -8.134   0.172  11.987  1.00  0.00    -0.354 N 
ATOM     61  N   UNL     1      -9.295  -1.660   9.968  1.00  0.00    -0.248 NA
ATOM     62  C   UNL     1     -10.668  -3.474   9.440  1.00  0.00     0.031 C 
ATOM     63  C   UNL     1      -8.819  -0.018  14.088  1.00  0.00     0.029 A 
ATOM     64  C   UNL     1      -8.993  -0.531  12.812  1.00  0.00     0.049 A 
ATOM     65  H   UNL     1      -8.036   0.025  11.019  1.00  0.00     0.167 HD
ATOM     66  C   UNL     1      -9.966  -2.068  11.115  1.00  0.00     0.074 A 
ATOM     67  C   UNL     1     -10.828  -3.166  10.720  1.00  0.00     0.031 C 
ATOM     68  C   UNL     1      -9.872  -1.591  12.382  1.00  0.00     0.034 A 
BRANCH  55  69
ATOM     69  C   UNL     1      -5.698   2.929  13.099  1.00  0.00     0.023 A 
ATOM     70  C   UNL     1      -5.976   4.311  13.070  1.00  0.00     0.012 A 
ATOM     71  C   UNL     1      -4.722   2.440  13.987  1.00  0.00     0.148 A 
ATOM     72  C   UNL     1      -5.266   5.197  13.881  1.00  0.00     0.002 A 
ATOM     73  C   UNL     1      -4.048   3.324  14.823  1.00  0.00     0.091 A 
ATOM     74  F   UNL     1      -4.444   1.129  13.977  1.00  0.00    -0.205 F 
ATOM     75  C   UNL     1      -4.309   4.702  14.763  1.00  0.00     0.022 A 
BRANCH  73  76
ATOM     76  S   UNL     1      -2.848   2.764  16.037  1.00  0.00     0.127 S 
ATOM     77  O   UNL     1      -1.585   3.090  15.377  1.00  0.00    -0.237 OA
ATOM     78  O   UNL     1      -3.163   3.601  17.196  1.00  0.00    -0.237 OA
ATOM     79  O   UNL     1      -3.114   1.346  16.230  1.00  0.00    -0.744 OA
ENDBRANCH  73  76
ENDBRANCH  55  69
BRANCH  56  80
ATOM     80  C   UNL     1      -9.927  -3.400   6.575  1.00  0.00     0.023 A 
ATOM     81  C   UNL     1     -11.291  -3.342   6.234  1.00  0.00     0.012 A 
ATOM     82  C   UNL     1      -9.096  -4.340   5.934  1.00  0.00     0.148 A 
ATOM     83  C   UNL     1     -11.821  -4.213   5.281  1.00  0.00     0.002 A 
ATOM     84  C   UNL     1      -9.617  -5.166   4.946  1.00  0.00     0.091 A 
ATOM     85  F   UNL     1      -7.802  -4.386   6.284  1.00  0.00    -0.205 F 
ATOM     86  C   UNL     1     -10.983  -5.114   4.628  1.00  0.00     0.022 A 
BRANCH  84  87
ATOM     87  S   UNL     1      -8.587  -6.254   3.955  1.00  0.00     0.127 S 
ATOM     88  O   UNL     1      -9.027  -7.573   4.403  1.00  0.00    -0.237 OA
ATOM     89  O   UNL     1      -8.994  -5.896   2.596  1.00  0.00    -0.237 OA
ATOM     90  O   UNL     1      -7.212  -5.902   4.282  1.00  0.00    -0.744 OA
ENDBRANCH  84  87
ENDBRANCH  56  80
BRANCH  68  91
ATOM     91  C   UNL     1     -10.738  -2.234  13.433  1.00  0.00     0.023 A 
ATOM     92  C   UNL     1     -10.418  -3.520  13.911  1.00  0.00     0.012 A 
ATOM     93  C   UNL     1     -11.818  -1.532  14.002  1.00  0.00     0.148 A 
ATOM     94  C   UNL     1     -11.180  -4.110  14.918  1.00  0.00     0.002 A 
ATOM     95  C   UNL     1     -12.544  -2.107  15.038  1.00  0.00     0.091 A 
ATOM     96  F   UNL     1     -12.120  -0.317  13.520  1.00  0.00    -0.205 F 
ATOM     97  C   UNL     1     -12.234  -3.400  15.489  1.00  0.00     0.022 A 
BRANCH  95  98
ATOM     98  S   UNL     1     -13.850  -1.217  15.892  1.00  0.00     0.127 S 
ATOM     99  O   UNL     1     -15.048  -1.777  15.270  1.00  0.00    -0.237 OA
ATOM    100  O   UNL     1     -13.644  -1.614  17.285  1.00  0.00    -0.237 OA
ATOM    101  O   UNL     1     -13.601   0.194  15.629  1.00  0.00    -0.744 OA
ENDBRANCH  95  98
ENDBRANCH  68  91
ENDBRANCH  42  43
ENDBRANCH  35  37
ENDBRANCH  34  35
ENDBRANCH  33  34
ENDBRANCH  32  33
ENDBRANCH  31  32
ENDBRANCH  30  31
ENDBRANCH  29  30
ENDBRANCH  28  29
ENDBRANCH   1  28
TORSDOF 30
