REMARK SMILES O=C1NC(=O)/C(=C/c2ccc(OCc3cn(-c4ccc(C(=O)OCCOCCOCCOCCOC(=O)c5ccc(-c6c7nc(c(-c8cccc(S(=O)(=O)[O-])c8F)c8ccc([nH]8)c(-c8cccc(S(=O)(=O)[O-])c8F)c8nc(c(-c9cccc(S(=O)(=O)[O-])c9F)c9ccc6[nH]9)C=C8)C=C7)cc5)cc4)nn3)cc2)S1
REMARK SMILES IDX 28 1 27 2 26 3 25 4 24 5 23 6 21 7 22 8 20 9 17 10 18 11
REMARK SMILES IDX 102 12 19 13 101 14 16 15 14 16 15 17 104 18 103 19 13 20
REMARK SMILES IDX 12 21 11 22 8 23 9 24 106 25 10 26 105 27 7 28 1 29 2 30
REMARK SMILES IDX 3 31 107 32 4 33 6 35 5 36 29 37 30 38 31 39 32 40 33 41
REMARK SMILES IDX 34 42 35 43 36 44 37 45 38 46 39 47 100 48 40 49 99 50 41 51
REMARK SMILES IDX 42 52 43 53 93 54 44 55 98 56 92 57 94 58 45 59 97 60 91 61
REMARK SMILES IDX 90 62 46 64 78 65 58 66 77 67 59 68 62 69 76 70 95 71 60 72
REMARK SMILES IDX 61 73 75 75 96 76 63 77 47 78 48 79 56 80 49 81 51 82 57 83
REMARK SMILES IDX 50 84 52 85 53 86 54 87 55 88 79 89 80 90 88 91 81 92 83 93
REMARK SMILES IDX 89 94 82 95 84 96 85 97 86 98 87 99 64 100 65 101 73 102
REMARK SMILES IDX 66 103 68 104 74 105 67 106 69 107 70 108 71 109 72 110
REMARK H PARENT 3 34 94 63 62 74
REMARK Flexibility Score: inf
ROOT
ATOM      1  C   UNL     1      -8.657   7.577  -0.448  1.00  0.00     0.188 C 
ENDROOT
BRANCH   1   2
ATOM      2  C   UNL     1      -9.094   7.593   1.035  1.00  0.00     0.188 C 
BRANCH   2   3
ATOM      3  O   UNL     1     -10.039   8.516   1.572  1.00  0.00    -0.376 OA
BRANCH   3   4
ATOM      4  C   UNL     1     -10.414   9.682   0.863  1.00  0.00     0.202 C 
BRANCH   4   5
ATOM      5  C   UNL     1      -9.365  10.785   0.670  1.00  0.00     0.261 C 
BRANCH   5   6
ATOM      6  O   UNL     1      -8.021  10.323   0.510  1.00  0.00    -0.460 OA
BRANCH   6   7
ATOM      7  C   UNL     1      -7.322  10.206   1.661  1.00  0.00     0.338 C 
ATOM      8  O   UNL     1      -7.675  10.531   2.782  1.00  0.00    -0.246 OA
BRANCH   7   9
ATOM      9  C   UNL     1      -6.071   9.467   1.393  1.00  0.00     0.060 A 
ATOM     10  C   UNL     1      -3.667   8.095   1.069  1.00  0.00     0.066 A 
ATOM     11  C   UNL     1      -4.556   7.721   2.089  1.00  0.00     0.029 A 
ATOM     12  C   UNL     1      -4.027   9.092   0.152  1.00  0.00     0.029 A 
ATOM     13  C   UNL     1      -5.734   8.435   2.273  1.00  0.00     0.018 A 
ATOM     14  C   UNL     1      -5.246   9.765   0.303  1.00  0.00     0.018 A 
BRANCH  10  15
ATOM     15  N   UNL     1      -2.363   7.542   1.092  1.00  0.00    -0.220 N 
ATOM     16  C   UNL     1      -0.193   7.395   1.209  1.00  0.00     0.120 A 
ATOM     17  C   UNL     1      -1.208   8.052   0.542  1.00  0.00     0.144 A 
ATOM     18  N   UNL     1      -0.741   6.445   2.026  1.00  0.00    -0.131 NA
ATOM     19  N   UNL     1      -2.055   6.516   1.921  1.00  0.00    -0.062 NA
BRANCH  16  20
ATOM     20  C   UNL     1       1.275   7.648   1.242  1.00  0.00     0.289 C 
BRANCH  20  21
ATOM     21  O   UNL     1       2.034   6.967   0.237  1.00  0.00    -0.487 OA
BRANCH  21  22
ATOM     22  C   UNL     1       2.130   5.606   0.316  1.00  0.00     0.119 A 
ATOM     23  C   UNL     1       2.205   2.805   0.129  1.00  0.00    -0.024 A 
ATOM     24  C   UNL     1       2.624   3.592  -0.945  1.00  0.00     0.012 A 
ATOM     25  C   UNL     1       1.823   3.425   1.322  1.00  0.00     0.012 A 
ATOM     26  C   UNL     1       2.585   4.986  -0.849  1.00  0.00     0.047 A 
ATOM     27  C   UNL     1       1.800   4.819   1.419  1.00  0.00     0.047 A 
BRANCH  23  28
ATOM     28  C   UNL     1       2.149   1.348  -0.007  1.00  0.00     0.029 C 
ATOM     29  O   UNL     1      -2.421  -0.747   0.203  1.00  0.00    -0.261 OA
ATOM     30  C   UNL     1      -1.249  -0.458   0.042  1.00  0.00     0.290 C 
ATOM     31  N   UNL     1      -0.233  -1.340  -0.141  1.00  0.00    -0.282 N 
ATOM     32  S   UNL     1      -0.609   1.170   0.112  1.00  0.00    -0.022 SA
ATOM     33  C   UNL     1       1.042  -0.860  -0.141  1.00  0.00     0.265 C 
ATOM     34  H   UNL     1      -0.412  -2.299  -0.270  1.00  0.00     0.174 HD
ATOM     35  C   UNL     1       1.023   0.621  -0.017  1.00  0.00     0.083 C 
ATOM     36  O   UNL     1       2.049  -1.552  -0.181  1.00  0.00    -0.268 OA
ENDBRANCH  23  28
ENDBRANCH  21  22
ENDBRANCH  20  21
ENDBRANCH  16  20
ENDBRANCH  10  15
ENDBRANCH   7   9
ENDBRANCH   6   7
ENDBRANCH   5   6
ENDBRANCH   4   5
ENDBRANCH   3   4
ENDBRANCH   2   3
ENDBRANCH   1   2
BRANCH   1  37
ATOM     37  O   UNL     1      -9.451   8.361  -1.325  1.00  0.00    -0.377 OA
BRANCH  37  38
ATOM     38  C   UNL     1     -10.419   7.624  -2.069  1.00  0.00     0.188 C 
BRANCH  38  39
ATOM     39  C   UNL     1     -11.474   6.875  -1.231  1.00  0.00     0.188 C 
BRANCH  39  40
ATOM     40  O   UNL     1     -10.907   5.958  -0.295  1.00  0.00    -0.376 OA
BRANCH  40  41
ATOM     41  C   UNL     1     -11.103   4.567  -0.515  1.00  0.00     0.202 C 
BRANCH  41  42
ATOM     42  C   UNL     1     -10.057   3.964  -1.448  1.00  0.00     0.261 C 
BRANCH  42  43
ATOM     43  O   UNL     1      -9.991   4.615  -2.708  1.00  0.00    -0.460 OA
BRANCH  43  44
ATOM     44  C   UNL     1     -11.127   4.622  -3.430  1.00  0.00     0.338 C 
ATOM     45  O   UNL     1     -12.220   4.196  -3.098  1.00  0.00    -0.246 OA
BRANCH  44  46
ATOM     46  C   UNL     1     -10.836   5.176  -4.753  1.00  0.00     0.060 A 
ATOM     47  C   UNL     1     -11.920   5.257  -5.628  1.00  0.00     0.016 A 
ATOM     48  C   UNL     1      -9.505   5.287  -5.183  1.00  0.00     0.016 A 
ATOM     49  C   UNL     1     -11.662   5.147  -6.970  1.00  0.00     0.010 A 
ATOM     50  C   UNL     1      -9.248   5.171  -6.524  1.00  0.00     0.010 A 
ATOM     51  C   UNL     1     -10.335   4.982  -7.373  1.00  0.00    -0.014 A 
BRANCH  51  52
ATOM     52  C   UNL     1     -10.117   4.501  -8.715  1.00  0.00     0.031 A 
ATOM     53  C   UNL     1     -10.216   5.538  -9.752  1.00  0.00     0.074 A 
ATOM     54  C   UNL     1      -9.784   3.217  -8.939  1.00  0.00     0.049 A 
ATOM     55  N   UNL     1     -11.068   5.612 -10.718  1.00  0.00    -0.248 NA
ATOM     56  C   UNL     1      -9.343   6.711  -9.608  1.00  0.00     0.031 C 
ATOM     57  C   UNL     1      -9.372   2.220  -7.942  1.00  0.00     0.029 A 
ATOM     58  N   UNL     1      -9.588   2.578 -10.124  1.00  0.00    -0.354 N 
ATOM     59  C   UNL     1     -10.671   6.724 -11.451  1.00  0.00     0.074 A 
ATOM     60  C   UNL     1      -9.758   7.465 -10.622  1.00  0.00     0.031 C 
ATOM     61  C   UNL     1      -8.734   1.212  -8.573  1.00  0.00     0.029 A 
ATOM     62  C   UNL     1      -8.805   1.438 -10.006  1.00  0.00     0.049 A 
ATOM     63  H   UNL     1      -9.963   2.893 -10.978  1.00  0.00     0.167 HD
ATOM     64  C   UNL     1     -10.887   6.792 -12.789  1.00  0.00     0.034 A 
ATOM     65  C   UNL     1      -8.172   0.795 -11.013  1.00  0.00     0.034 A 
ATOM     66  C   UNL     1     -11.920   5.883 -13.215  1.00  0.00     0.049 A 
ATOM     67  C   UNL     1      -8.803   1.215 -12.285  1.00  0.00     0.074 A 
ATOM     68  C   UNL     1     -13.251   5.695 -12.904  1.00  0.00     0.029 A 
ATOM     69  N   UNL     1     -11.516   4.754 -13.882  1.00  0.00    -0.354 N 
ATOM     70  N   UNL     1     -10.014   0.893 -12.646  1.00  0.00    -0.248 NA
ATOM     71  C   UNL     1      -8.202   2.309 -13.033  1.00  0.00     0.031 C 
ATOM     72  C   UNL     1     -13.484   4.298 -13.058  1.00  0.00     0.029 A 
ATOM     73  C   UNL     1     -12.286   3.704 -13.460  1.00  0.00     0.049 A 
ATOM     74  H   UNL     1     -10.795   4.707 -14.551  1.00  0.00     0.167 HD
ATOM     75  C   UNL     1     -10.476   1.996 -13.352  1.00  0.00     0.074 A 
ATOM     76  C   UNL     1      -9.277   2.754 -13.688  1.00  0.00     0.031 C 
ATOM     77  C   UNL     1     -11.798   2.343 -13.335  1.00  0.00     0.034 A 
BRANCH  64  78
ATOM     78  C   UNL     1      -9.896   7.386 -13.763  1.00  0.00     0.023 A 
ATOM     79  C   UNL     1     -10.316   7.522 -15.103  1.00  0.00     0.012 A 
ATOM     80  C   UNL     1      -8.514   7.553 -13.507  1.00  0.00     0.148 A 
ATOM     81  C   UNL     1      -9.404   7.750 -16.138  1.00  0.00     0.002 A 
ATOM     82  C   UNL     1      -7.625   7.870 -14.526  1.00  0.00     0.091 A 
ATOM     83  F   UNL     1      -8.004   7.269 -12.305  1.00  0.00    -0.205 F 
ATOM     84  C   UNL     1      -8.057   7.935 -15.850  1.00  0.00     0.022 A 
BRANCH  82  85
ATOM     85  S   UNL     1      -5.892   8.179 -14.165  1.00  0.00     0.127 S 
ATOM     86  O   UNL     1      -5.301   6.869 -14.417  1.00  0.00    -0.237 OA
ATOM     87  O   UNL     1      -5.553   9.212 -15.144  1.00  0.00    -0.237 OA
ATOM     88  O   UNL     1      -5.876   8.646 -12.783  1.00  0.00    -0.744 OA
ENDBRANCH  82  85
ENDBRANCH  64  78
BRANCH  65  89
ATOM     89  C   UNL     1      -6.917   0.013 -10.970  1.00  0.00     0.023 A 
ATOM     90  C   UNL     1      -6.658  -0.934 -11.977  1.00  0.00     0.012 A 
ATOM     91  C   UNL     1      -5.868   0.346 -10.082  1.00  0.00     0.148 A 
ATOM     92  C   UNL     1      -5.392  -1.518 -12.108  1.00  0.00     0.002 A 
ATOM     93  C   UNL     1      -4.619  -0.255 -10.200  1.00  0.00     0.091 A 
ATOM     94  F   UNL     1      -6.064   1.318  -9.180  1.00  0.00    -0.205 F 
ATOM     95  C   UNL     1      -4.374  -1.180 -11.221  1.00  0.00     0.022 A 
BRANCH  93  96
ATOM     96  S   UNL     1      -3.270   0.129  -9.074  1.00  0.00     0.127 S 
ATOM     97  O   UNL     1      -2.692  -1.192  -8.823  1.00  0.00    -0.237 OA
ATOM     98  O   UNL     1      -2.440   1.016  -9.884  1.00  0.00    -0.237 OA
ATOM     99  O   UNL     1      -3.897   0.732  -7.904  1.00  0.00    -0.744 OA
ENDBRANCH  93  96
ENDBRANCH  65  89
BRANCH  77 100
ATOM    100  C   UNL     1     -12.796   1.324 -12.838  1.00  0.00     0.023 A 
ATOM    101  C   UNL     1     -12.761   0.838 -11.515  1.00  0.00     0.012 A 
ATOM    102  C   UNL     1     -13.889   0.984 -13.656  1.00  0.00     0.148 A 
ATOM    103  C   UNL     1     -13.773   0.008 -11.028  1.00  0.00     0.002 A 
ATOM    104  C   UNL     1     -14.920   0.198 -13.152  1.00  0.00     0.091 A 
ATOM    105  F   UNL     1     -13.919   1.458 -14.911  1.00  0.00    -0.205 F 
ATOM    106  C   UNL     1     -14.860  -0.301 -11.842  1.00  0.00     0.022 A 
BRANCH 104 107
ATOM    107  S   UNL     1     -16.411  -0.113 -14.104  1.00  0.00     0.127 S 
ATOM    108  O   UNL     1     -16.155  -1.442 -14.652  1.00  0.00    -0.237 OA
ATOM    109  O   UNL     1     -17.460  -0.064 -13.084  1.00  0.00    -0.237 OA
ATOM    110  O   UNL     1     -16.486   0.971 -15.078  1.00  0.00    -0.744 OA
ENDBRANCH 104 107
ENDBRANCH  77 100
ENDBRANCH  51  52
ENDBRANCH  44  46
ENDBRANCH  43  44
ENDBRANCH  42  43
ENDBRANCH  41  42
ENDBRANCH  40  41
ENDBRANCH  39  40
ENDBRANCH  38  39
ENDBRANCH  37  38
ENDBRANCH   1  37
TORSDOF 28
