REMARK SMILES C=C(C)COc1ccc2nc(C)n(-c3cccc(C(=O)OCCOCCOCCOCCOC(=O)c4ccc(-c5c6nc(c(-c7cccc(S(=O)(=O)[O-])c7F)c7ccc([nH]7)c(-c7cccc(S(=O)(=O)[O-])c7F)c7nc(c(-c8cccc(S(=O)(=O)[O-])c8F)c8ccc5[nH]8)C=C7)C=C6)cc4)c3)c(=O)c2c1
REMARK SMILES IDX 26 1 25 2 24 3 23 4 22 5 21 6 19 7 20 8 18 9 14 10 15 11
REMARK SMILES IDX 99 12 16 13 17 14 13 15 6 16 7 17 103 18 8 19 102 20 9 21
REMARK SMILES IDX 100 22 10 23 101 24 11 25 12 26 5 27 4 28 2 29 1 30 3 31
REMARK SMILES IDX 27 32 28 33 29 34 30 35 31 36 32 37 33 38 34 39 35 40 36 41
REMARK SMILES IDX 37 42 98 43 38 44 97 45 39 46 40 47 41 48 91 49 42 50 96 51
REMARK SMILES IDX 90 52 92 53 43 54 95 55 89 56 88 57 44 59 76 60 56 61 75 62
REMARK SMILES IDX 57 63 60 64 74 65 93 66 58 67 59 68 73 70 94 71 61 72 45 73
REMARK SMILES IDX 46 74 54 75 47 76 49 77 55 78 48 79 50 80 51 81 52 82 53 83
REMARK SMILES IDX 77 84 78 85 86 86 79 87 81 88 87 89 80 90 82 91 83 92 84 93
REMARK SMILES IDX 85 94 62 95 63 96 71 97 64 98 66 99 72 100 65 101 67 102
REMARK SMILES IDX 68 103 69 104 70 105
REMARK H PARENT 92 58 60 69
REMARK Flexibility Score: inf
ROOT
ATOM      1  C   UNL     1      -3.125 -11.531   1.405  1.00  0.00     0.188 C 
ENDROOT
BRANCH   1   2
ATOM      2  C   UNL     1      -2.754 -12.820   2.161  1.00  0.00     0.188 C 
BRANCH   2   3
ATOM      3  O   UNL     1      -3.259 -12.863   3.487  1.00  0.00    -0.376 OA
BRANCH   3   4
ATOM      4  C   UNL     1      -2.339 -12.708   4.556  1.00  0.00     0.202 C 
BRANCH   4   5
ATOM      5  C   UNL     1      -1.585 -11.375   4.677  1.00  0.00     0.261 C 
BRANCH   5   6
ATOM      6  O   UNL     1      -0.944 -10.914   3.480  1.00  0.00    -0.460 OA
BRANCH   6   7
ATOM      7  C   UNL     1       0.153 -11.571   3.046  1.00  0.00     0.338 C 
ATOM      8  O   UNL     1       0.695 -12.524   3.576  1.00  0.00    -0.246 OA
BRANCH   7   9
ATOM      9  C   UNL     1       0.428 -11.096   1.664  1.00  0.00     0.062 A 
ATOM     10  C   UNL     1       0.344  -9.347  -0.033  1.00  0.00     0.051 A 
ATOM     11  C   UNL     1       0.669 -10.307  -1.003  1.00  0.00     0.027 A 
ATOM     12  C   UNL     1       0.236  -9.755   1.306  1.00  0.00     0.042 A 
ATOM     13  C   UNL     1       0.867 -11.646  -0.648  1.00  0.00     0.003 A 
ATOM     14  C   UNL     1       0.752 -12.040   0.685  1.00  0.00     0.016 A 
BRANCH  10  15
ATOM     15  N   UNL     1       0.163  -7.965  -0.378  1.00  0.00    -0.264 N 
ATOM     16  C   UNL     1       1.197  -3.274   0.329  1.00  0.00     0.120 A 
ATOM     17  C   UNL     1       0.494  -2.984  -0.840  1.00  0.00     0.049 A 
ATOM     18  C   UNL     1       1.337  -4.591   0.752  1.00  0.00     0.062 A 
ATOM     19  C   UNL     1      -0.133  -4.006  -1.551  1.00  0.00     0.033 A 
ATOM     20  C   UNL     1       0.716  -5.610   0.018  1.00  0.00     0.070 A 
ATOM     21  C   UNL     1      -0.027  -5.328  -1.124  1.00  0.00     0.078 A 
ATOM     22  C   UNL     1       0.857  -7.023   0.402  1.00  0.00     0.266 A 
ATOM     23  N   UNL     1      -0.689  -6.316  -1.849  1.00  0.00    -0.234 NA
ATOM     24  O   UNL     1       1.618  -7.287   1.333  1.00  0.00    -0.268 OA
ATOM     25  C   UNL     1      -0.607  -7.549  -1.454  1.00  0.00     0.113 A 
ATOM     26  C   UNL     1      -1.471  -8.521  -2.233  1.00  0.00     0.088 C 
BRANCH  16  27
ATOM     27  O   UNL     1       1.834  -2.280   1.022  1.00  0.00    -0.489 OA
BRANCH  27  28
ATOM     28  C   UNL     1       0.918  -1.518   1.832  1.00  0.00     0.260 C 
BRANCH  28  29
ATOM     29  C   UNL     1       0.243  -0.418   1.039  1.00  0.00    -0.043 C 
ATOM     30  C   UNL     1       0.929   0.433   0.257  1.00  0.00     0.011 C 
ATOM     31  C   UNL     1      -1.256  -0.373   1.135  1.00  0.00     0.042 C 
ENDBRANCH  28  29
ENDBRANCH  27  28
ENDBRANCH  16  27
ENDBRANCH  10  15
ENDBRANCH   7   9
ENDBRANCH   6   7
ENDBRANCH   5   6
ENDBRANCH   4   5
ENDBRANCH   3   4
ENDBRANCH   2   3
ENDBRANCH   1   2
BRANCH   1  32
ATOM     32  O   UNL     1      -3.659 -10.469   2.175  1.00  0.00    -0.377 OA
BRANCH  32  33
ATOM     33  C   UNL     1      -4.872 -10.670   2.900  1.00  0.00     0.188 C 
BRANCH  33  34
ATOM     34  C   UNL     1      -5.770 -11.917   2.706  1.00  0.00     0.188 C 
BRANCH  34  35
ATOM     35  O   UNL     1      -5.600 -12.597   1.469  1.00  0.00    -0.376 OA
BRANCH  35  36
ATOM     36  C   UNL     1      -6.665 -12.503   0.537  1.00  0.00     0.202 C 
BRANCH  36  37
ATOM     37  C   UNL     1      -6.792 -11.137  -0.146  1.00  0.00     0.261 C 
BRANCH  37  38
ATOM     38  O   UNL     1      -7.036 -10.033   0.737  1.00  0.00    -0.460 OA
BRANCH  38  39
ATOM     39  C   UNL     1      -8.177 -10.057   1.464  1.00  0.00     0.338 C 
ATOM     40  O   UNL     1      -9.051 -10.905   1.425  1.00  0.00    -0.246 OA
BRANCH  39  41
ATOM     41  C   UNL     1      -8.079  -8.976   2.468  1.00  0.00     0.060 A 
ATOM     42  C   UNL     1      -7.748  -7.678   2.071  1.00  0.00     0.016 A 
ATOM     43  C   UNL     1      -8.270  -9.276   3.824  1.00  0.00     0.016 A 
ATOM     44  C   UNL     1      -7.640  -6.671   3.031  1.00  0.00     0.010 A 
ATOM     45  C   UNL     1      -8.156  -8.266   4.784  1.00  0.00     0.010 A 
ATOM     46  C   UNL     1      -7.867  -6.951   4.391  1.00  0.00    -0.014 A 
BRANCH  46  47
ATOM     47  C   UNL     1      -8.016  -5.825   5.346  1.00  0.00     0.031 A 
ATOM     48  C   UNL     1      -6.957  -5.455   6.340  1.00  0.00     0.074 A 
ATOM     49  C   UNL     1      -9.170  -5.130   5.303  1.00  0.00     0.049 A 
ATOM     50  N   UNL     1      -6.918  -4.416   7.134  1.00  0.00    -0.248 NA
ATOM     51  C   UNL     1      -5.805  -6.358   6.473  1.00  0.00     0.031 C 
ATOM     52  C   UNL     1     -10.304  -5.449   4.431  1.00  0.00     0.029 A 
ATOM     53  N   UNL     1      -9.582  -4.023   5.996  1.00  0.00    -0.354 N 
ATOM     54  C   UNL     1      -5.745  -4.534   7.865  1.00  0.00     0.074 A 
ATOM     55  C   UNL     1      -5.106  -5.761   7.434  1.00  0.00     0.031 C 
ATOM     56  C   UNL     1     -11.274  -4.544   4.626  1.00  0.00     0.029 A 
ATOM     57  C   UNL     1     -10.836  -3.589   5.639  1.00  0.00     0.049 A 
ATOM     58  H   UNL     1      -9.032  -3.580   6.683  1.00  0.00     0.167 HD
ATOM     59  C   UNL     1      -5.241  -3.683   8.791  1.00  0.00     0.034 A 
ATOM     60  C   UNL     1     -11.554  -2.532   6.064  1.00  0.00     0.034 A 
ATOM     61  C   UNL     1      -5.875  -2.457   9.202  1.00  0.00     0.049 A 
ATOM     62  C   UNL     1     -10.960  -1.593   7.070  1.00  0.00     0.074 A 
ATOM     63  C   UNL     1      -5.389  -1.490  10.067  1.00  0.00     0.029 A 
ATOM     64  N   UNL     1      -7.133  -2.036   8.801  1.00  0.00    -0.354 N 
ATOM     65  N   UNL     1      -9.771  -1.626   7.618  1.00  0.00    -0.248 NA
ATOM     66  C   UNL     1     -11.789  -0.456   7.496  1.00  0.00     0.031 C 
ATOM     67  C   UNL     1      -6.361  -0.495  10.204  1.00  0.00     0.029 A 
ATOM     68  C   UNL     1      -7.447  -0.834   9.414  1.00  0.00     0.049 A 
ATOM     69  H   UNL     1      -7.717  -2.519   8.173  1.00  0.00     0.167 HD
ATOM     70  C   UNL     1      -9.702  -0.513   8.445  1.00  0.00     0.074 A 
ATOM     71  C   UNL     1     -10.962   0.189   8.311  1.00  0.00     0.031 C 
ATOM     72  C   UNL     1      -8.688  -0.121   9.252  1.00  0.00     0.034 A 
BRANCH  59  73
ATOM     73  C   UNL     1      -3.893  -3.987   9.387  1.00  0.00     0.023 A 
ATOM     74  C   UNL     1      -2.737  -3.693   8.636  1.00  0.00     0.012 A 
ATOM     75  C   UNL     1      -3.764  -4.411  10.725  1.00  0.00     0.148 A 
ATOM     76  C   UNL     1      -1.471  -3.820   9.205  1.00  0.00     0.002 A 
ATOM     77  C   UNL     1      -2.498  -4.511  11.293  1.00  0.00     0.091 A 
ATOM     78  F   UNL     1      -4.878  -4.685  11.418  1.00  0.00    -0.205 F 
ATOM     79  C   UNL     1      -1.352  -4.217  10.534  1.00  0.00     0.022 A 
BRANCH  77  80
ATOM     80  S   UNL     1      -2.231  -4.962  13.012  1.00  0.00     0.127 S 
ATOM     81  O   UNL     1      -1.517  -6.231  12.875  1.00  0.00    -0.237 OA
ATOM     82  O   UNL     1      -1.413  -3.850  13.497  1.00  0.00    -0.237 OA
ATOM     83  O   UNL     1      -3.553  -5.060  13.614  1.00  0.00    -0.744 OA
ENDBRANCH  77  80
ENDBRANCH  59  73
BRANCH  60  84
ATOM     84  C   UNL     1     -12.887  -2.280   5.458  1.00  0.00     0.023 A 
ATOM     85  C   UNL     1     -13.021  -1.263   4.494  1.00  0.00     0.012 A 
ATOM     86  C   UNL     1     -13.990  -3.099   5.763  1.00  0.00     0.148 A 
ATOM     87  C   UNL     1     -14.239  -1.063   3.845  1.00  0.00     0.002 A 
ATOM     88  C   UNL     1     -15.189  -2.919   5.085  1.00  0.00     0.091 A 
ATOM     89  F   UNL     1     -13.829  -4.062   6.681  1.00  0.00    -0.205 F 
ATOM     90  C   UNL     1     -15.318  -1.895   4.132  1.00  0.00     0.022 A 
BRANCH  88  91
ATOM     91  S   UNL     1     -16.603  -4.003   5.309  1.00  0.00     0.127 S 
ATOM     92  O   UNL     1     -17.599  -3.083   5.853  1.00  0.00    -0.237 OA
ATOM     93  O   UNL     1     -16.856  -4.448   3.939  1.00  0.00    -0.237 OA
ATOM     94  O   UNL     1     -16.160  -5.052   6.217  1.00  0.00    -0.744 OA
ENDBRANCH  88  91
ENDBRANCH  60  84
BRANCH  72  95
ATOM     95  C   UNL     1      -8.877   1.120  10.079  1.00  0.00     0.023 A 
ATOM     96  C   UNL     1      -9.638   1.046  11.262  1.00  0.00     0.012 A 
ATOM     97  C   UNL     1      -8.196   2.311   9.762  1.00  0.00     0.148 A 
ATOM     98  C   UNL     1      -9.719   2.142  12.119  1.00  0.00     0.002 A 
ATOM     99  C   UNL     1      -8.255   3.389  10.638  1.00  0.00     0.091 A 
ATOM    100  F   UNL     1      -7.483   2.355   8.628  1.00  0.00    -0.205 F 
ATOM    101  C   UNL     1      -9.019   3.307  11.815  1.00  0.00     0.022 A 
BRANCH  99 102
ATOM    102  S   UNL     1      -7.335   4.909  10.373  1.00  0.00     0.127 S 
ATOM    103  O   UNL     1      -8.412   5.888  10.229  1.00  0.00    -0.237 OA
ATOM    104  O   UNL     1      -6.567   5.024  11.612  1.00  0.00    -0.237 OA
ATOM    105  O   UNL     1      -6.535   4.695   9.174  1.00  0.00    -0.744 OA
ENDBRANCH  99 102
ENDBRANCH  72  95
ENDBRANCH  46  47
ENDBRANCH  39  41
ENDBRANCH  38  39
ENDBRANCH  37  38
ENDBRANCH  36  37
ENDBRANCH  35  36
ENDBRANCH  34  35
ENDBRANCH  33  34
ENDBRANCH  32  33
ENDBRANCH   1  32
TORSDOF 27
