REMARK SMILES CCC[C@H](NC(=O)c1cc2ccccc2[nH]1)C(=O)OCCOCCOCCOCCOC(=O)c1ccc(-c2c3nc(c(-c4cccc(S(=O)(=O)[O-])c4F)c4ccc([nH]4)c(-c4cccc(S(=O)(=O)[O-])c4F)c4nc(c(-c5cccc(S(=O)(=O)[O-])c5F)c5ccc2[nH]5)C=C4)C=C3)cc1
REMARK SMILES IDX 26 1 25 2 24 3 23 4 22 5 21 6 20 7 19 8 17 9 18 10 4 11 3 12
REMARK SMILES IDX 2 13 1 14 5 15 6 16 7 18 8 19 9 20 16 21 10 22 15 23 11 25
REMARK SMILES IDX 14 26 12 27 13 28 27 29 28 30 29 31 30 32 31 33 32 34 33 35
REMARK SMILES IDX 34 36 35 37 96 38 36 39 95 40 37 41 38 42 39 43 89 44 40 45
REMARK SMILES IDX 94 46 88 47 90 48 41 49 93 50 87 51 86 52 42 54 74 55 54 56
REMARK SMILES IDX 73 57 55 58 58 59 72 60 91 61 56 62 57 63 71 65 92 66 59 67
REMARK SMILES IDX 43 68 44 69 52 70 45 71 47 72 53 73 46 74 48 75 49 76 50 77
REMARK SMILES IDX 51 78 75 79 76 80 84 81 77 82 79 83 85 84 78 85 80 86 81 87
REMARK SMILES IDX 82 88 83 89 60 90 61 91 69 92 62 93 64 94 70 95 63 96 65 97
REMARK SMILES IDX 66 98 67 99 68 100
REMARK H PARENT 5 17 16 24 90 53 58 64
REMARK Flexibility Score: inf
ROOT
ATOM      1  C   UNL     1       3.503   2.116   5.606  1.00  0.00     0.188 C 
ENDROOT
BRANCH   1   2
ATOM      2  O   UNL     1       2.596   2.059   4.506  1.00  0.00    -0.377 OA
BRANCH   2   3
ATOM      3  C   UNL     1       3.082   2.372   3.221  1.00  0.00     0.188 C 
BRANCH   3   4
ATOM      4  C   UNL     1       3.037   3.863   2.853  1.00  0.00     0.188 C 
BRANCH   4   5
ATOM      5  O   UNL     1       3.116   4.870   3.842  1.00  0.00    -0.376 OA
BRANCH   5   6
ATOM      6  C   UNL     1       2.193   5.045   4.907  1.00  0.00     0.202 C 
BRANCH   6   7
ATOM      7  C   UNL     1       0.738   4.552   4.974  1.00  0.00     0.261 C 
BRANCH   7   8
ATOM      8  O   UNL     1       0.411   3.381   4.236  1.00  0.00    -0.462 OA
BRANCH   8   9
ATOM      9  C   UNL     1      -0.090   3.629   3.007  1.00  0.00     0.328 C 
ATOM     10  O   UNL     1      -0.242   4.760   2.554  1.00  0.00    -0.250 OA
BRANCH   9  11
ATOM     11  C   UNL     1      -0.346   2.348   2.188  1.00  0.00     0.192 C 
BRANCH  11  12
ATOM     12  C   UNL     1      -1.688   2.547   1.491  1.00  0.00     0.037 C 
BRANCH  12  13
ATOM     13  C   UNL     1      -1.680   3.486   0.275  1.00  0.00    -0.001 C 
ATOM     14  C   UNL     1      -1.011   2.842  -0.934  1.00  0.00     0.004 C 
ENDBRANCH  12  13
ENDBRANCH  11  12
BRANCH  11  15
ATOM     15  N   UNL     1      -0.090   1.080   2.930  1.00  0.00    -0.337 N 
ATOM     16  C   UNL     1      -0.575  -0.204   2.868  1.00  0.00     0.268 C 
ATOM     17  H   UNL     1       0.589   1.190   3.635  1.00  0.00     0.164 HD
ATOM     18  O   UNL     1       0.190  -1.140   3.088  1.00  0.00    -0.268 OA
BRANCH  16  19
ATOM     19  C   UNL     1      -1.987  -0.380   2.707  1.00  0.00     0.105 A 
ATOM     20  C   UNL     1      -2.945  -0.533   3.695  1.00  0.00     0.042 A 
ATOM     21  N   UNL     1      -2.681  -0.448   1.519  1.00  0.00    -0.351 N 
ATOM     22  C   UNL     1      -4.178  -0.124   3.119  1.00  0.00     0.000 A 
ATOM     23  C   UNL     1      -3.949   0.049   1.756  1.00  0.00     0.046 A 
ATOM     24  H   UNL     1      -2.337  -0.787   0.661  1.00  0.00     0.167 HD
ATOM     25  C   UNL     1      -5.425   0.238   3.652  1.00  0.00     0.010 A 
ATOM     26  C   UNL     1      -4.855   0.693   0.907  1.00  0.00     0.026 A 
ATOM     27  C   UNL     1      -6.339   0.901   2.825  1.00  0.00     0.001 A 
ATOM     28  C   UNL     1      -6.042   1.155   1.485  1.00  0.00     0.002 A 
ENDBRANCH  16  19
ENDBRANCH  11  15
ENDBRANCH   9  11
ENDBRANCH   8   9
ENDBRANCH   7   8
ENDBRANCH   6   7
ENDBRANCH   5   6
ENDBRANCH   4   5
ENDBRANCH   3   4
ENDBRANCH   2   3
ENDBRANCH   1   2
BRANCH   1  29
ATOM     29  C   UNL     1       4.837   2.890   5.490  1.00  0.00     0.188 C 
BRANCH  29  30
ATOM     30  O   UNL     1       5.520   2.728   4.256  1.00  0.00    -0.376 OA
BRANCH  30  31
ATOM     31  C   UNL     1       6.556   1.760   4.179  1.00  0.00     0.202 C 
BRANCH  31  32
ATOM     32  C   UNL     1       6.181   0.291   4.433  1.00  0.00     0.261 C 
BRANCH  32  33
ATOM     33  O   UNL     1       5.634  -0.013   5.725  1.00  0.00    -0.460 OA
BRANCH  33  34
ATOM     34  C   UNL     1       6.368   0.312   6.813  1.00  0.00     0.338 C 
ATOM     35  O   UNL     1       7.487   0.777   6.826  1.00  0.00    -0.246 OA
BRANCH  34  36
ATOM     36  C   UNL     1       5.488   0.205   7.998  1.00  0.00     0.060 A 
ATOM     37  C   UNL     1       5.309   1.337   8.804  1.00  0.00     0.016 A 
ATOM     38  C   UNL     1       4.863  -1.001   8.322  1.00  0.00     0.016 A 
ATOM     39  C   UNL     1       4.554   1.249   9.972  1.00  0.00     0.010 A 
ATOM     40  C   UNL     1       4.123  -1.093   9.504  1.00  0.00     0.010 A 
ATOM     41  C   UNL     1       4.008   0.018  10.358  1.00  0.00    -0.014 A 
BRANCH  41  42
ATOM     42  C   UNL     1       3.523  -0.152  11.749  1.00  0.00     0.031 A 
ATOM     43  C   UNL     1       4.446  -0.796  12.750  1.00  0.00     0.074 A 
ATOM     44  C   UNL     1       2.308   0.280  12.129  1.00  0.00     0.049 A 
ATOM     45  N   UNL     1       4.249  -1.053  14.016  1.00  0.00    -0.248 NA
ATOM     46  C   UNL     1       5.771  -1.206  12.253  1.00  0.00     0.031 C 
ATOM     47  C   UNL     1       1.331   0.932  11.260  1.00  0.00     0.029 A 
ATOM     48  N   UNL     1       1.685   0.214  13.351  1.00  0.00    -0.354 N 
ATOM     49  C   UNL     1       5.408  -1.680  14.459  1.00  0.00     0.074 A 
ATOM     50  C   UNL     1       6.298  -1.778  13.324  1.00  0.00     0.031 C 
ATOM     51  C   UNL     1       0.217   1.184  11.971  1.00  0.00     0.029 A 
ATOM     52  C   UNL     1       0.395   0.690  13.336  1.00  0.00     0.049 A 
ATOM     53  H   UNL     1       2.120  -0.140  14.160  1.00  0.00     0.167 HD
ATOM     54  C   UNL     1       5.713  -2.122  15.702  1.00  0.00     0.034 A 
ATOM     55  C   UNL     1      -0.540   0.701  14.307  1.00  0.00     0.034 A 
ATOM     56  C   UNL     1       4.832  -2.014  16.832  1.00  0.00     0.049 A 
ATOM     57  C   UNL     1      -0.189   0.170  15.675  1.00  0.00     0.074 A 
ATOM     58  C   UNL     1       5.062  -2.396  18.141  1.00  0.00     0.029 A 
ATOM     59  N   UNL     1       3.544  -1.504  16.784  1.00  0.00    -0.354 N 
ATOM     60  N   UNL     1       0.948  -0.322  16.106  1.00  0.00    -0.248 NA
ATOM     61  C   UNL     1      -1.242   0.228  16.700  1.00  0.00     0.031 C 
ATOM     62  C   UNL     1       3.898  -2.154  18.877  1.00  0.00     0.029 A 
ATOM     63  C   UNL     1       2.960  -1.575  18.037  1.00  0.00     0.049 A 
ATOM     64  H   UNL     1       3.108  -1.145  15.978  1.00  0.00     0.167 HD
ATOM     65  C   UNL     1       0.761  -0.590  17.459  1.00  0.00     0.074 A 
ATOM     66  C   UNL     1      -0.593  -0.189  17.779  1.00  0.00     0.031 C 
ATOM     67  C   UNL     1       1.628  -1.127  18.354  1.00  0.00     0.034 A 
BRANCH  54  68
ATOM     68  C   UNL     1       7.063  -2.760  15.904  1.00  0.00     0.023 A 
ATOM     69  C   UNL     1       8.230  -1.970  15.863  1.00  0.00     0.012 A 
ATOM     70  C   UNL     1       7.171  -4.138  16.178  1.00  0.00     0.148 A 
ATOM     71  C   UNL     1       9.485  -2.546  16.055  1.00  0.00     0.002 A 
ATOM     72  C   UNL     1       8.420  -4.696  16.417  1.00  0.00     0.091 A 
ATOM     73  F   UNL     1       6.052  -4.877  16.189  1.00  0.00    -0.205 F 
ATOM     74  C   UNL     1       9.579  -3.905  16.343  1.00  0.00     0.022 A 
BRANCH  72  75
ATOM     75  S   UNL     1       8.640  -6.418  16.877  1.00  0.00     0.127 S 
ATOM     76  O   UNL     1       9.309  -6.956  15.693  1.00  0.00    -0.237 OA
ATOM     77  O   UNL     1       9.492  -6.311  18.062  1.00  0.00    -0.237 OA
ATOM     78  O   UNL     1       7.306  -6.942  17.131  1.00  0.00    -0.744 OA
ENDBRANCH  72  75
ENDBRANCH  54  68
BRANCH  55  79
ATOM     79  C   UNL     1      -1.897   1.256  14.035  1.00  0.00     0.023 A 
ATOM     80  C   UNL     1      -2.308   2.443  14.672  1.00  0.00     0.012 A 
ATOM     81  C   UNL     1      -2.782   0.611  13.149  1.00  0.00     0.148 A 
ATOM     82  C   UNL     1      -3.588   2.957  14.461  1.00  0.00     0.002 A 
ATOM     83  C   UNL     1      -4.034   1.159  12.899  1.00  0.00     0.091 A 
ATOM     84  F   UNL     1      -2.378  -0.526  12.565  1.00  0.00    -0.205 F 
ATOM     85  C   UNL     1      -4.447   2.321  13.569  1.00  0.00     0.022 A 
BRANCH  83  86
ATOM     86  S   UNL     1      -5.160   0.480  11.676  1.00  0.00     0.127 S 
ATOM     87  O   UNL     1      -6.257   0.000  12.512  1.00  0.00    -0.237 OA
ATOM     88  O   UNL     1      -5.470   1.660  10.868  1.00  0.00    -0.237 OA
ATOM     89  O   UNL     1      -4.406  -0.549  10.973  1.00  0.00    -0.744 OA
ENDBRANCH  83  86
ENDBRANCH  55  79
BRANCH  67  90
ATOM     90  C   UNL     1       1.167  -1.263  19.784  1.00  0.00     0.023 A 
ATOM     91  C   UNL     1       0.187  -2.215  20.127  1.00  0.00     0.012 A 
ATOM     92  C   UNL     1       1.760  -0.487  20.800  1.00  0.00     0.148 A 
ATOM     93  C   UNL     1      -0.227  -2.361  21.451  1.00  0.00     0.002 A 
ATOM     94  C   UNL     1       1.383  -0.677  22.124  1.00  0.00     0.091 A 
ATOM     95  F   UNL     1       2.682   0.424  20.454  1.00  0.00    -0.205 F 
ATOM     96  C   UNL     1       0.379  -1.602  22.450  1.00  0.00     0.022 A 
BRANCH  94  97
ATOM     97  S   UNL     1       2.180   0.182  23.486  1.00  0.00     0.127 S 
ATOM     98  O   UNL     1       1.128   1.105  23.911  1.00  0.00    -0.237 OA
ATOM     99  O   UNL     1       2.450  -0.907  24.424  1.00  0.00    -0.237 OA
ATOM    100  O   UNL     1       3.370   0.808  22.927  1.00  0.00    -0.744 OA
ENDBRANCH  94  97
ENDBRANCH  67  90
ENDBRANCH  41  42
ENDBRANCH  34  36
ENDBRANCH  33  34
ENDBRANCH  32  33
ENDBRANCH  31  32
ENDBRANCH  30  31
ENDBRANCH  29  30
ENDBRANCH   1  29
TORSDOF 27
