REMARK SMILES O=C(OCCOCCOCCOCCOC(=O)c1ccccc1Nc1nc(Cl)nc(Nc2ccc(N3CCOCC3=O)cc2)n1)c1ccc(-c2c3nc(c(-c4cccc(S(=O)(=O)[O-])c4F)c4ccc([nH]4)c(-c4cccc(S(=O)(=O)[O-])c4F)c4nc(c(-c5cccc(S(=O)(=O)[O-])c5F)c5ccc2[nH]5)C=C4)C=C3)cc1
REMARK SMILES IDX 10 1 9 2 8 3 7 4 6 5 5 6 4 7 3 8 2 9 1 10 46 11 47 12 108 13
REMARK SMILES IDX 48 14 107 15 49 16 50 17 51 18 101 19 52 20 106 21 100 22
REMARK SMILES IDX 102 23 53 24 105 25 99 26 98 27 54 29 86 30 66 31 85 32
REMARK SMILES IDX 67 33 70 34 84 35 103 36 68 37 69 38 83 40 104 41 71 42
REMARK SMILES IDX 55 43 56 44 64 45 57 46 59 47 65 48 58 49 60 50 61 51 62 52
REMARK SMILES IDX 63 53 87 54 88 55 96 56 89 57 91 58 97 59 90 60 92 61 93 62
REMARK SMILES IDX 94 63 95 64 72 65 73 66 81 67 74 68 76 69 82 70 75 71 77 72
REMARK SMILES IDX 78 73 79 74 80 75 11 76 12 77 13 78 14 79 15 80 16 81 17 82
REMARK SMILES IDX 18 83 19 84 23 85 20 86 22 87 21 88 24 89 25 91 26 92 45 93
REMARK SMILES IDX 27 94 30 95 28 96 29 97 31 98 32 100 33 101 44 102 34 103
REMARK SMILES IDX 43 104 35 105 36 106 37 107 41 108 38 109 40 110 42 111
REMARK SMILES IDX 39 112
REMARK H PARENT 102 28 70 39 24 90 31 99
REMARK Flexibility Score: inf
ROOT
ATOM      1  C   UNL     1       3.970  -1.878   3.314  1.00  0.00     0.188 C 
ENDROOT
BRANCH   1   2
ATOM      2  O   UNL     1       2.551  -1.922   3.406  1.00  0.00    -0.377 OA
BRANCH   2   3
ATOM      3  C   UNL     1       1.821  -1.603   2.221  1.00  0.00     0.188 C 
BRANCH   3   4
ATOM      4  C   UNL     1       2.225  -0.292   1.544  1.00  0.00     0.188 C 
BRANCH   4   5
ATOM      5  O   UNL     1       3.561  -0.379   1.044  1.00  0.00    -0.376 OA
BRANCH   5   6
ATOM      6  C   UNL     1       4.344   0.806   1.165  1.00  0.00     0.202 C 
BRANCH   6   7
ATOM      7  C   UNL     1       4.178   1.779  -0.002  1.00  0.00     0.261 C 
BRANCH   7   8
ATOM      8  O   UNL     1       2.822   1.833  -0.463  1.00  0.00    -0.460 OA
BRANCH   8   9
ATOM      9  C   UNL     1       2.272   1.129  -1.485  1.00  0.00     0.338 C 
ATOM     10  O   UNL     1       1.101   1.369  -1.778  1.00  0.00    -0.246 OA
BRANCH   9  11
ATOM     11  C   UNL     1       3.000   0.092  -2.289  1.00  0.00     0.060 A 
ATOM     12  C   UNL     1       4.097  -0.661  -1.859  1.00  0.00     0.016 A 
ATOM     13  C   UNL     1       2.476  -0.196  -3.561  1.00  0.00     0.016 A 
ATOM     14  C   UNL     1       4.684  -1.632  -2.660  1.00  0.00     0.010 A 
ATOM     15  C   UNL     1       3.048  -1.181  -4.371  1.00  0.00     0.010 A 
ATOM     16  C   UNL     1       4.168  -1.890  -3.923  1.00  0.00    -0.014 A 
BRANCH  16  17
ATOM     17  C   UNL     1       4.899  -2.813  -4.805  1.00  0.00     0.031 A 
ATOM     18  C   UNL     1       5.752  -2.220  -5.882  1.00  0.00     0.074 A 
ATOM     19  C   UNL     1       4.838  -4.139  -4.592  1.00  0.00     0.049 A 
ATOM     20  N   UNL     1       6.406  -2.817  -6.838  1.00  0.00    -0.248 NA
ATOM     21  C   UNL     1       5.898  -0.752  -5.874  1.00  0.00     0.031 C 
ATOM     22  C   UNL     1       4.107  -4.786  -3.500  1.00  0.00     0.029 A 
ATOM     23  N   UNL     1       5.387  -5.181  -5.291  1.00  0.00    -0.354 N 
ATOM     24  C   UNL     1       6.979  -1.798  -7.587  1.00  0.00     0.074 A 
ATOM     25  C   UNL     1       6.637  -0.547  -6.953  1.00  0.00     0.031 C 
ATOM     26  C   UNL     1       4.223  -6.118  -3.624  1.00  0.00     0.029 A 
ATOM     27  C   UNL     1       4.983  -6.415  -4.834  1.00  0.00     0.049 A 
ATOM     28  H   UNL     1       6.008  -5.060  -6.045  1.00  0.00     0.167 HD
ATOM     29  C   UNL     1       7.710  -1.910  -8.717  1.00  0.00     0.034 A 
ATOM     30  C   UNL     1       5.161  -7.635  -5.377  1.00  0.00     0.034 A 
ATOM     31  C   UNL     1       8.047  -3.171  -9.310  1.00  0.00     0.049 A 
ATOM     32  C   UNL     1       5.937  -7.722  -6.667  1.00  0.00     0.074 A 
ATOM     33  C   UNL     1       8.794  -3.418 -10.445  1.00  0.00     0.029 A 
ATOM     34  N   UNL     1       7.636  -4.401  -8.817  1.00  0.00    -0.354 N 
ATOM     35  N   UNL     1       6.536  -6.763  -7.334  1.00  0.00    -0.248 NA
ATOM     36  C   UNL     1       6.066  -9.051  -7.279  1.00  0.00     0.031 C 
ATOM     37  C   UNL     1       8.801  -4.800 -10.660  1.00  0.00     0.029 A 
ATOM     38  C   UNL     1       8.085  -5.413  -9.642  1.00  0.00     0.049 A 
ATOM     39  H   UNL     1       7.102  -4.533  -8.000  1.00  0.00     0.167 HD
ATOM     40  C   UNL     1       7.122  -7.372  -8.437  1.00  0.00     0.074 A 
ATOM     41  C   UNL     1       6.835  -8.789  -8.327  1.00  0.00     0.031 C 
ATOM     42  C   UNL     1       7.813  -6.817  -9.463  1.00  0.00     0.034 A 
BRANCH  29  43
ATOM     43  C   UNL     1       8.137  -0.642  -9.398  1.00  0.00     0.023 A 
ATOM     44  C   UNL     1       9.195   0.128  -8.876  1.00  0.00     0.012 A 
ATOM     45  C   UNL     1       7.487  -0.222 -10.575  1.00  0.00     0.148 A 
ATOM     46  C   UNL     1       9.584   1.312  -9.504  1.00  0.00     0.002 A 
ATOM     47  C   UNL     1       7.903   0.938 -11.215  1.00  0.00     0.091 A 
ATOM     48  F   UNL     1       6.464  -0.956 -11.034  1.00  0.00    -0.205 F 
ATOM     49  C   UNL     1       8.945   1.711 -10.676  1.00  0.00     0.022 A 
BRANCH  47  50
ATOM     50  S   UNL     1       7.180   1.510 -12.755  1.00  0.00     0.127 S 
ATOM     51  O   UNL     1       6.571   2.775 -12.343  1.00  0.00    -0.237 OA
ATOM     52  O   UNL     1       8.358   1.651 -13.610  1.00  0.00    -0.237 OA
ATOM     53  O   UNL     1       6.240   0.479 -13.170  1.00  0.00    -0.744 OA
ENDBRANCH  47  50
ENDBRANCH  29  43
BRANCH  30  54
ATOM     54  C   UNL     1       4.564  -8.846  -4.742  1.00  0.00     0.023 A 
ATOM     55  C   UNL     1       5.400  -9.860  -4.237  1.00  0.00     0.012 A 
ATOM     56  C   UNL     1       3.166  -9.001  -4.634  1.00  0.00     0.148 A 
ATOM     57  C   UNL     1       4.857 -11.014  -3.667  1.00  0.00     0.002 A 
ATOM     58  C   UNL     1       2.633 -10.124  -4.012  1.00  0.00     0.091 A 
ATOM     59  F   UNL     1       2.377  -8.045  -5.147  1.00  0.00    -0.205 F 
ATOM     60  C   UNL     1       3.476 -11.142  -3.544  1.00  0.00     0.022 A 
BRANCH  58  61
ATOM     61  S   UNL     1       0.872 -10.292  -3.694  1.00  0.00     0.127 S 
ATOM     62  O   UNL     1       0.467 -11.226  -4.741  1.00  0.00    -0.237 OA
ATOM     63  O   UNL     1       0.856 -10.842  -2.338  1.00  0.00    -0.237 OA
ATOM     64  O   UNL     1       0.333  -8.943  -3.795  1.00  0.00    -0.744 OA
ENDBRANCH  58  61
ENDBRANCH  30  54
BRANCH  42  65
ATOM     65  C   UNL     1       8.314  -7.739 -10.537  1.00  0.00     0.023 A 
ATOM     66  C   UNL     1       7.411  -8.251 -11.489  1.00  0.00     0.012 A 
ATOM     67  C   UNL     1       9.692  -7.994 -10.672  1.00  0.00     0.148 A 
ATOM     68  C   UNL     1       7.873  -9.020 -12.554  1.00  0.00     0.002 A 
ATOM     69  C   UNL     1      10.149  -8.716 -11.765  1.00  0.00     0.091 A 
ATOM     70  F   UNL     1      10.526  -7.507  -9.742  1.00  0.00    -0.205 F 
ATOM     71  C   UNL     1       9.241  -9.239 -12.701  1.00  0.00     0.022 A 
BRANCH  69  72
ATOM     72  S   UNL     1      11.898  -8.951 -12.096  1.00  0.00     0.127 S 
ATOM     73  O   UNL     1      12.059 -10.383 -11.845  1.00  0.00    -0.237 OA
ATOM     74  O   UNL     1      12.002  -8.561 -13.502  1.00  0.00    -0.237 OA
ATOM     75  O   UNL     1      12.605  -8.075 -11.171  1.00  0.00    -0.744 OA
ENDBRANCH  69  72
ENDBRANCH  42  65
ENDBRANCH  16  17
ENDBRANCH   9  11
ENDBRANCH   8   9
ENDBRANCH   7   8
ENDBRANCH   6   7
ENDBRANCH   5   6
ENDBRANCH   4   5
ENDBRANCH   3   4
ENDBRANCH   2   3
ENDBRANCH   1   2
BRANCH   1  76
ATOM     76  C   UNL     1       4.687  -2.773   2.278  1.00  0.00     0.188 C 
BRANCH  76  77
ATOM     77  O   UNL     1       3.830  -3.577   1.481  1.00  0.00    -0.376 OA
BRANCH  77  78
ATOM     78  C   UNL     1       3.864  -4.976   1.754  1.00  0.00     0.202 C 
BRANCH  78  79
ATOM     79  C   UNL     1       3.096  -5.375   3.019  1.00  0.00     0.261 C 
BRANCH  79  80
ATOM     80  O   UNL     1       3.604  -4.787   4.233  1.00  0.00    -0.460 OA
BRANCH  80  81
ATOM     81  C   UNL     1       4.866  -5.072   4.627  1.00  0.00     0.340 C 
ATOM     82  O   UNL     1       5.616  -5.894   4.132  1.00  0.00    -0.246 OA
BRANCH  81  83
ATOM     83  C   UNL     1       5.270  -4.067   5.655  1.00  0.00     0.083 A 
ATOM     84  C   UNL     1       6.574  -3.555   5.556  1.00  0.00     0.018 A 
ATOM     85  C   UNL     1       4.371  -3.562   6.626  1.00  0.00     0.055 A 
ATOM     86  C   UNL     1       6.992  -2.532   6.404  1.00  0.00     0.001 A 
ATOM     87  C   UNL     1       4.831  -2.557   7.490  1.00  0.00     0.027 A 
ATOM     88  C   UNL     1       6.123  -2.039   7.374  1.00  0.00     0.002 A 
BRANCH  85  89
ATOM     89  N   UNL     1       3.068  -4.074   6.719  1.00  0.00    -0.323 N 
ATOM     90  H   UNL     1       2.687  -4.396   5.870  1.00  0.00     0.170 HD
BRANCH  89  91
ATOM     91  C   UNL     1       2.234  -4.196   7.814  1.00  0.00     0.233 A 
ATOM     92  N   UNL     1       1.918  -3.159   8.569  1.00  0.00    -0.182 NA
ATOM     93  N   UNL     1       1.846  -5.442   8.050  1.00  0.00    -0.176 NA
ATOM     94  C   UNL     1       1.120  -3.474   9.573  1.00  0.00     0.228 A 
ATOM     95  C   UNL     1       1.138  -5.647   9.146  1.00  0.00     0.233 A 
ATOM     96  Cl  UNL     1       0.637  -2.181  10.582  1.00  0.00    -0.041 Cl
ATOM     97  N   UNL     1       0.705  -4.675   9.933  1.00  0.00    -0.182 NA
BRANCH  95  98
ATOM     98  N   UNL     1       0.989  -6.980   9.508  1.00  0.00    -0.324 N 
ATOM     99  H   UNL     1       1.435  -7.638   8.926  1.00  0.00     0.170 HD
BRANCH  98 100
ATOM    100  C   UNL     1       0.287  -7.499  10.590  1.00  0.00     0.041 A 
ATOM    101  C   UNL     1       0.926  -8.344  11.502  1.00  0.00     0.028 A 
ATOM    102  C   UNL     1      -1.024  -7.095  10.845  1.00  0.00     0.028 A 
ATOM    103  C   UNL     1       0.273  -8.745  12.671  1.00  0.00     0.028 A 
ATOM    104  C   UNL     1      -1.696  -7.538  11.979  1.00  0.00     0.028 A 
ATOM    105  C   UNL     1      -1.046  -8.347  12.914  1.00  0.00     0.044 A 
BRANCH 105 106
ATOM    106  N   UNL     1      -1.698  -8.684  14.131  1.00  0.00    -0.308 N 
ATOM    107  C   UNL     1      -1.012  -8.290  15.367  1.00  0.00     0.154 C 
ATOM    108  C   UNL     1      -3.058  -9.011  14.139  1.00  0.00     0.253 C 
ATOM    109  C   UNL     1      -1.667  -8.852  16.620  1.00  0.00     0.183 C 
ATOM    110  C   UNL     1      -3.701  -9.142  15.527  1.00  0.00     0.260 C 
ATOM    111  O   UNL     1      -3.721  -9.279  13.135  1.00  0.00    -0.272 OA
ATOM    112  O   UNL     1      -3.053  -8.518  16.624  1.00  0.00    -0.370 OA
ENDBRANCH 105 106
ENDBRANCH  98 100
ENDBRANCH  95  98
ENDBRANCH  89  91
ENDBRANCH  85  89
ENDBRANCH  81  83
ENDBRANCH  80  81
ENDBRANCH  79  80
ENDBRANCH  78  79
ENDBRANCH  77  78
ENDBRANCH  76  77
ENDBRANCH   1  76
TORSDOF 28
