REMARK SMILES Cc1ccc(S(=O)(=O)n2cc(C(=O)C(=O)NCC(=O)OCCOCCOCCOCCOC(=O)c3ccc(-c4c5nc(c(-c6cccc(S(=O)(=O)[O-])c6F)c6ccc([nH]6)c(-c6cccc(S(=O)(=O)[O-])c6F)c6nc(c(-c7cccc(S(=O)(=O)[O-])c7F)c7ccc4[nH]7)C=C6)C=C5)cc3)c3ccccc32)cc1
REMARK SMILES IDX 25 1 24 2 23 3 22 4 21 5 20 6 18 7 19 8 17 9 16 10 14 11
REMARK SMILES IDX 15 12 12 14 13 15 11 16 9 17 10 18 103 19 98 20 102 21 99 22
REMARK SMILES IDX 101 23 100 24 6 25 7 26 8 27 5 28 1 29 2 30 3 31 105 32 4 33
REMARK SMILES IDX 104 34 26 35 27 36 28 37 29 38 30 39 31 40 32 41 33 42 34 43
REMARK SMILES IDX 35 44 36 45 97 46 37 47 96 48 38 49 39 50 40 51 90 52 41 53
REMARK SMILES IDX 95 54 89 55 91 56 42 57 94 58 88 59 87 60 43 62 75 63 55 64
REMARK SMILES IDX 74 65 56 66 59 67 73 68 92 69 57 70 58 71 72 73 93 74 60 75
REMARK SMILES IDX 44 76 45 77 53 78 46 79 48 80 54 81 47 82 49 83 50 84 51 85
REMARK SMILES IDX 52 86 76 87 77 88 85 89 78 90 80 91 86 92 79 93 81 94 82 95
REMARK SMILES IDX 83 96 84 97 61 98 62 99 70 100 63 101 65 102 71 103 64 104
REMARK SMILES IDX 66 105 67 106 68 107 69 108
REMARK H PARENT 16 13 91 61 59 72
REMARK Flexibility Score: inf
ROOT
ATOM      1  C   UNL     1      -8.550   4.781   5.482  1.00  0.00     0.188 C 
ENDROOT
BRANCH   1   2
ATOM      2  C   UNL     1      -8.550   6.266   5.887  1.00  0.00     0.188 C 
BRANCH   2   3
ATOM      3  O   UNL     1      -9.743   7.024   5.789  1.00  0.00    -0.376 OA
BRANCH   3   4
ATOM      4  C   UNL     1     -10.106   7.465   4.480  1.00  0.00     0.202 C 
BRANCH   4   5
ATOM      5  C   UNL     1      -9.097   8.349   3.749  1.00  0.00     0.261 C 
BRANCH   5   6
ATOM      6  O   UNL     1      -8.007   7.536   3.287  1.00  0.00    -0.462 OA
BRANCH   6   7
ATOM      7  C   UNL     1      -6.770   8.066   3.388  1.00  0.00     0.325 C 
ATOM      8  O   UNL     1      -6.504   9.230   3.664  1.00  0.00    -0.250 OA
BRANCH   7   9
ATOM      9  C   UNL     1      -5.693   7.002   3.177  1.00  0.00     0.239 C 
BRANCH   9  10
ATOM     10  N   UNL     1      -6.133   5.611   3.307  1.00  0.00    -0.338 N 
ATOM     11  C   UNL     1      -6.094   4.529   2.470  1.00  0.00     0.292 C 
ATOM     12  O   UNL     1      -6.410   3.416   2.879  1.00  0.00    -0.265 OA
ATOM     13  H   UNL     1      -6.544   5.413   4.180  1.00  0.00     0.164 HD
BRANCH  11  14
ATOM     14  C   UNL     1      -5.593   4.699   1.042  1.00  0.00     0.252 C 
ATOM     15  O   UNL     1      -5.709   5.810   0.532  1.00  0.00    -0.283 OA
BRANCH  14  16
ATOM     16  C   UNL     1      -4.952   3.599   0.310  1.00  0.00     0.054 A 
ATOM     17  N   UNL     1      -4.107   1.628  -0.313  1.00  0.00    -0.240 N 
ATOM     18  C   UNL     1      -4.775   2.280   0.696  1.00  0.00     0.117 A 
ATOM     19  C   UNL     1      -3.809   2.487  -1.349  1.00  0.00     0.065 A 
ATOM     20  C   UNL     1      -4.340   3.728  -0.981  1.00  0.00     0.012 A 
ATOM     21  C   UNL     1      -3.102   2.322  -2.554  1.00  0.00     0.028 A 
ATOM     22  C   UNL     1      -4.178   4.825  -1.853  1.00  0.00     0.011 A 
ATOM     23  C   UNL     1      -2.926   3.439  -3.377  1.00  0.00     0.002 A 
ATOM     24  C   UNL     1      -3.461   4.674  -3.037  1.00  0.00     0.001 A 
BRANCH  17  25
ATOM     25  S   UNL     1      -3.556   0.018  -0.189  1.00  0.00     0.268 S 
ATOM     26  O   UNL     1      -3.851  -0.588  -1.487  1.00  0.00    -0.201 OA
ATOM     27  O   UNL     1      -4.086  -0.512   1.039  1.00  0.00    -0.201 OA
BRANCH  25  28
ATOM     28  C   UNL     1      -1.787   0.061  -0.029  1.00  0.00     0.088 A 
ATOM     29  C   UNL     1       2.514  -0.043   0.030  1.00  0.00     0.044 C 
ATOM     30  C   UNL     1       1.014  -0.005   0.039  1.00  0.00    -0.051 A 
ATOM     31  C   UNL     1       0.282  -1.197  -0.039  1.00  0.00     0.005 A 
ATOM     32  C   UNL     1       0.329   1.213   0.120  1.00  0.00     0.005 A 
ATOM     33  C   UNL     1      -1.113  -1.166  -0.079  1.00  0.00     0.022 A 
ATOM     34  C   UNL     1      -1.068   1.250   0.100  1.00  0.00     0.022 A 
ENDBRANCH  25  28
ENDBRANCH  17  25
ENDBRANCH  14  16
ENDBRANCH  11  14
ENDBRANCH   9  10
ENDBRANCH   7   9
ENDBRANCH   6   7
ENDBRANCH   5   6
ENDBRANCH   4   5
ENDBRANCH   3   4
ENDBRANCH   2   3
ENDBRANCH   1   2
BRANCH   1  35
ATOM     35  O   UNL     1      -8.918   4.478   4.153  1.00  0.00    -0.377 OA
BRANCH  35  36
ATOM     36  C   UNL     1     -10.104   3.700   3.926  1.00  0.00     0.188 C 
BRANCH  36  37
ATOM     37  C   UNL     1     -10.838   3.077   5.115  1.00  0.00     0.188 C 
BRANCH  37  38
ATOM     38  O   UNL     1     -11.248   4.129   5.984  1.00  0.00    -0.376 OA
BRANCH  38  39
ATOM     39  C   UNL     1     -11.292   3.851   7.377  1.00  0.00     0.202 C 
BRANCH  39  40
ATOM     40  C   UNL     1     -12.286   2.756   7.745  1.00  0.00     0.261 C 
BRANCH  40  41
ATOM     41  O   UNL     1     -13.625   3.241   7.525  1.00  0.00    -0.460 OA
BRANCH  41  42
ATOM     42  C   UNL     1     -14.205   2.778   6.382  1.00  0.00     0.338 C 
ATOM     43  O   UNL     1     -14.387   1.594   6.148  1.00  0.00    -0.246 OA
BRANCH  42  44
ATOM     44  C   UNL     1     -14.352   3.879   5.381  1.00  0.00     0.060 A 
ATOM     45  C   UNL     1     -14.704   3.580   4.060  1.00  0.00     0.016 A 
ATOM     46  C   UNL     1     -13.814   5.127   5.664  1.00  0.00     0.016 A 
ATOM     47  C   UNL     1     -14.299   4.425   3.010  1.00  0.00     0.010 A 
ATOM     48  C   UNL     1     -13.308   5.878   4.615  1.00  0.00     0.010 A 
ATOM     49  C   UNL     1     -13.487   5.517   3.266  1.00  0.00    -0.014 A 
BRANCH  49  50
ATOM     50  C   UNL     1     -12.735   6.324   2.267  1.00  0.00     0.031 A 
ATOM     51  C   UNL     1     -12.834   7.827   2.411  1.00  0.00     0.074 A 
ATOM     52  C   UNL     1     -11.707   5.782   1.550  1.00  0.00     0.049 A 
ATOM     53  N   UNL     1     -12.017   8.697   1.923  1.00  0.00    -0.248 NA
ATOM     54  C   UNL     1     -13.891   8.467   3.199  1.00  0.00     0.031 C 
ATOM     55  C   UNL     1     -10.424   6.457   1.317  1.00  0.00     0.029 A 
ATOM     56  N   UNL     1     -11.422   4.524   1.030  1.00  0.00    -0.354 N 
ATOM     57  C   UNL     1     -12.286   9.941   2.476  1.00  0.00     0.074 A 
ATOM     58  C   UNL     1     -13.476   9.738   3.256  1.00  0.00     0.031 C 
ATOM     59  C   UNL     1      -9.558   5.672   0.669  1.00  0.00     0.029 A 
ATOM     60  C   UNL     1     -10.345   4.610   0.128  1.00  0.00     0.049 A 
ATOM     61  H   UNL     1     -11.903   3.696   1.259  1.00  0.00     0.167 HD
ATOM     62  C   UNL     1     -11.412  10.970   2.259  1.00  0.00     0.034 A 
ATOM     63  C   UNL     1     -10.422   4.421  -1.227  1.00  0.00     0.034 A 
ATOM     64  C   UNL     1     -10.438  10.603   1.203  1.00  0.00     0.049 A 
ATOM     65  C   UNL     1     -10.242   5.723  -2.036  1.00  0.00     0.074 A 
ATOM     66  C   UNL     1      -9.056  10.517   1.123  1.00  0.00     0.029 A 
ATOM     67  N   UNL     1     -10.916  10.102  -0.008  1.00  0.00    -0.354 N 
ATOM     68  N   UNL     1     -10.166   6.920  -1.498  1.00  0.00    -0.248 NA
ATOM     69  C   UNL     1     -10.078   5.797  -3.488  1.00  0.00     0.031 C 
ATOM     70  C   UNL     1      -8.721   9.858  -0.094  1.00  0.00     0.029 A 
ATOM     71  C   UNL     1      -9.889   9.633  -0.802  1.00  0.00     0.049 A 
ATOM     72  H   UNL     1     -11.867  10.085  -0.265  1.00  0.00     0.167 HD
ATOM     73  C   UNL     1     -10.076   7.893  -2.460  1.00  0.00     0.074 A 
ATOM     74  C   UNL     1      -9.959   7.125  -3.688  1.00  0.00     0.031 C 
ATOM     75  C   UNL     1     -10.152   9.236  -2.179  1.00  0.00     0.034 A 
BRANCH  62  76
ATOM     76  C   UNL     1     -11.290  12.298   3.041  1.00  0.00     0.023 A 
ATOM     77  C   UNL     1     -10.224  13.153   2.658  1.00  0.00     0.012 A 
ATOM     78  C   UNL     1     -12.046  12.758   4.154  1.00  0.00     0.148 A 
ATOM     79  C   UNL     1      -9.871  14.319   3.351  1.00  0.00     0.002 A 
ATOM     80  C   UNL     1     -11.729  13.961   4.818  1.00  0.00     0.091 A 
ATOM     81  F   UNL     1     -13.067  12.034   4.615  1.00  0.00    -0.205 F 
ATOM     82  C   UNL     1     -10.624  14.725   4.434  1.00  0.00     0.022 A 
BRANCH  80  83
ATOM     83  S   UNL     1     -12.685  14.639   6.196  1.00  0.00     0.127 S 
ATOM     84  O   UNL     1     -11.680  14.737   7.256  1.00  0.00    -0.237 OA
ATOM     85  O   UNL     1     -13.128  15.929   5.667  1.00  0.00    -0.237 OA
ATOM     86  O   UNL     1     -13.756  13.686   6.463  1.00  0.00    -0.744 OA
ENDBRANCH  80  83
ENDBRANCH  62  76
BRANCH  63  87
ATOM     87  C   UNL     1     -11.170   3.163  -1.545  1.00  0.00     0.023 A 
ATOM     88  C   UNL     1     -10.532   2.009  -1.010  1.00  0.00     0.012 A 
ATOM     89  C   UNL     1     -12.571   3.223  -1.533  1.00  0.00     0.148 A 
ATOM     90  C   UNL     1     -11.236   1.154  -0.159  1.00  0.00     0.002 A 
ATOM     91  C   UNL     1     -13.272   2.350  -0.699  1.00  0.00     0.091 A 
ATOM     92  F   UNL     1     -13.176   4.224  -2.185  1.00  0.00    -0.205 F 
ATOM     93  C   UNL     1     -12.596   1.366   0.047  1.00  0.00     0.022 A 
BRANCH  91  94
ATOM     94  S   UNL     1     -15.010   2.649  -0.354  1.00  0.00     0.127 S 
ATOM     95  O   UNL     1     -15.664   1.976  -1.469  1.00  0.00    -0.237 OA
ATOM     96  O   UNL     1     -15.194   2.004   0.948  1.00  0.00    -0.237 OA
ATOM     97  O   UNL     1     -15.118   4.101  -0.314  1.00  0.00    -0.744 OA
ENDBRANCH  91  94
ENDBRANCH  63  87
BRANCH  75  98
ATOM     98  C   UNL     1     -10.495  10.357  -3.170  1.00  0.00     0.023 A 
ATOM     99  C   UNL     1     -10.945  10.088  -4.474  1.00  0.00     0.012 A 
ATOM    100  C   UNL     1     -10.544  11.727  -2.764  1.00  0.00     0.148 A 
ATOM    101  C   UNL     1     -11.372  11.102  -5.342  1.00  0.00     0.002 A 
ATOM    102  C   UNL     1     -11.078  12.715  -3.591  1.00  0.00     0.091 A 
ATOM    103  F   UNL     1     -10.056  12.101  -1.575  1.00  0.00    -0.205 F 
ATOM    104  C   UNL     1     -11.463  12.410  -4.894  1.00  0.00     0.022 A 
BRANCH 102 105
ATOM    105  S   UNL     1     -11.434  14.379  -2.997  1.00  0.00     0.127 S 
ATOM    106  O   UNL     1     -10.362  15.153  -3.619  1.00  0.00    -0.237 OA
ATOM    107  O   UNL     1     -12.765  14.622  -3.557  1.00  0.00    -0.237 OA
ATOM    108  O   UNL     1     -11.399  14.300  -1.544  1.00  0.00    -0.744 OA
ENDBRANCH 102 105
ENDBRANCH  75  98
ENDBRANCH  49  50
ENDBRANCH  42  44
ENDBRANCH  41  42
ENDBRANCH  40  41
ENDBRANCH  39  40
ENDBRANCH  38  39
ENDBRANCH  37  38
ENDBRANCH  36  37
ENDBRANCH  35  36
ENDBRANCH   1  35
TORSDOF 28
