REMARK SMILES O=C1NC(=S)S/C1=C\c1ccc(OCc2cn(-c3ccc(C(=O)OCCOCCOCCOCCOC(=O)c4ccc(-c5c6nc(c(-c7cccc(S(=O)(=O)[O-])c7F)c7ccc([nH]7)c(-c7cccc(S(=O)(=O)[O-])c7F)c7nc(c(-c8cccc(S(=O)(=O)[O-])c8F)c8ccc5[nH]8)C=C7)C=C6)cc4)cc3)nn2)cc1
REMARK SMILES IDX 29 1 28 2 27 3 26 4 25 5 24 6 22 7 23 8 21 9 18 10 19 11
REMARK SMILES IDX 103 12 20 13 102 14 17 15 15 16 16 17 105 18 104 19 14 20
REMARK SMILES IDX 13 21 12 22 9 23 10 24 107 25 11 26 106 27 8 28 1 29 2 30
REMARK SMILES IDX 3 31 7 32 4 33 6 35 5 36 30 37 31 38 32 39 33 40 34 41 35 42
REMARK SMILES IDX 36 43 37 44 38 45 39 46 40 47 101 48 41 49 100 50 42 51
REMARK SMILES IDX 43 52 44 53 94 54 45 55 99 56 93 57 95 58 46 59 98 60 92 61
REMARK SMILES IDX 91 62 47 64 79 65 59 66 78 67 60 68 63 69 77 70 96 71 61 72
REMARK SMILES IDX 62 73 76 75 97 76 64 77 48 78 49 79 57 80 50 81 52 82 58 83
REMARK SMILES IDX 51 84 53 85 54 86 55 87 56 88 80 89 81 90 89 91 82 92 84 93
REMARK SMILES IDX 90 94 83 95 85 96 86 97 87 98 88 99 65 100 66 101 74 102
REMARK SMILES IDX 67 103 69 104 75 105 68 106 70 107 71 108 72 109 73 110
REMARK H PARENT 3 34 95 63 63 74
REMARK Flexibility Score: inf
ROOT
ATOM      1  C   UNL     1       7.440   7.922   0.054  1.00  0.00     0.188 C 
ENDROOT
BRANCH   1   2
ATOM      2  C   UNL     1       7.886   8.073  -1.417  1.00  0.00     0.188 C 
BRANCH   2   3
ATOM      3  O   UNL     1       8.949   8.936  -1.800  1.00  0.00    -0.376 OA
BRANCH   3   4
ATOM      4  C   UNL     1       9.133  10.223  -1.237  1.00  0.00     0.202 C 
BRANCH   4   5
ATOM      5  C   UNL     1       7.984  11.200  -0.933  1.00  0.00     0.261 C 
BRANCH   5   6
ATOM      6  O   UNL     1       6.683  10.645  -0.763  1.00  0.00    -0.460 OA
BRANCH   6   7
ATOM      7  C   UNL     1       5.951  10.536  -1.889  1.00  0.00     0.338 C 
ATOM      8  O   UNL     1       6.254  10.906  -3.011  1.00  0.00    -0.246 OA
BRANCH   7   9
ATOM      9  C   UNL     1       4.761   9.716  -1.586  1.00  0.00     0.060 A 
ATOM     10  C   UNL     1       2.469   8.201  -1.177  1.00  0.00     0.066 A 
ATOM     11  C   UNL     1       3.330   7.883  -2.237  1.00  0.00     0.029 A 
ATOM     12  C   UNL     1       2.812   9.201  -0.256  1.00  0.00     0.029 A 
ATOM     13  C   UNL     1       4.451   8.671  -2.464  1.00  0.00     0.018 A 
ATOM     14  C   UNL     1       3.979   9.944  -0.449  1.00  0.00     0.018 A 
BRANCH  10  15
ATOM     15  N   UNL     1       1.196   7.588  -1.146  1.00  0.00    -0.220 N 
ATOM     16  C   UNL     1      -0.966   7.309  -1.157  1.00  0.00     0.120 A 
ATOM     17  C   UNL     1       0.029   8.101  -0.624  1.00  0.00     0.144 A 
ATOM     18  N   UNL     1      -0.387   6.321  -1.907  1.00  0.00    -0.131 NA
ATOM     19  N   UNL     1       0.922   6.491  -1.887  1.00  0.00    -0.062 NA
BRANCH  16  20
ATOM     20  C   UNL     1      -2.449   7.467  -1.133  1.00  0.00     0.289 C 
BRANCH  20  21
ATOM     21  O   UNL     1      -3.132   6.726  -0.113  1.00  0.00    -0.487 OA
BRANCH  21  22
ATOM     22  C   UNL     1      -3.121   5.361  -0.195  1.00  0.00     0.119 A 
ATOM     23  C   UNL     1      -2.902   2.569  -0.019  1.00  0.00    -0.024 A 
ATOM     24  C   UNL     1      -3.362   3.305   1.074  1.00  0.00     0.012 A 
ATOM     25  C   UNL     1      -2.640   3.225  -1.224  1.00  0.00     0.012 A 
ATOM     26  C   UNL     1      -3.469   4.697   0.984  1.00  0.00     0.047 A 
ATOM     27  C   UNL     1      -2.770   4.612  -1.316  1.00  0.00     0.047 A 
BRANCH  23  28
ATOM     28  C   UNL     1      -2.666   1.129   0.098  1.00  0.00     0.029 C 
ATOM     29  O   UNL     1      -2.189  -1.742   0.156  1.00  0.00    -0.268 OA
ATOM     30  C   UNL     1      -1.283  -0.923   0.144  1.00  0.00     0.263 C 
ATOM     31  N   UNL     1       0.048  -1.232   0.112  1.00  0.00    -0.307 N 
ATOM     32  C   UNL     1      -1.455   0.553   0.086  1.00  0.00     0.080 C 
ATOM     33  C   UNL     1       0.942  -0.211   0.000  1.00  0.00     0.145 C 
ATOM     34  H   UNL     1       0.351  -2.166   0.167  1.00  0.00     0.171 HD
ATOM     35  S   UNL     1       0.092   1.316  -0.022  1.00  0.00    -0.055 SA
ATOM     36  S   UNL     1       2.575  -0.438  -0.147  1.00  0.00    -0.052 S 
ENDBRANCH  23  28
ENDBRANCH  21  22
ENDBRANCH  20  21
ENDBRANCH  16  20
ENDBRANCH  10  15
ENDBRANCH   7   9
ENDBRANCH   6   7
ENDBRANCH   5   6
ENDBRANCH   4   5
ENDBRANCH   3   4
ENDBRANCH   2   3
ENDBRANCH   1   2
BRANCH   1  37
ATOM     37  O   UNL     1       8.034   8.869   0.925  1.00  0.00    -0.377 OA
BRANCH  37  38
ATOM     38  C   UNL     1       9.186   8.415   1.631  1.00  0.00     0.188 C 
BRANCH  38  39
ATOM     39  C   UNL     1      10.281   7.649   0.840  1.00  0.00     0.188 C 
BRANCH  39  40
ATOM     40  O   UNL     1       9.785   6.699  -0.097  1.00  0.00    -0.376 OA
BRANCH  40  41
ATOM     41  C   UNL     1       9.902   5.301   0.105  1.00  0.00     0.202 C 
BRANCH  41  42
ATOM     42  C   UNL     1       9.035   4.687   1.198  1.00  0.00     0.261 C 
BRANCH  42  43
ATOM     43  O   UNL     1       9.018   5.464   2.375  1.00  0.00    -0.460 OA
BRANCH  43  44
ATOM     44  C   UNL     1      10.189   5.536   3.024  1.00  0.00     0.338 C 
ATOM     45  O   UNL     1      11.280   5.119   2.641  1.00  0.00    -0.246 OA
BRANCH  44  46
ATOM     46  C   UNL     1       9.937   6.115   4.338  1.00  0.00     0.060 A 
ATOM     47  C   UNL     1      11.058   6.225   5.157  1.00  0.00     0.016 A 
ATOM     48  C   UNL     1       8.624   6.045   4.832  1.00  0.00     0.016 A 
ATOM     49  C   UNL     1      10.893   5.886   6.469  1.00  0.00     0.010 A 
ATOM     50  C   UNL     1       8.465   5.672   6.133  1.00  0.00     0.010 A 
ATOM     51  C   UNL     1       9.618   5.491   6.888  1.00  0.00    -0.014 A 
BRANCH  51  52
ATOM     52  C   UNL     1       9.501   4.934   8.206  1.00  0.00     0.031 A 
ATOM     53  C   UNL     1       9.553   5.991   9.230  1.00  0.00     0.074 A 
ATOM     54  C   UNL     1       9.293   3.620   8.393  1.00  0.00     0.049 A 
ATOM     55  N   UNL     1      10.509   6.227  10.063  1.00  0.00    -0.248 NA
ATOM     56  C   UNL     1       8.544   7.060   9.142  1.00  0.00     0.031 C 
ATOM     57  C   UNL     1       8.949   2.608   7.388  1.00  0.00     0.029 A 
ATOM     58  N   UNL     1       9.184   2.943   9.563  1.00  0.00    -0.354 N 
ATOM     59  C   UNL     1      10.066   7.323  10.792  1.00  0.00     0.074 A 
ATOM     60  C   UNL     1       9.029   7.942  10.014  1.00  0.00     0.031 C 
ATOM     61  C   UNL     1       8.408   1.538   8.015  1.00  0.00     0.029 A 
ATOM     62  C   UNL     1       8.478   1.751   9.450  1.00  0.00     0.049 A 
ATOM     63  H   UNL     1       9.568   3.264  10.410  1.00  0.00     0.167 HD
ATOM     64  C   UNL     1      10.331   7.416  12.120  1.00  0.00     0.034 A 
ATOM     65  C   UNL     1       7.893   1.079  10.472  1.00  0.00     0.034 A 
ATOM     66  C   UNL     1      11.432   6.564  12.494  1.00  0.00     0.049 A 
ATOM     67  C   UNL     1       8.499   1.577  11.733  1.00  0.00     0.074 A 
ATOM     68  C   UNL     1      12.748   6.442  12.092  1.00  0.00     0.029 A 
ATOM     69  N   UNL     1      11.117   5.392  13.139  1.00  0.00    -0.354 N 
ATOM     70  N   UNL     1       9.745   1.379  12.063  1.00  0.00    -0.248 NA
ATOM     71  C   UNL     1       7.842   2.684  12.413  1.00  0.00     0.031 C 
ATOM     72  C   UNL     1      13.016   5.043  12.123  1.00  0.00     0.029 A 
ATOM     73  C   UNL     1      11.875   4.390  12.597  1.00  0.00     0.049 A 
ATOM     74  H   UNL     1      10.460   5.291  13.865  1.00  0.00     0.167 HD
ATOM     75  C   UNL     1      10.152   2.586  12.622  1.00  0.00     0.074 A 
ATOM     76  C   UNL     1       8.913   3.305  12.915  1.00  0.00     0.031 C 
ATOM     77  C   UNL     1      11.445   3.011  12.511  1.00  0.00     0.034 A 
BRANCH  64  78
ATOM     78  C   UNL     1       9.332   7.925  13.135  1.00  0.00     0.023 A 
ATOM     79  C   UNL     1       9.796   8.073  14.458  1.00  0.00     0.012 A 
ATOM     80  C   UNL     1       7.931   7.990  12.937  1.00  0.00     0.148 A 
ATOM     81  C   UNL     1       8.910   8.210  15.531  1.00  0.00     0.002 A 
ATOM     82  C   UNL     1       7.061   8.214  13.994  1.00  0.00     0.091 A 
ATOM     83  F   UNL     1       7.396   7.698  11.750  1.00  0.00    -0.205 F 
ATOM     84  C   UNL     1       7.542   8.288  15.300  1.00  0.00     0.022 A 
BRANCH  82  85
ATOM     85  S   UNL     1       5.289   8.369  13.730  1.00  0.00     0.127 S 
ATOM     86  O   UNL     1       4.806   7.090  14.239  1.00  0.00    -0.237 OA
ATOM     87  O   UNL     1       4.966   9.531  14.558  1.00  0.00    -0.237 OA
ATOM     88  O   UNL     1       5.122   8.596  12.300  1.00  0.00    -0.744 OA
ENDBRANCH  82  85
ENDBRANCH  64  78
BRANCH  65  89
ATOM     89  C   UNL     1       6.643   0.282  10.469  1.00  0.00     0.023 A 
ATOM     90  C   UNL     1       6.398  -0.626  11.518  1.00  0.00     0.012 A 
ATOM     91  C   UNL     1       5.574   0.597   9.599  1.00  0.00     0.148 A 
ATOM     92  C   UNL     1       5.127  -1.180  11.711  1.00  0.00     0.002 A 
ATOM     93  C   UNL     1       4.316   0.032   9.786  1.00  0.00     0.091 A 
ATOM     94  F   UNL     1       5.762   1.520   8.648  1.00  0.00    -0.205 F 
ATOM     95  C   UNL     1       4.085  -0.847  10.850  1.00  0.00     0.022 A 
BRANCH  93  96
ATOM     96  S   UNL     1       2.921   0.430   8.721  1.00  0.00     0.127 S 
ATOM     97  O   UNL     1       2.393  -0.898   8.405  1.00  0.00    -0.237 OA
ATOM     98  O   UNL     1       2.080   1.227   9.609  1.00  0.00    -0.237 OA
ATOM     99  O   UNL     1       3.482   1.137   7.577  1.00  0.00    -0.744 OA
ENDBRANCH  93  96
ENDBRANCH  65  89
BRANCH  77 100
ATOM    100  C   UNL     1      12.475   2.026  12.016  1.00  0.00     0.023 A 
ATOM    101  C   UNL     1      12.437   1.477  10.717  1.00  0.00     0.012 A 
ATOM    102  C   UNL     1      13.601   1.790  12.821  1.00  0.00     0.148 A 
ATOM    103  C   UNL     1      13.492   0.692  10.242  1.00  0.00     0.002 A 
ATOM    104  C   UNL     1      14.668   1.050  12.328  1.00  0.00     0.091 A 
ATOM    105  F   UNL     1      13.623   2.323  14.052  1.00  0.00    -0.205 F 
ATOM    106  C   UNL     1      14.614   0.490  11.042  1.00  0.00     0.022 A 
BRANCH 104 107
ATOM    107  S   UNL     1      16.189   0.870  13.261  1.00  0.00     0.127 S 
ATOM    108  O   UNL     1      16.088  -0.504  13.747  1.00  0.00    -0.237 OA
ATOM    109  O   UNL     1      17.214   1.084  12.238  1.00  0.00    -0.237 OA
ATOM    110  O   UNL     1      16.153   1.904  14.288  1.00  0.00    -0.744 OA
ENDBRANCH 104 107
ENDBRANCH  77 100
ENDBRANCH  51  52
ENDBRANCH  44  46
ENDBRANCH  43  44
ENDBRANCH  42  43
ENDBRANCH  41  42
ENDBRANCH  40  41
ENDBRANCH  39  40
ENDBRANCH  38  39
ENDBRANCH  37  38
ENDBRANCH   1  37
TORSDOF 28
