REMARK SMILES Cn1c(=O)[nH]c(=O)c2c1nc(NC1CCCC1)n2CC(=O)OCCOCCOCCOCCOC(=O)c1ccc(-c2c3nc(c(-c4cccc(S(=O)(=O)[O-])c4F)c4ccc([nH]4)c(-c4cccc(S(=O)(=O)[O-])c4F)c4nc(c(-c5cccc(S(=O)(=O)[O-])c5F)c5ccc2[nH]5)C=C4)C=C3)cc1
REMARK SMILES IDX 28 1 27 2 26 3 25 4 24 5 23 6 22 7 20 8 21 9 19 10 18 11
REMARK SMILES IDX 1 12 2 13 3 14 9 15 4 16 5 17 8 18 10 19 6 20 11 22 7 23
REMARK SMILES IDX 12 24 13 26 14 27 17 28 15 29 16 30 29 31 30 32 31 33 32 34
REMARK SMILES IDX 33 35 34 36 35 37 36 38 37 39 38 40 99 41 39 42 98 43 40 44
REMARK SMILES IDX 41 45 42 46 92 47 43 48 97 49 91 50 93 51 44 52 96 53 90 54
REMARK SMILES IDX 89 55 45 57 77 58 57 59 76 60 58 61 61 62 75 63 94 64 59 65
REMARK SMILES IDX 60 66 74 68 95 69 62 70 46 71 47 72 55 73 48 74 50 75 56 76
REMARK SMILES IDX 49 77 51 78 52 79 53 80 54 81 78 82 79 83 87 84 80 85 82 86
REMARK SMILES IDX 88 87 81 88 83 89 84 90 85 91 86 92 63 93 64 94 72 95 65 96
REMARK SMILES IDX 67 97 73 98 66 99 68 100 69 101 70 102 71 103
REMARK H PARENT 5 21 12 25 93 56 61 67
REMARK Flexibility Score: inf
ROOT
ATOM      1  O   UNL     1      -2.632   5.745  -1.513  1.00  0.00    -0.377 OA
ENDROOT
BRANCH   1   2
ATOM      2  C   UNL     1      -1.230   5.846  -1.710  1.00  0.00     0.188 C 
BRANCH   2   3
ATOM      3  C   UNL     1      -0.759   6.916  -2.734  1.00  0.00     0.188 C 
BRANCH   3   4
ATOM      4  O   UNL     1      -1.668   7.589  -3.602  1.00  0.00    -0.376 OA
BRANCH   4   5
ATOM      5  C   UNL     1      -2.923   6.986  -3.865  1.00  0.00     0.202 C 
BRANCH   5   6
ATOM      6  C   UNL     1      -2.901   5.599  -4.544  1.00  0.00     0.261 C 
BRANCH   6   7
ATOM      7  O   UNL     1      -1.788   4.739  -4.176  1.00  0.00    -0.462 OA
BRANCH   7   8
ATOM      8  C   UNL     1      -0.771   4.622  -5.066  1.00  0.00     0.326 C 
ATOM      9  O   UNL     1      -0.828   5.076  -6.209  1.00  0.00    -0.250 OA
BRANCH   8  10
ATOM     10  C   UNL     1       0.541   4.054  -4.535  1.00  0.00     0.248 C 
BRANCH  10  11
ATOM     11  N   UNL     1       0.602   3.247  -3.315  1.00  0.00    -0.293 N 
ATOM     12  C   UNL     1       0.950  -0.168  -0.241  1.00  0.00     0.157 C 
ATOM     13  N   UNL     1       0.477   0.205  -1.566  1.00  0.00    -0.279 N 
ATOM     14  C   UNL     1      -0.102  -0.717  -2.422  1.00  0.00     0.329 A 
ATOM     15  C   UNL     1       0.641   1.492  -2.017  1.00  0.00     0.170 A 
ATOM     16  O   UNL     1      -0.234  -1.913  -2.170  1.00  0.00    -0.248 OA
ATOM     17  N   UNL     1      -0.533  -0.241  -3.653  1.00  0.00    -0.272 N 
ATOM     18  C   UNL     1       0.214   1.924  -3.234  1.00  0.00     0.154 A 
ATOM     19  N   UNL     1       1.299   2.447  -1.353  1.00  0.00    -0.194 NA
ATOM     20  C   UNL     1      -0.427   1.046  -4.149  1.00  0.00     0.279 A 
ATOM     21  H   UNL     1      -0.966  -0.899  -4.244  1.00  0.00     0.175 HD
ATOM     22  C   UNL     1       1.321   3.498  -2.134  1.00  0.00     0.206 A 
ATOM     23  O   UNL     1      -0.815   1.363  -5.261  1.00  0.00    -0.267 OA
BRANCH  22  24
ATOM     24  N   UNL     1       1.945   4.651  -1.807  1.00  0.00    -0.353 N 
ATOM     25  H   UNL     1       2.066   5.339  -2.501  1.00  0.00     0.163 HD
BRANCH  24  26
ATOM     26  C   UNL     1       2.451   4.914  -0.447  1.00  0.00     0.082 C 
ATOM     27  C   UNL     1       1.788   4.202   0.737  1.00  0.00     0.025 C 
ATOM     28  C   UNL     1       3.918   4.583  -0.194  1.00  0.00     0.025 C 
ATOM     29  C   UNL     1       2.646   4.635   1.917  1.00  0.00     0.002 C 
ATOM     30  C   UNL     1       4.064   4.688   1.340  1.00  0.00     0.002 C 
ENDBRANCH  24  26
ENDBRANCH  22  24
ENDBRANCH  10  11
ENDBRANCH   8  10
ENDBRANCH   7   8
ENDBRANCH   6   7
ENDBRANCH   5   6
ENDBRANCH   4   5
ENDBRANCH   3   4
ENDBRANCH   2   3
ENDBRANCH   1   2
BRANCH   1  31
ATOM     31  C   UNL     1      -3.108   6.203  -0.256  1.00  0.00     0.188 C 
BRANCH  31  32
ATOM     32  C   UNL     1      -2.846   7.691   0.036  1.00  0.00     0.188 C 
BRANCH  32  33
ATOM     33  O   UNL     1      -1.561   8.132  -0.381  1.00  0.00    -0.376 OA
BRANCH  33  34
ATOM     34  C   UNL     1      -0.572   8.410   0.592  1.00  0.00     0.202 C 
BRANCH  34  35
ATOM     35  C   UNL     1       0.028   7.243   1.369  1.00  0.00     0.261 C 
BRANCH  35  36
ATOM     36  O   UNL     1      -0.848   6.197   1.750  1.00  0.00    -0.460 OA
BRANCH  36  37
ATOM     37  C   UNL     1      -1.637   6.505   2.793  1.00  0.00     0.338 C 
ATOM     38  O   UNL     1      -1.895   7.628   3.190  1.00  0.00    -0.246 OA
BRANCH  37  39
ATOM     39  C   UNL     1      -2.035   5.277   3.490  1.00  0.00     0.060 A 
ATOM     40  C   UNL     1      -3.053   5.423   4.427  1.00  0.00     0.016 A 
ATOM     41  C   UNL     1      -1.228   4.127   3.444  1.00  0.00     0.016 A 
ATOM     42  C   UNL     1      -3.111   4.522   5.463  1.00  0.00     0.010 A 
ATOM     43  C   UNL     1      -1.289   3.222   4.486  1.00  0.00     0.010 A 
ATOM     44  C   UNL     1      -2.173   3.480   5.527  1.00  0.00    -0.014 A 
BRANCH  44  45
ATOM     45  C   UNL     1      -2.292   2.576   6.654  1.00  0.00     0.031 A 
ATOM     46  C   UNL     1      -3.534   1.778   6.564  1.00  0.00     0.074 A 
ATOM     47  C   UNL     1      -1.403   2.501   7.662  1.00  0.00     0.049 A 
ATOM     48  N   UNL     1      -4.612   1.959   7.251  1.00  0.00    -0.248 NA
ATOM     49  C   UNL     1      -3.689   0.863   5.424  1.00  0.00     0.031 C 
ATOM     50  C   UNL     1      -0.055   3.071   7.721  1.00  0.00     0.029 A 
ATOM     51  N   UNL     1      -1.485   1.795   8.826  1.00  0.00    -0.354 N 
ATOM     52  C   UNL     1      -5.498   0.992   6.793  1.00  0.00     0.074 A 
ATOM     53  C   UNL     1      -4.972   0.519   5.543  1.00  0.00     0.031 C 
ATOM     54  C   UNL     1       0.632   2.482   8.729  1.00  0.00     0.029 A 
ATOM     55  C   UNL     1      -0.262   1.605   9.466  1.00  0.00     0.049 A 
ATOM     56  H   UNL     1      -2.335   1.450   9.184  1.00  0.00     0.167 HD
ATOM     57  C   UNL     1      -6.426   0.462   7.632  1.00  0.00     0.034 A 
ATOM     58  C   UNL     1      -0.007   0.729  10.472  1.00  0.00     0.034 A 
ATOM     59  C   UNL     1      -6.598   1.292   8.798  1.00  0.00     0.049 A 
ATOM     60  C   UNL     1      -1.305   0.413  11.107  1.00  0.00     0.074 A 
ATOM     61  C   UNL     1      -7.046   2.573   9.039  1.00  0.00     0.029 A 
ATOM     62  N   UNL     1      -5.888   0.903   9.905  1.00  0.00    -0.354 N 
ATOM     63  N   UNL     1      -1.999   1.274  11.794  1.00  0.00    -0.248 NA
ATOM     64  C   UNL     1      -2.032  -0.756  10.642  1.00  0.00     0.031 C 
ATOM     65  C   UNL     1      -6.266   3.042  10.135  1.00  0.00     0.029 A 
ATOM     66  C   UNL     1      -5.424   2.010  10.556  1.00  0.00     0.049 A 
ATOM     67  H   UNL     1      -5.737  -0.029  10.186  1.00  0.00     0.167 HD
ATOM     68  C   UNL     1      -3.312   1.006  11.438  1.00  0.00     0.074 A 
ATOM     69  C   UNL     1      -3.280  -0.330  10.847  1.00  0.00     0.031 C 
ATOM     70  C   UNL     1      -4.232   2.012  11.380  1.00  0.00     0.034 A 
BRANCH  57  71
ATOM     71  C   UNL     1      -6.844  -0.993   7.635  1.00  0.00     0.023 A 
ATOM     72  C   UNL     1      -7.854  -1.364   8.550  1.00  0.00     0.012 A 
ATOM     73  C   UNL     1      -6.131  -2.045   7.013  1.00  0.00     0.148 A 
ATOM     74  C   UNL     1      -8.104  -2.703   8.867  1.00  0.00     0.002 A 
ATOM     75  C   UNL     1      -6.438  -3.376   7.268  1.00  0.00     0.091 A 
ATOM     76  F   UNL     1      -5.057  -1.784   6.266  1.00  0.00    -0.205 F 
ATOM     77  C   UNL     1      -7.402  -3.711   8.220  1.00  0.00     0.022 A 
BRANCH  75  78
ATOM     78  S   UNL     1      -5.598  -4.722   6.421  1.00  0.00     0.127 S 
ATOM     79  O   UNL     1      -4.871  -5.352   7.519  1.00  0.00    -0.237 OA
ATOM     80  O   UNL     1      -6.729  -5.491   5.902  1.00  0.00    -0.237 OA
ATOM     81  O   UNL     1      -4.776  -4.096   5.393  1.00  0.00    -0.744 OA
ENDBRANCH  75  78
ENDBRANCH  57  71
BRANCH  58  82
ATOM     82  C   UNL     1       1.194  -0.102  10.751  1.00  0.00     0.023 A 
ATOM     83  C   UNL     1       1.300  -0.771  11.992  1.00  0.00     0.012 A 
ATOM     84  C   UNL     1       2.051  -0.510   9.708  1.00  0.00     0.148 A 
ATOM     85  C   UNL     1       2.184  -1.844  12.167  1.00  0.00     0.002 A 
ATOM     86  C   UNL     1       2.924  -1.581   9.884  1.00  0.00     0.091 A 
ATOM     87  F   UNL     1       1.943   0.085   8.514  1.00  0.00    -0.205 F 
ATOM     88  C   UNL     1       2.984  -2.260  11.108  1.00  0.00     0.022 A 
BRANCH  86  89
ATOM     89  S   UNL     1       3.941  -2.215   8.543  1.00  0.00     0.127 S 
ATOM     90  O   UNL     1       5.263  -2.269   9.168  1.00  0.00    -0.237 OA
ATOM     91  O   UNL     1       3.327  -3.515   8.291  1.00  0.00    -0.237 OA
ATOM     92  O   UNL     1       3.827  -1.244   7.462  1.00  0.00    -0.744 OA
ENDBRANCH  86  89
ENDBRANCH  58  82
BRANCH  70  93
ATOM     93  C   UNL     1      -3.896   3.323  12.046  1.00  0.00     0.023 A 
ATOM     94  C   UNL     1      -2.853   4.165  11.607  1.00  0.00     0.012 A 
ATOM     95  C   UNL     1      -4.796   3.799  13.014  1.00  0.00     0.148 A 
ATOM     96  C   UNL     1      -2.716   5.457  12.127  1.00  0.00     0.002 A 
ATOM     97  C   UNL     1      -4.695   5.102  13.479  1.00  0.00     0.091 A 
ATOM     98  F   UNL     1      -5.771   2.976  13.429  1.00  0.00    -0.205 F 
ATOM     99  C   UNL     1      -3.650   5.932  13.047  1.00  0.00     0.022 A 
BRANCH  97 100
ATOM    100  S   UNL     1      -5.959   5.816  14.533  1.00  0.00     0.127 S 
ATOM    101  O   UNL     1      -5.271   5.905  15.818  1.00  0.00    -0.237 OA
ATOM    102  O   UNL     1      -6.215   7.103  13.883  1.00  0.00    -0.237 OA
ATOM    103  O   UNL     1      -7.088   4.894  14.489  1.00  0.00    -0.744 OA
ENDBRANCH  97 100
ENDBRANCH  70  93
ENDBRANCH  44  45
ENDBRANCH  37  39
ENDBRANCH  36  37
ENDBRANCH  35  36
ENDBRANCH  34  35
ENDBRANCH  33  34
ENDBRANCH  32  33
ENDBRANCH  31  32
ENDBRANCH   1  31
TORSDOF 26
