REMARK SMILES CC(=O)N1CC[NH2+]C[C@@H]1c1ccc(C(=O)OCCOCCOCCOCCOC(=O)c2ccc(-c3c4nc(c(-c5cccc(S(=O)(=O)[O-])c5F)c5ccc([nH]5)c(-c5cccc(S(=O)(=O)[O-])c5F)c5nc(c(-c6cccc(S(=O)(=O)[O-])c6F)c6ccc3[nH]6)C=C5)C=C4)cc2)cc1
REMARK SMILES IDX 23 1 22 2 21 3 20 4 19 5 18 6 17 7 16 8 14 9 15 10 13 11
REMARK SMILES IDX 10 12 11 13 95 14 12 15 94 16 9 17 4 18 5 19 6 20 8 21 7 22
REMARK SMILES IDX 2 25 1 26 3 27 24 28 25 29 26 30 27 31 28 32 29 33 30 34
REMARK SMILES IDX 31 35 32 36 93 37 33 38 92 39 34 40 35 41 36 42 86 43 37 44
REMARK SMILES IDX 91 45 85 46 87 47 38 48 90 49 84 50 83 51 39 53 71 54 51 55
REMARK SMILES IDX 70 56 52 57 55 58 69 59 88 60 53 61 54 62 68 64 89 65 56 66
REMARK SMILES IDX 40 67 41 68 49 69 42 70 44 71 50 72 43 73 45 74 46 75 47 76
REMARK SMILES IDX 48 77 72 78 73 79 81 80 74 81 76 82 82 83 75 84 77 85 78 86
REMARK SMILES IDX 79 87 80 88 57 89 58 90 66 91 59 92 61 93 67 94 60 95 62 96
REMARK SMILES IDX 63 97 64 98 65 99
REMARK H PARENT 7 23 7 24 87 52 55 63
REMARK Flexibility Score: inf
ROOT
ATOM      1  C   UNL     1       3.284   6.527  -8.708  1.00  0.00     0.188 C 
ENDROOT
BRANCH   1   2
ATOM      2  O   UNL     1       2.993   5.941  -7.445  1.00  0.00    -0.377 OA
BRANCH   2   3
ATOM      3  C   UNL     1       4.017   5.751  -6.480  1.00  0.00     0.188 C 
BRANCH   3   4
ATOM      4  C   UNL     1       5.459   5.388  -6.903  1.00  0.00     0.188 C 
BRANCH   4   5
ATOM      5  O   UNL     1       5.681   5.360  -8.300  1.00  0.00    -0.376 OA
BRANCH   5   6
ATOM      6  C   UNL     1       5.883   4.119  -8.947  1.00  0.00     0.202 C 
BRANCH   6   7
ATOM      7  C   UNL     1       4.766   3.070  -8.881  1.00  0.00     0.261 C 
BRANCH   7   8
ATOM      8  O   UNL     1       4.194   2.844  -7.587  1.00  0.00    -0.460 OA
BRANCH   8   9
ATOM      9  C   UNL     1       4.960   2.214  -6.670  1.00  0.00     0.338 C 
ATOM     10  O   UNL     1       6.107   1.828  -6.814  1.00  0.00    -0.246 OA
BRANCH   9  11
ATOM     11  C   UNL     1       4.245   2.264  -5.373  1.00  0.00     0.060 A 
ATOM     12  C   UNL     1       2.910   2.450  -2.880  1.00  0.00    -0.020 A 
ATOM     13  C   UNL     1       4.282   2.749  -2.996  1.00  0.00     0.007 A 
ATOM     14  C   UNL     1       2.235   2.047  -4.048  1.00  0.00     0.007 A 
ATOM     15  C   UNL     1       4.946   2.647  -4.226  1.00  0.00     0.016 A 
ATOM     16  C   UNL     1       2.883   1.982  -5.287  1.00  0.00     0.016 A 
BRANCH  12  17
ATOM     17  C   UNL     1       2.233   2.485  -1.499  1.00  0.00     0.170 C 
ATOM     18  N   UNL     1       0.791   2.154  -1.536  1.00  0.00    -0.325 N 
ATOM     19  C   UNL     1      -0.101   3.237  -1.980  1.00  0.00     0.181 C 
ATOM     20  C   UNL     1       0.170   4.536  -1.199  1.00  0.00     0.282 C 
ATOM     21  C   UNL     1       2.418   3.822  -0.717  1.00  0.00     0.290 C 
ATOM     22  N   UNL     1       1.592   4.943  -1.210  1.00  0.00    -0.343 N 
ATOM     23  H   UNL     1       1.720   5.754  -0.605  1.00  0.00     0.346 HD
ATOM     24  H   UNL     1       1.873   5.185  -2.160  1.00  0.00     0.346 HD
BRANCH  18  25
ATOM     25  C   UNL     1       0.237   0.934  -1.192  1.00  0.00     0.220 C 
ATOM     26  C   UNL     1       1.055   0.014  -0.321  1.00  0.00     0.114 C 
ATOM     27  O   UNL     1      -0.919   0.626  -1.480  1.00  0.00    -0.275 OA
ENDBRANCH  18  25
ENDBRANCH  12  17
ENDBRANCH   9  11
ENDBRANCH   8   9
ENDBRANCH   7   8
ENDBRANCH   6   7
ENDBRANCH   5   6
ENDBRANCH   4   5
ENDBRANCH   3   4
ENDBRANCH   2   3
ENDBRANCH   1   2
BRANCH   1  28
ATOM     28  C   UNL     1       4.322   7.665  -8.824  1.00  0.00     0.188 C 
BRANCH  28  29
ATOM     29  O   UNL     1       4.895   8.055  -7.586  1.00  0.00    -0.376 OA
BRANCH  29  30
ATOM     30  C   UNL     1       4.507   9.302  -7.043  1.00  0.00     0.202 C 
BRANCH  30  31
ATOM     31  C   UNL     1       3.024   9.508  -6.706  1.00  0.00     0.261 C 
BRANCH  31  32
ATOM     32  O   UNL     1       2.081   9.191  -7.737  1.00  0.00    -0.460 OA
BRANCH  32  33
ATOM     33  C   UNL     1       2.076   9.960  -8.846  1.00  0.00     0.338 C 
ATOM     34  O   UNL     1       2.814  10.901  -9.095  1.00  0.00    -0.246 OA
BRANCH  33  35
ATOM     35  C   UNL     1       1.133   9.340  -9.797  1.00  0.00     0.060 A 
ATOM     36  C   UNL     1       1.600   8.861 -11.030  1.00  0.00     0.016 A 
ATOM     37  C   UNL     1      -0.210   9.207  -9.445  1.00  0.00     0.016 A 
ATOM     38  C   UNL     1       0.710   8.271 -11.930  1.00  0.00     0.010 A 
ATOM     39  C   UNL     1      -1.101   8.639 -10.354  1.00  0.00     0.010 A 
ATOM     40  C   UNL     1      -0.651   8.200 -11.612  1.00  0.00    -0.014 A 
BRANCH  40  41
ATOM     41  C   UNL     1      -1.657   7.877 -12.650  1.00  0.00     0.031 A 
ATOM     42  C   UNL     1      -2.381   9.024 -13.299  1.00  0.00     0.074 A 
ATOM     43  C   UNL     1      -1.971   6.607 -12.959  1.00  0.00     0.049 A 
ATOM     44  N   UNL     1      -3.410   9.010 -14.100  1.00  0.00    -0.248 NA
ATOM     45  C   UNL     1      -1.878  10.374 -12.985  1.00  0.00     0.031 C 
ATOM     46  C   UNL     1      -1.324   5.417 -12.412  1.00  0.00     0.029 A 
ATOM     47  N   UNL     1      -2.954   6.112 -13.781  1.00  0.00    -0.354 N 
ATOM     48  C   UNL     1      -3.710  10.343 -14.350  1.00  0.00     0.074 A 
ATOM     49  C   UNL     1      -2.753  11.141 -13.616  1.00  0.00     0.031 C 
ATOM     50  C   UNL     1      -1.957   4.326 -12.879  1.00  0.00     0.029 A 
ATOM     51  C   UNL     1      -3.078   4.744 -13.720  1.00  0.00     0.049 A 
ATOM     52  H   UNL     1      -3.515   6.681 -14.356  1.00  0.00     0.167 HD
ATOM     53  C   UNL     1      -4.694  10.857 -15.122  1.00  0.00     0.034 A 
ATOM     54  C   UNL     1      -4.016   3.931 -14.248  1.00  0.00     0.034 A 
ATOM     55  C   UNL     1      -5.636  10.057 -15.853  1.00  0.00     0.049 A 
ATOM     56  C   UNL     1      -5.129   4.529 -15.072  1.00  0.00     0.074 A 
ATOM     57  C   UNL     1      -6.646  10.477 -16.698  1.00  0.00     0.029 A 
ATOM     58  N   UNL     1      -5.695   8.673 -15.810  1.00  0.00    -0.354 N 
ATOM     59  N   UNL     1      -5.349   5.786 -15.376  1.00  0.00    -0.248 NA
ATOM     60  C   UNL     1      -6.110   3.596 -15.649  1.00  0.00     0.031 C 
ATOM     61  C   UNL     1      -7.344   9.348 -17.134  1.00  0.00     0.029 A 
ATOM     62  C   UNL     1      -6.733   8.222 -16.604  1.00  0.00     0.049 A 
ATOM     63  H   UNL     1      -5.089   8.097 -15.291  1.00  0.00     0.167 HD
ATOM     64  C   UNL     1      -6.457   5.789 -16.218  1.00  0.00     0.074 A 
ATOM     65  C   UNL     1      -6.863   4.409 -16.378  1.00  0.00     0.031 C 
ATOM     66  C   UNL     1      -7.081   6.839 -16.805  1.00  0.00     0.034 A 
BRANCH  53  67
ATOM     67  C   UNL     1      -4.803  12.356 -15.214  1.00  0.00     0.023 A 
ATOM     68  C   UNL     1      -3.828  13.091 -15.919  1.00  0.00     0.012 A 
ATOM     69  C   UNL     1      -5.900  13.030 -14.644  1.00  0.00     0.148 A 
ATOM     70  C   UNL     1      -3.926  14.478 -16.025  1.00  0.00     0.002 A 
ATOM     71  C   UNL     1      -6.018  14.405 -14.797  1.00  0.00     0.091 A 
ATOM     72  F   UNL     1      -6.803  12.315 -13.958  1.00  0.00    -0.205 F 
ATOM     73  C   UNL     1      -5.026  15.132 -15.476  1.00  0.00     0.022 A 
BRANCH  71  74
ATOM     74  S   UNL     1      -7.437  15.328 -14.199  1.00  0.00     0.127 S 
ATOM     75  O   UNL     1      -6.842  16.118 -13.122  1.00  0.00    -0.237 OA
ATOM     76  O   UNL     1      -7.821  16.099 -15.381  1.00  0.00    -0.237 OA
ATOM     77  O   UNL     1      -8.415  14.335 -13.775  1.00  0.00    -0.744 OA
ENDBRANCH  71  74
ENDBRANCH  53  67
BRANCH  54  78
ATOM     78  C   UNL     1      -3.943   2.459 -14.024  1.00  0.00     0.023 A 
ATOM     79  C   UNL     1      -3.665   1.604 -15.108  1.00  0.00     0.012 A 
ATOM     80  C   UNL     1      -4.146   1.903 -12.746  1.00  0.00     0.148 A 
ATOM     81  C   UNL     1      -3.623   0.220 -14.931  1.00  0.00     0.002 A 
ATOM     82  C   UNL     1      -4.046   0.528 -12.565  1.00  0.00     0.091 A 
ATOM     83  F   UNL     1      -4.424   2.732 -11.730  1.00  0.00    -0.205 F 
ATOM     84  C   UNL     1      -3.804  -0.317 -13.659  1.00  0.00     0.022 A 
BRANCH  82  85
ATOM     85  S   UNL     1      -4.142  -0.244 -10.946  1.00  0.00     0.127 S 
ATOM     86  O   UNL     1      -5.384  -1.005 -11.051  1.00  0.00    -0.237 OA
ATOM     87  O   UNL     1      -2.922  -1.052 -10.930  1.00  0.00    -0.237 OA
ATOM     88  O   UNL     1      -4.152   0.851  -9.986  1.00  0.00    -0.744 OA
ENDBRANCH  82  85
ENDBRANCH  54  78
BRANCH  66  89
ATOM     89  C   UNL     1      -8.221   6.555 -17.749  1.00  0.00     0.023 A 
ATOM     90  C   UNL     1      -9.475   6.151 -17.253  1.00  0.00     0.012 A 
ATOM     91  C   UNL     1      -8.070   6.813 -19.127  1.00  0.00     0.148 A 
ATOM     92  C   UNL     1     -10.557   5.988 -18.119  1.00  0.00     0.002 A 
ATOM     93  C   UNL     1      -9.165   6.701 -19.974  1.00  0.00     0.091 A 
ATOM     94  F   UNL     1      -6.863   7.183 -19.578  1.00  0.00    -0.205 F 
ATOM     95  C   UNL     1     -10.406   6.277 -19.474  1.00  0.00     0.022 A 
BRANCH  93  96
ATOM     96  S   UNL     1      -9.092   7.155 -21.710  1.00  0.00     0.127 S 
ATOM     97  O   UNL     1      -9.269   5.860 -22.364  1.00  0.00    -0.237 OA
ATOM     98  O   UNL     1     -10.230   8.065 -21.838  1.00  0.00    -0.237 OA
ATOM     99  O   UNL     1      -7.791   7.778 -21.913  1.00  0.00    -0.744 OA
ENDBRANCH  93  96
ENDBRANCH  66  89
ENDBRANCH  40  41
ENDBRANCH  33  35
ENDBRANCH  32  33
ENDBRANCH  31  32
ENDBRANCH  30  31
ENDBRANCH  29  30
ENDBRANCH  28  29
ENDBRANCH   1  28
TORSDOF 25
