REMARK SMILES Cc1ccc(S(=O)(=O)n2cc(C(=O)C(=O)N[C@@H](Cc3cnc[nH]3)C(=O)OCCOCCOCCOCCOC(=O)c3ccc(-c4c5nc(c(-c6cccc(S(=O)(=O)[O-])c6F)c6ccc([nH]6)c(-c6cccc(S(=O)(=O)[O-])c6F)c6nc(c(-c7cccc(S(=O)(=O)[O-])c7F)c7ccc4[nH]7)C=C6)C=C5)cc3)c3ccccc32)cc1
REMARK SMILES IDX 31 1 30 2 29 3 28 4 27 5 26 6 24 7 25 8 17 9 16 10 14 11
REMARK SMILES IDX 15 12 12 14 13 15 11 16 9 17 10 18 109 19 104 20 108 21
REMARK SMILES IDX 105 22 107 23 106 24 6 25 7 26 8 27 5 28 1 29 2 30 3 31
REMARK SMILES IDX 111 32 4 33 110 34 18 35 19 36 20 37 23 38 21 39 22 40 32 42
REMARK SMILES IDX 33 43 34 44 35 45 36 46 37 47 38 48 39 49 40 50 41 51 42 52
REMARK SMILES IDX 103 53 43 54 102 55 44 56 45 57 46 58 96 59 47 60 101 61
REMARK SMILES IDX 95 62 97 63 48 64 100 65 94 66 93 67 49 69 81 70 61 71 80 72
REMARK SMILES IDX 62 73 65 74 79 75 98 76 63 77 64 78 78 80 99 81 66 82 50 83
REMARK SMILES IDX 51 84 59 85 52 86 54 87 60 88 53 89 55 90 56 91 57 92 58 93
REMARK SMILES IDX 82 94 83 95 91 96 84 97 86 98 92 99 85 100 87 101 88 102
REMARK SMILES IDX 89 103 90 104 67 105 68 106 76 107 69 108 71 109 77 110
REMARK SMILES IDX 70 111 72 112 73 113 74 114 75 115
REMARK H PARENT 16 13 23 41 97 68 65 79
REMARK Flexibility Score: inf
ROOT
ATOM      1  C   UNL     1      -4.981   4.899   3.331  1.00  0.00     0.188 C 
ENDROOT
BRANCH   1   2
ATOM      2  C   UNL     1      -4.892   6.153   2.453  1.00  0.00     0.188 C 
BRANCH   2   3
ATOM      3  O   UNL     1      -4.470   7.367   3.047  1.00  0.00    -0.376 OA
BRANCH   3   4
ATOM      4  C   UNL     1      -5.508   8.095   3.698  1.00  0.00     0.202 C 
BRANCH   4   5
ATOM      5  C   UNL     1      -6.605   8.669   2.809  1.00  0.00     0.261 C 
BRANCH   5   6
ATOM      6  O   UNL     1      -7.619   7.654   2.649  1.00  0.00    -0.462 OA
BRANCH   6   7
ATOM      7  C   UNL     1      -8.018   7.409   1.383  1.00  0.00     0.329 C 
ATOM      8  O   UNL     1      -7.752   8.107   0.411  1.00  0.00    -0.250 OA
BRANCH   7   9
ATOM      9  C   UNL     1      -8.926   6.176   1.305  1.00  0.00     0.198 C 
BRANCH   9  10
ATOM     10  N   UNL     1      -8.512   4.988   2.078  1.00  0.00    -0.335 N 
ATOM     11  C   UNL     1      -7.697   3.945   1.660  1.00  0.00     0.293 C 
ATOM     12  O   UNL     1      -7.654   2.888   2.281  1.00  0.00    -0.265 OA
ATOM     13  H   UNL     1      -8.856   4.928   2.999  1.00  0.00     0.164 HD
BRANCH  11  14
ATOM     14  C   UNL     1      -6.784   4.144   0.421  1.00  0.00     0.252 C 
ATOM     15  O   UNL     1      -7.013   5.107  -0.303  1.00  0.00    -0.283 OA
BRANCH  14  16
ATOM     16  C   UNL     1      -5.643   3.279   0.077  1.00  0.00     0.054 A 
ATOM     17  N   UNL     1      -4.239   1.565  -0.194  1.00  0.00    -0.240 N 
ATOM     18  C   UNL     1      -5.276   2.042   0.578  1.00  0.00     0.117 A 
ATOM     19  C   UNL     1      -3.923   2.447  -1.205  1.00  0.00     0.065 A 
ATOM     20  C   UNL     1      -4.680   3.595  -0.949  1.00  0.00     0.012 A 
ATOM     21  C   UNL     1      -3.051   2.376  -2.308  1.00  0.00     0.028 A 
ATOM     22  C   UNL     1      -4.445   4.748  -1.730  1.00  0.00     0.011 A 
ATOM     23  C   UNL     1      -2.876   3.522  -3.090  1.00  0.00     0.002 A 
ATOM     24  C   UNL     1      -3.538   4.704  -2.787  1.00  0.00     0.001 A 
BRANCH  17  25
ATOM     25  S   UNL     1      -3.600  -0.008  -0.056  1.00  0.00     0.268 S 
ATOM     26  O   UNL     1      -3.932  -0.656  -1.304  1.00  0.00    -0.201 OA
ATOM     27  O   UNL     1      -4.072  -0.520   1.226  1.00  0.00    -0.201 OA
BRANCH  25  28
ATOM     28  C   UNL     1      -1.829   0.070   0.052  1.00  0.00     0.088 A 
ATOM     29  C   UNL     1       2.478  -0.018   0.025  1.00  0.00     0.044 C 
ATOM     30  C   UNL     1       0.977   0.018   0.050  1.00  0.00    -0.051 A 
ATOM     31  C   UNL     1       0.251  -1.175  -0.036  1.00  0.00     0.005 A 
ATOM     32  C   UNL     1       0.285   1.231   0.168  1.00  0.00     0.005 A 
ATOM     33  C   UNL     1      -1.145  -1.150  -0.043  1.00  0.00     0.022 A 
ATOM     34  C   UNL     1      -1.115   1.261   0.186  1.00  0.00     0.022 A 
ENDBRANCH  25  28
ENDBRANCH  17  25
ENDBRANCH  14  16
ENDBRANCH  11  14
ENDBRANCH   9  10
BRANCH   9  35
ATOM     35  C   UNL     1     -10.392   6.592   1.495  1.00  0.00     0.092 C 
BRANCH  35  36
ATOM     36  C   UNL     1     -11.048   6.293   2.799  1.00  0.00     0.037 A 
ATOM     37  C   UNL     1     -11.626   5.142   3.294  1.00  0.00     0.134 A 
ATOM     38  N   UNL     1     -11.316   7.244   3.751  1.00  0.00    -0.348 N 
ATOM     39  N   UNL     1     -12.313   5.392   4.452  1.00  0.00    -0.245 NA
ATOM     40  C   UNL     1     -12.137   6.673   4.682  1.00  0.00     0.196 A 
ATOM     41  H   UNL     1     -10.978   8.168   3.762  1.00  0.00     0.167 HD
ENDBRANCH  35  36
ENDBRANCH   9  35
ENDBRANCH   7   9
ENDBRANCH   6   7
ENDBRANCH   5   6
ENDBRANCH   4   5
ENDBRANCH   3   4
ENDBRANCH   2   3
ENDBRANCH   1   2
BRANCH   1  42
ATOM     42  O   UNL     1      -5.875   4.887   4.430  1.00  0.00    -0.377 OA
BRANCH  42  43
ATOM     43  C   UNL     1      -5.308   5.145   5.723  1.00  0.00     0.188 C 
BRANCH  43  44
ATOM     44  C   UNL     1      -4.004   4.423   6.053  1.00  0.00     0.188 C 
BRANCH  44  45
ATOM     45  O   UNL     1      -2.946   5.067   5.337  1.00  0.00    -0.376 OA
BRANCH  45  46
ATOM     46  C   UNL     1      -1.773   4.290   5.143  1.00  0.00     0.202 C 
BRANCH  46  47
ATOM     47  C   UNL     1      -1.044   3.999   6.451  1.00  0.00     0.261 C 
BRANCH  47  48
ATOM     48  O   UNL     1      -0.603   5.254   7.001  1.00  0.00    -0.460 OA
BRANCH  48  49
ATOM     49  C   UNL     1      -1.151   5.558   8.210  1.00  0.00     0.338 C 
ATOM     50  O   UNL     1      -1.065   4.835   9.188  1.00  0.00    -0.246 OA
BRANCH  49  51
ATOM     51  C   UNL     1      -1.992   6.789   8.100  1.00  0.00     0.060 A 
ATOM     52  C   UNL     1      -2.801   7.188   9.170  1.00  0.00     0.016 A 
ATOM     53  C   UNL     1      -2.179   7.386   6.858  1.00  0.00     0.016 A 
ATOM     54  C   UNL     1      -3.919   8.012   8.952  1.00  0.00     0.010 A 
ATOM     55  C   UNL     1      -3.323   8.135   6.635  1.00  0.00     0.010 A 
ATOM     56  C   UNL     1      -4.248   8.395   7.661  1.00  0.00    -0.014 A 
BRANCH  56  57
ATOM     57  C   UNL     1      -5.540   8.977   7.243  1.00  0.00     0.031 A 
ATOM     58  C   UNL     1      -5.539  10.294   6.542  1.00  0.00     0.074 A 
ATOM     59  C   UNL     1      -6.600   8.147   7.062  1.00  0.00     0.049 A 
ATOM     60  N   UNL     1      -6.562  10.826   5.959  1.00  0.00    -0.248 NA
ATOM     61  C   UNL     1      -4.349  11.129   6.445  1.00  0.00     0.031 C 
ATOM     62  C   UNL     1      -7.578   8.272   5.983  1.00  0.00     0.029 A 
ATOM     63  N   UNL     1      -6.987   6.963   7.694  1.00  0.00    -0.354 N 
ATOM     64  C   UNL     1      -6.128  11.878   5.183  1.00  0.00     0.074 A 
ATOM     65  C   UNL     1      -4.772  12.097   5.623  1.00  0.00     0.031 C 
ATOM     66  C   UNL     1      -8.376   7.205   5.953  1.00  0.00     0.029 A 
ATOM     67  C   UNL     1      -8.271   6.602   7.248  1.00  0.00     0.049 A 
ATOM     68  H   UNL     1      -6.448   6.462   8.347  1.00  0.00     0.167 HD
ATOM     69  C   UNL     1      -6.936  12.355   4.188  1.00  0.00     0.034 A 
ATOM     70  C   UNL     1      -9.384   6.452   8.022  1.00  0.00     0.034 A 
ATOM     71  C   UNL     1      -8.305  11.744   4.229  1.00  0.00     0.049 A 
ATOM     72  C   UNL     1     -10.390   7.593   7.823  1.00  0.00     0.074 A 
ATOM     73  C   UNL     1      -9.152  11.174   3.290  1.00  0.00     0.029 A 
ATOM     74  N   UNL     1      -8.972  11.587   5.457  1.00  0.00    -0.354 N 
ATOM     75  N   UNL     1     -10.242   8.555   6.935  1.00  0.00    -0.248 NA
ATOM     76  C   UNL     1     -11.632   7.769   8.566  1.00  0.00     0.031 C 
ATOM     77  C   UNL     1     -10.299  10.660   3.963  1.00  0.00     0.029 A 
ATOM     78  C   UNL     1     -10.158  10.876   5.325  1.00  0.00     0.049 A 
ATOM     79  H   UNL     1      -8.636  11.941   6.312  1.00  0.00     0.167 HD
ATOM     80  C   UNL     1     -11.181   9.533   7.091  1.00  0.00     0.074 A 
ATOM     81  C   UNL     1     -12.086   8.939   8.068  1.00  0.00     0.031 C 
ATOM     82  C   UNL     1     -11.095  10.751   6.455  1.00  0.00     0.034 A 
BRANCH  69  83
ATOM     83  C   UNL     1      -6.486  13.300   3.043  1.00  0.00     0.023 A 
ATOM     84  C   UNL     1      -7.474  13.736   2.127  1.00  0.00     0.012 A 
ATOM     85  C   UNL     1      -5.169  13.752   2.744  1.00  0.00     0.148 A 
ATOM     86  C   UNL     1      -7.186  14.507   0.987  1.00  0.00     0.002 A 
ATOM     87  C   UNL     1      -4.890  14.591   1.651  1.00  0.00     0.091 A 
ATOM     88  F   UNL     1      -4.133  13.329   3.466  1.00  0.00    -0.205 F 
ATOM     89  C   UNL     1      -5.894  14.946   0.753  1.00  0.00     0.022 A 
BRANCH  87  90
ATOM     90  S   UNL     1      -3.248  15.279   1.324  1.00  0.00     0.127 S 
ATOM     91  O   UNL     1      -2.956  14.764  -0.014  1.00  0.00    -0.237 OA
ATOM     92  O   UNL     1      -3.499  16.719   1.378  1.00  0.00    -0.237 OA
ATOM     93  O   UNL     1      -2.373  14.776   2.376  1.00  0.00    -0.744 OA
ENDBRANCH  87  90
ENDBRANCH  69  83
BRANCH  70  94
ATOM     94  C   UNL     1      -9.180   5.436   9.098  1.00  0.00     0.023 A 
ATOM     95  C   UNL     1      -9.052   4.116   8.585  1.00  0.00     0.012 A 
ATOM     96  C   UNL     1      -8.389   5.799  10.196  1.00  0.00     0.148 A 
ATOM     97  C   UNL     1      -7.962   3.315   8.940  1.00  0.00     0.002 A 
ATOM     98  C   UNL     1      -7.265   5.026  10.498  1.00  0.00     0.091 A 
ATOM     99  F   UNL     1      -8.611   6.989  10.769  1.00  0.00    -0.205 F 
ATOM    100  C   UNL     1      -7.028   3.805   9.844  1.00  0.00     0.022 A 
BRANCH  98 101
ATOM    101  S   UNL     1      -5.877   5.767  11.373  1.00  0.00     0.127 S 
ATOM    102  O   UNL     1      -6.014   5.216  12.715  1.00  0.00    -0.237 OA
ATOM    103  O   UNL     1      -4.738   5.267  10.607  1.00  0.00    -0.237 OA
ATOM    104  O   UNL     1      -6.098   7.200  11.236  1.00  0.00    -0.744 OA
ENDBRANCH  98 101
ENDBRANCH  70  94
BRANCH  82 105
ATOM    105  C   UNL     1     -11.889  12.001   6.837  1.00  0.00     0.023 A 
ATOM    106  C   UNL     1     -12.615  12.098   8.037  1.00  0.00     0.012 A 
ATOM    107  C   UNL     1     -11.790  13.198   6.069  1.00  0.00     0.148 A 
ATOM    108  C   UNL     1     -13.243  13.284   8.437  1.00  0.00     0.002 A 
ATOM    109  C   UNL     1     -12.314  14.402   6.527  1.00  0.00     0.091 A 
ATOM    110  F   UNL     1     -11.204  13.182   4.865  1.00  0.00    -0.205 F 
ATOM    111  C   UNL     1     -13.069  14.443   7.698  1.00  0.00     0.022 A 
BRANCH 109 112
ATOM    112  S   UNL     1     -11.924  15.969   5.732  1.00  0.00     0.127 S 
ATOM    113  O   UNL     1     -13.171  16.262   5.030  1.00  0.00    -0.237 OA
ATOM    114  O   UNL     1     -11.651  16.831   6.883  1.00  0.00    -0.237 OA
ATOM    115  O   UNL     1     -10.766  15.707   4.890  1.00  0.00    -0.744 OA
ENDBRANCH 109 112
ENDBRANCH  82 105
ENDBRANCH  56  57
ENDBRANCH  49  51
ENDBRANCH  48  49
ENDBRANCH  47  48
ENDBRANCH  46  47
ENDBRANCH  45  46
ENDBRANCH  44  45
ENDBRANCH  43  44
ENDBRANCH  42  43
ENDBRANCH   1  42
TORSDOF 30
