REMARK SMILES [NH3+][C@H]1COC[C@H]1C(=O)N[C@@H]1C=C[C@@H](C(=O)OCCOCCOCCOCCOC(=O)c2ccc(-c3c4nc(c(-c5cccc(S(=O)(=O)[O-])c5F)c5ccc([nH]5)c(-c5cccc(S(=O)(=O)[O-])c5F)c5nc(c(-c6cccc(S(=O)(=O)[O-])c6F)c6ccc3[nH]6)C=C5)C=C4)cc2)C1
REMARK SMILES IDX 22 1 21 2 20 3 19 4 18 5 17 6 16 7 14 8 15 9 13 10 10 11
REMARK SMILES IDX 11 12 94 13 12 14 9 15 7 16 8 17 6 19 2 20 3 21 4 22 5 23
REMARK SMILES IDX 1 24 23 28 24 29 25 30 26 31 27 32 28 33 29 34 30 35 31 36
REMARK SMILES IDX 32 37 93 38 33 39 92 40 34 41 35 42 36 43 86 44 37 45 91 46
REMARK SMILES IDX 85 47 87 48 38 49 90 50 84 51 83 52 39 54 71 55 51 56 70 57
REMARK SMILES IDX 52 58 55 59 69 60 88 61 53 62 54 63 68 65 89 66 56 67 40 68
REMARK SMILES IDX 41 69 49 70 42 71 44 72 50 73 43 74 45 75 46 76 47 77 48 78
REMARK SMILES IDX 72 79 73 80 81 81 74 82 76 83 82 84 75 85 77 86 78 87 79 88
REMARK SMILES IDX 80 89 57 90 58 91 66 92 59 93 61 94 67 95 60 96 62 97 63 98
REMARK SMILES IDX 64 99 65 100
REMARK H PARENT 9 18 1 25 1 26 1 27 87 53 55 64
REMARK Flexibility Score: inf
ROOT
ATOM      1  O   UNL     1       1.210   4.232   4.389  1.00  0.00    -0.377 OA
ENDROOT
BRANCH   1   2
ATOM      2  C   UNL     1      -0.113   3.839   4.668  1.00  0.00     0.188 C 
BRANCH   2   3
ATOM      3  C   UNL     1      -1.138   4.801   5.295  1.00  0.00     0.188 C 
BRANCH   3   4
ATOM      4  O   UNL     1      -0.877   5.418   6.539  1.00  0.00    -0.376 OA
BRANCH   4   5
ATOM      5  C   UNL     1      -0.638   4.761   7.768  1.00  0.00     0.202 C 
BRANCH   5   6
ATOM      6  C   UNL     1      -0.826   3.264   8.062  1.00  0.00     0.261 C 
BRANCH   6   7
ATOM      7  O   UNL     1      -1.110   2.431   6.945  1.00  0.00    -0.463 OA
BRANCH   7   8
ATOM      8  C   UNL     1      -2.382   2.009   6.760  1.00  0.00     0.312 C 
ATOM      9  O   UNL     1      -3.313   2.269   7.512  1.00  0.00    -0.252 OA
BRANCH   8  10
ATOM     10  C   UNL     1      -2.549   1.281   5.418  1.00  0.00     0.124 C 
ATOM     11  C   UNL     1      -1.457  -0.598   4.213  1.00  0.00     0.106 C 
ATOM     12  C   UNL     1      -2.688  -1.018   4.935  1.00  0.00    -0.006 C 
ATOM     13  C   UNL     1      -1.276   0.848   4.665  1.00  0.00     0.048 C 
ATOM     14  C   UNL     1      -3.272  -0.015   5.598  1.00  0.00    -0.014 C 
BRANCH  11  15
ATOM     15  N   UNL     1      -1.699  -0.676   2.788  1.00  0.00    -0.349 N 
ATOM     16  C   UNL     1      -1.024  -1.329   1.806  1.00  0.00     0.232 C 
ATOM     17  O   UNL     1      -1.394  -1.120   0.645  1.00  0.00    -0.274 OA
ATOM     18  H   UNL     1      -2.486  -0.172   2.478  1.00  0.00     0.164 HD
BRANCH  16  19
ATOM     19  C   UNL     1       0.130  -2.279   2.071  1.00  0.00     0.164 C 
ATOM     20  C   UNL     1       1.490  -1.712   2.461  1.00  0.00     0.221 C 
ATOM     21  C   UNL     1       2.010  -2.698   3.515  1.00  0.00     0.225 C 
ATOM     22  O   UNL     1       0.953  -3.583   3.894  1.00  0.00    -0.374 OA
ATOM     23  C   UNL     1      -0.188  -3.369   3.071  1.00  0.00     0.180 C 
BRANCH  20  24
ATOM     24  N   UNL     1       1.596  -0.320   2.892  1.00  0.00    -0.352 N 
ATOM     25  H   UNL     1       2.568  -0.105   3.114  1.00  0.00     0.344 HD
ATOM     26  H   UNL     1       1.018  -0.176   3.720  1.00  0.00     0.344 HD
ATOM     27  H   UNL     1       1.275   0.293   2.142  1.00  0.00     0.344 HD
ENDBRANCH  20  24
ENDBRANCH  16  19
ENDBRANCH  11  15
ENDBRANCH   8  10
ENDBRANCH   7   8
ENDBRANCH   6   7
ENDBRANCH   5   6
ENDBRANCH   4   5
ENDBRANCH   3   4
ENDBRANCH   2   3
ENDBRANCH   1   2
BRANCH   1  28
ATOM     28  C   UNL     1       1.911   4.778   5.492  1.00  0.00     0.188 C 
BRANCH  28  29
ATOM     29  C   UNL     1       1.847   6.305   5.437  1.00  0.00     0.188 C 
BRANCH  29  30
ATOM     30  O   UNL     1       0.954   6.762   4.428  1.00  0.00    -0.376 OA
BRANCH  30  31
ATOM     31  C   UNL     1       1.455   6.917   3.102  1.00  0.00     0.202 C 
BRANCH  31  32
ATOM     32  C   UNL     1       2.325   5.853   2.387  1.00  0.00     0.261 C 
BRANCH  32  33
ATOM     33  O   UNL     1       3.448   5.294   3.088  1.00  0.00    -0.460 OA
BRANCH  33  34
ATOM     34  C   UNL     1       4.441   6.111   3.482  1.00  0.00     0.338 C 
ATOM     35  O   UNL     1       4.527   7.311   3.276  1.00  0.00    -0.246 OA
BRANCH  34  36
ATOM     36  C   UNL     1       5.310   5.342   4.406  1.00  0.00     0.060 A 
ATOM     37  C   UNL     1       5.473   5.810   5.717  1.00  0.00     0.016 A 
ATOM     38  C   UNL     1       5.929   4.154   4.005  1.00  0.00     0.016 A 
ATOM     39  C   UNL     1       6.280   5.114   6.617  1.00  0.00     0.010 A 
ATOM     40  C   UNL     1       6.762   3.472   4.900  1.00  0.00     0.010 A 
ATOM     41  C   UNL     1       6.971   3.969   6.199  1.00  0.00    -0.014 A 
BRANCH  41  42
ATOM     42  C   UNL     1       8.059   3.431   7.054  1.00  0.00     0.031 A 
ATOM     43  C   UNL     1       9.475   3.836   6.742  1.00  0.00     0.074 A 
ATOM     44  C   UNL     1       7.804   2.627   8.103  1.00  0.00     0.049 A 
ATOM     45  N   UNL     1      10.585   3.506   7.348  1.00  0.00    -0.248 NA
ATOM     46  C   UNL     1       9.664   4.737   5.592  1.00  0.00     0.031 C 
ATOM     47  C   UNL     1       6.479   2.168   8.516  1.00  0.00     0.029 A 
ATOM     48  N   UNL     1       8.660   2.036   9.000  1.00  0.00    -0.354 N 
ATOM     49  C   UNL     1      11.604   4.127   6.636  1.00  0.00     0.074 A 
ATOM     50  C   UNL     1      10.983   4.853   5.551  1.00  0.00     0.031 C 
ATOM     51  C   UNL     1       6.614   1.338   9.565  1.00  0.00     0.029 A 
ATOM     52  C   UNL     1       8.034   1.188   9.883  1.00  0.00     0.049 A 
ATOM     53  H   UNL     1       9.630   2.204   9.010  1.00  0.00     0.167 HD
ATOM     54  C   UNL     1      12.936   4.103   6.868  1.00  0.00     0.034 A 
ATOM     55  C   UNL     1       8.550   0.364  10.819  1.00  0.00     0.034 A 
ATOM     56  C   UNL     1      13.554   3.395   7.955  1.00  0.00     0.049 A 
ATOM     57  C   UNL     1      10.043   0.342  11.042  1.00  0.00     0.074 A 
ATOM     58  C   UNL     1      14.892   3.363   8.306  1.00  0.00     0.029 A 
ATOM     59  N   UNL     1      12.885   2.578   8.851  1.00  0.00    -0.354 N 
ATOM     60  N   UNL     1      10.979   1.038  10.445  1.00  0.00    -0.248 NA
ATOM     61  C   UNL     1      10.546  -0.555  12.094  1.00  0.00     0.031 C 
ATOM     62  C   UNL     1      15.038   2.487   9.386  1.00  0.00     0.029 A 
ATOM     63  C   UNL     1      13.784   2.017   9.740  1.00  0.00     0.049 A 
ATOM     64  H   UNL     1      11.913   2.420   8.854  1.00  0.00     0.167 HD
ATOM     65  C   UNL     1      12.173   0.692  11.072  1.00  0.00     0.074 A 
ATOM     66  C   UNL     1      11.838  -0.257  12.112  1.00  0.00     0.031 C 
ATOM     67  C   UNL     1      13.434   1.112  10.804  1.00  0.00     0.034 A 
BRANCH  54  68
ATOM     68  C   UNL     1      13.829   4.865   5.926  1.00  0.00     0.023 A 
ATOM     69  C   UNL     1      13.862   6.273   5.967  1.00  0.00     0.012 A 
ATOM     70  C   UNL     1      14.696   4.176   5.055  1.00  0.00     0.148 A 
ATOM     71  C   UNL     1      14.728   6.985   5.139  1.00  0.00     0.002 A 
ATOM     72  C   UNL     1      15.591   4.890   4.269  1.00  0.00     0.091 A 
ATOM     73  F   UNL     1      14.630   2.838   5.016  1.00  0.00    -0.205 F 
ATOM     74  C   UNL     1      15.601   6.295   4.301  1.00  0.00     0.022 A 
BRANCH  72  75
ATOM     75  S   UNL     1      16.811   4.092   3.222  1.00  0.00     0.127 S 
ATOM     76  O   UNL     1      16.349   4.473   1.887  1.00  0.00    -0.237 OA
ATOM     77  O   UNL     1      18.050   4.742   3.648  1.00  0.00    -0.237 OA
ATOM     78  O   UNL     1      16.733   2.669   3.522  1.00  0.00    -0.744 OA
ENDBRANCH  72  75
ENDBRANCH  54  68
BRANCH  55  79
ATOM     79  C   UNL     1       7.655  -0.518  11.622  1.00  0.00     0.023 A 
ATOM     80  C   UNL     1       7.522  -0.315  13.010  1.00  0.00     0.012 A 
ATOM     81  C   UNL     1       6.949  -1.574  11.014  1.00  0.00     0.148 A 
ATOM     82  C   UNL     1       6.738  -1.173  13.783  1.00  0.00     0.002 A 
ATOM     83  C   UNL     1       6.121  -2.386  11.779  1.00  0.00     0.091 A 
ATOM     84  F   UNL     1       7.103  -1.765   9.696  1.00  0.00    -0.205 F 
ATOM     85  C   UNL     1       6.031  -2.203  13.167  1.00  0.00     0.022 A 
BRANCH  83  86
ATOM     86  S   UNL     1       5.071  -3.646  11.048  1.00  0.00     0.127 S 
ATOM     87  O   UNL     1       5.708  -4.875  11.515  1.00  0.00    -0.237 OA
ATOM     88  O   UNL     1       3.776  -3.349  11.662  1.00  0.00    -0.237 OA
ATOM     89  O   UNL     1       5.120  -3.413   9.611  1.00  0.00    -0.744 OA
ENDBRANCH  83  86
ENDBRANCH  55  79
BRANCH  67  90
ATOM     90  C   UNL     1      14.550   0.595  11.677  1.00  0.00     0.023 A 
ATOM     91  C   UNL     1      14.955  -0.752  11.587  1.00  0.00     0.012 A 
ATOM     92  C   UNL     1      15.243   1.467  12.540  1.00  0.00     0.148 A 
ATOM     93  C   UNL     1      16.002  -1.232  12.373  1.00  0.00     0.002 A 
ATOM     94  C   UNL     1      16.322   0.996  13.279  1.00  0.00     0.091 A 
ATOM     95  F   UNL     1      14.836   2.742  12.623  1.00  0.00    -0.205 F 
ATOM     96  C   UNL     1      16.692  -0.357  13.209  1.00  0.00     0.022 A 
BRANCH  94  97
ATOM     97  S   UNL     1      17.331   2.071  14.304  1.00  0.00     0.127 S 
ATOM     98  O   UNL     1      16.951   1.642  15.649  1.00  0.00    -0.237 OA
ATOM     99  O   UNL     1      18.688   1.696  13.905  1.00  0.00    -0.237 OA
ATOM    100  O   UNL     1      16.953   3.433  13.953  1.00  0.00    -0.744 OA
ENDBRANCH  94  97
ENDBRANCH  67  90
ENDBRANCH  41  42
ENDBRANCH  34  36
ENDBRANCH  33  34
ENDBRANCH  32  33
ENDBRANCH  31  32
ENDBRANCH  30  31
ENDBRANCH  29  30
ENDBRANCH  28  29
ENDBRANCH   1  28
TORSDOF 26
