REMARK SMILES CCN(C(=O)Cc1c(C(=O)OCCOCCOCCOCCOC(=O)c2ccc(-c3c4nc(c(-c5cccc(S(=O)(=O)[O-])c5F)c5ccc([nH]5)c(-c5cccc(S(=O)(=O)[O-])c5F)c5nc(c(-c6cccc(S(=O)(=O)[O-])c6F)c6ccc3[nH]6)C=C5)C=C4)cc2)[nH]c2ccc(Cl)cc12)c1ccc(C)c(C)c1
REMARK SMILES IDX 16 1 15 2 14 3 13 4 12 5 11 6 9 7 10 8 8 9 7 10 96 11 89 12
REMARK SMILES IDX 90 13 95 14 91 16 93 17 92 18 94 19 6 20 4 21 5 22 3 23 2 24
REMARK SMILES IDX 1 25 97 26 98 27 104 28 99 29 102 30 100 31 103 32 101 33
REMARK SMILES IDX 17 34 18 35 19 36 20 37 21 38 22 39 23 40 24 41 25 42 26 43
REMARK SMILES IDX 27 44 88 45 28 46 87 47 29 48 30 49 31 50 81 51 32 52 86 53
REMARK SMILES IDX 80 54 82 55 33 56 85 57 79 58 78 59 34 61 66 62 46 63 65 64
REMARK SMILES IDX 47 65 50 66 64 67 83 68 48 69 49 70 63 72 84 73 51 74 35 75
REMARK SMILES IDX 36 76 44 77 37 78 39 79 45 80 38 81 40 82 41 83 42 84 43 85
REMARK SMILES IDX 67 86 68 87 76 88 69 89 71 90 77 91 70 92 72 93 73 94 74 95
REMARK SMILES IDX 75 96 52 97 53 98 61 99 54 100 56 101 62 102 55 103 57 104
REMARK SMILES IDX 58 105 59 106 60 107
REMARK H PARENT 89 15 82 60 50 71
REMARK Flexibility Score: inf
ROOT
ATOM      1  C   UNL     1       0.815   2.548   2.881  1.00  0.00     0.188 C 
ENDROOT
BRANCH   1   2
ATOM      2  C   UNL     1       0.499   4.034   3.080  1.00  0.00     0.188 C 
BRANCH   2   3
ATOM      3  O   UNL     1      -0.426   4.380   4.114  1.00  0.00    -0.376 OA
BRANCH   3   4
ATOM      4  C   UNL     1      -0.273   3.753   5.384  1.00  0.00     0.202 C 
BRANCH   4   5
ATOM      5  C   UNL     1      -1.448   2.813   5.702  1.00  0.00     0.261 C 
BRANCH   5   6
ATOM      6  O   UNL     1      -1.722   1.902   4.620  1.00  0.00    -0.459 OA
BRANCH   6   7
ATOM      7  C   UNL     1      -2.480   2.438   3.632  1.00  0.00     0.355 C 
ATOM      8  O   UNL     1      -3.074   3.510   3.695  1.00  0.00    -0.244 OA
BRANCH   7   9
ATOM      9  C   UNL     1      -2.463   1.644   2.422  1.00  0.00     0.129 A 
ATOM     10  C   UNL     1      -2.154   0.326   2.071  1.00  0.00     0.002 A 
ATOM     11  C   UNL     1      -2.773   0.134   0.774  1.00  0.00     0.005 A 
ATOM     12  N   UNL     1      -2.830   2.283   1.255  1.00  0.00    -0.349 N 
ATOM     13  C   UNL     1      -3.039   1.392   0.244  1.00  0.00     0.046 A 
ATOM     14  C   UNL     1      -3.093  -0.989  -0.021  1.00  0.00     0.031 A 
ATOM     15  H   UNL     1      -2.928   3.259   1.164  1.00  0.00     0.167 HD
ATOM     16  C   UNL     1      -3.467   1.608  -1.070  1.00  0.00     0.028 A 
ATOM     17  C   UNL     1      -3.551  -0.796  -1.329  1.00  0.00     0.041 A 
ATOM     18  C   UNL     1      -3.705   0.481  -1.859  1.00  0.00     0.022 A 
ATOM     19  Cl  UNL     1      -3.892  -2.167  -2.315  1.00  0.00    -0.084 Cl
BRANCH  10  20
ATOM     20  C   UNL     1      -1.497  -0.772   2.883  1.00  0.00     0.139 C 
BRANCH  20  21
ATOM     21  C   UNL     1       0.052  -0.758   2.937  1.00  0.00     0.231 C 
ATOM     22  O   UNL     1       0.583  -0.525   4.032  1.00  0.00    -0.274 OA
BRANCH  21  23
ATOM     23  N   UNL     1       0.815  -1.018   1.783  1.00  0.00    -0.312 N 
BRANCH  23  24
ATOM     24  C   UNL     1       0.254  -1.449   0.493  1.00  0.00     0.122 C 
ATOM     25  C   UNL     1       0.185  -0.361  -0.572  1.00  0.00     0.028 C 
ENDBRANCH  23  24
BRANCH  23  26
ATOM     26  C   UNL     1       2.251  -1.118   1.854  1.00  0.00     0.044 A 
ATOM     27  C   UNL     1       2.871  -1.946   2.787  1.00  0.00     0.026 A 
ATOM     28  C   UNL     1       3.053  -0.509   0.876  1.00  0.00     0.030 A 
ATOM     29  C   UNL     1       4.244  -2.213   2.687  1.00  0.00     0.006 A 
ATOM     30  C   UNL     1       4.433  -0.754   0.771  1.00  0.00    -0.046 A 
ATOM     31  C   UNL     1       5.037  -1.631   1.682  1.00  0.00    -0.048 A 
ATOM     32  C   UNL     1       5.224  -0.081  -0.317  1.00  0.00     0.044 C 
ATOM     33  C   UNL     1       6.517  -1.902   1.630  1.00  0.00     0.044 C 
ENDBRANCH  23  26
ENDBRANCH  21  23
ENDBRANCH  20  21
ENDBRANCH  10  20
ENDBRANCH   7   9
ENDBRANCH   6   7
ENDBRANCH   5   6
ENDBRANCH   4   5
ENDBRANCH   3   4
ENDBRANCH   2   3
ENDBRANCH   1   2
BRANCH   1  34
ATOM     34  O   UNL     1       2.204   2.268   2.940  1.00  0.00    -0.377 OA
BRANCH  34  35
ATOM     35  C   UNL     1       2.714   2.030   4.249  1.00  0.00     0.188 C 
BRANCH  35  36
ATOM     36  C   UNL     1       3.427   3.253   4.854  1.00  0.00     0.188 C 
BRANCH  36  37
ATOM     37  O   UNL     1       4.350   4.042   4.102  1.00  0.00    -0.376 OA
BRANCH  37  38
ATOM     38  C   UNL     1       4.580   3.746   2.738  1.00  0.00     0.202 C 
BRANCH  38  39
ATOM     39  C   UNL     1       5.490   2.546   2.451  1.00  0.00     0.261 C 
BRANCH  39  40
ATOM     40  O   UNL     1       5.515   1.530   3.456  1.00  0.00    -0.460 OA
BRANCH  40  41
ATOM     41  C   UNL     1       6.332   1.745   4.514  1.00  0.00     0.338 C 
ATOM     42  O   UNL     1       7.100   2.676   4.676  1.00  0.00    -0.246 OA
BRANCH  41  43
ATOM     43  C   UNL     1       6.101   0.672   5.508  1.00  0.00     0.060 A 
ATOM     44  C   UNL     1       5.917   0.988   6.854  1.00  0.00     0.016 A 
ATOM     45  C   UNL     1       6.109  -0.663   5.107  1.00  0.00     0.016 A 
ATOM     46  C   UNL     1       5.805  -0.039   7.799  1.00  0.00     0.010 A 
ATOM     47  C   UNL     1       5.952  -1.688   6.039  1.00  0.00     0.010 A 
ATOM     48  C   UNL     1       5.870  -1.385   7.402  1.00  0.00    -0.014 A 
BRANCH  48  49
ATOM     49  C   UNL     1       6.020  -2.462   8.416  1.00  0.00     0.031 A 
ATOM     50  C   UNL     1       7.341  -3.186   8.538  1.00  0.00     0.074 A 
ATOM     51  C   UNL     1       4.991  -2.807   9.213  1.00  0.00     0.049 A 
ATOM     52  N   UNL     1       7.725  -4.067   9.426  1.00  0.00    -0.248 NA
ATOM     53  C   UNL     1       8.353  -2.910   7.503  1.00  0.00     0.031 C 
ATOM     54  C   UNL     1       3.629  -2.283   9.111  1.00  0.00     0.029 A 
ATOM     55  N   UNL     1       4.933  -3.688  10.262  1.00  0.00    -0.354 N 
ATOM     56  C   UNL     1       9.001  -4.467   9.041  1.00  0.00     0.074 A 
ATOM     57  C   UNL     1       9.303  -3.781   7.806  1.00  0.00     0.031 C 
ATOM     58  C   UNL     1       2.873  -2.841  10.073  1.00  0.00     0.029 A 
ATOM     59  C   UNL     1       3.700  -3.746  10.869  1.00  0.00     0.049 A 
ATOM     60  H   UNL     1       5.702  -4.229  10.554  1.00  0.00     0.167 HD
ATOM     61  C   UNL     1       9.868  -5.287   9.681  1.00  0.00     0.034 A 
ATOM     62  C   UNL     1       3.300  -4.418  11.967  1.00  0.00     0.034 A 
ATOM     63  C   UNL     1       9.588  -5.903  10.948  1.00  0.00     0.049 A 
ATOM     64  C   UNL     1       4.324  -5.200  12.751  1.00  0.00     0.074 A 
ATOM     65  C   UNL     1      10.424  -6.662  11.747  1.00  0.00     0.029 A 
ATOM     66  N   UNL     1       8.372  -5.816  11.609  1.00  0.00    -0.354 N 
ATOM     67  N   UNL     1       5.591  -5.405  12.482  1.00  0.00    -0.248 NA
ATOM     68  C   UNL     1       3.881  -5.785  14.026  1.00  0.00     0.031 C 
ATOM     69  C   UNL     1       9.711  -7.032  12.894  1.00  0.00     0.029 A 
ATOM     70  C   UNL     1       8.437  -6.493  12.813  1.00  0.00     0.049 A 
ATOM     71  H   UNL     1       7.578  -5.342  11.270  1.00  0.00     0.167 HD
ATOM     72  C   UNL     1       6.106  -6.106  13.568  1.00  0.00     0.074 A 
ATOM     73  C   UNL     1       5.017  -6.268  14.511  1.00  0.00     0.031 C 
ATOM     74  C   UNL     1       7.359  -6.588  13.763  1.00  0.00     0.034 A 
BRANCH  61  75
ATOM     75  C   UNL     1      11.231  -5.488   9.063  1.00  0.00     0.023 A 
ATOM     76  C   UNL     1      12.143  -4.411   9.038  1.00  0.00     0.012 A 
ATOM     77  C   UNL     1      11.629  -6.736   8.545  1.00  0.00     0.148 A 
ATOM     78  C   UNL     1      13.406  -4.556   8.466  1.00  0.00     0.002 A 
ATOM     79  C   UNL     1      12.909  -6.887   8.019  1.00  0.00     0.091 A 
ATOM     80  F   UNL     1      10.748  -7.746   8.559  1.00  0.00    -0.205 F 
ATOM     81  C   UNL     1      13.791  -5.795   7.965  1.00  0.00     0.022 A 
BRANCH  79  82
ATOM     82  S   UNL     1      13.536  -8.462   7.424  1.00  0.00     0.127 S 
ATOM     83  O   UNL     1      13.569  -8.240   5.979  1.00  0.00    -0.237 OA
ATOM     84  O   UNL     1      14.852  -8.530   8.060  1.00  0.00    -0.237 OA
ATOM     85  O   UNL     1      12.589  -9.469   7.881  1.00  0.00    -0.744 OA
ENDBRANCH  79  82
ENDBRANCH  61  75
BRANCH  62  86
ATOM     86  C   UNL     1       1.906  -4.252  12.469  1.00  0.00     0.023 A 
ATOM     87  C   UNL     1       1.679  -3.480  13.625  1.00  0.00     0.012 A 
ATOM     88  C   UNL     1       0.805  -4.809  11.790  1.00  0.00     0.148 A 
ATOM     89  C   UNL     1       0.386  -3.290  14.115  1.00  0.00     0.002 A 
ATOM     90  C   UNL     1      -0.485  -4.573  12.254  1.00  0.00     0.091 A 
ATOM     91  F   UNL     1       1.040  -5.552  10.699  1.00  0.00    -0.205 F 
ATOM     92  C   UNL     1      -0.696  -3.827  13.424  1.00  0.00     0.022 A 
BRANCH  90  93
ATOM     93  S   UNL     1      -1.944  -5.115  11.355  1.00  0.00     0.127 S 
ATOM     94  O   UNL     1      -2.396  -6.242  12.167  1.00  0.00    -0.237 OA
ATOM     95  O   UNL     1      -2.800  -3.929  11.417  1.00  0.00    -0.237 OA
ATOM     96  O   UNL     1      -1.475  -5.442  10.015  1.00  0.00    -0.744 OA
ENDBRANCH  90  93
ENDBRANCH  62  86
BRANCH  74  97
ATOM     97  C   UNL     1       7.634  -7.311  15.054  1.00  0.00     0.023 A 
ATOM     98  C   UNL     1       7.111  -8.604  15.255  1.00  0.00     0.012 A 
ATOM     99  C   UNL     1       8.465  -6.740  16.038  1.00  0.00     0.148 A 
ATOM    100  C   UNL     1       7.379  -9.301  16.432  1.00  0.00     0.002 A 
ATOM    101  C   UNL     1       8.764  -7.460  17.189  1.00  0.00     0.091 A 
ATOM    102  F   UNL     1       8.938  -5.501  15.840  1.00  0.00    -0.205 F 
ATOM    103  C   UNL     1       8.213  -8.735  17.393  1.00  0.00     0.022 A 
BRANCH 101 104
ATOM    104  S   UNL     1       9.906  -6.834  18.427  1.00  0.00     0.127 S 
ATOM    105  O   UNL     1       8.994  -6.279  19.424  1.00  0.00    -0.237 OA
ATOM    106  O   UNL     1      10.609  -8.046  18.852  1.00  0.00    -0.237 OA
ATOM    107  O   UNL     1      10.748  -5.870  17.730  1.00  0.00    -0.744 OA
ENDBRANCH 101 104
ENDBRANCH  74  97
ENDBRANCH  48  49
ENDBRANCH  41  43
ENDBRANCH  40  41
ENDBRANCH  39  40
ENDBRANCH  38  39
ENDBRANCH  37  38
ENDBRANCH  36  37
ENDBRANCH  35  36
ENDBRANCH  34  35
ENDBRANCH   1  34
TORSDOF 28
