REMARK SMILES CCc1ccc(N2C(=O)/C(=C/c3cc(Cl)c(OCC(=O)OCCOCCOCCOCCOC(=O)c4ccc(-c5c6nc(c(-c7cccc(S(=O)(=O)[O-])c7F)c7ccc([nH]7)c(-c7cccc(S(=O)(=O)[O-])c7F)c7nc(c(-c8cccc(S(=O)(=O)[O-])c8F)c8ccc5[nH]8)C=C7)C=C6)cc4)c(Cl)c3)C(=O)NC2=S)cc1
REMARK SMILES IDX 26 1 25 2 24 3 23 4 22 5 21 6 19 7 20 8 18 9 17 10 16 11
REMARK SMILES IDX 12 12 13 13 101 14 14 15 99 16 15 17 100 18 11 19 7 20 8 21
REMARK SMILES IDX 105 22 9 23 10 24 104 25 106 26 102 27 103 29 6 30 3 31 4 32
REMARK SMILES IDX 108 33 5 34 107 35 2 36 1 37 27 38 28 39 29 40 30 41 31 42
REMARK SMILES IDX 32 43 33 44 34 45 35 46 36 47 37 48 98 49 38 50 97 51 39 52
REMARK SMILES IDX 40 53 41 54 91 55 42 56 96 57 90 58 92 59 43 60 95 61 89 62
REMARK SMILES IDX 88 63 44 65 76 66 56 67 75 68 57 69 60 70 74 71 93 72 58 73
REMARK SMILES IDX 59 74 73 76 94 77 61 78 45 79 46 80 54 81 47 82 49 83 55 84
REMARK SMILES IDX 48 85 50 86 51 87 52 88 53 89 77 90 78 91 86 92 79 93 81 94
REMARK SMILES IDX 87 95 80 96 82 97 83 98 84 99 85 100 62 101 63 102 71 103
REMARK SMILES IDX 64 104 66 105 72 106 65 107 67 108 68 109 69 110 70 111
REMARK H PARENT 104 28 92 64 60 75
REMARK Flexibility Score: inf
ROOT
ATOM      1  C   UNL     1       7.717 -10.880  -1.401  1.00  0.00     0.188 C 
ENDROOT
BRANCH   1   2
ATOM      2  C   UNL     1       6.922 -12.212  -1.274  1.00  0.00     0.188 C 
BRANCH   2   3
ATOM      3  O   UNL     1       7.277 -13.193  -0.310  1.00  0.00    -0.376 OA
BRANCH   3   4
ATOM      4  C   UNL     1       8.569 -13.109   0.254  1.00  0.00     0.202 C 
BRANCH   4   5
ATOM      5  C   UNL     1       9.766 -13.215  -0.720  1.00  0.00     0.261 C 
BRANCH   5   6
ATOM      6  O   UNL     1       9.577 -12.694  -2.069  1.00  0.00    -0.461 OA
BRANCH   6   7
ATOM      7  C   UNL     1       9.010 -13.488  -3.021  1.00  0.00     0.344 C 
ATOM      8  O   UNL     1       8.867 -14.700  -2.888  1.00  0.00    -0.248 OA
BRANCH   7   9
ATOM      9  C   UNL     1       8.564 -12.714  -4.340  1.00  0.00     0.352 C 
BRANCH   9  10
ATOM     10  O   UNL     1       8.015 -11.407  -4.496  1.00  0.00    -0.479 OA
BRANCH  10  11
ATOM     11  C   UNL     1       6.732 -10.942  -4.669  1.00  0.00     0.157 A 
ATOM     12  C   UNL     1       4.232  -9.395  -4.494  1.00  0.00    -0.021 A 
ATOM     13  C   UNL     1       5.436  -8.836  -4.958  1.00  0.00     0.032 A 
ATOM     14  C   UNL     1       4.266 -10.784  -4.322  1.00  0.00     0.032 A 
ATOM     15  C   UNL     1       6.649  -9.575  -5.013  1.00  0.00     0.085 A 
ATOM     16  C   UNL     1       5.490 -11.553  -4.447  1.00  0.00     0.085 A 
ATOM     17  Cl  UNL     1       8.069  -8.677  -5.455  1.00  0.00    -0.080 Cl
ATOM     18  Cl  UNL     1       5.319 -13.268  -4.330  1.00  0.00    -0.080 Cl
BRANCH  12  19
ATOM     19  C   UNL     1       3.118  -8.405  -4.217  1.00  0.00     0.028 C 
ATOM     20  N   UNL     1       1.656  -6.161  -1.817  1.00  0.00    -0.253 N 
ATOM     21  C   UNL     1       1.707  -6.741  -3.101  1.00  0.00     0.270 C 
ATOM     22  C   UNL     1       1.654  -6.921  -0.641  1.00  0.00     0.187 C 
ATOM     23  O   UNL     1       1.330  -6.196  -4.138  1.00  0.00    -0.268 OA
ATOM     24  C   UNL     1       2.295  -8.134  -3.160  1.00  0.00     0.106 C 
ATOM     25  N   UNL     1       1.808  -8.280  -0.815  1.00  0.00    -0.298 N 
ATOM     26  S   UNL     1       1.379  -6.398   0.940  1.00  0.00    -0.040 S 
ATOM     27  C   UNL     1       2.050  -8.976  -1.975  1.00  0.00     0.263 C 
ATOM     28  H   UNL     1       1.735  -8.825   0.002  1.00  0.00     0.172 HD
ATOM     29  O   UNL     1       2.066 -10.199  -2.008  1.00  0.00    -0.269 OA
BRANCH  20  30
ATOM     30  C   UNL     1       1.381  -4.754  -1.732  1.00  0.00     0.052 A 
ATOM     31  C   UNL     1       0.762  -2.010  -1.411  1.00  0.00    -0.048 A 
ATOM     32  C   UNL     1      -0.220  -2.933  -1.801  1.00  0.00     0.006 A 
ATOM     33  C   UNL     1       2.066  -2.478  -1.194  1.00  0.00     0.006 A 
ATOM     34  C   UNL     1       0.085  -4.289  -1.966  1.00  0.00     0.027 A 
ATOM     35  C   UNL     1       2.372  -3.843  -1.335  1.00  0.00     0.027 A 
BRANCH  31  36
ATOM     36  C   UNL     1       0.405  -0.544  -1.293  1.00  0.00     0.032 C 
ATOM     37  C   UNL     1       0.842   0.122   0.006  1.00  0.00     0.009 C 
ENDBRANCH  31  36
ENDBRANCH  20  30
ENDBRANCH  12  19
ENDBRANCH  10  11
ENDBRANCH   9  10
ENDBRANCH   7   9
ENDBRANCH   6   7
ENDBRANCH   5   6
ENDBRANCH   4   5
ENDBRANCH   3   4
ENDBRANCH   2   3
ENDBRANCH   1   2
BRANCH   1  38
ATOM     38  O   UNL     1       8.419 -10.460  -0.247  1.00  0.00    -0.377 OA
BRANCH  38  39
ATOM     39  C   UNL     1       7.814  -9.460   0.553  1.00  0.00     0.188 C 
BRANCH  39  40
ATOM     40  C   UNL     1       6.366  -9.727   0.966  1.00  0.00     0.188 C 
BRANCH  40  41
ATOM     41  O   UNL     1       5.567 -10.222  -0.081  1.00  0.00    -0.376 OA
BRANCH  41  42
ATOM     42  C   UNL     1       4.876  -9.370  -0.958  1.00  0.00     0.202 C 
BRANCH  42  43
ATOM     43  C   UNL     1       5.544  -8.247  -1.758  1.00  0.00     0.261 C 
BRANCH  43  44
ATOM     44  O   UNL     1       6.345  -7.373  -1.016  1.00  0.00    -0.460 OA
BRANCH  44  45
ATOM     45  C   UNL     1       5.667  -6.603  -0.162  1.00  0.00     0.338 C 
ATOM     46  O   UNL     1       4.470  -6.586   0.058  1.00  0.00    -0.246 OA
BRANCH  45  47
ATOM     47  C   UNL     1       6.706  -5.897   0.537  1.00  0.00     0.060 A 
ATOM     48  C   UNL     1       6.965  -6.256   1.859  1.00  0.00     0.016 A 
ATOM     49  C   UNL     1       7.502  -5.019  -0.204  1.00  0.00     0.016 A 
ATOM     50  C   UNL     1       8.050  -5.689   2.478  1.00  0.00     0.010 A 
ATOM     51  C   UNL     1       8.579  -4.442   0.421  1.00  0.00     0.010 A 
ATOM     52  C   UNL     1       8.816  -4.761   1.764  1.00  0.00    -0.014 A 
BRANCH  52  53
ATOM     53  C   UNL     1       9.779  -3.967   2.506  1.00  0.00     0.031 A 
ATOM     54  C   UNL     1       9.329  -2.626   2.970  1.00  0.00     0.074 A 
ATOM     55  C   UNL     1      10.983  -4.500   2.736  1.00  0.00     0.049 A 
ATOM     56  N   UNL     1       9.985  -1.733   3.647  1.00  0.00    -0.248 NA
ATOM     57  C   UNL     1       7.950  -2.232   2.616  1.00  0.00     0.031 C 
ATOM     58  C   UNL     1      11.414  -5.829   2.293  1.00  0.00     0.029 A 
ATOM     59  N   UNL     1      12.059  -3.989   3.389  1.00  0.00    -0.354 N 
ATOM     60  C   UNL     1       9.117  -0.658   3.773  1.00  0.00     0.074 A 
ATOM     61  C   UNL     1       7.892  -0.999   3.090  1.00  0.00     0.031 C 
ATOM     62  C   UNL     1      12.679  -6.028   2.692  1.00  0.00     0.029 A 
ATOM     63  C   UNL     1      13.143  -4.827   3.376  1.00  0.00     0.049 A 
ATOM     64  H   UNL     1      12.059  -3.107   3.826  1.00  0.00     0.167 HD
ATOM     65  C   UNL     1       9.344   0.507   4.416  1.00  0.00     0.034 A 
ATOM     66  C   UNL     1      14.375  -4.610   3.860  1.00  0.00     0.034 A 
ATOM     67  C   UNL     1      10.600   0.785   5.054  1.00  0.00     0.049 A 
ATOM     68  C   UNL     1      14.612  -3.293   4.541  1.00  0.00     0.074 A 
ATOM     69  C   UNL     1      10.987   1.907   5.756  1.00  0.00     0.029 A 
ATOM     70  N   UNL     1      11.689  -0.082   5.039  1.00  0.00    -0.354 N 
ATOM     71  N   UNL     1      13.769  -2.303   4.733  1.00  0.00    -0.248 NA
ATOM     72  C   UNL     1      15.949  -3.070   5.094  1.00  0.00     0.031 C 
ATOM     73  C   UNL     1      12.326   1.736   6.125  1.00  0.00     0.029 A 
ATOM     74  C   UNL     1      12.759   0.484   5.701  1.00  0.00     0.049 A 
ATOM     75  H   UNL     1      11.695  -0.972   4.617  1.00  0.00     0.167 HD
ATOM     76  C   UNL     1      14.460  -1.346   5.460  1.00  0.00     0.074 A 
ATOM     77  C   UNL     1      15.790  -1.893   5.684  1.00  0.00     0.031 C 
ATOM     78  C   UNL     1      14.052  -0.129   5.902  1.00  0.00     0.034 A 
BRANCH  65  79
ATOM     79  C   UNL     1       8.238   1.527   4.401  1.00  0.00     0.023 A 
ATOM     80  C   UNL     1       7.021   1.269   5.070  1.00  0.00     0.012 A 
ATOM     81  C   UNL     1       8.379   2.723   3.673  1.00  0.00     0.148 A 
ATOM     82  C   UNL     1       5.948   2.155   4.967  1.00  0.00     0.002 A 
ATOM     83  C   UNL     1       7.324   3.627   3.620  1.00  0.00     0.091 A 
ATOM     84  F   UNL     1       9.524   2.937   3.011  1.00  0.00    -0.205 F 
ATOM     85  C   UNL     1       6.102   3.337   4.249  1.00  0.00     0.022 A 
BRANCH  83  86
ATOM     86  S   UNL     1       7.449   5.207   2.776  1.00  0.00     0.127 S 
ATOM     87  O   UNL     1       6.568   4.998   1.627  1.00  0.00    -0.237 OA
ATOM     88  O   UNL     1       6.929   6.132   3.784  1.00  0.00    -0.237 OA
ATOM     89  O   UNL     1       8.858   5.383   2.459  1.00  0.00    -0.744 OA
ENDBRANCH  83  86
ENDBRANCH  65  79
BRANCH  66  90
ATOM     90  C   UNL     1      15.402  -5.679   3.765  1.00  0.00     0.023 A 
ATOM     91  C   UNL     1      15.797  -6.360   4.931  1.00  0.00     0.012 A 
ATOM     92  C   UNL     1      15.914  -6.090   2.518  1.00  0.00     0.148 A 
ATOM     93  C   UNL     1      16.701  -7.421   4.860  1.00  0.00     0.002 A 
ATOM     94  C   UNL     1      16.776  -7.178   2.449  1.00  0.00     0.091 A 
ATOM     95  F   UNL     1      15.515  -5.432   1.421  1.00  0.00    -0.205 F 
ATOM     96  C   UNL     1      17.182  -7.836   3.621  1.00  0.00     0.022 A 
BRANCH  94  97
ATOM     97  S   UNL     1      17.348  -7.863   0.890  1.00  0.00     0.127 S 
ATOM     98  O   UNL     1      18.783  -7.595   0.956  1.00  0.00    -0.237 OA
ATOM     99  O   UNL     1      16.977  -9.272   1.029  1.00  0.00    -0.237 OA
ATOM    100  O   UNL     1      16.622  -7.146  -0.149  1.00  0.00    -0.744 OA
ENDBRANCH  94  97
ENDBRANCH  66  90
BRANCH  78 101
ATOM    101  C   UNL     1      15.051   0.661   6.697  1.00  0.00     0.023 A 
ATOM    102  C   UNL     1      16.159   1.247   6.054  1.00  0.00     0.012 A 
ATOM    103  C   UNL     1      14.843   0.877   8.072  1.00  0.00     0.148 A 
ATOM    104  C   UNL     1      17.071   2.006   6.783  1.00  0.00     0.002 A 
ATOM    105  C   UNL     1      15.720   1.686   8.776  1.00  0.00     0.091 A 
ATOM    106  F   UNL     1      13.788   0.292   8.659  1.00  0.00    -0.205 F 
ATOM    107  C   UNL     1      16.844   2.237   8.138  1.00  0.00     0.022 A 
BRANCH 105 108
ATOM    108  S   UNL     1      15.442   2.131  10.492  1.00  0.00     0.127 S 
ATOM    109  O   UNL     1      16.515   1.401  11.164  1.00  0.00    -0.237 OA
ATOM    110  O   UNL     1      15.615   3.584  10.463  1.00  0.00    -0.237 OA
ATOM    111  O   UNL     1      14.092   1.688  10.810  1.00  0.00    -0.744 OA
ENDBRANCH 105 108
ENDBRANCH  78 101
ENDBRANCH  52  53
ENDBRANCH  45  47
ENDBRANCH  44  45
ENDBRANCH  43  44
ENDBRANCH  42  43
ENDBRANCH  41  42
ENDBRANCH  40  41
ENDBRANCH  39  40
ENDBRANCH  38  39
ENDBRANCH   1  38
TORSDOF 28
