REMARK SMILES COc1cc(Cl)ccc1S(=O)(=O)Nc1cccc(C(=O)OCCOCCOCCOCCOC(=O)c2ccc(-c3c4nc(c(-c5cccc(S(=O)(=O)[O-])c5F)c5ccc([nH]5)c(-c5cccc(S(=O)(=O)[O-])c5F)c5nc(c(-c6cccc(S(=O)(=O)[O-])c6F)c6ccc3[nH]6)C=C5)C=C4)cc2)c1
REMARK SMILES IDX 26 1 25 2 24 3 23 4 22 5 21 6 19 7 20 8 18 9 14 10 15 11
REMARK SMILES IDX 99 12 16 13 17 14 13 15 10 17 11 18 12 19 9 20 3 21 4 22
REMARK SMILES IDX 5 23 8 24 6 25 7 26 2 27 1 28 27 29 28 30 29 31 30 32 31 33
REMARK SMILES IDX 32 34 33 35 34 36 35 37 36 38 37 39 98 40 38 41 97 42 39 43
REMARK SMILES IDX 40 44 41 45 91 46 42 47 96 48 90 49 92 50 43 51 95 52 89 53
REMARK SMILES IDX 88 54 44 56 76 57 56 58 75 59 57 60 60 61 74 62 93 63 58 64
REMARK SMILES IDX 59 65 73 67 94 68 61 69 45 70 46 71 54 72 47 73 49 74 55 75
REMARK SMILES IDX 48 76 50 77 51 78 52 79 53 80 77 81 78 82 86 83 79 84 81 85
REMARK SMILES IDX 87 86 80 87 82 88 83 89 84 90 85 91 62 92 63 93 71 94 64 95
REMARK SMILES IDX 66 96 72 97 65 98 67 99 68 100 69 101 70 102
REMARK H PARENT 13 16 92 55 60 66
REMARK Flexibility Score: inf
ROOT
ATOM      1  C   UNL     1       0.719   3.049   1.898  1.00  0.00     0.188 C 
ENDROOT
BRANCH   1   2
ATOM      2  C   UNL     1       2.164   2.809   2.386  1.00  0.00     0.188 C 
BRANCH   2   3
ATOM      3  O   UNL     1       3.296   3.491   1.848  1.00  0.00    -0.376 OA
BRANCH   3   4
ATOM      4  C   UNL     1       3.303   4.028   0.531  1.00  0.00     0.202 C 
BRANCH   4   5
ATOM      5  C   UNL     1       3.181   3.081  -0.668  1.00  0.00     0.261 C 
BRANCH   5   6
ATOM      6  O   UNL     1       2.092   2.159  -0.579  1.00  0.00    -0.460 OA
BRANCH   6   7
ATOM      7  C   UNL     1       2.408   0.941  -0.096  1.00  0.00     0.338 C 
ATOM      8  O   UNL     1       3.521   0.518   0.177  1.00  0.00    -0.246 OA
BRANCH   7   9
ATOM      9  C   UNL     1       1.179   0.166   0.188  1.00  0.00     0.062 A 
ATOM     10  C   UNL     1      -0.872  -0.794  -0.582  1.00  0.00     0.050 A 
ATOM     11  C   UNL     1      -0.901  -1.622   0.548  1.00  0.00     0.027 A 
ATOM     12  C   UNL     1       0.085   0.210  -0.676  1.00  0.00     0.042 A 
ATOM     13  C   UNL     1       0.110  -1.552   1.505  1.00  0.00     0.003 A 
ATOM     14  C   UNL     1       1.187  -0.702   1.288  1.00  0.00     0.016 A 
BRANCH  10  15
ATOM     15  N   UNL     1      -1.657  -1.215  -1.685  1.00  0.00    -0.279 N 
ATOM     16  H   UNL     1      -2.194  -2.030  -1.553  1.00  0.00     0.180 HD
BRANCH  15  17
ATOM     17  S   UNL     1      -1.776  -0.485  -3.182  1.00  0.00     0.265 S 
ATOM     18  O   UNL     1      -2.352   0.819  -2.926  1.00  0.00    -0.201 OA
ATOM     19  O   UNL     1      -2.451  -1.466  -4.008  1.00  0.00    -0.201 OA
BRANCH  17  20
ATOM     20  C   UNL     1      -0.155  -0.225  -3.891  1.00  0.00     0.129 A 
ATOM     21  C   UNL     1       1.029  -0.848  -3.459  1.00  0.00     0.140 A 
ATOM     22  C   UNL     1       2.258  -0.323  -3.895  1.00  0.00     0.068 A 
ATOM     23  C   UNL     1       2.304   0.756  -4.783  1.00  0.00     0.044 A 
ATOM     24  C   UNL     1      -0.094   0.823  -4.831  1.00  0.00     0.028 A 
ATOM     25  Cl  UNL     1       3.829   1.409  -5.242  1.00  0.00    -0.084 Cl
ATOM     26  C   UNL     1       1.133   1.304  -5.283  1.00  0.00     0.022 A 
BRANCH  21  27
ATOM     27  O   UNL     1       0.947  -1.935  -2.630  1.00  0.00    -0.495 OA
ATOM     28  C   UNL     1       2.137  -2.354  -1.961  1.00  0.00     0.278 C 
ENDBRANCH  21  27
ENDBRANCH  17  20
ENDBRANCH  15  17
ENDBRANCH  10  15
ENDBRANCH   7   9
ENDBRANCH   6   7
ENDBRANCH   5   6
ENDBRANCH   4   5
ENDBRANCH   3   4
ENDBRANCH   2   3
ENDBRANCH   1   2
BRANCH   1  29
ATOM     29  O   UNL     1       0.594   4.056   0.919  1.00  0.00    -0.377 OA
BRANCH  29  30
ATOM     30  C   UNL     1       0.144   5.315   1.397  1.00  0.00     0.188 C 
BRANCH  30  31
ATOM     31  C   UNL     1       0.866   5.858   2.643  1.00  0.00     0.188 C 
BRANCH  31  32
ATOM     32  O   UNL     1       0.706   5.029   3.796  1.00  0.00    -0.376 OA
BRANCH  32  33
ATOM     33  C   UNL     1      -0.270   5.426   4.752  1.00  0.00     0.202 C 
BRANCH  33  34
ATOM     34  C   UNL     1      -1.731   5.163   4.354  1.00  0.00     0.261 C 
BRANCH  34  35
ATOM     35  O   UNL     1      -2.219   5.911   3.229  1.00  0.00    -0.460 OA
BRANCH  35  36
ATOM     36  C   UNL     1      -2.099   7.256   3.246  1.00  0.00     0.338 C 
ATOM     37  O   UNL     1      -1.708   7.949   4.168  1.00  0.00    -0.246 OA
BRANCH  36  38
ATOM     38  C   UNL     1      -2.302   7.730   1.861  1.00  0.00     0.060 A 
ATOM     39  C   UNL     1      -1.299   8.501   1.256  1.00  0.00     0.016 A 
ATOM     40  C   UNL     1      -3.448   7.370   1.147  1.00  0.00     0.016 A 
ATOM     41  C   UNL     1      -1.448   8.927  -0.064  1.00  0.00     0.010 A 
ATOM     42  C   UNL     1      -3.608   7.821  -0.162  1.00  0.00     0.010 A 
ATOM     43  C   UNL     1      -2.621   8.620  -0.765  1.00  0.00    -0.014 A 
BRANCH  43  44
ATOM     44  C   UNL     1      -2.925   9.288  -2.050  1.00  0.00     0.031 A 
ATOM     45  C   UNL     1      -3.721  10.560  -2.011  1.00  0.00     0.074 A 
ATOM     46  C   UNL     1      -2.550   8.751  -3.224  1.00  0.00     0.049 A 
ATOM     47  N   UNL     1      -4.187  11.279  -2.997  1.00  0.00    -0.248 NA
ATOM     48  C   UNL     1      -4.038  11.090  -0.673  1.00  0.00     0.031 C 
ATOM     49  C   UNL     1      -1.756   7.535  -3.385  1.00  0.00     0.029 A 
ATOM     50  N   UNL     1      -2.820   9.153  -4.508  1.00  0.00    -0.354 N 
ATOM     51  C   UNL     1      -4.870  12.332  -2.403  1.00  0.00     0.074 A 
ATOM     52  C   UNL     1      -4.767  12.155  -0.971  1.00  0.00     0.031 C 
ATOM     53  C   UNL     1      -1.625   7.274  -4.698  1.00  0.00     0.029 A 
ATOM     54  C   UNL     1      -2.354   8.283  -5.465  1.00  0.00     0.049 A 
ATOM     55  H   UNL     1      -3.301   9.985  -4.723  1.00  0.00     0.167 HD
ATOM     56  C   UNL     1      -5.518  13.363  -2.995  1.00  0.00     0.034 A 
ATOM     57  C   UNL     1      -2.523   8.291  -6.803  1.00  0.00     0.034 A 
ATOM     58  C   UNL     1      -5.628  13.529  -4.417  1.00  0.00     0.049 A 
ATOM     59  C   UNL     1      -3.328   9.401  -7.434  1.00  0.00     0.074 A 
ATOM     60  C   UNL     1      -6.231  14.556  -5.119  1.00  0.00     0.029 A 
ATOM     61  N   UNL     1      -5.147  12.629  -5.355  1.00  0.00    -0.354 N 
ATOM     62  N   UNL     1      -3.866  10.457  -6.873  1.00  0.00    -0.248 NA
ATOM     63  C   UNL     1      -3.536   9.326  -8.889  1.00  0.00     0.031 C 
ATOM     64  C   UNL     1      -6.141  14.260  -6.484  1.00  0.00     0.029 A 
ATOM     65  C   UNL     1      -5.461  13.061  -6.631  1.00  0.00     0.049 A 
ATOM     66  H   UNL     1      -4.654  11.803  -5.144  1.00  0.00     0.167 HD
ATOM     67  C   UNL     1      -4.447  11.188  -7.905  1.00  0.00     0.074 A 
ATOM     68  C   UNL     1      -4.181  10.461  -9.130  1.00  0.00     0.031 C 
ATOM     69  C   UNL     1      -5.148  12.348  -7.845  1.00  0.00     0.034 A 
BRANCH  56  70
ATOM     70  C   UNL     1      -6.143  14.389  -2.090  1.00  0.00     0.023 A 
ATOM     71  C   UNL     1      -5.317  15.284  -1.378  1.00  0.00     0.012 A 
ATOM     72  C   UNL     1      -7.540  14.472  -1.943  1.00  0.00     0.148 A 
ATOM     73  C   UNL     1      -5.870  16.218  -0.504  1.00  0.00     0.002 A 
ATOM     74  C   UNL     1      -8.086  15.434  -1.101  1.00  0.00     0.091 A 
ATOM     75  F   UNL     1      -8.308  13.592  -2.602  1.00  0.00    -0.205 F 
ATOM     76  C   UNL     1      -7.254  16.299  -0.372  1.00  0.00     0.022 A 
BRANCH  74  77
ATOM     77  S   UNL     1      -9.859  15.656  -0.921  1.00  0.00     0.127 S 
ATOM     78  O   UNL     1     -10.104  15.032   0.378  1.00  0.00    -0.237 OA
ATOM     79  O   UNL     1      -9.993  17.113  -0.931  1.00  0.00    -0.237 OA
ATOM     80  O   UNL     1     -10.461  14.988  -2.066  1.00  0.00    -0.744 OA
ENDBRANCH  74  77
ENDBRANCH  56  70
BRANCH  57  81
ATOM     81  C   UNL     1      -1.887   7.238  -7.644  1.00  0.00     0.023 A 
ATOM     82  C   UNL     1      -0.829   7.596  -8.502  1.00  0.00     0.012 A 
ATOM     83  C   UNL     1      -2.299   5.892  -7.588  1.00  0.00     0.148 A 
ATOM     84  C   UNL     1      -0.206   6.639  -9.305  1.00  0.00     0.002 A 
ATOM     85  C   UNL     1      -1.639   4.934  -8.350  1.00  0.00     0.091 A 
ATOM     86  F   UNL     1      -3.319   5.573  -6.779  1.00  0.00    -0.205 F 
ATOM     87  C   UNL     1      -0.604   5.308  -9.222  1.00  0.00     0.022 A 
BRANCH  85  88
ATOM     88  S   UNL     1      -1.988   3.177  -8.222  1.00  0.00     0.127 S 
ATOM     89  O   UNL     1      -2.492   2.872  -9.558  1.00  0.00    -0.237 OA
ATOM     90  O   UNL     1      -0.663   2.633  -7.921  1.00  0.00    -0.237 OA
ATOM     91  O   UNL     1      -2.950   3.041  -7.139  1.00  0.00    -0.744 OA
ENDBRANCH  85  88
ENDBRANCH  57  81
BRANCH  69  92
ATOM     92  C   UNL     1      -5.666  12.927  -9.137  1.00  0.00     0.023 A 
ATOM     93  C   UNL     1      -6.772  12.331  -9.774  1.00  0.00     0.012 A 
ATOM     94  C   UNL     1      -5.124  14.117  -9.662  1.00  0.00     0.148 A 
ATOM     95  C   UNL     1      -7.317  12.898 -10.926  1.00  0.00     0.002 A 
ATOM     96  C   UNL     1      -5.701  14.702 -10.783  1.00  0.00     0.091 A 
ATOM     97  F   UNL     1      -4.063  14.661  -9.048  1.00  0.00    -0.205 F 
ATOM     98  C   UNL     1      -6.791  14.088 -11.422  1.00  0.00     0.022 A 
BRANCH  96  99
ATOM     99  S   UNL     1      -5.156  16.283 -11.440  1.00  0.00     0.127 S 
ATOM    100  O   UNL     1      -4.561  15.887 -12.716  1.00  0.00    -0.237 OA
ATOM    101  O   UNL     1      -6.415  17.020 -11.557  1.00  0.00    -0.237 OA
ATOM    102  O   UNL     1      -4.224  16.827 -10.462  1.00  0.00    -0.744 OA
ENDBRANCH  96  99
ENDBRANCH  69  92
ENDBRANCH  43  44
ENDBRANCH  36  38
ENDBRANCH  35  36
ENDBRANCH  34  35
ENDBRANCH  33  34
ENDBRANCH  32  33
ENDBRANCH  31  32
ENDBRANCH  30  31
ENDBRANCH  29  30
ENDBRANCH   1  29
TORSDOF 27
