REMARK SMILES O=C(CCC(=O)N1CCC(c2nnc3ccccn23)CC1)OCCOCCOCCOCCOC(=O)c1ccc(-c2c3nc(c(-c4cccc(S(=O)(=O)[O-])c4F)c4ccc([nH]4)c(-c4cccc(S(=O)(=O)[O-])c4F)c4nc(c(-c5cccc(S(=O)(=O)[O-])c5F)c5ccc2[nH]5)C=C4)C=C3)cc1
REMARK SMILES IDX 28 1 27 2 26 3 25 4 24 5 23 6 22 7 2 8 1 9 3 10 4 11 5 12
REMARK SMILES IDX 6 13 7 14 8 15 21 16 9 17 20 18 10 19 11 20 12 21 19 22
REMARK SMILES IDX 13 23 14 24 18 25 15 26 17 27 16 28 29 29 30 30 31 31 32 32
REMARK SMILES IDX 33 33 34 34 35 35 36 36 37 37 38 38 99 39 39 40 98 41 40 42
REMARK SMILES IDX 41 43 42 44 92 45 43 46 97 47 91 48 93 49 44 50 96 51 90 52
REMARK SMILES IDX 89 53 45 55 77 56 57 57 76 58 58 59 61 60 75 61 94 62 59 63
REMARK SMILES IDX 60 64 74 66 95 67 62 68 46 69 47 70 55 71 48 72 50 73 56 74
REMARK SMILES IDX 49 75 51 76 52 77 53 78 54 79 78 80 79 81 87 82 80 83 82 84
REMARK SMILES IDX 88 85 81 86 83 87 84 88 85 89 86 90 63 91 64 92 72 93 65 94
REMARK SMILES IDX 67 95 73 96 66 97 68 98 69 99 70 100 71 101
REMARK H PARENT 93 54 61 65
REMARK Flexibility Score: inf
ROOT
ATOM      1  O   UNL     1       2.605   3.082   2.091  1.00  0.00    -0.377 OA
ENDROOT
BRANCH   1   2
ATOM      2  C   UNL     1       2.120   1.764   1.847  1.00  0.00     0.188 C 
BRANCH   2   3
ATOM      3  C   UNL     1       2.857   0.646   2.618  1.00  0.00     0.188 C 
BRANCH   3   4
ATOM      4  O   UNL     1       4.275   0.744   2.587  1.00  0.00    -0.376 OA
BRANCH   4   5
ATOM      5  C   UNL     1       5.037  -0.102   1.748  1.00  0.00     0.202 C 
BRANCH   5   6
ATOM      6  C   UNL     1       4.848   0.090   0.248  1.00  0.00     0.261 C 
BRANCH   6   7
ATOM      7  O   UNL     1       3.463   0.100  -0.144  1.00  0.00    -0.463 OA
BRANCH   7   8
ATOM      8  C   UNL     1       2.615  -0.942  -0.095  1.00  0.00     0.306 C 
ATOM      9  O   UNL     1       1.400  -0.773  -0.153  1.00  0.00    -0.252 OA
BRANCH   8  10
ATOM     10  C   UNL     1       3.204  -2.304  -0.066  1.00  0.00     0.132 C 
BRANCH  10  11
ATOM     11  C   UNL     1       3.407  -2.792  -1.483  1.00  0.00     0.112 C 
BRANCH  11  12
ATOM     12  C   UNL     1       4.569  -2.139  -2.203  1.00  0.00     0.223 C 
ATOM     13  O   UNL     1       5.699  -2.596  -1.993  1.00  0.00    -0.275 OA
ATOM     14  N   UNL     1       4.361  -1.086  -3.080  1.00  0.00    -0.343 N 
ATOM     15  C   UNL     1       5.430  -0.778  -4.015  1.00  0.00     0.120 C 
ATOM     16  C   UNL     1       3.205  -0.176  -3.198  1.00  0.00     0.120 C 
ATOM     17  C   UNL     1       5.944   0.625  -3.789  1.00  0.00     0.033 C 
ATOM     18  C   UNL     1       3.624   1.310  -3.046  1.00  0.00     0.033 C 
ATOM     19  C   UNL     1       4.816   1.657  -3.953  1.00  0.00     0.062 C 
BRANCH  19  20
ATOM     20  C   UNL     1       5.436   3.000  -3.699  1.00  0.00     0.140 A 
ATOM     21  N   UNL     1       5.714   3.530  -2.521  1.00  0.00    -0.134 NA
ATOM     22  N   UNL     1       6.097   3.712  -4.684  1.00  0.00    -0.286 N 
ATOM     23  N   UNL     1       6.601   4.569  -2.714  1.00  0.00    -0.130 NA
ATOM     24  C   UNL     1       6.835   4.670  -4.006  1.00  0.00     0.160 A 
ATOM     25  C   UNL     1       6.163   3.531  -6.066  1.00  0.00     0.095 A 
ATOM     26  C   UNL     1       7.657   5.535  -4.785  1.00  0.00     0.050 A 
ATOM     27  C   UNL     1       6.972   4.318  -6.793  1.00  0.00     0.019 A 
ATOM     28  C   UNL     1       7.727   5.364  -6.121  1.00  0.00     0.005 A 
ENDBRANCH  19  20
ENDBRANCH  11  12
ENDBRANCH  10  11
ENDBRANCH   8  10
ENDBRANCH   7   8
ENDBRANCH   6   7
ENDBRANCH   5   6
ENDBRANCH   4   5
ENDBRANCH   3   4
ENDBRANCH   2   3
ENDBRANCH   1   2
BRANCH   1  29
ATOM     29  C   UNL     1       3.900   3.338   1.559  1.00  0.00     0.188 C 
BRANCH  29  30
ATOM     30  C   UNL     1       5.069   3.336   2.575  1.00  0.00     0.188 C 
BRANCH  30  31
ATOM     31  O   UNL     1       4.882   3.177   3.980  1.00  0.00    -0.376 OA
BRANCH  31  32
ATOM     32  C   UNL     1       3.655   3.549   4.579  1.00  0.00     0.202 C 
BRANCH  32  33
ATOM     33  C   UNL     1       3.235   5.022   4.549  1.00  0.00     0.261 C 
BRANCH  33  34
ATOM     34  O   UNL     1       3.459   5.705   3.312  1.00  0.00    -0.460 OA
BRANCH  34  35
ATOM     35  C   UNL     1       4.637   6.374   3.225  1.00  0.00     0.338 C 
ATOM     36  O   UNL     1       5.490   6.482   4.082  1.00  0.00    -0.246 OA
BRANCH  35  37
ATOM     37  C   UNL     1       4.809   6.838   1.832  1.00  0.00     0.060 A 
ATOM     38  C   UNL     1       5.980   6.490   1.141  1.00  0.00     0.016 A 
ATOM     39  C   UNL     1       3.830   7.623   1.222  1.00  0.00     0.016 A 
ATOM     40  C   UNL     1       6.186   6.942  -0.158  1.00  0.00     0.010 A 
ATOM     41  C   UNL     1       4.063   8.124  -0.058  1.00  0.00     0.010 A 
ATOM     42  C   UNL     1       5.256   7.814  -0.732  1.00  0.00    -0.014 A 
BRANCH  42  43
ATOM     43  C   UNL     1       5.641   8.624  -1.906  1.00  0.00     0.031 A 
ATOM     44  C   UNL     1       6.322   9.933  -1.647  1.00  0.00     0.074 A 
ATOM     45  C   UNL     1       5.307   8.256  -3.152  1.00  0.00     0.049 A 
ATOM     46  N   UNL     1       6.627  10.888  -2.482  1.00  0.00    -0.248 NA
ATOM     47  C   UNL     1       6.659  10.224  -0.242  1.00  0.00     0.031 C 
ATOM     48  C   UNL     1       4.605   7.027  -3.494  1.00  0.00     0.029 A 
ATOM     49  N   UNL     1       5.498   8.889  -4.354  1.00  0.00    -0.354 N 
ATOM     50  C   UNL     1       7.093  11.932  -1.694  1.00  0.00     0.074 A 
ATOM     51  C   UNL     1       7.082  11.474  -0.323  1.00  0.00     0.031 C 
ATOM     52  C   UNL     1       4.442   6.978  -4.826  1.00  0.00     0.029 A 
ATOM     53  C   UNL     1       4.982   8.198  -5.424  1.00  0.00     0.049 A 
ATOM     54  H   UNL     1       5.960   9.754  -4.441  1.00  0.00     0.167 HD
ATOM     55  C   UNL     1       7.453  13.178  -2.079  1.00  0.00     0.034 A 
ATOM     56  C   UNL     1       4.937   8.527  -6.731  1.00  0.00     0.034 A 
ATOM     57  C   UNL     1       7.449  13.618  -3.446  1.00  0.00     0.049 A 
ATOM     58  C   UNL     1       5.450   9.880  -7.152  1.00  0.00     0.074 A 
ATOM     59  C   UNL     1       7.831  14.845  -3.954  1.00  0.00     0.029 A 
ATOM     60  N   UNL     1       7.015  12.854  -4.519  1.00  0.00    -0.354 N 
ATOM     61  N   UNL     1       5.977  10.828  -6.415  1.00  0.00    -0.248 NA
ATOM     62  C   UNL     1       5.351  10.217  -8.580  1.00  0.00     0.031 C 
ATOM     63  C   UNL     1       7.587  14.838  -5.330  1.00  0.00     0.029 A 
ATOM     64  C   UNL     1       7.109  13.586  -5.689  1.00  0.00     0.049 A 
ATOM     65  H   UNL     1       6.689  11.927  -4.457  1.00  0.00     0.167 HD
ATOM     66  C   UNL     1       6.268  11.874  -7.282  1.00  0.00     0.074 A 
ATOM     67  C   UNL     1       5.898  11.426  -8.610  1.00  0.00     0.031 C 
ATOM     68  C   UNL     1       6.769  13.103  -7.004  1.00  0.00     0.034 A 
BRANCH  55  69
ATOM     69  C   UNL     1       7.814  14.155  -0.992  1.00  0.00     0.023 A 
ATOM     70  C   UNL     1       8.989  13.980  -0.233  1.00  0.00     0.012 A 
ATOM     71  C   UNL     1       6.966  15.244  -0.711  1.00  0.00     0.148 A 
ATOM     72  C   UNL     1       9.283  14.841   0.825  1.00  0.00     0.002 A 
ATOM     73  C   UNL     1       7.296  16.131   0.306  1.00  0.00     0.091 A 
ATOM     74  F   UNL     1       5.836  15.378  -1.421  1.00  0.00    -0.205 F 
ATOM     75  C   UNL     1       8.443  15.919   1.088  1.00  0.00     0.022 A 
BRANCH  73  76
ATOM     76  S   UNL     1       6.324  17.599   0.656  1.00  0.00     0.127 S 
ATOM     77  O   UNL     1       5.678  17.234   1.916  1.00  0.00    -0.237 OA
ATOM     78  O   UNL     1       7.357  18.628   0.777  1.00  0.00    -0.237 OA
ATOM     79  O   UNL     1       5.431  17.769  -0.481  1.00  0.00    -0.744 OA
ENDBRANCH  73  76
ENDBRANCH  55  69
BRANCH  56  80
ATOM     80  C   UNL     1       4.412   7.547  -7.724  1.00  0.00     0.023 A 
ATOM     81  C   UNL     1       5.287   6.990  -8.678  1.00  0.00     0.012 A 
ATOM     82  C   UNL     1       3.078   7.101  -7.681  1.00  0.00     0.148 A 
ATOM     83  C   UNL     1       4.844   6.011  -9.570  1.00  0.00     0.002 A 
ATOM     84  C   UNL     1       2.667   6.067  -8.512  1.00  0.00     0.091 A 
ATOM     85  F   UNL     1       2.247   7.668  -6.796  1.00  0.00    -0.205 F 
ATOM     86  C   UNL     1       3.541   5.535  -9.472  1.00  0.00     0.022 A 
BRANCH  84  87
ATOM     87  S   UNL     1       1.081   5.249  -8.313  1.00  0.00     0.127 S 
ATOM     88  O   UNL     1       0.404   5.600  -9.557  1.00  0.00    -0.237 OA
ATOM     89  O   UNL     1       1.489   3.846  -8.202  1.00  0.00    -0.237 OA
ATOM     90  O   UNL     1       0.501   5.801  -7.097  1.00  0.00    -0.744 OA
ENDBRANCH  84  87
ENDBRANCH  56  80
BRANCH  68  91
ATOM     91  C   UNL     1       6.982  14.053  -8.153  1.00  0.00     0.023 A 
ATOM     92  C   UNL     1       5.881  14.675  -8.772  1.00  0.00     0.012 A 
ATOM     93  C   UNL     1       8.289  14.412  -8.537  1.00  0.00     0.148 A 
ATOM     94  C   UNL     1       6.078  15.628  -9.772  1.00  0.00     0.002 A 
ATOM     95  C   UNL     1       8.478  15.399  -9.495  1.00  0.00     0.091 A 
ATOM     96  F   UNL     1       9.320  13.793  -7.945  1.00  0.00    -0.205 F 
ATOM     97  C   UNL     1       7.374  16.000 -10.122  1.00  0.00     0.022 A 
BRANCH  95  98
ATOM     98  S   UNL     1      10.107  16.013  -9.936  1.00  0.00     0.127 S 
ATOM     99  O   UNL     1      10.243  15.530 -11.310  1.00  0.00    -0.237 OA
ATOM    100  O   UNL     1       9.935  17.460  -9.811  1.00  0.00    -0.237 OA
ATOM    101  O   UNL     1      11.034  15.425  -8.978  1.00  0.00    -0.744 OA
ENDBRANCH  95  98
ENDBRANCH  68  91
ENDBRANCH  42  43
ENDBRANCH  35  37
ENDBRANCH  34  35
ENDBRANCH  33  34
ENDBRANCH  32  33
ENDBRANCH  31  32
ENDBRANCH  30  31
ENDBRANCH  29  30
ENDBRANCH   1  29
TORSDOF 26
