REMARK SMILES O=C(C[C@H](C1CCCCC1)N1Cc2ccccc2C1=O)OCCOCCOCCOCCOC(=O)c1ccc(-c2c3nc(c(-c4cccc(S(=O)(=O)[O-])c4F)c4ccc([nH]4)c(-c4cccc(S(=O)(=O)[O-])c4F)c4nc(c(-c5cccc(S(=O)(=O)[O-])c5F)c5ccc2[nH]5)C=C4)C=C3)cc1
REMARK SMILES IDX 28 1 27 2 26 3 25 4 24 5 23 6 22 7 21 8 2 9 1 10 3 11 4 12
REMARK SMILES IDX 11 13 12 14 19 15 13 16 18 17 20 18 14 19 17 20 15 21 16 22
REMARK SMILES IDX 5 23 6 24 10 25 7 26 9 27 8 28 29 29 30 30 31 31 32 32 33 33
REMARK SMILES IDX 34 34 35 35 36 36 37 37 98 38 38 39 97 40 39 41 40 42 41 43
REMARK SMILES IDX 91 44 42 45 96 46 90 47 92 48 43 49 95 50 89 51 88 52 44 54
REMARK SMILES IDX 76 55 56 56 75 57 57 58 60 59 74 60 93 61 58 62 59 63 73 65
REMARK SMILES IDX 94 66 61 67 45 68 46 69 54 70 47 71 49 72 55 73 48 74 50 75
REMARK SMILES IDX 51 76 52 77 53 78 77 79 78 80 86 81 79 82 81 83 87 84 80 85
REMARK SMILES IDX 82 86 83 87 84 88 85 89 62 90 63 91 71 92 64 93 66 94 72 95
REMARK SMILES IDX 65 96 67 97 68 98 69 99 70 100
REMARK H PARENT 92 53 60 64
REMARK Flexibility Score: inf
ROOT
ATOM      1  C   UNL     1       5.450   3.919   4.117  1.00  0.00     0.188 C 
ENDROOT
BRANCH   1   2
ATOM      2  O   UNL     1       5.746   2.635   4.655  1.00  0.00    -0.377 OA
BRANCH   2   3
ATOM      3  C   UNL     1       6.122   1.633   3.720  1.00  0.00     0.188 C 
BRANCH   3   4
ATOM      4  C   UNL     1       5.418   1.669   2.372  1.00  0.00     0.188 C 
BRANCH   4   5
ATOM      5  O   UNL     1       5.507   2.848   1.581  1.00  0.00    -0.376 OA
BRANCH   5   6
ATOM      6  C   UNL     1       4.351   3.439   0.979  1.00  0.00     0.202 C 
BRANCH   6   7
ATOM      7  C   UNL     1       2.960   2.814   1.130  1.00  0.00     0.261 C 
BRANCH   7   8
ATOM      8  O   UNL     1       2.815   1.375   1.150  1.00  0.00    -0.463 OA
BRANCH   8   9
ATOM      9  C   UNL     1       3.671   0.469   0.636  1.00  0.00     0.307 C 
ATOM     10  O   UNL     1       3.812  -0.636   1.159  1.00  0.00    -0.252 OA
BRANCH   9  11
ATOM     11  C   UNL     1       4.397   0.820  -0.612  1.00  0.00     0.148 C 
BRANCH  11  12
ATOM     12  C   UNL     1       3.428   0.965  -1.779  1.00  0.00     0.100 C 
BRANCH  12  13
ATOM     13  N   UNL     1       4.148   1.643  -2.870  1.00  0.00    -0.330 N 
ATOM     14  C   UNL     1       5.216   1.022  -3.638  1.00  0.00     0.156 C 
ATOM     15  C   UNL     1       4.168   3.031  -3.009  1.00  0.00     0.254 C 
ATOM     16  C   UNL     1       5.777   2.159  -4.419  1.00  0.00    -0.016 A 
ATOM     17  C   UNL     1       5.173   3.351  -4.029  1.00  0.00     0.045 A 
ATOM     18  O   UNL     1       3.514   3.859  -2.395  1.00  0.00    -0.269 OA
ATOM     19  C   UNL     1       6.736   2.145  -5.415  1.00  0.00     0.006 A 
ATOM     20  C   UNL     1       5.511   4.569  -4.588  1.00  0.00     0.014 A 
ATOM     21  C   UNL     1       7.068   3.359  -6.022  1.00  0.00     0.000 A 
ATOM     22  C   UNL     1       6.466   4.562  -5.608  1.00  0.00     0.001 A 
ENDBRANCH  12  13
BRANCH  12  23
ATOM     23  C   UNL     1       2.699  -0.376  -2.166  1.00  0.00     0.012 C 
ATOM     24  C   UNL     1       3.682  -1.540  -2.421  1.00  0.00     0.006 C 
ATOM     25  C   UNL     1       1.537  -0.695  -1.172  1.00  0.00     0.006 C 
ATOM     26  C   UNL     1       3.114  -2.935  -2.251  1.00  0.00     0.000 C 
ATOM     27  C   UNL     1       1.201  -2.159  -0.909  1.00  0.00     0.000 C 
ATOM     28  C   UNL     1       2.419  -3.063  -0.913  1.00  0.00     0.000 C 
ENDBRANCH  12  23
ENDBRANCH  11  12
ENDBRANCH   9  11
ENDBRANCH   8   9
ENDBRANCH   7   8
ENDBRANCH   6   7
ENDBRANCH   5   6
ENDBRANCH   4   5
ENDBRANCH   3   4
ENDBRANCH   2   3
ENDBRANCH   1   2
BRANCH   1  29
ATOM     29  C   UNL     1       6.595   4.658   3.377  1.00  0.00     0.188 C 
BRANCH  29  30
ATOM     30  O   UNL     1       7.594   3.811   2.836  1.00  0.00    -0.376 OA
BRANCH  30  31
ATOM     31  C   UNL     1       8.782   3.568   3.572  1.00  0.00     0.202 C 
BRANCH  31  32
ATOM     32  C   UNL     1       8.801   3.321   5.099  1.00  0.00     0.261 C 
BRANCH  32  33
ATOM     33  O   UNL     1       7.801   3.953   5.904  1.00  0.00    -0.460 OA
BRANCH  33  34
ATOM     34  C   UNL     1       7.937   5.271   6.158  1.00  0.00     0.338 C 
ATOM     35  O   UNL     1       8.864   5.982   5.814  1.00  0.00    -0.246 OA
BRANCH  34  36
ATOM     36  C   UNL     1       6.636   5.765   6.678  1.00  0.00     0.060 A 
ATOM     37  C   UNL     1       6.023   6.832   6.002  1.00  0.00     0.016 A 
ATOM     38  C   UNL     1       5.986   5.149   7.753  1.00  0.00     0.016 A 
ATOM     39  C   UNL     1       4.786   7.311   6.422  1.00  0.00     0.010 A 
ATOM     40  C   UNL     1       4.766   5.666   8.208  1.00  0.00     0.010 A 
ATOM     41  C   UNL     1       4.190   6.779   7.570  1.00  0.00    -0.014 A 
BRANCH  41  42
ATOM     42  C   UNL     1       3.155   7.596   8.246  1.00  0.00     0.031 A 
ATOM     43  C   UNL     1       3.623   8.554   9.310  1.00  0.00     0.074 A 
ATOM     44  C   UNL     1       1.864   7.567   7.873  1.00  0.00     0.049 A 
ATOM     45  N   UNL     1       2.939   9.419  10.010  1.00  0.00    -0.248 NA
ATOM     46  C   UNL     1       5.065   8.539   9.618  1.00  0.00     0.031 C 
ATOM     47  C   UNL     1       1.298   6.702   6.840  1.00  0.00     0.029 A 
ATOM     48  N   UNL     1       0.792   8.287   8.338  1.00  0.00    -0.354 N 
ATOM     49  C   UNL     1       3.861  10.040  10.845  1.00  0.00     0.074 A 
ATOM     50  C   UNL     1       5.148   9.437  10.585  1.00  0.00     0.031 C 
ATOM     51  C   UNL     1      -0.028   6.919   6.772  1.00  0.00     0.029 A 
ATOM     52  C   UNL     1      -0.404   7.924   7.766  1.00  0.00     0.049 A 
ATOM     53  H   UNL     1       0.873   8.996   9.015  1.00  0.00     0.167 HD
ATOM     54  C   UNL     1       3.662  11.039  11.733  1.00  0.00     0.034 A 
ATOM     55  C   UNL     1      -1.657   8.341   8.038  1.00  0.00     0.034 A 
ATOM     56  C   UNL     1       2.381  11.635  11.992  1.00  0.00     0.049 A 
ATOM     57  C   UNL     1      -1.861   9.423   9.070  1.00  0.00     0.074 A 
ATOM     58  C   UNL     1       2.070  12.657  12.870  1.00  0.00     0.029 A 
ATOM     59  N   UNL     1       1.196  11.254  11.382  1.00  0.00    -0.354 N 
ATOM     60  N   UNL     1      -0.969  10.064   9.787  1.00  0.00    -0.248 NA
ATOM     61  C   UNL     1      -3.244   9.868   9.300  1.00  0.00     0.031 C 
ATOM     62  C   UNL     1       0.689  12.872  12.814  1.00  0.00     0.029 A 
ATOM     63  C   UNL     1       0.149  12.016  11.867  1.00  0.00     0.049 A 
ATOM     64  H   UNL     1       1.113  10.546  10.704  1.00  0.00     0.167 HD
ATOM     65  C   UNL     1      -1.676  11.009  10.524  1.00  0.00     0.074 A 
ATOM     66  C   UNL     1      -3.067  10.876  10.143  1.00  0.00     0.031 C 
ATOM     67  C   UNL     1      -1.222  11.899  11.442  1.00  0.00     0.034 A 
BRANCH  54  68
ATOM     68  C   UNL     1       4.864  11.558  12.476  1.00  0.00     0.023 A 
ATOM     69  C   UNL     1       5.836  12.316  11.791  1.00  0.00     0.012 A 
ATOM     70  C   UNL     1       5.013  11.330  13.858  1.00  0.00     0.148 A 
ATOM     71  C   UNL     1       6.953  12.813  12.463  1.00  0.00     0.002 A 
ATOM     72  C   UNL     1       6.103  11.869  14.530  1.00  0.00     0.091 A 
ATOM     73  F   UNL     1       4.092  10.584  14.485  1.00  0.00    -0.205 F 
ATOM     74  C   UNL     1       7.079  12.600  13.832  1.00  0.00     0.022 A 
BRANCH  72  75
ATOM     75  S   UNL     1       6.319  11.720  16.306  1.00  0.00     0.127 S 
ATOM     76  O   UNL     1       7.514  10.881  16.389  1.00  0.00    -0.237 OA
ATOM     77  O   UNL     1       6.522  13.112  16.706  1.00  0.00    -0.237 OA
ATOM     78  O   UNL     1       5.097  11.110  16.812  1.00  0.00    -0.744 OA
ENDBRANCH  72  75
ENDBRANCH  54  68
BRANCH  55  79
ATOM     79  C   UNL     1      -2.821   7.740   7.326  1.00  0.00     0.023 A 
ATOM     80  C   UNL     1      -3.598   8.522   6.449  1.00  0.00     0.012 A 
ATOM     81  C   UNL     1      -3.171   6.391   7.532  1.00  0.00     0.148 A 
ATOM     82  C   UNL     1      -4.725   7.984   5.825  1.00  0.00     0.002 A 
ATOM     83  C   UNL     1      -4.259   5.845   6.862  1.00  0.00     0.091 A 
ATOM     84  F   UNL     1      -2.433   5.667   8.386  1.00  0.00    -0.205 F 
ATOM     85  C   UNL     1      -5.050   6.645   6.024  1.00  0.00     0.022 A 
BRANCH  83  86
ATOM     86  S   UNL     1      -4.672   4.101   6.961  1.00  0.00     0.127 S 
ATOM     87  O   UNL     1      -5.917   4.131   7.724  1.00  0.00    -0.237 OA
ATOM     88  O   UNL     1      -4.822   3.748   5.548  1.00  0.00    -0.237 OA
ATOM     89  O   UNL     1      -3.540   3.465   7.621  1.00  0.00    -0.744 OA
ENDBRANCH  83  86
ENDBRANCH  55  79
BRANCH  67  90
ATOM     90  C   UNL     1      -2.229  12.834  12.064  1.00  0.00     0.023 A 
ATOM     91  C   UNL     1      -3.196  12.337  12.962  1.00  0.00     0.012 A 
ATOM     92  C   UNL     1      -2.184  14.216  11.794  1.00  0.00     0.148 A 
ATOM     93  C   UNL     1      -4.132  13.193  13.541  1.00  0.00     0.002 A 
ATOM     94  C   UNL     1      -3.084  15.071  12.418  1.00  0.00     0.091 A 
ATOM     95  F   UNL     1      -1.266  14.670  10.928  1.00  0.00    -0.205 F 
ATOM     96  C   UNL     1      -4.071  14.559  13.277  1.00  0.00     0.022 A 
BRANCH  94  97
ATOM     97  S   UNL     1      -3.017  16.854  12.216  1.00  0.00     0.127 S 
ATOM     98  O   UNL     1      -4.192  17.105  11.384  1.00  0.00    -0.237 OA
ATOM     99  O   UNL     1      -3.135  17.327  13.596  1.00  0.00    -0.237 OA
ATOM    100  O   UNL     1      -1.734  17.140  11.589  1.00  0.00    -0.744 OA
ENDBRANCH  94  97
ENDBRANCH  67  90
ENDBRANCH  41  42
ENDBRANCH  34  36
ENDBRANCH  33  34
ENDBRANCH  32  33
ENDBRANCH  31  32
ENDBRANCH  30  31
ENDBRANCH  29  30
ENDBRANCH   1  29
TORSDOF 26
