REMARK SMILES O=C(OCCOCCOCCOCCOC(=O)c1ccc(-c2c3nc(c(-c4cccc(S(=O)(=O)[O-])c4F)c4ccc([nH]4)c(-c4cccc(S(=O)(=O)[O-])c4F)c4nc(c(-c5cccc(S(=O)(=O)[O-])c5F)c5ccc2[nH]5)C=C4)C=C3)cc1)c1ccc(/C=C/c2ccnc(-c3cccc([N+](=O)[O-])c3)[n+]2[O-])cc1
REMARK SMILES IDX 8 1 7 2 6 3 5 4 4 5 3 6 2 7 1 8 81 9 82 10 104 11 83 12
REMARK SMILES IDX 103 13 84 14 85 15 86 16 87 17 88 18 101 19 89 20 91 21
REMARK SMILES IDX 102 22 90 23 92 24 93 25 100 26 94 27 96 28 95 29 97 30
REMARK SMILES IDX 98 31 99 32 9 33 10 34 11 35 12 36 13 37 14 38 15 39 16 40
REMARK SMILES IDX 17 41 18 42 19 43 80 44 20 45 79 46 21 47 22 48 23 49 73 50
REMARK SMILES IDX 24 51 78 52 72 53 74 54 25 55 77 56 71 57 70 58 26 60 58 61
REMARK SMILES IDX 38 62 57 63 39 64 42 65 56 66 75 67 40 68 41 69 55 71 76 72
REMARK SMILES IDX 43 73 27 74 28 75 36 76 29 77 31 78 37 79 30 80 32 81 33 82
REMARK SMILES IDX 34 83 35 84 59 85 60 86 68 87 61 88 63 89 69 90 62 91 64 92
REMARK SMILES IDX 65 93 66 94 67 95 44 96 45 97 53 98 46 99 48 100 54 101
REMARK SMILES IDX 47 102 49 103 50 104 51 105 52 106
REMARK H PARENT 74 59 42 70
REMARK Flexibility Score: inf
ROOT
ATOM      1  C   UNL     1       1.950  -2.748   0.541  1.00  0.00     0.188 C 
ENDROOT
BRANCH   1   2
ATOM      2  C   UNL     1       2.437  -1.347   0.925  1.00  0.00     0.188 C 
BRANCH   2   3
ATOM      3  O   UNL     1       3.716  -1.107   0.350  1.00  0.00    -0.376 OA
BRANCH   3   4
ATOM      4  C   UNL     1       4.635  -0.270   1.033  1.00  0.00     0.202 C 
BRANCH   4   5
ATOM      5  C   UNL     1       4.184   1.159   1.313  1.00  0.00     0.261 C 
BRANCH   5   6
ATOM      6  O   UNL     1       2.827   1.456   0.942  1.00  0.00    -0.460 OA
BRANCH   6   7
ATOM      7  C   UNL     1       2.318   1.772  -0.269  1.00  0.00     0.338 C 
ATOM      8  O   UNL     1       1.131   2.078  -0.368  1.00  0.00    -0.246 OA
BRANCH   7   9
ATOM      9  C   UNL     1       3.135   1.809  -1.505  1.00  0.00     0.060 A 
ATOM     10  C   UNL     1       3.931   0.757  -1.942  1.00  0.00     0.016 A 
ATOM     11  C   UNL     1       2.931   2.880  -2.379  1.00  0.00     0.016 A 
ATOM     12  C   UNL     1       4.605   0.801  -3.155  1.00  0.00     0.009 A 
ATOM     13  C   UNL     1       3.572   2.912  -3.624  1.00  0.00     0.009 A 
ATOM     14  C   UNL     1       4.438   1.881  -4.012  1.00  0.00    -0.025 A 
BRANCH  14  15
ATOM     15  C   UNL     1       5.149   1.967  -5.289  1.00  0.00     0.012 C 
ATOM     16  C   UNL     1       6.101   1.112  -5.699  1.00  0.00     0.053 C 
BRANCH  16  17
ATOM     17  C   UNL     1       6.904   1.356  -6.900  1.00  0.00     0.134 A 
ATOM     18  C   UNL     1       7.144   0.316  -7.796  1.00  0.00     0.100 A 
ATOM     19  N   UNL     1       7.472   2.619  -7.110  1.00  0.00    -0.228 N 
ATOM     20  C   UNL     1       7.898   0.596  -8.913  1.00  0.00     0.259 A 
ATOM     21  C   UNL     1       8.239   2.804  -8.256  1.00  0.00     0.333 A 
ATOM     22  O   UNL     1       7.306   3.578  -6.271  1.00  0.00    -0.710 OA
ATOM     23  N   UNL     1       8.431   1.806  -9.170  1.00  0.00    -0.049 NA
BRANCH  21  24
ATOM     24  C   UNL     1       8.881   4.097  -8.474  1.00  0.00     0.076 A 
ATOM     25  C   UNL     1       8.532   4.903  -9.568  1.00  0.00     0.017 A 
ATOM     26  C   UNL     1       9.802   4.593  -7.533  1.00  0.00     0.102 A 
ATOM     27  C   UNL     1       9.065   6.188  -9.707  1.00  0.00     0.008 A 
ATOM     28  C   UNL     1      10.334   5.878  -7.675  1.00  0.00     0.270 A 
ATOM     29  C   UNL     1       9.965   6.681  -8.761  1.00  0.00     0.085 A 
BRANCH  28  30
ATOM     30  N   UNL     1      11.274   6.386  -6.670  1.00  0.00     0.062 N 
ATOM     31  O   UNL     1      11.718   7.533  -6.828  1.00  0.00    -0.258 OA
ATOM     32  O   UNL     1      11.587   5.635  -5.736  1.00  0.00    -0.258 OA
ENDBRANCH  28  30
ENDBRANCH  21  24
ENDBRANCH  16  17
ENDBRANCH  14  15
ENDBRANCH   7   9
ENDBRANCH   6   7
ENDBRANCH   5   6
ENDBRANCH   4   5
ENDBRANCH   3   4
ENDBRANCH   2   3
ENDBRANCH   1   2
BRANCH   1  33
ATOM     33  O   UNL     1       2.686  -3.833   1.108  1.00  0.00    -0.377 OA
BRANCH  33  34
ATOM     34  C   UNL     1       4.105  -3.699   1.111  1.00  0.00     0.188 C 
BRANCH  34  35
ATOM     35  C   UNL     1       4.829  -3.657  -0.256  1.00  0.00     0.188 C 
BRANCH  35  36
ATOM     36  O   UNL     1       3.970  -3.407  -1.359  1.00  0.00    -0.376 OA
BRANCH  36  37
ATOM     37  C   UNL     1       3.653  -4.513  -2.194  1.00  0.00     0.202 C 
BRANCH  37  38
ATOM     38  C   UNL     1       3.042  -5.798  -1.597  1.00  0.00     0.261 C 
BRANCH  38  39
ATOM     39  O   UNL     1       3.535  -6.229  -0.322  1.00  0.00    -0.460 OA
BRANCH  39  40
ATOM     40  C   UNL     1       4.718  -6.893  -0.283  1.00  0.00     0.338 C 
ATOM     41  O   UNL     1       5.400  -7.207  -1.225  1.00  0.00    -0.246 OA
BRANCH  40  42
ATOM     42  C   UNL     1       5.154  -6.920   1.144  1.00  0.00     0.060 A 
ATOM     43  C   UNL     1       6.432  -6.425   1.445  1.00  0.00     0.016 A 
ATOM     44  C   UNL     1       4.290  -7.296   2.179  1.00  0.00     0.016 A 
ATOM     45  C   UNL     1       6.856  -6.332   2.773  1.00  0.00     0.010 A 
ATOM     46  C   UNL     1       4.726  -7.226   3.510  1.00  0.00     0.010 A 
ATOM     47  C   UNL     1       6.025  -6.778   3.809  1.00  0.00    -0.014 A 
BRANCH  47  48
ATOM     48  C   UNL     1       6.621  -7.024   5.147  1.00  0.00     0.031 A 
ATOM     49  C   UNL     1       7.119  -8.417   5.436  1.00  0.00     0.074 A 
ATOM     50  C   UNL     1       6.774  -6.051   6.065  1.00  0.00     0.049 A 
ATOM     51  N   UNL     1       7.716  -8.885   6.500  1.00  0.00    -0.248 NA
ATOM     52  C   UNL     1       6.918  -9.416   4.371  1.00  0.00     0.031 C 
ATOM     53  C   UNL     1       6.341  -4.664   5.916  1.00  0.00     0.029 A 
ATOM     54  N   UNL     1       7.327  -6.097   7.323  1.00  0.00    -0.354 N 
ATOM     55  C   UNL     1       7.955 -10.228   6.236  1.00  0.00     0.074 A 
ATOM     56  C   UNL     1       7.411 -10.510   4.927  1.00  0.00     0.031 C 
ATOM     57  C   UNL     1       6.621  -3.995   7.051  1.00  0.00     0.029 A 
ATOM     58  C   UNL     1       7.238  -4.909   8.012  1.00  0.00     0.049 A 
ATOM     59  H   UNL     1       7.749  -6.905   7.696  1.00  0.00     0.167 HD
ATOM     60  C   UNL     1       8.591 -11.146   7.000  1.00  0.00     0.034 A 
ATOM     61  C   UNL     1       7.598  -4.606   9.277  1.00  0.00     0.034 A 
ATOM     62  C   UNL     1       9.128 -10.874   8.303  1.00  0.00     0.049 A 
ATOM     63  C   UNL     1       8.265  -5.659  10.129  1.00  0.00     0.074 A 
ATOM     64  C   UNL     1       9.799 -11.735   9.153  1.00  0.00     0.029 A 
ATOM     65  N   UNL     1       9.043  -9.654   8.953  1.00  0.00    -0.354 N 
ATOM     66  N   UNL     1       8.583  -6.895   9.823  1.00  0.00    -0.248 NA
ATOM     67  C   UNL     1       8.660  -5.264  11.491  1.00  0.00     0.031 C 
ATOM     68  C   UNL     1      10.096 -11.041  10.330  1.00  0.00     0.029 A 
ATOM     69  C   UNL     1       9.646  -9.738  10.196  1.00  0.00     0.049 A 
ATOM     70  H   UNL     1       8.617  -8.846   8.585  1.00  0.00     0.167 HD
ATOM     71  C   UNL     1       9.247  -7.407  10.934  1.00  0.00     0.074 A 
ATOM     72  C   UNL     1       9.309  -6.341  11.911  1.00  0.00     0.031 C 
ATOM     73  C   UNL     1       9.749  -8.651  11.136  1.00  0.00     0.034 A 
BRANCH  60  74
ATOM     74  C   UNL     1       8.762 -12.526   6.424  1.00  0.00     0.023 A 
ATOM     75  C   UNL     1       9.670 -12.730   5.364  1.00  0.00     0.012 A 
ATOM     76  C   UNL     1       8.056 -13.624   6.951  1.00  0.00     0.148 A 
ATOM     77  C   UNL     1       9.851 -13.999   4.818  1.00  0.00     0.002 A 
ATOM     78  C   UNL     1       8.277 -14.894   6.433  1.00  0.00     0.091 A 
ATOM     79  F   UNL     1       7.179 -13.404   7.941  1.00  0.00    -0.205 F 
ATOM     80  C   UNL     1       9.163 -15.081   5.359  1.00  0.00     0.022 A 
BRANCH  78  81
ATOM     81  S   UNL     1       7.501 -16.365   7.109  1.00  0.00     0.127 S 
ATOM     82  O   UNL     1       6.618 -16.763   6.012  1.00  0.00    -0.237 OA
ATOM     83  O   UNL     1       8.649 -17.247   7.317  1.00  0.00    -0.237 OA
ATOM     84  O   UNL     1       6.826 -15.943   8.328  1.00  0.00    -0.744 OA
ENDBRANCH  78  81
ENDBRANCH  60  74
BRANCH  61  85
ATOM     85  C   UNL     1       7.351  -3.240   9.827  1.00  0.00     0.023 A 
ATOM     86  C   UNL     1       8.438  -2.404  10.156  1.00  0.00     0.012 A 
ATOM     87  C   UNL     1       6.041  -2.777  10.055  1.00  0.00     0.148 A 
ATOM     88  C   UNL     1       8.225  -1.154  10.741  1.00  0.00     0.002 A 
ATOM     89  C   UNL     1       5.834  -1.507  10.582  1.00  0.00     0.091 A 
ATOM     90  F   UNL     1       5.019  -3.592   9.758  1.00  0.00    -0.205 F 
ATOM     91  C   UNL     1       6.925  -0.702  10.945  1.00  0.00     0.022 A 
BRANCH  89  92
ATOM     92  S   UNL     1       4.195  -0.795  10.760  1.00  0.00     0.127 S 
ATOM     93  O   UNL     1       4.028  -0.787  12.210  1.00  0.00    -0.237 OA
ATOM     94  O   UNL     1       4.374   0.524  10.151  1.00  0.00    -0.237 OA
ATOM     95  O   UNL     1       3.302  -1.679  10.023  1.00  0.00    -0.744 OA
ENDBRANCH  89  92
ENDBRANCH  61  85
BRANCH  73  96
ATOM     96  C   UNL     1      10.459  -8.921  12.439  1.00  0.00     0.023 A 
ATOM     97  C   UNL     1       9.728  -8.997  13.641  1.00  0.00     0.012 A 
ATOM     98  C   UNL     1      11.848  -9.162  12.460  1.00  0.00     0.148 A 
ATOM     99  C   UNL     1      10.373  -9.264  14.848  1.00  0.00     0.002 A 
ATOM    100  C   UNL     1      12.475  -9.481  13.659  1.00  0.00     0.091 A 
ATOM    101  F   UNL     1      12.531  -9.073  11.310  1.00  0.00    -0.205 F 
ATOM    102  C   UNL     1      11.742  -9.517  14.856  1.00  0.00     0.022 A 
BRANCH 100 103
ATOM    103  S   UNL     1      14.215  -9.919  13.749  1.00  0.00     0.127 S 
ATOM    104  O   UNL     1      14.787  -8.735  14.388  1.00  0.00    -0.237 OA
ATOM    105  O   UNL     1      14.191 -11.116  14.591  1.00  0.00    -0.237 OA
ATOM    106  O   UNL     1      14.641 -10.156  12.376  1.00  0.00    -0.744 OA
ENDBRANCH 100 103
ENDBRANCH  73  96
ENDBRANCH  47  48
ENDBRANCH  40  42
ENDBRANCH  39  40
ENDBRANCH  38  39
ENDBRANCH  37  38
ENDBRANCH  36  37
ENDBRANCH  35  36
ENDBRANCH  34  35
ENDBRANCH  33  34
ENDBRANCH   1  33
TORSDOF 27
