REMARK SMILES CCC[NH2+][C@]1(C(=O)OCCOCCOCCOCCOC(=O)c2ccc(-c3c4nc(c(-c5cccc(S(=O)(=O)[O-])c5F)c5ccc([nH]5)c(-c5cccc(S(=O)(=O)[O-])c5F)c5nc(c(-c6cccc(S(=O)(=O)[O-])c6F)c6ccc3[nH]6)C=C5)C=C4)cc2)CCC[C@H](OC(C)(C)C)C1
REMARK SMILES IDX 14 1 13 2 12 3 11 4 10 5 9 6 8 7 6 8 7 9 5 10 86 11 95 12
REMARK SMILES IDX 87 13 89 14 88 15 4 16 3 19 2 20 1 21 90 22 91 23 92 24
REMARK SMILES IDX 93 25 94 26 15 27 16 28 17 29 18 30 19 31 20 32 21 33 22 34
REMARK SMILES IDX 23 35 24 36 85 37 25 38 84 39 26 40 27 41 28 42 78 43 29 44
REMARK SMILES IDX 83 45 77 46 79 47 30 48 82 49 76 50 75 51 31 53 63 54 43 55
REMARK SMILES IDX 62 56 44 57 47 58 61 59 80 60 45 61 46 62 60 64 81 65 48 66
REMARK SMILES IDX 32 67 33 68 41 69 34 70 36 71 42 72 35 73 37 74 38 75 39 76
REMARK SMILES IDX 40 77 64 78 65 79 73 80 66 81 68 82 74 83 67 84 69 85 70 86
REMARK SMILES IDX 71 87 72 88 49 89 50 90 58 91 51 92 53 93 59 94 52 95 54 96
REMARK SMILES IDX 55 97 56 98 57 99
REMARK H PARENT 4 17 4 18 79 52 47 63
REMARK Flexibility Score: inf
ROOT
ATOM      1  O   UNL     1       1.506   0.392   2.060  1.00  0.00    -0.377 OA
ENDROOT
BRANCH   1   2
ATOM      2  C   UNL     1       2.130  -0.839   1.737  1.00  0.00     0.188 C 
BRANCH   2   3
ATOM      3  C   UNL     1       1.863  -1.285   0.279  1.00  0.00     0.188 C 
BRANCH   3   4
ATOM      4  O   UNL     1       0.906  -0.607  -0.522  1.00  0.00    -0.376 OA
BRANCH   4   5
ATOM      5  C   UNL     1      -0.290  -0.144   0.082  1.00  0.00     0.202 C 
BRANCH   5   6
ATOM      6  C   UNL     1      -1.080  -1.008   1.088  1.00  0.00     0.261 C 
BRANCH   6   7
ATOM      7  O   UNL     1      -0.384  -2.059   1.773  1.00  0.00    -0.459 OA
BRANCH   7   8
ATOM      8  C   UNL     1      -0.289  -3.274   1.162  1.00  0.00     0.368 C 
ATOM      9  O   UNL     1      -0.781  -3.523   0.065  1.00  0.00    -0.245 OA
BRANCH   8  10
ATOM     10  C   UNL     1       0.512  -4.309   2.034  1.00  0.00     0.196 C 
ATOM     11  C   UNL     1      -0.076  -4.193   3.473  1.00  0.00     0.081 C 
ATOM     12  C   UNL     1       0.217  -5.710   1.450  1.00  0.00     0.113 C 
ATOM     13  C   UNL     1       0.254  -5.371   4.383  1.00  0.00     0.010 C 
ATOM     14  C   UNL     1       0.559  -6.878   2.375  1.00  0.00     0.125 C 
ATOM     15  C   UNL     1      -0.136  -6.687   3.724  1.00  0.00     0.032 C 
BRANCH  10  16
ATOM     16  N   UNL     1       1.977  -3.996   2.156  1.00  0.00    -0.332 N 
ATOM     17  H   UNL     1       2.058  -2.983   2.240  1.00  0.00     0.347 HD
ATOM     18  H   UNL     1       2.274  -4.552   2.958  1.00  0.00     0.347 HD
BRANCH  16  19
ATOM     19  C   UNL     1       2.896  -4.410   1.093  1.00  0.00     0.261 C 
BRANCH  19  20
ATOM     20  C   UNL     1       4.329  -3.905   1.370  1.00  0.00     0.058 C 
ATOM     21  C   UNL     1       4.899  -4.293   2.731  1.00  0.00     0.010 C 
ENDBRANCH  19  20
ENDBRANCH  16  19
ENDBRANCH  10  16
BRANCH  14  22
ATOM     22  O   UNL     1       1.976  -6.946   2.561  1.00  0.00    -0.372 OA
BRANCH  22  23
ATOM     23  C   UNL     1       2.615  -8.222   2.420  1.00  0.00     0.060 C 
ATOM     24  C   UNL     1       2.076  -9.210   3.453  1.00  0.00     0.042 C 
ATOM     25  C   UNL     1       2.495  -8.754   0.986  1.00  0.00     0.042 C 
ATOM     26  C   UNL     1       4.107  -7.992   2.706  1.00  0.00     0.042 C 
ENDBRANCH  22  23
ENDBRANCH  14  22
ENDBRANCH   8  10
ENDBRANCH   7   8
ENDBRANCH   6   7
ENDBRANCH   5   6
ENDBRANCH   4   5
ENDBRANCH   3   4
ENDBRANCH   2   3
ENDBRANCH   1   2
BRANCH   1  27
ATOM     27  C   UNL     1       2.357   1.520   1.956  1.00  0.00     0.188 C 
BRANCH  27  28
ATOM     28  C   UNL     1       3.119   1.682   0.625  1.00  0.00     0.188 C 
BRANCH  28  29
ATOM     29  O   UNL     1       3.872   0.536   0.247  1.00  0.00    -0.376 OA
BRANCH  29  30
ATOM     30  C   UNL     1       5.277   0.508   0.405  1.00  0.00     0.202 C 
BRANCH  30  31
ATOM     31  C   UNL     1       5.812   0.321   1.832  1.00  0.00     0.261 C 
BRANCH  31  32
ATOM     32  O   UNL     1       5.322   1.251   2.803  1.00  0.00    -0.460 OA
BRANCH  32  33
ATOM     33  C   UNL     1       5.621   2.554   2.590  1.00  0.00     0.338 C 
ATOM     34  O   UNL     1       6.313   3.007   1.705  1.00  0.00    -0.246 OA
BRANCH  33  35
ATOM     35  C   UNL     1       4.766   3.360   3.489  1.00  0.00     0.060 A 
ATOM     36  C   UNL     1       3.929   4.321   2.908  1.00  0.00     0.016 A 
ATOM     37  C   UNL     1       4.748   3.142   4.869  1.00  0.00     0.016 A 
ATOM     38  C   UNL     1       3.093   5.089   3.709  1.00  0.00     0.010 A 
ATOM     39  C   UNL     1       3.934   3.940   5.678  1.00  0.00     0.010 A 
ATOM     40  C   UNL     1       3.132   4.940   5.101  1.00  0.00    -0.014 A 
BRANCH  40  41
ATOM     41  C   UNL     1       2.495   5.986   5.931  1.00  0.00     0.031 A 
ATOM     42  C   UNL     1       3.357   7.115   6.429  1.00  0.00     0.074 A 
ATOM     43  C   UNL     1       1.171   5.979   6.163  1.00  0.00     0.049 A 
ATOM     44  N   UNL     1       3.018   8.178   7.107  1.00  0.00    -0.248 NA
ATOM     45  C   UNL     1       4.794   7.039   6.109  1.00  0.00     0.031 C 
ATOM     46  C   UNL     1       0.237   4.949   5.713  1.00  0.00     0.029 A 
ATOM     47  N   UNL     1       0.386   6.874   6.844  1.00  0.00    -0.354 N 
ATOM     48  C   UNL     1       4.195   8.891   7.303  1.00  0.00     0.074 A 
ATOM     49  C   UNL     1       5.262   8.131   6.692  1.00  0.00     0.031 C 
ATOM     50  C   UNL     1      -0.997   5.259   6.150  1.00  0.00     0.029 A 
ATOM     51  C   UNL     1      -0.934   6.498   6.923  1.00  0.00     0.049 A 
ATOM     52  H   UNL     1       0.734   7.706   7.238  1.00  0.00     0.167 HD
ATOM     53  C   UNL     1       4.368  10.083   7.919  1.00  0.00     0.034 A 
ATOM     54  C   UNL     1      -1.965   7.083   7.565  1.00  0.00     0.034 A 
ATOM     55  C   UNL     1       3.304  10.838   8.521  1.00  0.00     0.049 A 
ATOM     56  C   UNL     1      -1.730   8.389   8.283  1.00  0.00     0.074 A 
ATOM     57  C   UNL     1       3.373  12.063   9.158  1.00  0.00     0.029 A 
ATOM     58  N   UNL     1       1.980  10.433   8.574  1.00  0.00    -0.354 N 
ATOM     59  N   UNL     1      -0.632   9.102   8.371  1.00  0.00    -0.248 NA
ATOM     60  C   UNL     1      -2.889   8.991   8.958  1.00  0.00     0.031 C 
ATOM     61  C   UNL     1       2.094  12.385   9.625  1.00  0.00     0.029 A 
ATOM     62  C   UNL     1       1.222  11.380   9.241  1.00  0.00     0.049 A 
ATOM     63  H   UNL     1       1.629   9.595   8.193  1.00  0.00     0.167 HD
ATOM     64  C   UNL     1      -0.978  10.251   9.076  1.00  0.00     0.074 A 
ATOM     65  C   UNL     1      -2.395  10.153   9.359  1.00  0.00     0.031 C 
ATOM     66  C   UNL     1      -0.196  11.286   9.473  1.00  0.00     0.034 A 
BRANCH  53  67
ATOM     67  C   UNL     1       5.759  10.658   7.955  1.00  0.00     0.023 A 
ATOM     68  C   UNL     1       6.328  11.184   6.777  1.00  0.00     0.012 A 
ATOM     69  C   UNL     1       6.471  10.744   9.167  1.00  0.00     0.148 A 
ATOM     70  C   UNL     1       7.594  11.770   6.802  1.00  0.00     0.002 A 
ATOM     71  C   UNL     1       7.711  11.370   9.192  1.00  0.00     0.091 A 
ATOM     72  F   UNL     1       5.920  10.216  10.269  1.00  0.00    -0.205 F 
ATOM     73  C   UNL     1       8.278  11.874   8.010  1.00  0.00     0.022 A 
BRANCH  71  74
ATOM     74  S   UNL     1       8.639  11.626  10.708  1.00  0.00     0.127 S 
ATOM     75  O   UNL     1       9.826  10.806  10.469  1.00  0.00    -0.237 OA
ATOM     76  O   UNL     1       8.878  13.069  10.678  1.00  0.00    -0.237 OA
ATOM     77  O   UNL     1       7.780  11.169  11.791  1.00  0.00    -0.744 OA
ENDBRANCH  71  74
ENDBRANCH  53  67
BRANCH  54  78
ATOM     78  C   UNL     1      -3.318   6.457   7.559  1.00  0.00     0.023 A 
ATOM     79  C   UNL     1      -4.396   7.113   6.931  1.00  0.00     0.012 A 
ATOM     80  C   UNL     1      -3.550   5.230   8.210  1.00  0.00     0.148 A 
ATOM     81  C   UNL     1      -5.687   6.586   6.998  1.00  0.00     0.002 A 
ATOM     82  C   UNL     1      -4.826   4.680   8.220  1.00  0.00     0.091 A 
ATOM     83  F   UNL     1      -2.519   4.629   8.819  1.00  0.00    -0.205 F 
ATOM     84  C   UNL     1      -5.901   5.367   7.636  1.00  0.00     0.022 A 
BRANCH  82  85
ATOM     85  S   UNL     1      -5.165   3.057   8.909  1.00  0.00     0.127 S 
ATOM     86  O   UNL     1      -5.904   3.396  10.123  1.00  0.00    -0.237 OA
ATOM     87  O   UNL     1      -5.967   2.441   7.851  1.00  0.00    -0.237 OA
ATOM     88  O   UNL     1      -3.863   2.437   9.111  1.00  0.00    -0.744 OA
ENDBRANCH  82  85
ENDBRANCH  54  78
BRANCH  66  89
ATOM     89  C   UNL     1      -0.866  12.415  10.216  1.00  0.00     0.023 A 
ATOM     90  C   UNL     1      -1.359  12.208  11.520  1.00  0.00     0.012 A 
ATOM     91  C   UNL     1      -0.977  13.693   9.632  1.00  0.00     0.148 A 
ATOM     92  C   UNL     1      -2.005  13.235  12.206  1.00  0.00     0.002 A 
ATOM     93  C   UNL     1      -1.569  14.728  10.345  1.00  0.00     0.091 A 
ATOM     94  F   UNL     1      -0.512  13.872   8.387  1.00  0.00    -0.205 F 
ATOM     95  C   UNL     1      -2.102  14.496  11.623  1.00  0.00     0.022 A 
BRANCH  93  96
ATOM     96  S   UNL     1      -1.649  16.408   9.716  1.00  0.00     0.127 S 
ATOM     97  O   UNL     1      -3.065  16.533   9.377  1.00  0.00    -0.237 OA
ATOM     98  O   UNL     1      -1.228  17.194  10.877  1.00  0.00    -0.237 OA
ATOM     99  O   UNL     1      -0.728  16.458   8.588  1.00  0.00    -0.744 OA
ENDBRANCH  93  96
ENDBRANCH  66  89
ENDBRANCH  40  41
ENDBRANCH  33  35
ENDBRANCH  32  33
ENDBRANCH  31  32
ENDBRANCH  30  31
ENDBRANCH  29  30
ENDBRANCH  28  29
ENDBRANCH  27  28
ENDBRANCH   1  27
TORSDOF 28
