REMARK SMILES C[C@@H](c1cccc(F)c1)[C@@](C)(O)C(=O)OCCOCCOCCOCCOC(=O)c1ccc(-c2c3nc(c(-c4cccc(S(=O)(=O)[O-])c4F)c4ccc([nH]4)c(-c4cccc(S(=O)(=O)[O-])c4F)c4nc(c(-c5cccc(S(=O)(=O)[O-])c5F)c5ccc2[nH]5)C=C4)C=C3)cc1
REMARK SMILES IDX 22 1 21 2 20 3 19 4 18 5 17 6 16 7 15 8 13 9 14 10 10 11
REMARK SMILES IDX 11 12 2 13 1 14 3 15 4 16 9 17 5 18 7 19 6 20 8 21 12 22
REMARK SMILES IDX 23 24 24 25 25 26 26 27 27 28 28 29 29 30 30 31 31 32 92 33
REMARK SMILES IDX 32 34 91 35 33 36 34 37 35 38 85 39 36 40 90 41 84 42 86 43
REMARK SMILES IDX 37 44 89 45 83 46 82 47 38 49 70 50 50 51 69 52 51 53 54 54
REMARK SMILES IDX 68 55 87 56 52 57 53 58 67 60 88 61 55 62 39 63 40 64 48 65
REMARK SMILES IDX 41 66 43 67 49 68 42 69 44 70 45 71 46 72 47 73 71 74 72 75
REMARK SMILES IDX 80 76 73 77 75 78 81 79 74 80 76 81 77 82 78 83 79 84 56 85
REMARK SMILES IDX 57 86 65 87 58 88 60 89 66 90 59 91 61 92 62 93 63 94 64 95
REMARK H PARENT 12 23 86 48 54 59
REMARK Flexibility Score: inf
ROOT
ATOM      1  C   UNL     1      -3.623   1.688  -4.568  1.00  0.00     0.188 C 
ENDROOT
BRANCH   1   2
ATOM      2  O   UNL     1      -3.025   2.113  -3.356  1.00  0.00    -0.377 OA
BRANCH   2   3
ATOM      3  C   UNL     1      -1.647   1.869  -3.153  1.00  0.00     0.188 C 
BRANCH   3   4
ATOM      4  C   UNL     1      -1.073   0.477  -3.478  1.00  0.00     0.188 C 
BRANCH   4   5
ATOM      5  O   UNL     1      -2.017  -0.433  -4.014  1.00  0.00    -0.376 OA
BRANCH   5   6
ATOM      6  C   UNL     1      -2.484  -1.451  -3.148  1.00  0.00     0.202 C 
BRANCH   6   7
ATOM      7  C   UNL     1      -3.161  -1.032  -1.833  1.00  0.00     0.261 C 
BRANCH   7   8
ATOM      8  O   UNL     1      -2.491  -0.011  -1.071  1.00  0.00    -0.461 OA
BRANCH   8   9
ATOM      9  C   UNL     1      -1.373  -0.343  -0.376  1.00  0.00     0.338 C 
ATOM     10  O   UNL     1      -0.909  -1.477  -0.339  1.00  0.00    -0.249 OA
BRANCH   9  11
ATOM     11  C   UNL     1      -0.790   0.886   0.400  1.00  0.00     0.165 C 
ATOM     12  C   UNL     1      -1.166   0.613   1.869  1.00  0.00     0.055 C 
BRANCH  11  13
ATOM     13  C   UNL     1       0.768   1.074   0.212  1.00  0.00     0.059 C 
ATOM     14  C   UNL     1       1.586  -0.153   0.643  1.00  0.00     0.016 C 
BRANCH  13  15
ATOM     15  C   UNL     1       1.271   1.651  -1.129  1.00  0.00    -0.039 A 
ATOM     16  C   UNL     1       1.121   3.027  -1.407  1.00  0.00     0.004 A 
ATOM     17  C   UNL     1       1.949   0.880  -2.091  1.00  0.00     0.043 A 
ATOM     18  C   UNL     1       1.606   3.599  -2.594  1.00  0.00     0.003 A 
ATOM     19  C   UNL     1       2.434   1.459  -3.267  1.00  0.00     0.123 A 
ATOM     20  C   UNL     1       2.265   2.810  -3.530  1.00  0.00     0.039 A 
ATOM     21  F   UNL     1       3.068   0.692  -4.165  1.00  0.00    -0.207 F 
ENDBRANCH  13  15
ENDBRANCH  11  13
BRANCH  11  22
ATOM     22  O   UNL     1      -1.410   2.143   0.100  1.00  0.00    -0.378 OA
ATOM     23  H   UNL     1      -0.988   2.844   0.622  1.00  0.00     0.212 HD
ENDBRANCH  11  22
ENDBRANCH   9  11
ENDBRANCH   8   9
ENDBRANCH   7   8
ENDBRANCH   6   7
ENDBRANCH   5   6
ENDBRANCH   4   5
ENDBRANCH   3   4
ENDBRANCH   2   3
ENDBRANCH   1   2
BRANCH   1  24
ATOM     24  C   UNL     1      -2.784   1.569  -5.864  1.00  0.00     0.188 C 
BRANCH  24  25
ATOM     25  O   UNL     1      -1.444   2.035  -5.788  1.00  0.00    -0.376 OA
BRANCH  25  26
ATOM     26  C   UNL     1      -1.133   3.279  -6.391  1.00  0.00     0.202 C 
BRANCH  26  27
ATOM     27  C   UNL     1      -1.764   4.529  -5.763  1.00  0.00     0.261 C 
BRANCH  27  28
ATOM     28  O   UNL     1      -3.195   4.529  -5.695  1.00  0.00    -0.460 OA
BRANCH  28  29
ATOM     29  C   UNL     1      -3.868   4.452  -6.863  1.00  0.00     0.338 C 
ATOM     30  O   UNL     1      -3.398   4.432  -7.988  1.00  0.00    -0.246 OA
BRANCH  29  31
ATOM     31  C   UNL     1      -5.277   4.173  -6.531  1.00  0.00     0.060 A 
ATOM     32  C   UNL     1      -5.861   2.988  -7.002  1.00  0.00     0.016 A 
ATOM     33  C   UNL     1      -5.992   5.045  -5.707  1.00  0.00     0.016 A 
ATOM     34  C   UNL     1      -7.173   2.678  -6.658  1.00  0.00     0.010 A 
ATOM     35  C   UNL     1      -7.319   4.754  -5.399  1.00  0.00     0.010 A 
ATOM     36  C   UNL     1      -7.920   3.587  -5.901  1.00  0.00    -0.014 A 
BRANCH  36  37
ATOM     37  C   UNL     1      -9.389   3.440  -5.847  1.00  0.00     0.031 A 
ATOM     38  C   UNL     1     -10.199   4.197  -6.860  1.00  0.00     0.074 A 
ATOM     39  C   UNL     1      -9.985   2.652  -4.937  1.00  0.00     0.049 A 
ATOM     40  N   UNL     1     -11.495   4.265  -7.000  1.00  0.00    -0.248 NA
ATOM     41  C   UNL     1      -9.443   4.988  -7.849  1.00  0.00     0.031 C 
ATOM     42  C   UNL     1      -9.293   1.854  -3.927  1.00  0.00     0.029 A 
ATOM     43  N   UNL     1     -11.316   2.414  -4.707  1.00  0.00    -0.354 N 
ATOM     44  C   UNL     1     -11.710   5.124  -8.069  1.00  0.00     0.074 A 
ATOM     45  C   UNL     1     -10.416   5.562  -8.539  1.00  0.00     0.031 C 
ATOM     46  C   UNL     1     -10.210   1.231  -3.166  1.00  0.00     0.029 A 
ATOM     47  C   UNL     1     -11.549   1.611  -3.616  1.00  0.00     0.049 A 
ATOM     48  H   UNL     1     -12.035   2.782  -5.269  1.00  0.00     0.167 HD
ATOM     49  C   UNL     1     -12.885   5.504  -8.618  1.00  0.00     0.034 A 
ATOM     50  C   UNL     1     -12.711   1.248  -3.037  1.00  0.00     0.034 A 
ATOM     51  C   UNL     1     -14.166   5.053  -8.152  1.00  0.00     0.049 A 
ATOM     52  C   UNL     1     -14.010   1.716  -3.643  1.00  0.00     0.074 A 
ATOM     53  C   UNL     1     -15.415   5.349  -8.664  1.00  0.00     0.029 A 
ATOM     54  N   UNL     1     -14.363   4.226  -7.057  1.00  0.00    -0.354 N 
ATOM     55  N   UNL     1     -14.203   2.452  -4.712  1.00  0.00    -0.248 NA
ATOM     56  C   UNL     1     -15.251   1.284  -2.983  1.00  0.00     0.031 C 
ATOM     57  C   UNL     1     -16.371   4.735  -7.854  1.00  0.00     0.029 A 
ATOM     58  C   UNL     1     -15.716   4.015  -6.866  1.00  0.00     0.049 A 
ATOM     59  H   UNL     1     -13.647   3.846  -6.499  1.00  0.00     0.167 HD
ATOM     60  C   UNL     1     -15.582   2.543  -4.873  1.00  0.00     0.074 A 
ATOM     61  C   UNL     1     -16.177   1.774  -3.799  1.00  0.00     0.031 C 
ATOM     62  C   UNL     1     -16.291   3.208  -5.819  1.00  0.00     0.034 A 
BRANCH  49  63
ATOM     63  C   UNL     1     -12.843   6.444  -9.791  1.00  0.00     0.023 A 
ATOM     64  C   UNL     1     -12.399   5.981 -11.046  1.00  0.00     0.012 A 
ATOM     65  C   UNL     1     -13.315   7.765  -9.667  1.00  0.00     0.148 A 
ATOM     66  C   UNL     1     -12.408   6.824 -12.156  1.00  0.00     0.002 A 
ATOM     67  C   UNL     1     -13.369   8.583 -10.787  1.00  0.00     0.091 A 
ATOM     68  F   UNL     1     -13.704   8.193  -8.457  1.00  0.00    -0.205 F 
ATOM     69  C   UNL     1     -12.906   8.119 -12.030  1.00  0.00     0.022 A 
BRANCH  67  70
ATOM     70  S   UNL     1     -14.075  10.234 -10.748  1.00  0.00     0.127 S 
ATOM     71  O   UNL     1     -12.898  11.064 -11.001  1.00  0.00    -0.237 OA
ATOM     72  O   UNL     1     -15.032  10.182 -11.853  1.00  0.00    -0.237 OA
ATOM     73  O   UNL     1     -14.671  10.388  -9.429  1.00  0.00    -0.744 OA
ENDBRANCH  67  70
ENDBRANCH  49  63
BRANCH  50  74
ATOM     74  C   UNL     1     -12.691   0.363  -1.838  1.00  0.00     0.023 A 
ATOM     75  C   UNL     1     -13.149  -0.964  -1.946  1.00  0.00     0.012 A 
ATOM     76  C   UNL     1     -12.170   0.813  -0.608  1.00  0.00     0.148 A 
ATOM     77  C   UNL     1     -13.102  -1.823  -0.847  1.00  0.00     0.002 A 
ATOM     78  C   UNL     1     -12.072  -0.065   0.465  1.00  0.00     0.091 A 
ATOM     79  F   UNL     1     -11.754   2.084  -0.523  1.00  0.00    -0.205 F 
ATOM     80  C   UNL     1     -12.552  -1.379   0.353  1.00  0.00     0.022 A 
BRANCH  78  81
ATOM     81  S   UNL     1     -11.260   0.375   2.006  1.00  0.00     0.127 S 
ATOM     82  O   UNL     1     -12.364   0.295   2.960  1.00  0.00    -0.237 OA
ATOM     83  O   UNL     1     -10.261  -0.688   2.129  1.00  0.00    -0.237 OA
ATOM     84  O   UNL     1     -10.707   1.706   1.799  1.00  0.00    -0.744 OA
ENDBRANCH  78  81
ENDBRANCH  50  74
BRANCH  62  85
ATOM     85  C   UNL     1     -17.796   3.123  -5.778  1.00  0.00     0.023 A 
ATOM     86  C   UNL     1     -18.511   3.823  -4.788  1.00  0.00     0.012 A 
ATOM     87  C   UNL     1     -18.500   2.463  -6.806  1.00  0.00     0.148 A 
ATOM     88  C   UNL     1     -19.905   3.852  -4.810  1.00  0.00     0.002 A 
ATOM     89  C   UNL     1     -19.886   2.542  -6.852  1.00  0.00     0.091 A 
ATOM     90  F   UNL     1     -17.799   1.793  -7.732  1.00  0.00    -0.205 F 
ATOM     91  C   UNL     1     -20.591   3.226  -5.849  1.00  0.00     0.022 A 
BRANCH  89  92
ATOM     92  S   UNL     1     -20.848   1.865  -8.211  1.00  0.00     0.127 S 
ATOM     93  O   UNL     1     -21.561   0.770  -7.554  1.00  0.00    -0.237 OA
ATOM     94  O   UNL     1     -21.690   3.001  -8.588  1.00  0.00    -0.237 OA
ATOM     95  O   UNL     1     -19.886   1.458  -9.225  1.00  0.00    -0.744 OA
ENDBRANCH  89  92
ENDBRANCH  62  85
ENDBRANCH  36  37
ENDBRANCH  29  31
ENDBRANCH  28  29
ENDBRANCH  27  28
ENDBRANCH  26  27
ENDBRANCH  25  26
ENDBRANCH  24  25
ENDBRANCH   1  24
TORSDOF 26
