REMARK SMILES C[NH2+][C@@]1(C(=O)OCCOCCOCCOCCOC(=O)c2ccc(-c3c4nc(c(-c5cccc(S(=O)(=O)[O-])c5F)c5ccc([nH]5)c(-c5cccc(S(=O)(=O)[O-])c5F)c5nc(c(-c6cccc(S(=O)(=O)[O-])c6F)c6ccc3[nH]6)C=C5)C=C4)cc2)CC[C@H](Sc2ccc(C)c(C)c2)C1
REMARK SMILES IDX 13 1 12 2 11 3 10 4 9 5 8 6 7 7 6 8 4 9 5 10 3 11 84 12
REMARK SMILES IDX 96 13 85 14 86 15 2 16 1 17 87 20 88 21 89 22 95 23 90 24
REMARK SMILES IDX 93 25 91 26 94 27 92 28 14 29 15 30 16 31 17 32 18 33 19 34
REMARK SMILES IDX 20 35 21 36 22 37 83 38 23 39 82 40 24 41 25 42 26 43 76 44
REMARK SMILES IDX 27 45 81 46 75 47 77 48 28 49 80 50 74 51 73 52 29 54 61 55
REMARK SMILES IDX 41 56 60 57 42 58 45 59 59 60 78 61 43 62 44 63 58 65 79 66
REMARK SMILES IDX 46 67 30 68 31 69 39 70 32 71 34 72 40 73 33 74 35 75 36 76
REMARK SMILES IDX 37 77 38 78 62 79 63 80 71 81 64 82 66 83 72 84 65 85 67 86
REMARK SMILES IDX 68 87 69 88 70 89 47 90 48 91 56 92 49 93 51 94 57 95 50 96
REMARK SMILES IDX 52 97 53 98 54 99 55 100
REMARK H PARENT 2 18 2 19 77 53 45 64
REMARK Flexibility Score: inf
ROOT
ATOM      1  C   UNL     1      -2.890  -3.797   4.103  1.00  0.00     0.188 C 
ENDROOT
BRANCH   1   2
ATOM      2  O   UNL     1      -2.208  -3.062   3.099  1.00  0.00    -0.377 OA
BRANCH   2   3
ATOM      3  C   UNL     1      -0.801  -2.975   3.106  1.00  0.00     0.188 C 
BRANCH   3   4
ATOM      4  C   UNL     1      -0.171  -1.960   4.062  1.00  0.00     0.188 C 
BRANCH   4   5
ATOM      5  O   UNL     1      -0.878  -1.596   5.227  1.00  0.00    -0.376 OA
BRANCH   5   6
ATOM      6  C   UNL     1      -2.062  -0.816   5.164  1.00  0.00     0.202 C 
BRANCH   6   7
ATOM      7  C   UNL     1      -2.604  -0.056   3.934  1.00  0.00     0.261 C 
BRANCH   7   8
ATOM      8  O   UNL     1      -2.249  -0.527   2.629  1.00  0.00    -0.459 OA
BRANCH   8   9
ATOM      9  C   UNL     1      -1.348   0.221   1.958  1.00  0.00     0.368 C 
ATOM     10  O   UNL     1      -0.826   1.233   2.430  1.00  0.00    -0.245 OA
BRANCH   9  11
ATOM     11  C   UNL     1      -1.012  -0.288   0.514  1.00  0.00     0.195 C 
ATOM     12  C   UNL     1      -1.667   0.765  -0.398  1.00  0.00     0.082 C 
ATOM     13  C   UNL     1      -1.628  -1.563  -0.097  1.00  0.00     0.096 C 
ATOM     14  C   UNL     1      -3.131   0.300  -0.444  1.00  0.00     0.022 C 
ATOM     15  C   UNL     1      -3.049  -1.225  -0.555  1.00  0.00     0.059 C 
BRANCH  11  16
ATOM     16  N   UNL     1       0.457  -0.489   0.517  1.00  0.00    -0.335 N 
ATOM     17  C   UNL     1       1.234   0.413  -0.294  1.00  0.00     0.331 C 
ATOM     18  H   UNL     1       0.780  -0.395   1.480  1.00  0.00     0.347 HD
ATOM     19  H   UNL     1       0.602  -1.412   0.108  1.00  0.00     0.347 HD
ENDBRANCH  11  16
BRANCH  15  20
ATOM     20  S   UNL     1      -4.176  -2.212   0.479  1.00  0.00    -0.122 SA
BRANCH  20  21
ATOM     21  C   UNL     1      -5.805  -1.805  -0.074  1.00  0.00     0.008 A 
ATOM     22  C   UNL     1      -6.104  -0.990  -1.160  1.00  0.00     0.015 A 
ATOM     23  C   UNL     1      -6.852  -2.351   0.674  1.00  0.00     0.018 A 
ATOM     24  C   UNL     1      -7.426  -0.667  -1.449  1.00  0.00     0.005 A 
ATOM     25  C   UNL     1      -8.189  -2.073   0.365  1.00  0.00    -0.047 A 
ATOM     26  C   UNL     1      -8.477  -1.194  -0.689  1.00  0.00    -0.048 A 
ATOM     27  C   UNL     1      -9.265  -2.668   1.222  1.00  0.00     0.044 C 
ATOM     28  C   UNL     1      -9.874  -0.785  -1.056  1.00  0.00     0.044 C 
ENDBRANCH  20  21
ENDBRANCH  15  20
ENDBRANCH   9  11
ENDBRANCH   8   9
ENDBRANCH   7   8
ENDBRANCH   6   7
ENDBRANCH   5   6
ENDBRANCH   4   5
ENDBRANCH   3   4
ENDBRANCH   2   3
ENDBRANCH   1   2
BRANCH   1  29
ATOM     29  C   UNL     1      -2.112  -4.438   5.265  1.00  0.00     0.188 C 
BRANCH  29  30
ATOM     30  O   UNL     1      -0.834  -4.949   4.924  1.00  0.00    -0.376 OA
BRANCH  30  31
ATOM     31  C   UNL     1      -0.726  -6.308   4.525  1.00  0.00     0.202 C 
BRANCH  31  32
ATOM     32  C   UNL     1      -1.527  -6.782   3.300  1.00  0.00     0.261 C 
BRANCH  32  33
ATOM     33  O   UNL     1      -2.960  -6.700   3.387  1.00  0.00    -0.460 OA
BRANCH  33  34
ATOM     34  C   UNL     1      -3.578  -7.281   4.433  1.00  0.00     0.338 C 
ATOM     35  O   UNL     1      -3.061  -7.958   5.309  1.00  0.00    -0.246 OA
BRANCH  34  36
ATOM     36  C   UNL     1      -4.976  -6.801   4.466  1.00  0.00     0.060 A 
ATOM     37  C   UNL     1      -5.428  -6.100   5.592  1.00  0.00     0.016 A 
ATOM     38  C   UNL     1      -5.843  -7.056   3.402  1.00  0.00     0.016 A 
ATOM     39  C   UNL     1      -6.762  -5.697   5.683  1.00  0.00     0.010 A 
ATOM     40  C   UNL     1      -7.183  -6.667   3.502  1.00  0.00     0.010 A 
ATOM     41  C   UNL     1      -7.660  -6.024   4.661  1.00  0.00    -0.014 A 
BRANCH  41  42
ATOM     42  C   UNL     1      -9.124  -5.894   4.883  1.00  0.00     0.031 A 
ATOM     43  C   UNL     1      -9.906  -7.145   5.200  1.00  0.00     0.074 A 
ATOM     44  C   UNL     1      -9.756  -4.707   4.819  1.00  0.00     0.049 A 
ATOM     45  N   UNL     1     -11.194  -7.302   5.361  1.00  0.00    -0.248 NA
ATOM     46  C   UNL     1      -9.126  -8.383   5.381  1.00  0.00     0.031 C 
ATOM     47  C   UNL     1      -9.117  -3.406   4.623  1.00  0.00     0.029 A 
ATOM     48  N   UNL     1     -11.097  -4.411   4.877  1.00  0.00    -0.354 N 
ATOM     49  C   UNL     1     -11.380  -8.649   5.650  1.00  0.00     0.074 A 
ATOM     50  C   UNL     1     -10.077  -9.275   5.613  1.00  0.00     0.031 C 
ATOM     51  C   UNL     1     -10.070  -2.462   4.511  1.00  0.00     0.029 A 
ATOM     52  C   UNL     1     -11.382  -3.095   4.593  1.00  0.00     0.049 A 
ATOM     53  H   UNL     1     -11.787  -5.077   5.099  1.00  0.00     0.167 HD
ATOM     54  C   UNL     1     -12.527  -9.304   5.946  1.00  0.00     0.034 A 
ATOM     55  C   UNL     1     -12.566  -2.484   4.389  1.00  0.00     0.034 A 
ATOM     56  C   UNL     1     -13.820  -8.677   5.993  1.00  0.00     0.049 A 
ATOM     57  C   UNL     1     -13.837  -3.268   4.582  1.00  0.00     0.074 A 
ATOM     58  C   UNL     1     -15.037  -9.238   6.334  1.00  0.00     0.029 A 
ATOM     59  N   UNL     1     -14.068  -7.353   5.666  1.00  0.00    -0.354 N 
ATOM     60  N   UNL     1     -13.991  -4.518   4.944  1.00  0.00    -0.248 NA
ATOM     61  C   UNL     1     -15.099  -2.534   4.402  1.00  0.00     0.031 C 
ATOM     62  C   UNL     1     -16.028  -8.266   6.166  1.00  0.00     0.029 A 
ATOM     63  C   UNL     1     -15.421  -7.085   5.770  1.00  0.00     0.049 A 
ATOM     64  H   UNL     1     -13.382  -6.699   5.398  1.00  0.00     0.167 HD
ATOM     65  C   UNL     1     -15.361  -4.701   5.104  1.00  0.00     0.074 A 
ATOM     66  C   UNL     1     -15.991  -3.435   4.788  1.00  0.00     0.031 C 
ATOM     67  C   UNL     1     -16.034  -5.811   5.495  1.00  0.00     0.034 A 
BRANCH  54  68
ATOM     68  C   UNL     1     -12.438 -10.775   6.259  1.00  0.00     0.023 A 
ATOM     69  C   UNL     1     -11.852 -11.204   7.468  1.00  0.00     0.012 A 
ATOM     70  C   UNL     1     -12.988 -11.731   5.382  1.00  0.00     0.148 A 
ATOM     71  C   UNL     1     -11.785 -12.561   7.784  1.00  0.00     0.002 A 
ATOM     72  C   UNL     1     -12.960 -13.077   5.725  1.00  0.00     0.091 A 
ATOM     73  F   UNL     1     -13.522 -11.306   4.229  1.00  0.00    -0.205 F 
ATOM     74  C   UNL     1     -12.348 -13.495   6.918  1.00  0.00     0.022 A 
BRANCH  72  75
ATOM     75  S   UNL     1     -13.727 -14.350   4.717  1.00  0.00     0.127 S 
ATOM     76  O   UNL     1     -12.559 -15.084   4.230  1.00  0.00    -0.237 OA
ATOM     77  O   UNL     1     -14.535 -15.073   5.700  1.00  0.00    -0.237 OA
ATOM     78  O   UNL     1     -14.492 -13.650   3.696  1.00  0.00    -0.744 OA
ENDBRANCH  72  75
ENDBRANCH  54  68
BRANCH  55  79
ATOM     79  C   UNL     1     -12.641  -1.037   4.039  1.00  0.00     0.023 A 
ATOM     80  C   UNL     1     -13.006  -0.114   5.036  1.00  0.00     0.012 A 
ATOM     81  C   UNL     1     -12.434  -0.579   2.724  1.00  0.00     0.148 A 
ATOM     82  C   UNL     1     -13.186   1.235   4.727  1.00  0.00     0.002 A 
ATOM     83  C   UNL     1     -12.591   0.773   2.428  1.00  0.00     0.091 A 
ATOM     84  F   UNL     1     -12.091  -1.470   1.782  1.00  0.00    -0.205 F 
ATOM     85  C   UNL     1     -12.978   1.679   3.425  1.00  0.00     0.022 A 
BRANCH  83  86
ATOM     86  S   UNL     1     -12.337   1.416   0.770  1.00  0.00     0.127 S 
ATOM     87  O   UNL     1     -13.238   2.568   0.720  1.00  0.00    -0.237 OA
ATOM     88  O   UNL     1     -10.918   1.756   0.802  1.00  0.00    -0.237 OA
ATOM     89  O   UNL     1     -12.723   0.324  -0.115  1.00  0.00    -0.744 OA
ENDBRANCH  83  86
ENDBRANCH  55  79
BRANCH  67  90
ATOM     90  C   UNL     1     -17.526  -5.701   5.672  1.00  0.00     0.023 A 
ATOM     91  C   UNL     1     -18.369  -5.570   4.551  1.00  0.00     0.012 A 
ATOM     92  C   UNL     1     -18.096  -5.793   6.958  1.00  0.00     0.148 A 
ATOM     93  C   UNL     1     -19.752  -5.494   4.711  1.00  0.00     0.002 A 
ATOM     94  C   UNL     1     -19.477  -5.774   7.105  1.00  0.00     0.091 A 
ATOM     95  F   UNL     1     -17.277  -5.900   8.015  1.00  0.00    -0.205 F 
ATOM     96  C   UNL     1     -20.306  -5.609   5.984  1.00  0.00     0.022 A 
BRANCH  94  97
ATOM     97  S   UNL     1     -20.283  -6.019   8.692  1.00  0.00     0.127 S 
ATOM     98  O   UNL     1     -20.839  -4.692   8.951  1.00  0.00    -0.237 OA
ATOM     99  O   UNL     1     -21.276  -7.046   8.378  1.00  0.00    -0.237 OA
ATOM    100  O   UNL     1     -19.239  -6.447   9.613  1.00  0.00    -0.744 OA
ENDBRANCH  94  97
ENDBRANCH  67  90
ENDBRANCH  41  42
ENDBRANCH  34  36
ENDBRANCH  33  34
ENDBRANCH  32  33
ENDBRANCH  31  32
ENDBRANCH  30  31
ENDBRANCH  29  30
ENDBRANCH   1  29
TORSDOF 26
