REMARK SMILES [NH3+][C@@H](C[NH+](CCO)CCO)C(=O)OCCOCCOCCOCCOC(=O)c1ccc(-c2c3nc(c(-c4cccc(S(=O)(=O)[O-])c4F)c4ccc([nH]4)c(-c4cccc(S(=O)(=O)[O-])c4F)c4nc(c(-c5cccc(S(=O)(=O)[O-])c5F)c5ccc2[nH]5)C=C4)C=C3)cc1
REMARK SMILES IDX 18 1 17 2 16 3 15 4 14 5 13 6 11 7 12 8 2 9 1 10 3 14 4 15
REMARK SMILES IDX 5 17 6 18 7 19 8 21 9 22 10 23 19 25 20 26 21 27 22 28 23 29
REMARK SMILES IDX 24 30 25 31 26 32 27 33 28 34 29 35 90 36 30 37 89 38 31 39
REMARK SMILES IDX 32 40 33 41 83 42 34 43 88 44 82 45 84 46 35 47 87 48 81 49
REMARK SMILES IDX 80 50 36 52 68 53 48 54 67 55 49 56 52 57 66 58 85 59 50 60
REMARK SMILES IDX 51 61 65 63 86 64 53 65 37 66 38 67 46 68 39 69 41 70 47 71
REMARK SMILES IDX 40 72 42 73 43 74 44 75 45 76 69 77 70 78 78 79 71 80 73 81
REMARK SMILES IDX 79 82 72 83 74 84 75 85 76 86 77 87 54 88 55 89 63 90 56 91
REMARK SMILES IDX 58 92 64 93 57 94 59 95 60 96 61 97 62 98
REMARK H PARENT 1 11 1 12 1 13 4 16 7 20 10 24 84 51 52 62
REMARK Flexibility Score: inf
ROOT
ATOM      1  C   UNL     1      -1.435  -1.410  -0.473  1.00  0.00     0.188 C 
ENDROOT
BRANCH   1   2
ATOM      2  C   UNL     1      -1.947  -1.849   0.907  1.00  0.00     0.188 C 
BRANCH   2   3
ATOM      3  O   UNL     1      -3.261  -1.510   1.338  1.00  0.00    -0.376 OA
BRANCH   3   4
ATOM      4  C   UNL     1      -3.747  -0.174   1.296  1.00  0.00     0.202 C 
BRANCH   4   5
ATOM      5  C   UNL     1      -2.895   1.063   1.624  1.00  0.00     0.261 C 
BRANCH   5   6
ATOM      6  O   UNL     1      -1.489   0.920   1.447  1.00  0.00    -0.459 OA
BRANCH   6   7
ATOM      7  C   UNL     1      -0.763   0.719   2.579  1.00  0.00     0.370 C 
ATOM      8  O   UNL     1      -1.229   0.662   3.713  1.00  0.00    -0.245 OA
BRANCH   7   9
ATOM      9  C   UNL     1       0.732   0.588   2.278  1.00  0.00     0.347 C 
BRANCH   9  10
ATOM     10  N   UNL     1       1.031  -0.113   1.015  1.00  0.00    -0.341 N 
ATOM     11  H   UNL     1       2.041  -0.161   0.884  1.00  0.00     0.345 HD
ATOM     12  H   UNL     1       0.611   0.396   0.237  1.00  0.00     0.345 HD
ATOM     13  H   UNL     1       0.647  -1.057   1.051  1.00  0.00     0.345 HD
ENDBRANCH   9  10
BRANCH   9  14
ATOM     14  C   UNL     1       1.388   1.970   2.379  1.00  0.00     0.340 C 
BRANCH  14  15
ATOM     15  N   UNL     1       1.001   3.024   1.435  1.00  0.00    -0.326 N 
ATOM     16  H   UNL     1      -0.005   2.861   1.464  1.00  0.00     0.348 HD
BRANCH  15  17
ATOM     17  C   UNL     1       1.297   4.376   1.923  1.00  0.00     0.291 C 
BRANCH  17  18
ATOM     18  C   UNL     1       2.697   4.572   2.526  1.00  0.00     0.217 C 
BRANCH  18  19
ATOM     19  O   UNL     1       3.715   4.213   1.594  1.00  0.00    -0.391 OA
ATOM     20  H   UNL     1       3.620   3.277   1.356  1.00  0.00     0.210 HD
ENDBRANCH  18  19
ENDBRANCH  17  18
ENDBRANCH  15  17
BRANCH  15  21
ATOM     21  C   UNL     1       1.095   2.852  -0.021  1.00  0.00     0.291 C 
BRANCH  21  22
ATOM     22  C   UNL     1       2.405   2.421  -0.718  1.00  0.00     0.217 C 
BRANCH  22  23
ATOM     23  O   UNL     1       3.158   1.458   0.013  1.00  0.00    -0.391 OA
ATOM     24  H   UNL     1       3.431   1.837   0.862  1.00  0.00     0.210 HD
ENDBRANCH  22  23
ENDBRANCH  21  22
ENDBRANCH  15  21
ENDBRANCH  14  15
ENDBRANCH   9  14
ENDBRANCH   7   9
ENDBRANCH   6   7
ENDBRANCH   5   6
ENDBRANCH   4   5
ENDBRANCH   3   4
ENDBRANCH   2   3
ENDBRANCH   1   2
BRANCH   1  25
ATOM     25  O   UNL     1      -2.072  -0.252  -0.969  1.00  0.00    -0.377 OA
BRANCH  25  26
ATOM     26  C   UNL     1      -3.041  -0.471  -1.988  1.00  0.00     0.188 C 
BRANCH  26  27
ATOM     27  C   UNL     1      -3.946  -1.724  -1.886  1.00  0.00     0.188 C 
BRANCH  27  28
ATOM     28  O   UNL     1      -3.278  -2.953  -1.636  1.00  0.00    -0.376 OA
BRANCH  28  29
ATOM     29  C   UNL     1      -2.880  -3.771  -2.728  1.00  0.00     0.202 C 
BRANCH  29  30
ATOM     30  C   UNL     1      -1.924  -3.199  -3.791  1.00  0.00     0.261 C 
BRANCH  30  31
ATOM     31  O   UNL     1      -2.351  -2.009  -4.469  1.00  0.00    -0.460 OA
BRANCH  31  32
ATOM     32  C   UNL     1      -3.525  -2.033  -5.132  1.00  0.00     0.338 C 
ATOM     33  O   UNL     1      -4.255  -2.998  -5.293  1.00  0.00    -0.246 OA
BRANCH  32  34
ATOM     34  C   UNL     1      -3.890  -0.632  -5.438  1.00  0.00     0.060 A 
ATOM     35  C   UNL     1      -5.065  -0.101  -4.887  1.00  0.00     0.016 A 
ATOM     36  C   UNL     1      -3.059   0.168  -6.226  1.00  0.00     0.016 A 
ATOM     37  C   UNL     1      -5.414   1.229  -5.123  1.00  0.00     0.010 A 
ATOM     38  C   UNL     1      -3.430   1.490  -6.491  1.00  0.00     0.010 A 
ATOM     39  C   UNL     1      -4.617   2.022  -5.956  1.00  0.00    -0.014 A 
BRANCH  39  40
ATOM     40  C   UNL     1      -5.091   3.361  -6.383  1.00  0.00     0.031 A 
ATOM     41  C   UNL     1      -5.750   3.497  -7.727  1.00  0.00     0.074 A 
ATOM     42  C   UNL     1      -4.917   4.443  -5.601  1.00  0.00     0.049 A 
ATOM     43  N   UNL     1      -6.157   4.575  -8.343  1.00  0.00    -0.248 NA
ATOM     44  C   UNL     1      -5.979   2.250  -8.478  1.00  0.00     0.031 C 
ATOM     45  C   UNL     1      -4.311   4.437  -4.271  1.00  0.00     0.029 A 
ATOM     46  N   UNL     1      -5.202   5.767  -5.837  1.00  0.00    -0.354 N 
ATOM     47  C   UNL     1      -6.654   4.145  -9.567  1.00  0.00     0.074 A 
ATOM     48  C   UNL     1      -6.507   2.707  -9.605  1.00  0.00     0.031 C 
ATOM     49  C   UNL     1      -4.224   5.704  -3.828  1.00  0.00     0.029 A 
ATOM     50  C   UNL     1      -4.733   6.610  -4.856  1.00  0.00     0.049 A 
ATOM     51  H   UNL     1      -5.693   6.081  -6.630  1.00  0.00     0.167 HD
ATOM     52  C   UNL     1      -7.184   4.884 -10.569  1.00  0.00     0.034 A 
ATOM     53  C   UNL     1      -4.677   7.957  -4.816  1.00  0.00     0.034 A 
ATOM     54  C   UNL     1      -7.345   6.311 -10.524  1.00  0.00     0.049 A 
ATOM     55  C   UNL     1      -5.236   8.755  -5.969  1.00  0.00     0.074 A 
ATOM     56  C   UNL     1      -7.933   7.137 -11.466  1.00  0.00     0.029 A 
ATOM     57  N   UNL     1      -6.894   7.128  -9.501  1.00  0.00    -0.354 N 
ATOM     58  N   UNL     1      -5.826   8.330  -7.061  1.00  0.00    -0.248 NA
ATOM     59  C   UNL     1      -5.142  10.220  -5.876  1.00  0.00     0.031 C 
ATOM     60  C   UNL     1      -7.793   8.459 -11.035  1.00  0.00     0.029 A 
ATOM     61  C   UNL     1      -7.159   8.453  -9.804  1.00  0.00     0.049 A 
ATOM     62  H   UNL     1      -6.450   6.814  -8.681  1.00  0.00     0.167 HD
ATOM     63  C   UNL     1      -6.197   9.472  -7.765  1.00  0.00     0.074 A 
ATOM     64  C   UNL     1      -5.795  10.607  -6.963  1.00  0.00     0.031 C 
ATOM     65  C   UNL     1      -6.798   9.574  -8.977  1.00  0.00     0.034 A 
BRANCH  52  66
ATOM     66  C   UNL     1      -7.637   4.171 -11.814  1.00  0.00     0.023 A 
ATOM     67  C   UNL     1      -8.828   3.419 -11.802  1.00  0.00     0.012 A 
ATOM     68  C   UNL     1      -6.932   4.338 -13.022  1.00  0.00     0.148 A 
ATOM     69  C   UNL     1      -9.304   2.832 -12.974  1.00  0.00     0.002 A 
ATOM     70  C   UNL     1      -7.437   3.789 -14.194  1.00  0.00     0.091 A 
ATOM     71  F   UNL     1      -5.790   5.040 -13.002  1.00  0.00    -0.205 F 
ATOM     72  C   UNL     1      -8.618   3.029 -14.170  1.00  0.00     0.022 A 
BRANCH  70  73
ATOM     73  S   UNL     1      -6.673   4.055 -15.797  1.00  0.00     0.127 S 
ATOM     74  O   UNL     1      -6.252   2.700 -16.150  1.00  0.00    -0.237 OA
ATOM     75  O   UNL     1      -7.792   4.571 -16.585  1.00  0.00    -0.237 OA
ATOM     76  O   UNL     1      -5.589   5.002 -15.578  1.00  0.00    -0.744 OA
ENDBRANCH  70  73
ENDBRANCH  52  66
BRANCH  53  77
ATOM     77  C   UNL     1      -4.048   8.653  -3.655  1.00  0.00     0.023 A 
ATOM     78  C   UNL     1      -4.832   9.474  -2.820  1.00  0.00     0.012 A 
ATOM     79  C   UNL     1      -2.669   8.530  -3.392  1.00  0.00     0.148 A 
ATOM     80  C   UNL     1      -4.245  10.195  -1.778  1.00  0.00     0.002 A 
ATOM     81  C   UNL     1      -2.103   9.198  -2.313  1.00  0.00     0.091 A 
ATOM     82  F   UNL     1      -1.932   7.764  -4.209  1.00  0.00    -0.205 F 
ATOM     83  C   UNL     1      -2.885  10.051  -1.519  1.00  0.00     0.022 A 
BRANCH  81  84
ATOM     84  S   UNL     1      -0.390   8.960  -1.827  1.00  0.00     0.127 S 
ATOM     85  O   UNL     1       0.212  10.234  -2.209  1.00  0.00    -0.237 OA
ATOM     86  O   UNL     1      -0.507   8.741  -0.385  1.00  0.00    -0.237 OA
ATOM     87  O   UNL     1       0.073   7.792  -2.566  1.00  0.00    -0.744 OA
ENDBRANCH  81  84
ENDBRANCH  53  77
BRANCH  65  88
ATOM     88  C   UNL     1      -7.089  10.955  -9.506  1.00  0.00     0.023 A 
ATOM     89  C   UNL     1      -6.032  11.776  -9.945  1.00  0.00     0.012 A 
ATOM     90  C   UNL     1      -8.417  11.409  -9.643  1.00  0.00     0.148 A 
ATOM     91  C   UNL     1      -6.288  13.040 -10.478  1.00  0.00     0.002 A 
ATOM     92  C   UNL     1      -8.668  12.646 -10.223  1.00  0.00     0.091 A 
ATOM     93  F   UNL     1      -9.409  10.618  -9.210  1.00  0.00    -0.205 F 
ATOM     94  C   UNL     1      -7.604  13.469 -10.628  1.00  0.00     0.022 A 
BRANCH  92  95
ATOM     95  S   UNL     1     -10.330  13.246 -10.545  1.00  0.00     0.127 S 
ATOM     96  O   UNL     1     -10.426  14.370  -9.614  1.00  0.00    -0.237 OA
ATOM     97  O   UNL     1     -10.252  13.628 -11.955  1.00  0.00    -0.237 OA
ATOM     98  O   UNL     1     -11.224  12.131 -10.265  1.00  0.00    -0.744 OA
ENDBRANCH  92  95
ENDBRANCH  65  88
ENDBRANCH  39  40
ENDBRANCH  32  34
ENDBRANCH  31  32
ENDBRANCH  30  31
ENDBRANCH  29  30
ENDBRANCH  28  29
ENDBRANCH  27  28
ENDBRANCH  26  27
ENDBRANCH  25  26
ENDBRANCH   1  25
TORSDOF 32
