REMARK SMILES O=C(OCCOCCOCCOCCOC(=O)C1CC[NH+]([C@H]2CC(=O)N(c3ccc4c(c3)OCCO4)C2=O)CC1)c1ccc(-c2c3nc(c(-c4cccc(S(=O)(=O)[O-])c4F)c4ccc([nH]4)c(-c4cccc(S(=O)(=O)[O-])c4F)c4nc(c(-c5cccc(S(=O)(=O)[O-])c5F)c5ccc2[nH]5)C=C4)C=C3)cc1
REMARK SMILES IDX 8 1 7 2 6 3 5 4 4 5 3 6 2 7 1 8 41 9 42 10 103 11 43 12
REMARK SMILES IDX 102 13 44 14 45 15 46 16 96 17 47 18 101 19 95 20 97 21
REMARK SMILES IDX 48 22 100 23 94 24 93 25 49 27 81 28 61 29 80 30 62 31 65 32
REMARK SMILES IDX 79 33 98 34 63 35 64 36 78 38 99 39 66 40 50 41 51 42 59 43
REMARK SMILES IDX 52 44 54 45 60 46 53 47 55 48 56 49 57 50 58 51 82 52 83 53
REMARK SMILES IDX 91 54 84 55 86 56 92 57 85 58 87 59 88 60 89 61 90 62 67 63
REMARK SMILES IDX 68 64 76 65 69 66 71 67 77 68 70 69 72 70 73 71 74 72 75 73
REMARK SMILES IDX 9 74 10 75 11 76 12 77 13 78 14 79 15 80 16 81 17 82 18 83
REMARK SMILES IDX 19 84 40 85 20 86 39 87 21 88 22 90 23 91 37 92 24 93 26 94
REMARK SMILES IDX 38 95 25 96 27 97 28 98 32 99 29 100 31 101 30 102 33 103
REMARK SMILES IDX 36 104 34 105 35 106
REMARK H PARENT 97 26 65 37 21 89
REMARK Flexibility Score: inf
ROOT
ATOM      1  C   UNL     1      10.498  -4.785 -10.062  1.00  0.00     0.188 C 
ENDROOT
BRANCH   1   2
ATOM      2  C   UNL     1      10.353  -3.288 -10.364  1.00  0.00     0.188 C 
BRANCH   2   3
ATOM      3  O   UNL     1      10.444  -2.490  -9.190  1.00  0.00    -0.376 OA
BRANCH   3   4
ATOM      4  C   UNL     1       9.470  -1.479  -8.951  1.00  0.00     0.202 C 
BRANCH   4   5
ATOM      5  C   UNL     1       9.484  -0.301  -9.906  1.00  0.00     0.261 C 
BRANCH   5   6
ATOM      6  O   UNL     1      10.287  -0.470 -11.079  1.00  0.00    -0.460 OA
BRANCH   6   7
ATOM      7  C   UNL     1      11.623  -0.582 -11.235  1.00  0.00     0.338 C 
ATOM      8  O   UNL     1      12.038  -0.893 -12.353  1.00  0.00    -0.246 OA
BRANCH   7   9
ATOM      9  C   UNL     1      12.641  -0.314 -10.179  1.00  0.00     0.060 A 
ATOM     10  C   UNL     1      12.535  -0.622  -8.821  1.00  0.00     0.016 A 
ATOM     11  C   UNL     1      13.864   0.199 -10.637  1.00  0.00     0.016 A 
ATOM     12  C   UNL     1      13.563  -0.388  -7.928  1.00  0.00     0.010 A 
ATOM     13  C   UNL     1      14.912   0.441  -9.753  1.00  0.00     0.010 A 
ATOM     14  C   UNL     1      14.737   0.178  -8.390  1.00  0.00    -0.014 A 
BRANCH  14  15
ATOM     15  C   UNL     1      15.643   0.735  -7.388  1.00  0.00     0.031 A 
ATOM     16  C   UNL     1      15.592   2.214  -7.200  1.00  0.00     0.074 A 
ATOM     17  C   UNL     1      16.385  -0.075  -6.620  1.00  0.00     0.049 A 
ATOM     18  N   UNL     1      16.398   2.991  -6.543  1.00  0.00    -0.248 NA
ATOM     19  C   UNL     1      14.468   2.915  -7.852  1.00  0.00     0.031 C 
ATOM     20  C   UNL     1      16.340  -1.539  -6.646  1.00  0.00     0.029 A 
ATOM     21  N   UNL     1      17.332   0.221  -5.683  1.00  0.00    -0.354 N 
ATOM     22  C   UNL     1      15.941   4.279  -6.786  1.00  0.00     0.074 A 
ATOM     23  C   UNL     1      14.762   4.180  -7.611  1.00  0.00     0.031 C 
ATOM     24  C   UNL     1      17.262  -2.016  -5.796  1.00  0.00     0.029 A 
ATOM     25  C   UNL     1      18.010  -0.892  -5.247  1.00  0.00     0.049 A 
ATOM     26  H   UNL     1      17.511   1.132  -5.356  1.00  0.00     0.167 HD
ATOM     27  C   UNL     1      16.498   5.437  -6.373  1.00  0.00     0.034 A 
ATOM     28  C   UNL     1      19.162  -0.968  -4.559  1.00  0.00     0.034 A 
ATOM     29  C   UNL     1      17.677   5.461  -5.558  1.00  0.00     0.049 A 
ATOM     30  C   UNL     1      19.811   0.329  -4.161  1.00  0.00     0.074 A 
ATOM     31  C   UNL     1      18.380   6.546  -5.080  1.00  0.00     0.029 A 
ATOM     32  N   UNL     1      18.336   4.318  -5.116  1.00  0.00    -0.354 N 
ATOM     33  N   UNL     1      19.408   1.556  -4.406  1.00  0.00    -0.248 NA
ATOM     34  C   UNL     1      21.054   0.245  -3.390  1.00  0.00     0.031 C 
ATOM     35  C   UNL     1      19.493   6.056  -4.388  1.00  0.00     0.029 A 
ATOM     36  C   UNL     1      19.448   4.667  -4.381  1.00  0.00     0.049 A 
ATOM     37  H   UNL     1      18.050   3.395  -5.302  1.00  0.00     0.167 HD
ATOM     38  C   UNL     1      20.324   2.393  -3.787  1.00  0.00     0.074 A 
ATOM     39  C   UNL     1      21.306   1.528  -3.158  1.00  0.00     0.031 C 
ATOM     40  C   UNL     1      20.358   3.748  -3.738  1.00  0.00     0.034 A 
BRANCH  27  41
ATOM     41  C   UNL     1      15.889   6.711  -6.891  1.00  0.00     0.023 A 
ATOM     42  C   UNL     1      14.599   7.112  -6.487  1.00  0.00     0.012 A 
ATOM     43  C   UNL     1      16.578   7.475  -7.853  1.00  0.00     0.148 A 
ATOM     44  C   UNL     1      13.981   8.216  -7.079  1.00  0.00     0.002 A 
ATOM     45  C   UNL     1      15.979   8.603  -8.397  1.00  0.00     0.091 A 
ATOM     46  F   UNL     1      17.787   7.058  -8.255  1.00  0.00    -0.205 F 
ATOM     47  C   UNL     1      14.673   8.963  -8.028  1.00  0.00     0.022 A 
BRANCH  45  48
ATOM     48  S   UNL     1      16.819   9.668  -9.573  1.00  0.00     0.127 S 
ATOM     49  O   UNL     1      16.077   9.393 -10.803  1.00  0.00    -0.237 OA
ATOM     50  O   UNL     1      16.584  10.995  -9.003  1.00  0.00    -0.237 OA
ATOM     51  O   UNL     1      18.212   9.246  -9.575  1.00  0.00    -0.744 OA
ENDBRANCH  45  48
ENDBRANCH  27  41
BRANCH  28  52
ATOM     52  C   UNL     1      19.761  -2.299  -4.268  1.00  0.00     0.023 A 
ATOM     53  C   UNL     1      19.781  -2.787  -2.950  1.00  0.00     0.012 A 
ATOM     54  C   UNL     1      20.229  -3.124  -5.314  1.00  0.00     0.148 A 
ATOM     55  C   UNL     1      20.268  -4.067  -2.674  1.00  0.00     0.002 A 
ATOM     56  C   UNL     1      20.660  -4.416  -5.040  1.00  0.00     0.091 A 
ATOM     57  F   UNL     1      20.203  -2.640  -6.563  1.00  0.00    -0.205 F 
ATOM     58  C   UNL     1      20.695  -4.885  -3.718  1.00  0.00     0.022 A 
BRANCH  56  59
ATOM     59  S   UNL     1      21.101  -5.586  -6.331  1.00  0.00     0.127 S 
ATOM     60  O   UNL     1      22.521  -5.803  -6.065  1.00  0.00    -0.237 OA
ATOM     61  O   UNL     1      20.233  -6.721  -6.015  1.00  0.00    -0.237 OA
ATOM     62  O   UNL     1      20.793  -4.923  -7.591  1.00  0.00    -0.744 OA
ENDBRANCH  56  59
ENDBRANCH  28  52
BRANCH  40  63
ATOM     63  C   UNL     1      21.440   4.380  -2.913  1.00  0.00     0.023 A 
ATOM     64  C   UNL     1      22.756   4.455  -3.405  1.00  0.00     0.012 A 
ATOM     65  C   UNL     1      21.096   5.036  -1.716  1.00  0.00     0.148 A 
ATOM     66  C   UNL     1      23.721   5.174  -2.705  1.00  0.00     0.002 A 
ATOM     67  C   UNL     1      22.046   5.800  -1.059  1.00  0.00     0.091 A 
ATOM     68  F   UNL     1      19.836   4.928  -1.269  1.00  0.00    -0.205 F 
ATOM     69  C   UNL     1      23.362   5.862  -1.546  1.00  0.00     0.022 A 
BRANCH  67  70
ATOM     70  S   UNL     1      21.639   6.817   0.362  1.00  0.00     0.127 S 
ATOM     71  O   UNL     1      22.384   6.149   1.427  1.00  0.00    -0.237 OA
ATOM     72  O   UNL     1      22.171   8.121  -0.033  1.00  0.00    -0.237 OA
ATOM     73  O   UNL     1      20.189   6.768   0.495  1.00  0.00    -0.744 OA
ENDBRANCH  67  70
ENDBRANCH  40  63
ENDBRANCH  14  15
ENDBRANCH   7   9
ENDBRANCH   6   7
ENDBRANCH   5   6
ENDBRANCH   4   5
ENDBRANCH   3   4
ENDBRANCH   2   3
ENDBRANCH   1   2
BRANCH   1  74
ATOM     74  O   UNL     1       9.571  -5.315  -9.112  1.00  0.00    -0.377 OA
BRANCH  74  75
ATOM     75  C   UNL     1       9.442  -4.568  -7.908  1.00  0.00     0.188 C 
BRANCH  75  76
ATOM     76  C   UNL     1      10.686  -4.332  -7.016  1.00  0.00     0.188 C 
BRANCH  76  77
ATOM     77  O   UNL     1      11.940  -4.413  -7.680  1.00  0.00    -0.376 OA
BRANCH  77  78
ATOM     78  C   UNL     1      12.834  -5.399  -7.157  1.00  0.00     0.202 C 
BRANCH  78  79
ATOM     79  C   UNL     1      12.500  -6.859  -7.520  1.00  0.00     0.261 C 
BRANCH  79  80
ATOM     80  O   UNL     1      11.097  -7.169  -7.468  1.00  0.00    -0.463 OA
BRANCH  80  81
ATOM     81  C   UNL     1      10.551  -7.534  -6.284  1.00  0.00     0.309 C 
ATOM     82  O   UNL     1      11.178  -7.801  -5.263  1.00  0.00    -0.252 OA
BRANCH  81  83
ATOM     83  C   UNL     1       9.037  -7.414  -6.362  1.00  0.00     0.110 C 
ATOM     84  C   UNL     1       8.532  -6.474  -5.249  1.00  0.00     0.077 C 
ATOM     85  C   UNL     1       8.321  -8.751  -6.424  1.00  0.00     0.077 C 
ATOM     86  C   UNL     1       8.236  -7.183  -3.939  1.00  0.00     0.263 C 
ATOM     87  C   UNL     1       8.102  -9.332  -5.041  1.00  0.00     0.263 C 
ATOM     88  N   UNL     1       7.460  -8.405  -4.108  1.00  0.00    -0.324 N 
ATOM     89  H   UNL     1       7.491  -8.931  -3.235  1.00  0.00     0.348 HD
BRANCH  88  90
ATOM     90  C   UNL     1       6.000  -8.210  -4.162  1.00  0.00     0.284 C 
ATOM     91  C   UNL     1       5.367  -7.424  -5.301  1.00  0.00     0.176 C 
ATOM     92  C   UNL     1       5.266  -9.541  -4.212  1.00  0.00     0.292 C 
ATOM     93  C   UNL     1       4.671  -8.448  -6.131  1.00  0.00     0.240 C 
ATOM     94  N   UNL     1       4.646  -9.630  -5.438  1.00  0.00    -0.245 N 
ATOM     95  O   UNL     1       5.307 -10.389  -3.327  1.00  0.00    -0.267 OA
ATOM     96  O   UNL     1       4.144  -8.178  -7.200  1.00  0.00    -0.274 OA
BRANCH  94  97
ATOM     97  C   UNL     1       4.000 -10.783  -5.920  1.00  0.00     0.056 A 
ATOM     98  C   UNL     1       3.221 -11.567  -5.061  1.00  0.00     0.031 A 
ATOM     99  C   UNL     1       4.118 -11.145  -7.268  1.00  0.00     0.077 A 
ATOM    100  C   UNL     1       2.529 -12.672  -5.553  1.00  0.00     0.052 A 
ATOM    101  C   UNL     1       3.464 -12.275  -7.746  1.00  0.00     0.163 A 
ATOM    102  C   UNL     1       2.663 -13.034  -6.889  1.00  0.00     0.161 A 
ATOM    103  O   UNL     1       3.670 -12.590  -9.064  1.00  0.00    -0.486 OA
ATOM    104  O   UNL     1       1.972 -14.145  -7.295  1.00  0.00    -0.486 OA
ATOM    105  C   UNL     1       2.704 -13.534  -9.534  1.00  0.00     0.271 C 
ATOM    106  C   UNL     1       2.495 -14.653  -8.525  1.00  0.00     0.271 C 
ENDBRANCH  94  97
ENDBRANCH  88  90
ENDBRANCH  81  83
ENDBRANCH  80  81
ENDBRANCH  79  80
ENDBRANCH  78  79
ENDBRANCH  77  78
ENDBRANCH  76  77
ENDBRANCH  75  76
ENDBRANCH  74  75
ENDBRANCH   1  74
TORSDOF 25
