REMARK SMILES CC(C)[C@H](C)CNC(=O)N[C@H]1C=C[C@@H](C(=O)OCCOCCOCCOCCOC(=O)c2ccc(-c3c4nc(c(-c5cccc(S(=O)(=O)[O-])c5F)c5ccc([nH]5)c(-c5cccc(S(=O)(=O)[O-])c5F)c5nc(c(-c6cccc(S(=O)(=O)[O-])c6F)c6ccc3[nH]6)C=C5)C=C4)cc2)C1
REMARK SMILES IDX 22 1 21 2 20 3 19 4 18 5 17 6 15 7 16 8 14 9 11 10 12 11
REMARK SMILES IDX 95 12 13 13 10 14 7 15 8 16 9 18 6 20 4 21 5 22 2 23 1 24
REMARK SMILES IDX 3 25 23 26 24 27 25 28 26 29 27 30 28 31 29 32 30 33 31 34
REMARK SMILES IDX 32 35 33 36 94 37 34 38 93 39 35 40 36 41 37 42 87 43 38 44
REMARK SMILES IDX 92 45 86 46 88 47 39 48 91 49 85 50 84 51 40 53 72 54 52 55
REMARK SMILES IDX 71 56 53 57 56 58 70 59 89 60 54 61 55 62 69 64 90 65 57 66
REMARK SMILES IDX 41 67 42 68 50 69 43 70 45 71 51 72 44 73 46 74 47 75 48 76
REMARK SMILES IDX 49 77 73 78 74 79 82 80 75 81 77 82 83 83 76 84 78 85 79 86
REMARK SMILES IDX 80 87 81 88 58 89 59 90 67 91 60 92 62 93 68 94 61 95 63 96
REMARK SMILES IDX 64 97 65 98 66 99
REMARK H PARENT 7 17 10 19 88 52 56 63
REMARK Flexibility Score: inf
ROOT
ATOM      1  C   UNL     1      -7.495   0.305   2.157  1.00  0.00     0.188 C 
ENDROOT
BRANCH   1   2
ATOM      2  C   UNL     1      -8.611  -0.154   1.210  1.00  0.00     0.188 C 
BRANCH   2   3
ATOM      3  O   UNL     1      -9.933  -0.367   1.682  1.00  0.00    -0.376 OA
BRANCH   3   4
ATOM      4  C   UNL     1     -10.175  -1.169   2.834  1.00  0.00     0.202 C 
BRANCH   4   5
ATOM      5  C   UNL     1      -9.484  -2.527   3.040  1.00  0.00     0.261 C 
BRANCH   5   6
ATOM      6  O   UNL     1      -8.065  -2.517   2.839  1.00  0.00    -0.463 OA
BRANCH   6   7
ATOM      7  C   UNL     1      -7.584  -3.297   1.847  1.00  0.00     0.312 C 
ATOM      8  O   UNL     1      -8.273  -4.020   1.132  1.00  0.00    -0.252 OA
BRANCH   7   9
ATOM      9  C   UNL     1      -6.089  -3.114   1.609  1.00  0.00     0.124 C 
ATOM     10  C   UNL     1      -3.870  -2.912   2.542  1.00  0.00     0.107 C 
ATOM     11  C   UNL     1      -4.180  -4.334   2.236  1.00  0.00    -0.006 C 
ATOM     12  C   UNL     1      -5.256  -2.287   2.599  1.00  0.00     0.048 C 
ATOM     13  C   UNL     1      -5.396  -4.447   1.687  1.00  0.00    -0.014 C 
BRANCH  10  14
ATOM     14  N   UNL     1      -3.113  -2.775   3.743  1.00  0.00    -0.332 N 
ATOM     15  N   UNL     1      -0.879  -2.624   2.977  1.00  0.00    -0.338 N 
ATOM     16  C   UNL     1      -1.802  -2.597   3.949  1.00  0.00     0.315 C 
ATOM     17  H   UNL     1       0.027  -2.458   3.325  1.00  0.00     0.165 HD
ATOM     18  O   UNL     1      -1.408  -2.392   5.098  1.00  0.00    -0.249 OA
ATOM     19  H   UNL     1      -3.650  -2.818   4.567  1.00  0.00     0.165 HD
BRANCH  15  20
ATOM     20  C   UNL     1      -0.880  -2.837   1.534  1.00  0.00     0.121 C 
BRANCH  20  21
ATOM     21  C   UNL     1      -0.783  -1.495   0.775  1.00  0.00     0.008 C 
ATOM     22  C   UNL     1       0.678  -1.011   0.798  1.00  0.00     0.010 C 
BRANCH  21  23
ATOM     23  C   UNL     1      -1.312  -1.520  -0.689  1.00  0.00    -0.013 C 
ATOM     24  C   UNL     1      -0.755  -2.666  -1.534  1.00  0.00     0.008 C 
ATOM     25  C   UNL     1      -2.843  -1.532  -0.760  1.00  0.00     0.008 C 
ENDBRANCH  21  23
ENDBRANCH  20  21
ENDBRANCH  15  20
ENDBRANCH  10  14
ENDBRANCH   7   9
ENDBRANCH   6   7
ENDBRANCH   5   6
ENDBRANCH   4   5
ENDBRANCH   3   4
ENDBRANCH   2   3
ENDBRANCH   1   2
BRANCH   1  26
ATOM     26  O   UNL     1      -7.698  -0.007   3.517  1.00  0.00    -0.377 OA
BRANCH  26  27
ATOM     27  C   UNL     1      -8.162   1.037   4.367  1.00  0.00     0.188 C 
BRANCH  27  28
ATOM     28  C   UNL     1      -9.086   2.119   3.767  1.00  0.00     0.188 C 
BRANCH  28  29
ATOM     29  O   UNL     1      -8.608   2.705   2.562  1.00  0.00    -0.376 OA
BRANCH  29  30
ATOM     30  C   UNL     1      -7.862   3.912   2.640  1.00  0.00     0.202 C 
BRANCH  30  31
ATOM     31  C   UNL     1      -6.513   3.889   3.381  1.00  0.00     0.261 C 
BRANCH  31  32
ATOM     32  O   UNL     1      -6.548   3.532   4.771  1.00  0.00    -0.460 OA
BRANCH  32  33
ATOM     33  C   UNL     1      -7.337   4.255   5.590  1.00  0.00     0.338 C 
ATOM     34  O   UNL     1      -7.979   5.253   5.294  1.00  0.00    -0.246 OA
BRANCH  33  35
ATOM     35  C   UNL     1      -7.477   3.519   6.863  1.00  0.00     0.060 A 
ATOM     36  C   UNL     1      -8.761   3.149   7.284  1.00  0.00     0.016 A 
ATOM     37  C   UNL     1      -6.360   3.206   7.642  1.00  0.00     0.016 A 
ATOM     38  C   UNL     1      -8.938   2.512   8.510  1.00  0.00     0.010 A 
ATOM     39  C   UNL     1      -6.542   2.587   8.883  1.00  0.00     0.010 A 
ATOM     40  C   UNL     1      -7.835   2.280   9.341  1.00  0.00    -0.014 A 
BRANCH  40  41
ATOM     41  C   UNL     1      -8.069   1.922  10.762  1.00  0.00     0.031 A 
ATOM     42  C   UNL     1      -8.003   3.015  11.794  1.00  0.00     0.074 A 
ATOM     43  C   UNL     1      -8.367   0.664  11.130  1.00  0.00     0.049 A 
ATOM     44  N   UNL     1      -8.177   2.948  13.088  1.00  0.00    -0.248 NA
ATOM     45  C   UNL     1      -7.699   4.368  11.298  1.00  0.00     0.031 C 
ATOM     46  C   UNL     1      -8.470  -0.480  10.227  1.00  0.00     0.029 A 
ATOM     47  N   UNL     1      -8.618   0.138  12.373  1.00  0.00    -0.354 N 
ATOM     48  C   UNL     1      -7.976   4.239  13.564  1.00  0.00     0.074 A 
ATOM     49  C   UNL     1      -7.651   5.065  12.423  1.00  0.00     0.031 C 
ATOM     50  C   UNL     1      -8.730  -1.583  10.951  1.00  0.00     0.029 A 
ATOM     51  C   UNL     1      -8.789  -1.225  12.368  1.00  0.00     0.049 A 
ATOM     52  H   UNL     1      -8.670   0.686  13.190  1.00  0.00     0.167 HD
ATOM     53  C   UNL     1      -8.068   4.700  14.833  1.00  0.00     0.034 A 
ATOM     54  C   UNL     1      -8.947  -2.088  13.393  1.00  0.00     0.034 A 
ATOM     55  C   UNL     1      -8.395   3.879  15.967  1.00  0.00     0.049 A 
ATOM     56  C   UNL     1      -9.014  -1.557  14.802  1.00  0.00     0.074 A 
ATOM     57  C   UNL     1      -8.552   4.259  17.288  1.00  0.00     0.029 A 
ATOM     58  N   UNL     1      -8.594   2.508  15.919  1.00  0.00    -0.354 N 
ATOM     59  N   UNL     1      -8.936  -0.318  15.225  1.00  0.00    -0.248 NA
ATOM     60  C   UNL     1      -9.231  -2.541  15.873  1.00  0.00     0.031 C 
ATOM     61  C   UNL     1      -8.805   3.111  18.045  1.00  0.00     0.029 A 
ATOM     62  C   UNL     1      -8.857   2.023  17.189  1.00  0.00     0.049 A 
ATOM     63  H   UNL     1      -8.555   1.960  15.102  1.00  0.00     0.167 HD
ATOM     64  C   UNL     1      -9.130  -0.369  16.602  1.00  0.00     0.074 A 
ATOM     65  C   UNL     1      -9.352  -1.760  16.938  1.00  0.00     0.031 C 
ATOM     66  C   UNL     1      -9.118   0.642  17.507  1.00  0.00     0.034 A 
BRANCH  53  67
ATOM     67  C   UNL     1      -7.811   6.168  15.058  1.00  0.00     0.023 A 
ATOM     68  C   UNL     1      -8.737   7.125  14.593  1.00  0.00     0.012 A 
ATOM     69  C   UNL     1      -6.666   6.599  15.757  1.00  0.00     0.148 A 
ATOM     70  C   UNL     1      -8.507   8.488  14.783  1.00  0.00     0.002 A 
ATOM     71  C   UNL     1      -6.470   7.955  15.987  1.00  0.00     0.091 A 
ATOM     72  F   UNL     1      -5.785   5.677  16.171  1.00  0.00    -0.205 F 
ATOM     73  C   UNL     1      -7.380   8.901  15.487  1.00  0.00     0.022 A 
BRANCH  71  74
ATOM     74  S   UNL     1      -5.093   8.583  16.954  1.00  0.00     0.127 S 
ATOM     75  O   UNL     1      -4.287   9.241  15.927  1.00  0.00    -0.237 OA
ATOM     76  O   UNL     1      -5.762   9.497  17.881  1.00  0.00    -0.237 OA
ATOM     77  O   UNL     1      -4.479   7.422  17.582  1.00  0.00    -0.744 OA
ENDBRANCH  71  74
ENDBRANCH  53  67
BRANCH  54  78
ATOM     78  C   UNL     1      -9.064  -3.549  13.123  1.00  0.00     0.023 A 
ATOM     79  C   UNL     1     -10.284  -4.213  13.357  1.00  0.00     0.012 A 
ATOM     80  C   UNL     1      -7.968  -4.281  12.625  1.00  0.00     0.148 A 
ATOM     81  C   UNL     1     -10.401  -5.585  13.131  1.00  0.00     0.002 A 
ATOM     82  C   UNL     1      -8.109  -5.634  12.346  1.00  0.00     0.091 A 
ATOM     83  F   UNL     1      -6.812  -3.633  12.424  1.00  0.00    -0.205 F 
ATOM     84  C   UNL     1      -9.318  -6.293  12.617  1.00  0.00     0.022 A 
BRANCH  82  85
ATOM     85  S   UNL     1      -6.811  -6.598  11.564  1.00  0.00     0.127 S 
ATOM     86  O   UNL     1      -6.449  -7.531  12.628  1.00  0.00    -0.237 OA
ATOM     87  O   UNL     1      -7.526  -7.197  10.435  1.00  0.00    -0.237 OA
ATOM     88  O   UNL     1      -5.781  -5.641  11.186  1.00  0.00    -0.744 OA
ENDBRANCH  82  85
ENDBRANCH  54  78
BRANCH  66  89
ATOM     89  C   UNL     1      -9.402   0.296  18.948  1.00  0.00     0.023 A 
ATOM     90  C   UNL     1      -8.460  -0.431  19.703  1.00  0.00     0.012 A 
ATOM     91  C   UNL     1     -10.583   0.748  19.571  1.00  0.00     0.148 A 
ATOM     92  C   UNL     1      -8.709  -0.742  21.040  1.00  0.00     0.002 A 
ATOM     93  C   UNL     1     -10.799   0.483  20.918  1.00  0.00     0.091 A 
ATOM     94  F   UNL     1     -11.476   1.425  18.835  1.00  0.00    -0.205 F 
ATOM     95  C   UNL     1      -9.872  -0.276  21.650  1.00  0.00     0.022 A 
BRANCH  93  96
ATOM     96  S   UNL     1     -12.218   1.128  21.811  1.00  0.00     0.127 S 
ATOM     97  O   UNL     1     -13.015  -0.081  22.017  1.00  0.00    -0.237 OA
ATOM     98  O   UNL     1     -11.602   1.666  23.025  1.00  0.00    -0.237 OA
ATOM     99  O   UNL     1     -12.819   2.131  20.943  1.00  0.00    -0.744 OA
ENDBRANCH  93  96
ENDBRANCH  66  89
ENDBRANCH  40  41
ENDBRANCH  33  35
ENDBRANCH  32  33
ENDBRANCH  31  32
ENDBRANCH  30  31
ENDBRANCH  29  30
ENDBRANCH  28  29
ENDBRANCH  27  28
ENDBRANCH  26  27
ENDBRANCH   1  26
TORSDOF 27
