REMARK SMILES C[C@@H](Oc1ccc(-c2ccccc2)cc1)C(=O)N1CCC[C@H](C(=O)OCCOCCOCCOCCOC(=O)c2ccc(-c3c4nc(c(-c5cccc(S(=O)(=O)[O-])c5F)c5ccc([nH]5)c(-c5cccc(S(=O)(=O)[O-])c5F)c5nc(c(-c6cccc(S(=O)(=O)[O-])c6F)c6ccc3[nH]6)C=C5)C=C4)cc2)C1
REMARK SMILES IDX 30 1 29 2 28 3 27 4 26 5 25 6 23 7 24 8 22 9 18 10 19 11
REMARK SMILES IDX 103 12 20 13 21 14 16 15 17 16 2 17 1 18 3 19 4 20 5 21
REMARK SMILES IDX 15 22 6 23 14 24 7 25 8 26 9 27 13 28 10 29 12 30 11 31
REMARK SMILES IDX 31 32 32 33 33 34 34 35 35 36 36 37 37 38 38 39 39 40 40 41
REMARK SMILES IDX 41 42 102 43 42 44 101 45 43 46 44 47 45 48 95 49 46 50
REMARK SMILES IDX 100 51 94 52 96 53 47 54 99 55 93 56 92 57 48 59 80 60 60 61
REMARK SMILES IDX 79 62 61 63 64 64 78 65 97 66 62 67 63 68 77 70 98 71 65 72
REMARK SMILES IDX 49 73 50 74 58 75 51 76 53 77 59 78 52 79 54 80 55 81 56 82
REMARK SMILES IDX 57 83 81 84 82 85 90 86 83 87 85 88 91 89 84 90 86 91 87 92
REMARK SMILES IDX 88 93 89 94 66 95 67 96 75 97 68 98 70 99 76 100 69 101
REMARK SMILES IDX 71 102 72 103 73 104 74 105
REMARK H PARENT 96 58 64 69
REMARK Flexibility Score: inf
ROOT
ATOM      1  C   UNL     1      -4.956  -0.838  -2.687  1.00  0.00     0.188 C 
ENDROOT
BRANCH   1   2
ATOM      2  C   UNL     1      -4.015  -1.969  -3.121  1.00  0.00     0.188 C 
BRANCH   2   3
ATOM      3  O   UNL     1      -4.035  -3.170  -2.389  1.00  0.00    -0.376 OA
BRANCH   3   4
ATOM      4  C   UNL     1      -3.346  -3.299  -1.157  1.00  0.00     0.202 C 
BRANCH   4   5
ATOM      5  C   UNL     1      -2.496  -2.210  -0.478  1.00  0.00     0.261 C 
BRANCH   5   6
ATOM      6  O   UNL     1      -2.840  -0.834  -0.683  1.00  0.00    -0.463 OA
BRANCH   6   7
ATOM      7  C   UNL     1      -1.996  -0.102  -1.445  1.00  0.00     0.310 C 
ATOM      8  O   UNL     1      -1.070  -0.581  -2.097  1.00  0.00    -0.252 OA
BRANCH   7   9
ATOM      9  C   UNL     1      -2.213   1.405  -1.385  1.00  0.00     0.119 C 
ATOM     10  N   UNL     1      -1.490   1.653   0.926  1.00  0.00    -0.339 N 
ATOM     11  C   UNL     1      -2.748   2.220   1.393  1.00  0.00     0.119 C 
ATOM     12  C   UNL     1      -1.137   1.968  -0.458  1.00  0.00     0.134 C 
ATOM     13  C   UNL     1      -3.910   1.800   0.504  1.00  0.00     0.022 C 
ATOM     14  C   UNL     1      -3.575   1.986  -0.975  1.00  0.00     0.019 C 
BRANCH  10  15
ATOM     15  C   UNL     1      -0.864   0.668   1.684  1.00  0.00     0.263 C 
ATOM     16  O   UNL     1      -1.491  -0.034   2.479  1.00  0.00    -0.271 OA
BRANCH  15  17
ATOM     17  C   UNL     1       0.653   0.478   1.515  1.00  0.00     0.259 C 
ATOM     18  C   UNL     1       0.971  -0.595   0.477  1.00  0.00     0.064 C 
BRANCH  17  19
ATOM     19  O   UNL     1       1.181   1.766   1.176  1.00  0.00    -0.481 OA
BRANCH  19  20
ATOM     20  C   UNL     1       2.505   1.915   1.426  1.00  0.00     0.120 A 
ATOM     21  C   UNL     1       2.905   2.622   2.554  1.00  0.00     0.047 A 
ATOM     22  C   UNL     1       3.420   1.530   0.457  1.00  0.00     0.047 A 
ATOM     23  C   UNL     1       4.254   2.940   2.717  1.00  0.00     0.012 A 
ATOM     24  C   UNL     1       4.763   1.835   0.630  1.00  0.00     0.012 A 
ATOM     25  C   UNL     1       5.201   2.563   1.749  1.00  0.00    -0.018 A 
BRANCH  25  26
ATOM     26  C   UNL     1       6.614   2.946   1.857  1.00  0.00    -0.018 A 
ATOM     27  C   UNL     1       7.360   2.673   3.012  1.00  0.00     0.009 A 
ATOM     28  C   UNL     1       7.262   3.573   0.778  1.00  0.00     0.009 A 
ATOM     29  C   UNL     1       8.717   2.998   3.076  1.00  0.00     0.001 A 
ATOM     30  C   UNL     1       8.616   3.897   0.840  1.00  0.00     0.001 A 
ATOM     31  C   UNL     1       9.345   3.604   1.989  1.00  0.00     0.000 A 
ENDBRANCH  25  26
ENDBRANCH  19  20
ENDBRANCH  17  19
ENDBRANCH  15  17
ENDBRANCH  10  15
ENDBRANCH   7   9
ENDBRANCH   6   7
ENDBRANCH   5   6
ENDBRANCH   4   5
ENDBRANCH   3   4
ENDBRANCH   2   3
ENDBRANCH   1   2
BRANCH   1  32
ATOM     32  O   UNL     1      -5.409  -0.781  -1.348  1.00  0.00    -0.377 OA
BRANCH  32  33
ATOM     33  C   UNL     1      -6.235  -1.811  -0.817  1.00  0.00     0.188 C 
BRANCH  33  34
ATOM     34  C   UNL     1      -6.899  -2.845  -1.745  1.00  0.00     0.188 C 
BRANCH  34  35
ATOM     35  O   UNL     1      -7.076  -2.421  -3.086  1.00  0.00    -0.376 OA
BRANCH  35  36
ATOM     36  C   UNL     1      -8.314  -1.825  -3.444  1.00  0.00     0.202 C 
BRANCH  36  37
ATOM     37  C   UNL     1      -8.771  -0.579  -2.668  1.00  0.00     0.261 C 
BRANCH  37  38
ATOM     38  O   UNL     1      -8.999  -0.751  -1.261  1.00  0.00    -0.460 OA
BRANCH  38  39
ATOM     39  C   UNL     1      -9.874  -1.706  -0.877  1.00  0.00     0.338 C 
ATOM     40  O   UNL     1     -10.552  -2.414  -1.593  1.00  0.00    -0.246 OA
BRANCH  39  41
ATOM     41  C   UNL     1      -9.731  -1.884   0.583  1.00  0.00     0.060 A 
ATOM     42  C   UNL     1      -9.325  -3.131   1.075  1.00  0.00     0.016 A 
ATOM     43  C   UNL     1     -10.019  -0.834   1.457  1.00  0.00     0.016 A 
ATOM     44  C   UNL     1      -9.257  -3.348   2.450  1.00  0.00     0.010 A 
ATOM     45  C   UNL     1      -9.969  -1.059   2.835  1.00  0.00     0.010 A 
ATOM     46  C   UNL     1      -9.632  -2.329   3.335  1.00  0.00    -0.014 A 
BRANCH  46  47
ATOM     47  C   UNL     1      -9.876  -2.660   4.760  1.00  0.00     0.031 A 
ATOM     48  C   UNL     1     -11.295  -2.889   5.206  1.00  0.00     0.074 A 
ATOM     49  C   UNL     1      -8.862  -2.777   5.635  1.00  0.00     0.049 A 
ATOM     50  N   UNL     1     -11.756  -3.173   6.395  1.00  0.00    -0.248 NA
ATOM     51  C   UNL     1     -12.336  -2.780   4.169  1.00  0.00     0.031 C 
ATOM     52  C   UNL     1      -7.446  -2.595   5.321  1.00  0.00     0.029 A 
ATOM     53  N   UNL     1      -8.877  -3.060   6.978  1.00  0.00    -0.354 N 
ATOM     54  C   UNL     1     -13.137  -3.246   6.258  1.00  0.00     0.074 A 
ATOM     55  C   UNL     1     -13.442  -2.963   4.873  1.00  0.00     0.031 C 
ATOM     56  C   UNL     1      -6.729  -2.744   6.448  1.00  0.00     0.029 A 
ATOM     57  C   UNL     1      -7.635  -3.005   7.564  1.00  0.00     0.049 A 
ATOM     58  H   UNL     1      -9.699  -3.281   7.473  1.00  0.00     0.167 HD
ATOM     59  C   UNL     1     -14.069  -3.534   7.196  1.00  0.00     0.034 A 
ATOM     60  C   UNL     1      -7.278  -3.128   8.858  1.00  0.00     0.034 A 
ATOM     61  C   UNL     1     -13.763  -3.825   8.570  1.00  0.00     0.049 A 
ATOM     62  C   UNL     1      -8.339  -3.418   9.891  1.00  0.00     0.074 A 
ATOM     63  C   UNL     1     -14.631  -4.168   9.591  1.00  0.00     0.029 A 
ATOM     64  N   UNL     1     -12.491  -3.791   9.122  1.00  0.00    -0.354 N 
ATOM     65  N   UNL     1      -9.629  -3.587   9.728  1.00  0.00    -0.248 NA
ATOM     66  C   UNL     1      -7.887  -3.571  11.282  1.00  0.00     0.031 C 
ATOM     67  C   UNL     1     -13.889  -4.301  10.769  1.00  0.00     0.029 A 
ATOM     68  C   UNL     1     -12.552  -4.091  10.471  1.00  0.00     0.049 A 
ATOM     69  H   UNL     1     -11.666  -3.583   8.626  1.00  0.00     0.167 HD
ATOM     70  C   UNL     1     -10.135  -3.907  10.985  1.00  0.00     0.074 A 
ATOM     71  C   UNL     1      -9.008  -3.926  11.894  1.00  0.00     0.031 C 
ATOM     72  C   UNL     1     -11.416  -4.154  11.355  1.00  0.00     0.034 A 
BRANCH  59  73
ATOM     73  C   UNL     1     -15.513  -3.552   6.765  1.00  0.00     0.023 A 
ATOM     74  C   UNL     1     -15.988  -4.587   5.933  1.00  0.00     0.012 A 
ATOM     75  C   UNL     1     -16.410  -2.567   7.222  1.00  0.00     0.148 A 
ATOM     76  C   UNL     1     -17.323  -4.620   5.534  1.00  0.00     0.002 A 
ATOM     77  C   UNL     1     -17.749  -2.635   6.861  1.00  0.00     0.091 A 
ATOM     78  F   UNL     1     -15.934  -1.578   7.993  1.00  0.00    -0.205 F 
ATOM     79  C   UNL     1     -18.205  -3.652   6.006  1.00  0.00     0.022 A 
BRANCH  77  80
ATOM     80  S   UNL     1     -18.980  -1.483   7.482  1.00  0.00     0.127 S 
ATOM     81  O   UNL     1     -19.328  -0.742   6.270  1.00  0.00    -0.237 OA
ATOM     82  O   UNL     1     -20.025  -2.385   7.966  1.00  0.00    -0.237 OA
ATOM     83  O   UNL     1     -18.318  -0.705   8.519  1.00  0.00    -0.744 OA
ENDBRANCH  77  80
ENDBRANCH  59  73
BRANCH  60  84
ATOM     84  C   UNL     1      -5.847  -2.999   9.256  1.00  0.00     0.023 A 
ATOM     85  C   UNL     1      -5.151  -4.125   9.737  1.00  0.00     0.012 A 
ATOM     86  C   UNL     1      -5.176  -1.765   9.164  1.00  0.00     0.148 A 
ATOM     87  C   UNL     1      -3.823  -4.016  10.152  1.00  0.00     0.002 A 
ATOM     88  C   UNL     1      -3.837  -1.675   9.528  1.00  0.00     0.091 A 
ATOM     89  F   UNL     1      -5.861  -0.702   8.720  1.00  0.00    -0.205 F 
ATOM     90  C   UNL     1      -3.164  -2.795  10.039  1.00  0.00     0.022 A 
BRANCH  88  91
ATOM     91  S   UNL     1      -2.877  -0.172   9.316  1.00  0.00     0.127 S 
ATOM     92  O   UNL     1      -2.631   0.222  10.701  1.00  0.00    -0.237 OA
ATOM     93  O   UNL     1      -1.702  -0.666   8.599  1.00  0.00    -0.237 OA
ATOM     94  O   UNL     1      -3.721   0.731   8.547  1.00  0.00    -0.744 OA
ENDBRANCH  88  91
ENDBRANCH  60  84
BRANCH  72  95
ATOM     95  C   UNL     1     -11.671  -4.524  12.796  1.00  0.00     0.023 A 
ATOM     96  C   UNL     1     -11.534  -3.559  13.813  1.00  0.00     0.012 A 
ATOM     97  C   UNL     1     -12.109  -5.822  13.131  1.00  0.00     0.148 A 
ATOM     98  C   UNL     1     -11.783  -3.892  15.145  1.00  0.00     0.002 A 
ATOM     99  C   UNL     1     -12.409  -6.130  14.452  1.00  0.00     0.091 A 
ATOM    100  F   UNL     1     -12.220  -6.732  12.152  1.00  0.00    -0.205 F 
ATOM    101  C   UNL     1     -12.231  -5.172  15.462  1.00  0.00     0.022 A 
BRANCH  99 102
ATOM    102  S   UNL     1     -13.088  -7.720  14.939  1.00  0.00     0.127 S 
ATOM    103  O   UNL     1     -11.955  -8.328  15.635  1.00  0.00    -0.237 OA
ATOM    104  O   UNL     1     -14.199  -7.330  15.808  1.00  0.00    -0.237 OA
ATOM    105  O   UNL     1     -13.491  -8.381  13.705  1.00  0.00    -0.744 OA
ENDBRANCH  99 102
ENDBRANCH  72  95
ENDBRANCH  46  47
ENDBRANCH  39  41
ENDBRANCH  38  39
ENDBRANCH  37  38
ENDBRANCH  36  37
ENDBRANCH  35  36
ENDBRANCH  34  35
ENDBRANCH  33  34
ENDBRANCH  32  33
ENDBRANCH   1  32
TORSDOF 28
