REMARK SMILES CC[C@@](C)(NC(=O)N(C)[C@@H](C)C(C)C)C(=O)OCCOCCOCCOCCOC(=O)c1ccc(-c2c3nc(c(-c4cccc(S(=O)(=O)[O-])c4F)c4ccc([nH]4)c(-c4cccc(S(=O)(=O)[O-])c4F)c4nc(c(-c5cccc(S(=O)(=O)[O-])c5F)c5ccc2[nH]5)C=C4)C=C3)cc1
REMARK SMILES IDX 22 1 21 2 20 3 19 4 18 5 17 6 15 7 16 8 3 9 4 10 2 11 1 12
REMARK SMILES IDX 5 13 6 14 7 16 8 17 9 18 10 19 11 20 12 21 13 22 14 23 23 24
REMARK SMILES IDX 24 25 25 26 26 27 27 28 28 29 29 30 30 31 31 32 32 33 33 34
REMARK SMILES IDX 94 35 34 36 93 37 35 38 36 39 37 40 87 41 38 42 92 43 86 44
REMARK SMILES IDX 88 45 39 46 91 47 85 48 84 49 40 51 72 52 52 53 71 54 53 55
REMARK SMILES IDX 56 56 70 57 89 58 54 59 55 60 69 62 90 63 57 64 41 65 42 66
REMARK SMILES IDX 50 67 43 68 45 69 51 70 44 71 46 72 47 73 48 74 49 75 73 76
REMARK SMILES IDX 74 77 82 78 75 79 77 80 83 81 76 82 78 83 79 84 80 85 81 86
REMARK SMILES IDX 58 87 59 88 67 89 60 90 62 91 68 92 61 93 63 94 64 95 65 96
REMARK SMILES IDX 66 97
REMARK H PARENT 5 15 88 50 56 61
REMARK Flexibility Score: inf
ROOT
ATOM      1  C   UNL     1       3.443  -1.863   1.218  1.00  0.00     0.188 C 
ENDROOT
BRANCH   1   2
ATOM      2  C   UNL     1       4.135  -1.129   0.068  1.00  0.00     0.188 C 
BRANCH   2   3
ATOM      3  O   UNL     1       4.750   0.142   0.267  1.00  0.00    -0.376 OA
BRANCH   3   4
ATOM      4  C   UNL     1       5.300   0.498   1.529  1.00  0.00     0.202 C 
BRANCH   4   5
ATOM      5  C   UNL     1       4.521   1.694   2.082  1.00  0.00     0.261 C 
BRANCH   5   6
ATOM      6  O   UNL     1       3.283   1.220   2.632  1.00  0.00    -0.462 OA
BRANCH   6   7
ATOM      7  C   UNL     1       2.191   1.201   1.849  1.00  0.00     0.331 C 
ATOM      8  O   UNL     1       2.137   1.752   0.755  1.00  0.00    -0.249 OA
BRANCH   7   9
ATOM      9  C   UNL     1       0.995   0.455   2.531  1.00  0.00     0.136 C 
ATOM     10  C   UNL     1       0.034   1.632   2.861  1.00  0.00     0.047 C 
BRANCH   9  11
ATOM     11  C   UNL     1       0.242  -0.488   1.524  1.00  0.00     0.037 C 
ATOM     12  C   UNL     1       0.113  -0.008   0.071  1.00  0.00     0.007 C 
ENDBRANCH   9  11
BRANCH   9  13
ATOM     13  N   UNL     1       1.226  -0.261   3.879  1.00  0.00    -0.322 N 
ATOM     14  C   UNL     1       1.936  -1.377   4.286  1.00  0.00     0.318 C 
ATOM     15  H   UNL     1       0.757   0.180   4.624  1.00  0.00     0.166 HD
ATOM     16  O   UNL     1       1.252  -2.383   4.479  1.00  0.00    -0.249 OA
BRANCH  14  17
ATOM     17  N   UNL     1       3.252  -1.220   4.767  1.00  0.00    -0.325 N 
ATOM     18  C   UNL     1       3.756   0.128   4.982  1.00  0.00     0.149 C 
BRANCH  17  19
ATOM     19  C   UNL     1       3.968  -2.232   5.716  1.00  0.00     0.086 C 
ATOM     20  C   UNL     1       3.171  -2.044   7.034  1.00  0.00     0.031 C 
BRANCH  19  21
ATOM     21  C   UNL     1       4.856  -3.568   5.090  1.00  0.00     0.005 C 
ATOM     22  C   UNL     1       6.366  -3.219   4.948  1.00  0.00     0.009 C 
ATOM     23  C   UNL     1       5.019  -5.162   5.372  1.00  0.00     0.009 C 
ENDBRANCH  19  21
ENDBRANCH  17  19
ENDBRANCH  14  17
ENDBRANCH   9  13
ENDBRANCH   7   9
ENDBRANCH   6   7
ENDBRANCH   5   6
ENDBRANCH   4   5
ENDBRANCH   3   4
ENDBRANCH   2   3
ENDBRANCH   1   2
BRANCH   1  24
ATOM     24  O   UNL     1       4.316  -2.409   2.184  1.00  0.00    -0.377 OA
BRANCH  24  25
ATOM     25  C   UNL     1       4.982  -3.603   1.817  1.00  0.00     0.188 C 
BRANCH  25  26
ATOM     26  C   UNL     1       4.139  -4.915   1.879  1.00  0.00     0.188 C 
BRANCH  26  27
ATOM     27  O   UNL     1       3.646  -5.436   3.142  1.00  0.00    -0.376 OA
BRANCH  27  28
ATOM     28  C   UNL     1       2.373  -4.953   3.639  1.00  0.00     0.202 C 
BRANCH  28  29
ATOM     29  C   UNL     1       1.948  -5.298   5.194  1.00  0.00     0.261 C 
BRANCH  29  30
ATOM     30  O   UNL     1       2.698  -4.648   6.333  1.00  0.00    -0.460 OA
BRANCH  30  31
ATOM     31  C   UNL     1       2.928  -5.231   7.576  1.00  0.00     0.338 C 
ATOM     32  O   UNL     1       2.427  -6.294   7.915  1.00  0.00    -0.246 OA
BRANCH  31  33
ATOM     33  C   UNL     1       3.872  -4.446   8.558  1.00  0.00     0.060 A 
ATOM     34  C   UNL     1       5.154  -3.964   8.229  1.00  0.00     0.016 A 
ATOM     35  C   UNL     1       3.492  -4.157   9.871  1.00  0.00     0.016 A 
ATOM     36  C   UNL     1       5.997  -3.195   9.051  1.00  0.00     0.010 A 
ATOM     37  C   UNL     1       4.340  -3.400  10.742  1.00  0.00     0.010 A 
ATOM     38  C   UNL     1       5.600  -2.909  10.337  1.00  0.00    -0.014 A 
BRANCH  38  39
ATOM     39  C   UNL     1       6.593  -2.349  11.298  1.00  0.00     0.031 A 
ATOM     40  C   UNL     1       7.244  -3.331  12.232  1.00  0.00     0.074 A 
ATOM     41  C   UNL     1       6.935  -1.044  11.348  1.00  0.00     0.049 A 
ATOM     42  N   UNL     1       7.892  -3.129  13.345  1.00  0.00    -0.248 NA
ATOM     43  C   UNL     1       7.114  -4.750  11.857  1.00  0.00     0.031 C 
ATOM     44  C   UNL     1       6.508  -0.011  10.404  1.00  0.00     0.029 A 
ATOM     45  N   UNL     1       7.696  -0.353  12.267  1.00  0.00    -0.354 N 
ATOM     46  C   UNL     1       8.136  -4.396  13.867  1.00  0.00     0.074 A 
ATOM     47  C   UNL     1       7.613  -5.356  12.922  1.00  0.00     0.031 C 
ATOM     48  C   UNL     1       6.950   1.188  10.831  1.00  0.00     0.029 A 
ATOM     49  C   UNL     1       7.645   1.017  12.104  1.00  0.00     0.049 A 
ATOM     50  H   UNL     1       8.223  -0.794  12.972  1.00  0.00     0.167 HD
ATOM     51  C   UNL     1       8.715  -4.720  15.046  1.00  0.00     0.034 A 
ATOM     52  C   UNL     1       8.059   2.011  12.921  1.00  0.00     0.034 A 
ATOM     53  C   UNL     1       9.259  -3.739  15.944  1.00  0.00     0.049 A 
ATOM     54  C   UNL     1       8.696   1.633  14.239  1.00  0.00     0.074 A 
ATOM     55  C   UNL     1       9.890  -3.931  17.159  1.00  0.00     0.029 A 
ATOM     56  N   UNL     1       9.236  -2.370  15.714  1.00  0.00    -0.354 N 
ATOM     57  N   UNL     1       8.918   0.438  14.735  1.00  0.00    -0.248 NA
ATOM     58  C   UNL     1       9.156   2.732  15.100  1.00  0.00     0.031 C 
ATOM     59  C   UNL     1      10.219  -2.674  17.677  1.00  0.00     0.029 A 
ATOM     60  C   UNL     1       9.836  -1.702  16.764  1.00  0.00     0.049 A 
ATOM     61  H   UNL     1       8.847  -1.938  14.919  1.00  0.00     0.167 HD
ATOM     62  C   UNL     1       9.578   0.637  15.943  1.00  0.00     0.074 A 
ATOM     63  C   UNL     1       9.733   2.071  16.095  1.00  0.00     0.031 C 
ATOM     64  C   UNL     1      10.013  -0.273  16.851  1.00  0.00     0.034 A 
BRANCH  51  65
ATOM     65  C   UNL     1       8.733  -6.178  15.437  1.00  0.00     0.023 A 
ATOM     66  C   UNL     1       9.530  -7.101  14.730  1.00  0.00     0.012 A 
ATOM     67  C   UNL     1       7.938  -6.638  16.507  1.00  0.00     0.148 A 
ATOM     68  C   UNL     1       9.493  -8.461  15.043  1.00  0.00     0.002 A 
ATOM     69  C   UNL     1       7.947  -7.986  16.848  1.00  0.00     0.091 A 
ATOM     70  F   UNL     1       7.166  -5.754  17.156  1.00  0.00    -0.205 F 
ATOM     71  C   UNL     1       8.709  -8.901  16.105  1.00  0.00     0.022 A 
BRANCH  69  72
ATOM     72  S   UNL     1       7.034  -8.641  18.250  1.00  0.00     0.127 S 
ATOM     73  O   UNL     1       6.019  -9.458  17.587  1.00  0.00    -0.237 OA
ATOM     74  O   UNL     1       8.065  -9.404  18.954  1.00  0.00    -0.237 OA
ATOM     75  O   UNL     1       6.528  -7.486  18.978  1.00  0.00    -0.744 OA
ENDBRANCH  69  72
ENDBRANCH  51  65
BRANCH  52  76
ATOM     76  C   UNL     1       7.897   3.448  12.528  1.00  0.00     0.023 A 
ATOM     77  C   UNL     1       9.043   4.226  12.261  1.00  0.00     0.012 A 
ATOM     78  C   UNL     1       6.627   4.047  12.394  1.00  0.00     0.148 A 
ATOM     79  C   UNL     1       8.930   5.568  11.887  1.00  0.00     0.002 A 
ATOM     80  C   UNL     1       6.520   5.369  11.965  1.00  0.00     0.091 A 
ATOM     81  F   UNL     1       5.545   3.311  12.680  1.00  0.00    -0.205 F 
ATOM     82  C   UNL     1       7.670   6.135  11.725  1.00  0.00     0.022 A 
BRANCH  80  83
ATOM     83  S   UNL     1       4.940   6.148  11.601  1.00  0.00     0.127 S 
ATOM     84  O   UNL     1       4.844   7.147  12.662  1.00  0.00    -0.237 OA
ATOM     85  O   UNL     1       5.174   6.691  10.263  1.00  0.00    -0.237 OA
ATOM     86  O   UNL     1       3.953   5.077  11.649  1.00  0.00    -0.744 OA
ENDBRANCH  80  83
ENDBRANCH  52  76
BRANCH  64  87
ATOM     87  C   UNL     1      10.758   0.249  18.051  1.00  0.00     0.023 A 
ATOM     88  C   UNL     1      10.069   0.922  19.078  1.00  0.00     0.012 A 
ATOM     89  C   UNL     1      12.138   0.003  18.185  1.00  0.00     0.148 A 
ATOM     90  C   UNL     1      10.753   1.379  20.204  1.00  0.00     0.002 A 
ATOM     91  C   UNL     1      12.801   0.411  19.333  1.00  0.00     0.091 A 
ATOM     92  F   UNL     1      12.777  -0.623  17.186  1.00  0.00    -0.205 F 
ATOM     93  C   UNL     1      12.115   1.113  20.337  1.00  0.00     0.022 A 
BRANCH  91  94
ATOM     94  S   UNL     1      14.526   0.016  19.637  1.00  0.00     0.127 S 
ATOM     95  O   UNL     1      15.171   1.307  19.425  1.00  0.00    -0.237 OA
ATOM     96  O   UNL     1      14.502  -0.440  21.024  1.00  0.00    -0.237 OA
ATOM     97  O   UNL     1      14.873  -1.025  18.668  1.00  0.00    -0.744 OA
ENDBRANCH  91  94
ENDBRANCH  64  87
ENDBRANCH  38  39
ENDBRANCH  31  33
ENDBRANCH  30  31
ENDBRANCH  29  30
ENDBRANCH  28  29
ENDBRANCH  27  28
ENDBRANCH  26  27
ENDBRANCH  25  26
ENDBRANCH  24  25
ENDBRANCH   1  24
TORSDOF 28
