REMARK SMILES Cc1ccnc(C(=O)c2[nH]c3ccc(OC(F)(F)F)cc3c2CC(=O)OCCOCCOCCOCCOC(=O)c2ccc(-c3c4nc(c(-c5cccc(S(=O)(=O)[O-])c5F)c5ccc([nH]5)c(-c5cccc(S(=O)(=O)[O-])c5F)c5nc(c(-c6cccc(S(=O)(=O)[O-])c6F)c6ccc3[nH]6)C=C5)C=C4)cc2)c1
REMARK SMILES IDX 32 1 31 2 30 3 29 4 28 5 27 6 26 7 24 8 25 9 23 10 22 11
REMARK SMILES IDX 9 12 10 13 11 14 21 16 12 17 20 18 13 19 14 20 7 21 8 22
REMARK SMILES IDX 6 23 1 24 2 25 3 26 104 27 4 28 5 29 15 30 16 31 17 32 18 33
REMARK SMILES IDX 19 34 33 35 34 36 35 37 36 38 37 39 38 40 39 41 40 42 41 43
REMARK SMILES IDX 42 44 103 45 43 46 102 47 44 48 45 49 46 50 96 51 47 52
REMARK SMILES IDX 101 53 95 54 97 55 48 56 100 57 94 58 93 59 49 61 81 62
REMARK SMILES IDX 61 63 80 64 62 65 65 66 79 67 98 68 63 69 64 70 78 72 99 73
REMARK SMILES IDX 66 74 50 75 51 76 59 77 52 78 54 79 60 80 53 81 55 82 56 83
REMARK SMILES IDX 57 84 58 85 82 86 83 87 91 88 84 89 86 90 92 91 85 92 87 93
REMARK SMILES IDX 88 94 89 95 90 96 67 97 68 98 76 99 69 100 71 101 77 102
REMARK SMILES IDX 70 103 72 104 73 105 74 106 75 107
REMARK H PARENT 10 15 97 60 65 71
REMARK Flexibility Score: inf
ROOT
ATOM      1  O   UNL     1       3.946  -3.934  -0.549  1.00  0.00    -0.377 OA
ENDROOT
BRANCH   1   2
ATOM      2  C   UNL     1       4.178  -2.870   0.357  1.00  0.00     0.188 C 
BRANCH   2   3
ATOM      3  C   UNL     1       5.401  -2.932   1.271  1.00  0.00     0.188 C 
BRANCH   3   4
ATOM      4  O   UNL     1       6.533  -3.637   0.807  1.00  0.00    -0.376 OA
BRANCH   4   5
ATOM      5  C   UNL     1       6.398  -5.049   0.637  1.00  0.00     0.202 C 
BRANCH   5   6
ATOM      6  C   UNL     1       5.511  -5.872   1.594  1.00  0.00     0.261 C 
BRANCH   6   7
ATOM      7  O   UNL     1       4.088  -5.578   1.540  1.00  0.00    -0.463 OA
BRANCH   7   8
ATOM      8  C   UNL     1       3.462  -5.444   2.736  1.00  0.00     0.310 C 
ATOM      9  O   UNL     1       4.052  -5.559   3.813  1.00  0.00    -0.252 OA
BRANCH   8  10
ATOM     10  C   UNL     1       1.980  -5.114   2.740  1.00  0.00     0.161 C 
BRANCH  10  11
ATOM     11  C   UNL     1       1.168  -4.957   1.474  1.00  0.00     0.000 A 
ATOM     12  C   UNL     1       0.766  -3.768   0.839  1.00  0.00     0.093 A 
ATOM     13  N   UNL     1       0.113  -4.158  -0.315  1.00  0.00    -0.352 N 
ATOM     14  C   UNL     1      -0.324  -5.455  -0.188  1.00  0.00     0.046 A 
ATOM     15  H   UNL     1      -0.019  -3.591  -1.109  1.00  0.00     0.167 HD
ATOM     16  C   UNL     1       0.345  -5.992   0.907  1.00  0.00     0.008 A 
ATOM     17  C   UNL     1      -1.258  -6.181  -0.938  1.00  0.00     0.030 A 
ATOM     18  C   UNL     1       0.036  -7.314   1.290  1.00  0.00     0.057 A 
ATOM     19  C   UNL     1      -1.587  -7.471  -0.495  1.00  0.00     0.049 A 
ATOM     20  C   UNL     1      -0.972  -8.027   0.625  1.00  0.00     0.130 A 
BRANCH  12  21
ATOM     21  C   UNL     1       0.971  -2.390   1.286  1.00  0.00     0.227 C 
ATOM     22  O   UNL     1       1.581  -2.111   2.321  1.00  0.00    -0.285 OA
BRANCH  21  23
ATOM     23  C   UNL     1       0.383  -1.226   0.559  1.00  0.00     0.113 A 
ATOM     24  C   UNL     1      -3.004   0.282  -0.196  1.00  0.00     0.044 C 
ATOM     25  C   UNL     1      -1.523   0.085  -0.071  1.00  0.00    -0.047 A 
ATOM     26  C   UNL     1      -0.658   1.166  -0.264  1.00  0.00     0.023 A 
ATOM     27  C   UNL     1      -0.990  -1.140   0.352  1.00  0.00     0.036 A 
ATOM     28  C   UNL     1       0.698   0.980  -0.059  1.00  0.00     0.112 A 
ATOM     29  N   UNL     1       1.236  -0.190   0.337  1.00  0.00    -0.253 NA
ENDBRANCH  21  23
ENDBRANCH  12  21
BRANCH  20  30
ATOM     30  O   UNL     1      -1.260  -9.238   1.191  1.00  0.00    -0.406 OA
BRANCH  30  31
ATOM     31  C   UNL     1      -2.455  -9.886   0.797  1.00  0.00     0.573 C 
ATOM     32  F   UNL     1      -3.522  -9.058   0.921  1.00  0.00    -0.132 F 
ATOM     33  F   UNL     1      -2.389 -10.325  -0.475  1.00  0.00    -0.132 F 
ATOM     34  F   UNL     1      -2.675 -10.943   1.611  1.00  0.00    -0.132 F 
ENDBRANCH  30  31
ENDBRANCH  20  30
ENDBRANCH  10  11
ENDBRANCH   8  10
ENDBRANCH   7   8
ENDBRANCH   6   7
ENDBRANCH   5   6
ENDBRANCH   4   5
ENDBRANCH   3   4
ENDBRANCH   2   3
ENDBRANCH   1   2
BRANCH   1  35
ATOM     35  C   UNL     1       4.434  -3.851  -1.881  1.00  0.00     0.188 C 
BRANCH  35  36
ATOM     36  C   UNL     1       5.106  -2.551  -2.322  1.00  0.00     0.188 C 
BRANCH  36  37
ATOM     37  O   UNL     1       4.321  -1.356  -2.335  1.00  0.00    -0.376 OA
BRANCH  37  38
ATOM     38  C   UNL     1       2.910  -1.462  -2.503  1.00  0.00     0.202 C 
BRANCH  38  39
ATOM     39  C   UNL     1       2.446  -1.510  -3.956  1.00  0.00     0.261 C 
BRANCH  39  40
ATOM     40  O   UNL     1       2.736  -2.783  -4.550  1.00  0.00    -0.460 OA
BRANCH  40  41
ATOM     41  C   UNL     1       3.830  -2.816  -5.345  1.00  0.00     0.338 C 
ATOM     42  O   UNL     1       4.538  -1.878  -5.673  1.00  0.00    -0.246 OA
BRANCH  41  43
ATOM     43  C   UNL     1       4.161  -4.224  -5.625  1.00  0.00     0.060 A 
ATOM     44  C   UNL     1       5.486  -4.641  -5.443  1.00  0.00     0.016 A 
ATOM     45  C   UNL     1       3.186  -5.117  -6.074  1.00  0.00     0.016 A 
ATOM     46  C   UNL     1       5.846  -5.955  -5.724  1.00  0.00     0.010 A 
ATOM     47  C   UNL     1       3.552  -6.427  -6.376  1.00  0.00     0.010 A 
ATOM     48  C   UNL     1       4.886  -6.841  -6.225  1.00  0.00    -0.014 A 
BRANCH  48  49
ATOM     49  C   UNL     1       5.298  -8.164  -6.736  1.00  0.00     0.031 A 
ATOM     50  C   UNL     1       5.516  -8.321  -8.213  1.00  0.00     0.074 A 
ATOM     51  C   UNL     1       5.430  -9.207  -5.899  1.00  0.00     0.049 A 
ATOM     52  N   UNL     1       5.777  -9.400  -8.899  1.00  0.00    -0.248 NA
ATOM     53  C   UNL     1       5.422  -7.096  -9.026  1.00  0.00     0.031 C 
ATOM     54  C   UNL     1       5.258  -9.152  -4.448  1.00  0.00     0.029 A 
ATOM     55  N   UNL     1       5.703 -10.525  -6.159  1.00  0.00    -0.354 N 
ATOM     56  C   UNL     1       5.840  -8.995 -10.226  1.00  0.00     0.074 A 
ATOM     57  C   UNL     1       5.596  -7.570 -10.251  1.00  0.00     0.031 C 
ATOM     58  C   UNL     1       5.391 -10.393  -3.948  1.00  0.00     0.029 A 
ATOM     59  C   UNL     1       5.619 -11.328  -5.047  1.00  0.00     0.049 A 
ATOM     60  H   UNL     1       5.937 -10.862  -7.054  1.00  0.00     0.167 HD
ATOM     61  C   UNL     1       6.080  -9.749 -11.323  1.00  0.00     0.034 A 
ATOM     62  C   UNL     1       5.679 -12.670  -4.942  1.00  0.00     0.034 A 
ATOM     63  C   UNL     1       6.330 -11.163 -11.282  1.00  0.00     0.049 A 
ATOM     64  C   UNL     1       5.899 -13.488  -6.190  1.00  0.00     0.074 A 
ATOM     65  C   UNL     1       6.642 -12.011 -12.328  1.00  0.00     0.029 A 
ATOM     66  N   UNL     1       6.269 -11.942 -10.137  1.00  0.00    -0.354 N 
ATOM     67  N   UNL     1       6.082 -13.081  -7.424  1.00  0.00    -0.248 NA
ATOM     68  C   UNL     1       5.942 -14.948  -6.028  1.00  0.00     0.031 C 
ATOM     69  C   UNL     1       6.727 -13.312 -11.822  1.00  0.00     0.029 A 
ATOM     70  C   UNL     1       6.508 -13.267 -10.454  1.00  0.00     0.049 A 
ATOM     71  H   UNL     1       6.084 -11.602  -9.232  1.00  0.00     0.167 HD
ATOM     72  C   UNL     1       6.292 -14.231  -8.178  1.00  0.00     0.074 A 
ATOM     73  C   UNL     1       6.240 -15.348  -7.256  1.00  0.00     0.031 C 
ATOM     74  C   UNL     1       6.494 -14.357  -9.513  1.00  0.00     0.034 A 
BRANCH  61  75
ATOM     75  C   UNL     1       6.082  -9.063 -12.662  1.00  0.00     0.023 A 
ATOM     76  C   UNL     1       7.154  -8.223 -13.023  1.00  0.00     0.012 A 
ATOM     77  C   UNL     1       5.051  -9.307 -13.590  1.00  0.00     0.148 A 
ATOM     78  C   UNL     1       7.189  -7.617 -14.279  1.00  0.00     0.002 A 
ATOM     79  C   UNL     1       5.114  -8.736 -14.855  1.00  0.00     0.091 A 
ATOM     80  F   UNL     1       4.027 -10.088 -13.216  1.00  0.00    -0.205 F 
ATOM     81  C   UNL     1       6.177  -7.884 -15.198  1.00  0.00     0.022 A 
BRANCH  79  82
ATOM     82  S   UNL     1       3.901  -9.076 -16.135  1.00  0.00     0.127 S 
ATOM     83  O   UNL     1       3.260  -7.771 -16.288  1.00  0.00    -0.237 OA
ATOM     84  O   UNL     1       4.748  -9.476 -17.259  1.00  0.00    -0.237 OA
ATOM     85  O   UNL     1       3.044 -10.130 -15.610  1.00  0.00    -0.744 OA
ENDBRANCH  79  82
ENDBRANCH  61  75
BRANCH  62  86
ATOM     86  C   UNL     1       5.534 -13.330  -3.614  1.00  0.00     0.023 A 
ATOM     87  C   UNL     1       6.634 -14.008  -3.053  1.00  0.00     0.012 A 
ATOM     88  C   UNL     1       4.316 -13.297  -2.907  1.00  0.00     0.148 A 
ATOM     89  C   UNL     1       6.513 -14.672  -1.831  1.00  0.00     0.002 A 
ATOM     90  C   UNL     1       4.218 -13.911  -1.665  1.00  0.00     0.091 A 
ATOM     91  F   UNL     1       3.275 -12.662  -3.465  1.00  0.00    -0.205 F 
ATOM     92  C   UNL     1       5.309 -14.616  -1.133  1.00  0.00     0.022 A 
BRANCH  90  93
ATOM     93  S   UNL     1       2.747 -13.790  -0.641  1.00  0.00     0.127 S 
ATOM     94  O   UNL     1       2.236 -15.158  -0.689  1.00  0.00    -0.237 OA
ATOM     95  O   UNL     1       3.310 -13.387   0.648  1.00  0.00    -0.237 OA
ATOM     96  O   UNL     1       1.909 -12.780  -1.273  1.00  0.00    -0.744 OA
ENDBRANCH  90  93
ENDBRANCH  62  86
BRANCH  74  97
ATOM     97  C   UNL     1       6.702 -15.746 -10.060  1.00  0.00     0.023 A 
ATOM     98  C   UNL     1       5.617 -16.641 -10.131  1.00  0.00     0.012 A 
ATOM     99  C   UNL     1       7.955 -16.134 -10.576  1.00  0.00     0.148 A 
ATOM    100  C   UNL     1       5.782 -17.913 -10.677  1.00  0.00     0.002 A 
ATOM    101  C   UNL     1       8.099 -17.383 -11.167  1.00  0.00     0.091 A 
ATOM    102  F   UNL     1       8.978 -15.272 -10.487  1.00  0.00    -0.205 F 
ATOM    103  C   UNL     1       7.018 -18.279 -11.205  1.00  0.00     0.022 A 
BRANCH 101 104
ATOM    104  S   UNL     1       9.622 -17.905 -11.963  1.00  0.00     0.127 S 
ATOM    105  O   UNL     1      10.083 -18.960 -11.062  1.00  0.00    -0.237 OA
ATOM    106  O   UNL     1       9.143 -18.379 -13.262  1.00  0.00    -0.237 OA
ATOM    107  O   UNL     1      10.472 -16.724 -12.024  1.00  0.00    -0.744 OA
ENDBRANCH 101 104
ENDBRANCH  74  97
ENDBRANCH  48  49
ENDBRANCH  41  43
ENDBRANCH  40  41
ENDBRANCH  39  40
ENDBRANCH  38  39
ENDBRANCH  37  38
ENDBRANCH  36  37
ENDBRANCH  35  36
ENDBRANCH   1  35
TORSDOF 28
