REMARK SMILES C[NH+]1CCC([NH+]2CCC(Oc3ccc4ccccc4c3)(C(=O)OCCOCCOCCOCCOC(=O)c3ccc(-c4c5nc(c(-c6cccc(S(=O)(=O)[O-])c6F)c6ccc([nH]6)c(-c6cccc(S(=O)(=O)[O-])c6F)c6nc(c(-c7cccc(S(=O)(=O)[O-])c7F)c7ccc4[nH]7)C=C6)C=C5)cc3)CC2)CC1
REMARK SMILES IDX 30 1 29 2 28 3 27 4 26 5 25 6 24 7 23 8 21 9 22 10 9 11 6 12
REMARK SMILES IDX 7 13 102 14 8 16 101 17 5 18 1 19 2 20 3 21 104 22 4 24
REMARK SMILES IDX 103 25 10 26 11 27 12 28 20 29 13 30 19 31 14 32 18 33 15 34
REMARK SMILES IDX 17 35 16 36 31 37 32 38 33 39 34 40 35 41 36 42 37 43 38 44
REMARK SMILES IDX 39 45 100 46 40 47 99 48 41 49 42 50 43 51 93 52 44 53 98 54
REMARK SMILES IDX 92 55 94 56 45 57 97 58 91 59 90 60 46 62 78 63 58 64 77 65
REMARK SMILES IDX 59 66 62 67 76 68 95 69 60 70 61 71 75 73 96 74 63 75 47 76
REMARK SMILES IDX 48 77 56 78 49 79 51 80 57 81 50 82 52 83 53 84 54 85 55 86
REMARK SMILES IDX 79 87 80 88 88 89 81 90 83 91 89 92 82 93 84 94 85 95 86 96
REMARK SMILES IDX 87 97 64 98 65 99 73 100 66 101 68 102 74 103 67 104 69 105
REMARK SMILES IDX 70 106 71 107 72 108
REMARK H PARENT 6 15 2 23 94 61 62 72
REMARK Flexibility Score: inf
ROOT
ATOM      1  C   UNL     1       1.698  -2.826   4.781  1.00  0.00     0.188 C 
ENDROOT
BRANCH   1   2
ATOM      2  O   UNL     1       2.895  -2.690   4.035  1.00  0.00    -0.377 OA
BRANCH   2   3
ATOM      3  C   UNL     1       2.745  -2.610   2.637  1.00  0.00     0.188 C 
BRANCH   3   4
ATOM      4  C   UNL     1       3.011  -3.885   1.828  1.00  0.00     0.188 C 
BRANCH   4   5
ATOM      5  O   UNL     1       3.540  -5.040   2.458  1.00  0.00    -0.376 OA
BRANCH   5   6
ATOM      6  C   UNL     1       4.352  -4.896   3.614  1.00  0.00     0.202 C 
BRANCH   6   7
ATOM      7  C   UNL     1       5.628  -4.028   3.559  1.00  0.00     0.261 C 
BRANCH   7   8
ATOM      8  O   UNL     1       5.507  -2.650   3.127  1.00  0.00    -0.460 OA
BRANCH   8   9
ATOM      9  C   UNL     1       5.844  -2.376   1.834  1.00  0.00     0.351 C 
ATOM     10  O   UNL     1       6.171  -3.256   1.037  1.00  0.00    -0.247 OA
BRANCH   9  11
ATOM     11  C   UNL     1       5.861  -0.858   1.468  1.00  0.00     0.216 C 
ATOM     12  N   UNL     1       3.477   0.257  -0.056  1.00  0.00    -0.332 N 
ATOM     13  C   UNL     1       3.533   0.431   1.398  1.00  0.00     0.267 C 
ATOM     14  C   UNL     1       4.290  -0.862  -0.534  1.00  0.00     0.267 C 
ATOM     15  H   UNL     1       3.923   1.090  -0.440  1.00  0.00     0.348 HD
ATOM     16  C   UNL     1       4.854   0.108   2.128  1.00  0.00     0.122 C 
ATOM     17  C   UNL     1       5.749  -0.742  -0.068  1.00  0.00     0.122 C 
BRANCH  12  18
ATOM     18  C   UNL     1       2.087   0.299  -0.628  1.00  0.00     0.195 C 
ATOM     19  C   UNL     1      -2.269   0.171  -0.389  1.00  0.00     0.332 C 
ATOM     20  N   UNL     1      -0.822   0.166  -0.183  1.00  0.00    -0.337 N 
ATOM     21  C   UNL     1      -0.218   1.452  -0.546  1.00  0.00     0.268 C 
ATOM     22  C   UNL     1      -0.171  -0.907  -0.937  1.00  0.00     0.268 C 
ATOM     23  H   UNL     1      -0.675   0.004   0.814  1.00  0.00     0.347 HD
ATOM     24  C   UNL     1       1.242   1.482  -0.087  1.00  0.00     0.126 C 
ATOM     25  C   UNL     1       1.298  -1.025  -0.521  1.00  0.00     0.126 C 
ENDBRANCH  12  18
BRANCH  11  26
ATOM     26  O   UNL     1       7.196  -0.639   2.035  1.00  0.00    -0.475 OA
BRANCH  26  27
ATOM     27  C   UNL     1       7.919   0.413   1.571  1.00  0.00     0.121 A 
ATOM     28  C   UNL     1       7.731   1.696   2.072  1.00  0.00     0.047 A 
ATOM     29  C   UNL     1       8.966   0.146   0.696  1.00  0.00     0.055 A 
ATOM     30  C   UNL     1       8.485   2.754   1.577  1.00  0.00     0.012 A 
ATOM     31  C   UNL     1       9.783   1.190   0.243  1.00  0.00    -0.015 A 
ATOM     32  C   UNL     1       9.511   2.515   0.658  1.00  0.00    -0.018 A 
ATOM     33  C   UNL     1      10.877   0.945  -0.597  1.00  0.00     0.009 A 
ATOM     34  C   UNL     1      10.302   3.566   0.177  1.00  0.00     0.009 A 
ATOM     35  C   UNL     1      11.678   1.998  -1.039  1.00  0.00     0.001 A 
ATOM     36  C   UNL     1      11.382   3.307  -0.665  1.00  0.00     0.001 A 
ENDBRANCH  26  27
ENDBRANCH  11  26
ENDBRANCH   9  11
ENDBRANCH   8   9
ENDBRANCH   7   8
ENDBRANCH   6   7
ENDBRANCH   5   6
ENDBRANCH   4   5
ENDBRANCH   3   4
ENDBRANCH   2   3
ENDBRANCH   1   2
BRANCH   1  37
ATOM     37  C   UNL     1       0.650  -3.790   4.199  1.00  0.00     0.188 C 
BRANCH  37  38
ATOM     38  O   UNL     1       0.276  -3.518   2.849  1.00  0.00    -0.376 OA
BRANCH  38  39
ATOM     39  C   UNL     1      -0.869  -2.712   2.599  1.00  0.00     0.202 C 
BRANCH  39  40
ATOM     40  C   UNL     1      -0.780  -1.216   2.952  1.00  0.00     0.261 C 
BRANCH  40  41
ATOM     41  O   UNL     1      -0.626  -0.930   4.346  1.00  0.00    -0.460 OA
BRANCH  41  42
ATOM     42  C   UNL     1      -1.583  -1.408   5.174  1.00  0.00     0.338 C 
ATOM     43  O   UNL     1      -2.619  -1.950   4.870  1.00  0.00    -0.246 OA
BRANCH  42  44
ATOM     44  C   UNL     1      -1.011  -1.372   6.532  1.00  0.00     0.060 A 
ATOM     45  C   UNL     1      -0.853  -2.588   7.207  1.00  0.00     0.016 A 
ATOM     46  C   UNL     1      -0.606  -0.168   7.111  1.00  0.00     0.016 A 
ATOM     47  C   UNL     1      -0.307  -2.603   8.482  1.00  0.00     0.010 A 
ATOM     48  C   UNL     1      -0.096  -0.178   8.408  1.00  0.00     0.010 A 
ATOM     49  C   UNL     1       0.019  -1.393   9.105  1.00  0.00    -0.014 A 
BRANCH  49  50
ATOM     50  C   UNL     1       0.230  -1.401  10.565  1.00  0.00     0.031 A 
ATOM     51  C   UNL     1      -0.960  -1.127  11.439  1.00  0.00     0.074 A 
ATOM     52  C   UNL     1       1.428  -1.701  11.090  1.00  0.00     0.049 A 
ATOM     53  N   UNL     1      -1.042  -1.098  12.741  1.00  0.00    -0.248 NA
ATOM     54  C   UNL     1      -2.235  -0.855  10.749  1.00  0.00     0.031 C 
ATOM     55  C   UNL     1       2.633  -2.014  10.325  1.00  0.00     0.029 A 
ATOM     56  N   UNL     1       1.826  -1.776  12.399  1.00  0.00    -0.354 N 
ATOM     57  C   UNL     1      -2.364  -0.779  13.025  1.00  0.00     0.074 A 
ATOM     58  C   UNL     1      -3.049  -0.615  11.764  1.00  0.00     0.031 C 
ATOM     59  C   UNL     1       3.649  -2.221  11.181  1.00  0.00     0.029 A 
ATOM     60  C   UNL     1       3.168  -2.028  12.548  1.00  0.00     0.049 A 
ATOM     61  H   UNL     1       1.210  -1.661  13.158  1.00  0.00     0.167 HD
ATOM     62  C   UNL     1      -2.954  -0.643  14.234  1.00  0.00     0.034 A 
ATOM     63  C   UNL     1       3.919  -2.069  13.666  1.00  0.00     0.034 A 
ATOM     64  C   UNL     1      -2.260  -0.808  15.479  1.00  0.00     0.049 A 
ATOM     65  C   UNL     1       3.245  -1.867  14.999  1.00  0.00     0.074 A 
ATOM     66  C   UNL     1      -2.764  -0.720  16.763  1.00  0.00     0.029 A 
ATOM     67  N   UNL     1      -0.904  -1.075  15.595  1.00  0.00    -0.354 N 
ATOM     68  N   UNL     1       1.976  -1.660  15.261  1.00  0.00    -0.248 NA
ATOM     69  C   UNL     1       4.100  -1.936  16.192  1.00  0.00     0.031 C 
ATOM     70  C   UNL     1      -1.702  -0.890  17.657  1.00  0.00     0.029 A 
ATOM     71  C   UNL     1      -0.547  -1.137  16.930  1.00  0.00     0.049 A 
ATOM     72  H   UNL     1      -0.286  -1.202  14.839  1.00  0.00     0.167 HD
ATOM     73  C   UNL     1       1.874  -1.613  16.647  1.00  0.00     0.074 A 
ATOM     74  C   UNL     1       3.209  -1.832  17.168  1.00  0.00     0.031 C 
ATOM     75  C   UNL     1       0.781  -1.401  17.422  1.00  0.00     0.034 A 
BRANCH  62  76
ATOM     76  C   UNL     1      -4.417  -0.289  14.258  1.00  0.00     0.023 A 
ATOM     77  C   UNL     1      -5.382  -1.238  13.864  1.00  0.00     0.012 A 
ATOM     78  C   UNL     1      -4.836   0.980  14.703  1.00  0.00     0.148 A 
ATOM     79  C   UNL     1      -6.739  -0.918  13.880  1.00  0.00     0.002 A 
ATOM     80  C   UNL     1      -6.192   1.274  14.764  1.00  0.00     0.091 A 
ATOM     81  F   UNL     1      -3.901   1.877  15.046  1.00  0.00    -0.205 F 
ATOM     82  C   UNL     1      -7.144   0.332  14.340  1.00  0.00     0.022 A 
BRANCH  80  83
ATOM     83  S   UNL     1      -6.817   2.826  15.414  1.00  0.00     0.127 S 
ATOM     84  O   UNL     1      -7.381   3.443  14.213  1.00  0.00    -0.237 OA
ATOM     85  O   UNL     1      -7.809   2.371  16.388  1.00  0.00    -0.237 OA
ATOM     86  O   UNL     1      -5.670   3.516  15.987  1.00  0.00    -0.744 OA
ENDBRANCH  80  83
ENDBRANCH  62  76
BRANCH  63  87
ATOM     87  C   UNL     1       5.385  -2.321  13.574  1.00  0.00     0.023 A 
ATOM     88  C   UNL     1       5.926  -3.516  14.084  1.00  0.00     0.012 A 
ATOM     89  C   UNL     1       6.244  -1.378  12.976  1.00  0.00     0.148 A 
ATOM     90  C   UNL     1       7.300  -3.754  14.030  1.00  0.00     0.002 A 
ATOM     91  C   UNL     1       7.604  -1.645  12.875  1.00  0.00     0.091 A 
ATOM     92  F   UNL     1       5.711  -0.239  12.511  1.00  0.00    -0.205 F 
ATOM     93  C   UNL     1       8.137  -2.824  13.418  1.00  0.00     0.022 A 
BRANCH  91  94
ATOM     94  S   UNL     1       8.737  -0.563  11.998  1.00  0.00     0.127 S 
ATOM     95  O   UNL     1       9.565  -0.052  13.088  1.00  0.00    -0.237 OA
ATOM     96  O   UNL     1       9.409  -1.501  11.099  1.00  0.00    -0.237 OA
ATOM     97  O   UNL     1       7.901   0.423  11.326  1.00  0.00    -0.744 OA
ENDBRANCH  91  94
ENDBRANCH  63  87
BRANCH  75  98
ATOM     98  C   UNL     1       0.966  -1.444  18.916  1.00  0.00     0.023 A 
ATOM     99  C   UNL     1       1.649  -0.405  19.577  1.00  0.00     0.012 A 
ATOM    100  C   UNL     1       0.388  -2.484  19.672  1.00  0.00     0.148 A 
ATOM    101  C   UNL     1       1.788  -0.420  20.964  1.00  0.00     0.002 A 
ATOM    102  C   UNL     1       0.481  -2.462  21.058  1.00  0.00     0.091 A 
ATOM    103  F   UNL     1      -0.247  -3.471  19.023  1.00  0.00    -0.205 F 
ATOM    104  C   UNL     1       1.194  -1.440  21.704  1.00  0.00     0.022 A 
BRANCH 102 105
ATOM    105  S   UNL     1      -0.341  -3.675  22.097  1.00  0.00     0.127 S 
ATOM    106  O   UNL     1       0.793  -4.435  22.620  1.00  0.00    -0.237 OA
ATOM    107  O   UNL     1      -1.016  -2.829  23.082  1.00  0.00    -0.237 OA
ATOM    108  O   UNL     1      -1.237  -4.417  21.221  1.00  0.00    -0.744 OA
ENDBRANCH 102 105
ENDBRANCH  75  98
ENDBRANCH  49  50
ENDBRANCH  42  44
ENDBRANCH  41  42
ENDBRANCH  40  41
ENDBRANCH  39  40
ENDBRANCH  38  39
ENDBRANCH  37  38
ENDBRANCH   1  37
TORSDOF 26
