REMARK SMILES Nc1ccc(S[C@@H](C(=O)OCCOCCOCCOCCOC(=O)c2ccc(-c3c4nc(c(-c5cccc(S(=O)(=O)[O-])c5F)c5ccc([nH]5)c(-c5cccc(S(=O)(=O)[O-])c5F)c5nc(c(-c6cccc(S(=O)(=O)[O-])c6F)c6ccc3[nH]6)C=C5)C=C4)cc2)C2CC2)cc1F
REMARK SMILES IDX 16 1 15 2 14 3 13 4 12 5 11 6 10 7 8 8 9 9 7 10 6 11 5 12
REMARK SMILES IDX 2 13 3 14 92 15 4 16 91 17 93 18 1 19 88 22 89 23 90 24
REMARK SMILES IDX 17 25 18 26 19 27 20 28 21 29 22 30 23 31 24 32 25 33 26 34
REMARK SMILES IDX 87 35 27 36 86 37 28 38 29 39 30 40 80 41 31 42 85 43 79 44
REMARK SMILES IDX 81 45 32 46 84 47 78 48 77 49 33 51 65 52 45 53 64 54 46 55
REMARK SMILES IDX 49 56 63 57 82 58 47 59 48 60 62 62 83 63 50 64 34 65 35 66
REMARK SMILES IDX 43 67 36 68 38 69 44 70 37 71 39 72 40 73 41 74 42 75 66 76
REMARK SMILES IDX 67 77 75 78 68 79 70 80 76 81 69 82 71 83 72 84 73 85 74 86
REMARK SMILES IDX 51 87 52 88 60 89 53 90 55 91 61 92 54 93 56 94 57 95 58 96
REMARK SMILES IDX 59 97
REMARK H PARENT 1 20 1 21 81 50 49 61
REMARK Flexibility Score: inf
ROOT
ATOM      1  O   UNL     1       1.619  -0.169  -3.056  1.00  0.00    -0.377 OA
ENDROOT
BRANCH   1   2
ATOM      2  C   UNL     1       2.509   0.190  -2.025  1.00  0.00     0.188 C 
BRANCH   2   3
ATOM      3  C   UNL     1       3.342   1.489  -1.942  1.00  0.00     0.188 C 
BRANCH   3   4
ATOM      4  O   UNL     1       3.997   1.945  -3.103  1.00  0.00    -0.376 OA
BRANCH   4   5
ATOM      5  C   UNL     1       5.124   1.284  -3.645  1.00  0.00     0.202 C 
BRANCH   5   6
ATOM      6  C   UNL     1       5.717  -0.034  -3.110  1.00  0.00     0.261 C 
BRANCH   6   7
ATOM      7  O   UNL     1       5.171  -0.549  -1.880  1.00  0.00    -0.462 OA
BRANCH   7   8
ATOM      8  C   UNL     1       5.883  -0.385  -0.747  1.00  0.00     0.319 C 
ATOM      9  O   UNL     1       7.015   0.095  -0.772  1.00  0.00    -0.251 OA
BRANCH   8  10
ATOM     10  C   UNL     1       5.209  -0.844   0.572  1.00  0.00     0.164 C 
BRANCH  10  11
ATOM     11  S   UNL     1       3.664  -1.883   0.541  1.00  0.00    -0.110 SA
BRANCH  11  12
ATOM     12  C   UNL     1       2.142  -1.011   0.973  1.00  0.00     0.011 A 
ATOM     13  C   UNL     1      -0.392   0.328   1.169  1.00  0.00     0.068 A 
ATOM     14  C   UNL     1       0.790   0.977   1.493  1.00  0.00     0.030 A 
ATOM     15  C   UNL     1      -0.309  -1.037   0.881  1.00  0.00     0.147 A 
ATOM     16  C   UNL     1       2.028   0.310   1.398  1.00  0.00     0.017 A 
ATOM     17  C   UNL     1       0.928  -1.695   0.764  1.00  0.00     0.056 A 
ATOM     18  F   UNL     1      -1.439  -1.717   0.622  1.00  0.00    -0.205 F 
BRANCH  13  19
ATOM     19  N   UNL     1      -1.605   1.009   1.207  1.00  0.00    -0.396 N 
ATOM     20  H   UNL     1      -1.623   1.971   1.413  1.00  0.00     0.156 HD
ATOM     21  H   UNL     1      -2.445   0.528   1.027  1.00  0.00     0.156 HD
ENDBRANCH  13  19
ENDBRANCH  11  12
ENDBRANCH  10  11
BRANCH  10  22
ATOM     22  C   UNL     1       5.333   0.060   1.776  1.00  0.00     0.014 C 
ATOM     23  C   UNL     1       6.447   1.089   1.900  1.00  0.00     0.006 C 
ATOM     24  C   UNL     1       5.033   1.547   1.823  1.00  0.00     0.006 C 
ENDBRANCH  10  22
ENDBRANCH   8  10
ENDBRANCH   7   8
ENDBRANCH   6   7
ENDBRANCH   5   6
ENDBRANCH   4   5
ENDBRANCH   3   4
ENDBRANCH   2   3
ENDBRANCH   1   2
BRANCH   1  25
ATOM     25  C   UNL     1       1.847   0.379  -4.325  1.00  0.00     0.188 C 
BRANCH  25  26
ATOM     26  C   UNL     1       1.237   1.778  -4.439  1.00  0.00     0.188 C 
BRANCH  26  27
ATOM     27  O   UNL     1       1.018   2.403  -3.181  1.00  0.00    -0.376 OA
BRANCH  27  28
ATOM     28  C   UNL     1      -0.243   2.259  -2.534  1.00  0.00     0.202 C 
BRANCH  28  29
ATOM     29  C   UNL     1      -0.932   0.897  -2.317  1.00  0.00     0.261 C 
BRANCH  29  30
ATOM     30  O   UNL     1      -1.044   0.005  -3.422  1.00  0.00    -0.460 OA
BRANCH  30  31
ATOM     31  C   UNL     1      -1.737   0.387  -4.503  1.00  0.00     0.338 C 
ATOM     32  O   UNL     1      -2.356   1.426  -4.663  1.00  0.00    -0.246 OA
BRANCH  31  33
ATOM     33  C   UNL     1      -1.388  -0.597  -5.542  1.00  0.00     0.060 A 
ATOM     34  C   UNL     1      -0.756  -0.138  -6.704  1.00  0.00     0.016 A 
ATOM     35  C   UNL     1      -1.577  -1.967  -5.318  1.00  0.00     0.016 A 
ATOM     36  C   UNL     1      -0.321  -1.049  -7.656  1.00  0.00     0.010 A 
ATOM     37  C   UNL     1      -1.179  -2.878  -6.293  1.00  0.00     0.010 A 
ATOM     38  C   UNL     1      -0.584  -2.412  -7.477  1.00  0.00    -0.014 A 
BRANCH  38  39
ATOM     39  C   UNL     1      -0.497  -3.295  -8.654  1.00  0.00     0.031 A 
ATOM     40  C   UNL     1      -1.755  -3.491  -9.450  1.00  0.00     0.074 A 
ATOM     41  C   UNL     1       0.666  -3.854  -9.022  1.00  0.00     0.049 A 
ATOM     42  N   UNL     1      -1.952  -4.200 -10.526  1.00  0.00    -0.248 NA
ATOM     43  C   UNL     1      -2.956  -2.784  -8.965  1.00  0.00     0.031 C 
ATOM     44  C   UNL     1       1.941  -3.694  -8.324  1.00  0.00     0.029 A 
ATOM     45  N   UNL     1       0.955  -4.685 -10.072  1.00  0.00    -0.354 N 
ATOM     46  C   UNL     1      -3.299  -4.050 -10.829  1.00  0.00     0.074 A 
ATOM     47  C   UNL     1      -3.877  -3.191  -9.823  1.00  0.00     0.031 C 
ATOM     48  C   UNL     1       2.874  -4.432  -8.952  1.00  0.00     0.029 A 
ATOM     49  C   UNL     1       2.253  -5.133 -10.073  1.00  0.00     0.049 A 
ATOM     50  H   UNL     1       0.296  -4.937 -10.758  1.00  0.00     0.167 HD
ATOM     51  C   UNL     1      -3.991  -4.577 -11.863  1.00  0.00     0.034 A 
ATOM     52  C   UNL     1       2.852  -6.032 -10.878  1.00  0.00     0.034 A 
ATOM     53  C   UNL     1      -3.398  -5.433 -12.850  1.00  0.00     0.049 A 
ATOM     54  C   UNL     1       2.048  -6.642 -11.998  1.00  0.00     0.074 A 
ATOM     55  C   UNL     1      -3.990  -6.008 -13.957  1.00  0.00     0.029 A 
ATOM     56  N   UNL     1      -2.075  -5.852 -12.833  1.00  0.00    -0.354 N 
ATOM     57  N   UNL     1       0.798  -6.423 -12.332  1.00  0.00    -0.248 NA
ATOM     58  C   UNL     1       2.743  -7.597 -12.872  1.00  0.00     0.031 C 
ATOM     59  C   UNL     1      -3.035  -6.814 -14.585  1.00  0.00     0.029 A 
ATOM     60  C   UNL     1      -1.834  -6.694 -13.902  1.00  0.00     0.049 A 
ATOM     61  H   UNL     1      -1.408  -5.589 -12.159  1.00  0.00     0.167 HD
ATOM     62  C   UNL     1       0.568  -7.176 -13.477  1.00  0.00     0.074 A 
ATOM     63  C   UNL     1       1.815  -7.849 -13.785  1.00  0.00     0.031 C 
ATOM     64  C   UNL     1      -0.567  -7.308 -14.207  1.00  0.00     0.034 A 
BRANCH  51  65
ATOM     65  C   UNL     1      -5.457  -4.253 -11.960  1.00  0.00     0.023 A 
ATOM     66  C   UNL     1      -5.873  -2.949 -12.300  1.00  0.00     0.012 A 
ATOM     67  C   UNL     1      -6.424  -5.251 -11.739  1.00  0.00     0.148 A 
ATOM     68  C   UNL     1      -7.229  -2.637 -12.385  1.00  0.00     0.002 A 
ATOM     69  C   UNL     1      -7.772  -4.946 -11.876  1.00  0.00     0.091 A 
ATOM     70  F   UNL     1      -6.008  -6.476 -11.386  1.00  0.00    -0.205 F 
ATOM     71  C   UNL     1      -8.177  -3.637 -12.184  1.00  0.00     0.022 A 
BRANCH  69  72
ATOM     72  S   UNL     1      -9.065  -6.181 -11.715  1.00  0.00     0.127 S 
ATOM     73  O   UNL     1      -9.747  -5.738 -10.500  1.00  0.00    -0.237 OA
ATOM     74  O   UNL     1      -9.826  -5.985 -12.949  1.00  0.00    -0.237 OA
ATOM     75  O   UNL     1      -8.387  -7.465 -11.614  1.00  0.00    -0.744 OA
ENDBRANCH  69  72
ENDBRANCH  51  65
BRANCH  52  76
ATOM     76  C   UNL     1       4.281  -6.397 -10.663  1.00  0.00     0.023 A 
ATOM     77  C   UNL     1       5.250  -6.033 -11.618  1.00  0.00     0.012 A 
ATOM     78  C   UNL     1       4.685  -7.092  -9.506  1.00  0.00     0.148 A 
ATOM     79  C   UNL     1       6.590  -6.384 -11.440  1.00  0.00     0.002 A 
ATOM     80  C   UNL     1       6.027  -7.389  -9.308  1.00  0.00     0.091 A 
ATOM     81  F   UNL     1       3.745  -7.441  -8.616  1.00  0.00    -0.205 F 
ATOM     82  C   UNL     1       6.980  -7.053 -10.283  1.00  0.00     0.022 A 
BRANCH  80  83
ATOM     83  S   UNL     1       6.638  -8.134  -7.793  1.00  0.00     0.127 S 
ATOM     84  O   UNL     1       7.081  -9.445  -8.261  1.00  0.00    -0.237 OA
ATOM     85  O   UNL     1       7.715  -7.216  -7.421  1.00  0.00    -0.237 OA
ATOM     86  O   UNL     1       5.509  -8.141  -6.872  1.00  0.00    -0.744 OA
ENDBRANCH  80  83
ENDBRANCH  52  76
BRANCH  64  87
ATOM     87  C   UNL     1      -0.505  -8.160 -15.447  1.00  0.00     0.023 A 
ATOM     88  C   UNL     1      -0.415  -9.561 -15.343  1.00  0.00     0.012 A 
ATOM     89  C   UNL     1      -0.628  -7.563 -16.717  1.00  0.00     0.148 A 
ATOM     90  C   UNL     1      -0.414 -10.354 -16.489  1.00  0.00     0.002 A 
ATOM     91  C   UNL     1      -0.685  -8.363 -17.850  1.00  0.00     0.091 A 
ATOM     92  F   UNL     1      -0.699  -6.226 -16.792  1.00  0.00    -0.205 F 
ATOM     93  C   UNL     1      -0.562  -9.758 -17.739  1.00  0.00     0.022 A 
BRANCH  91  94
ATOM     94  S   UNL     1      -0.982  -7.691 -19.488  1.00  0.00     0.127 S 
ATOM     95  O   UNL     1       0.310  -7.908 -20.137  1.00  0.00    -0.237 OA
ATOM     96  O   UNL     1      -2.063  -8.545 -19.980  1.00  0.00    -0.237 OA
ATOM     97  O   UNL     1      -1.353  -6.296 -19.292  1.00  0.00    -0.744 OA
ENDBRANCH  91  94
ENDBRANCH  64  87
ENDBRANCH  38  39
ENDBRANCH  31  33
ENDBRANCH  30  31
ENDBRANCH  29  30
ENDBRANCH  28  29
ENDBRANCH  27  28
ENDBRANCH  26  27
ENDBRANCH  25  26
ENDBRANCH   1  25
TORSDOF 27
