REMARK SMILES CC[NH2+][C@@]1(C(=O)OCCOCCOCCOCCOC(=O)c2ccc(-c3c4nc(c(-c5cccc(S(=O)(=O)[O-])c5F)c5ccc([nH]5)c(-c5cccc(S(=O)(=O)[O-])c5F)c5nc(c(-c6cccc(S(=O)(=O)[O-])c6F)c6ccc3[nH]6)C=C5)C=C4)cc2)CCC[C@H]1CCN1C(=O)CCC1=O
REMARK SMILES IDX 13 1 12 2 11 3 10 4 9 5 8 6 7 7 5 8 6 9 4 10 85 11 88 12
REMARK SMILES IDX 86 13 87 14 3 15 2 18 1 19 89 20 90 21 91 22 92 23 96 24
REMARK SMILES IDX 93 25 94 26 95 27 97 28 14 29 15 30 16 31 17 32 18 33 19 34
REMARK SMILES IDX 20 35 21 36 22 37 23 38 84 39 24 40 83 41 25 42 26 43 27 44
REMARK SMILES IDX 77 45 28 46 82 47 76 48 78 49 29 50 81 51 75 52 74 53 30 55
REMARK SMILES IDX 62 56 42 57 61 58 43 59 46 60 60 61 79 62 44 63 45 64 59 66
REMARK SMILES IDX 80 67 47 68 31 69 32 70 40 71 33 72 35 73 41 74 34 75 36 76
REMARK SMILES IDX 37 77 38 78 39 79 63 80 64 81 72 82 65 83 67 84 73 85 66 86
REMARK SMILES IDX 68 87 69 88 70 89 71 90 48 91 49 92 57 93 50 94 52 95 58 96
REMARK SMILES IDX 51 97 53 98 54 99 55 100 56 101
REMARK H PARENT 3 16 3 17 78 54 46 65
REMARK Flexibility Score: inf
ROOT
ATOM      1  O   UNL     1      -2.346  -4.856   1.319  1.00  0.00    -0.377 OA
ENDROOT
BRANCH   1   2
ATOM      2  C   UNL     1      -1.964  -3.571   1.776  1.00  0.00     0.188 C 
BRANCH   2   3
ATOM      3  C   UNL     1      -2.514  -2.386   0.979  1.00  0.00     0.188 C 
BRANCH   3   4
ATOM      4  O   UNL     1      -3.770  -2.641   0.372  1.00  0.00    -0.376 OA
BRANCH   4   5
ATOM      5  C   UNL     1      -3.765  -2.835  -1.038  1.00  0.00     0.202 C 
BRANCH   5   6
ATOM      6  C   UNL     1      -2.976  -4.025  -1.615  1.00  0.00     0.261 C 
BRANCH   6   7
ATOM      7  O   UNL     1      -1.643  -4.188  -1.091  1.00  0.00    -0.459 OA
BRANCH   7   8
ATOM      8  C   UNL     1      -0.643  -3.518  -1.695  1.00  0.00     0.368 C 
ATOM      9  O   UNL     1      -0.816  -2.820  -2.693  1.00  0.00    -0.245 OA
BRANCH   8  10
ATOM     10  C   UNL     1       0.758  -3.679  -0.976  1.00  0.00     0.197 C 
ATOM     11  C   UNL     1       1.703  -4.213  -2.069  1.00  0.00     0.081 C 
ATOM     12  C   UNL     1       0.914  -4.810   0.111  1.00  0.00     0.064 C 
ATOM     13  C   UNL     1       1.336  -5.694  -2.152  1.00  0.00     0.008 C 
ATOM     14  C   UNL     1       1.009  -6.114  -0.723  1.00  0.00     0.011 C 
BRANCH  10  15
ATOM     15  N   UNL     1       1.203  -2.394  -0.386  1.00  0.00    -0.332 N 
ATOM     16  H   UNL     1       0.894  -2.388   0.586  1.00  0.00     0.347 HD
ATOM     17  H   UNL     1       2.211  -2.387  -0.542  1.00  0.00     0.347 HD
BRANCH  15  18
ATOM     18  C   UNL     1       0.744  -1.148  -0.989  1.00  0.00     0.257 C 
ATOM     19  C   UNL     1       1.245   0.013  -0.140  1.00  0.00     0.071 C 
ENDBRANCH  15  18
ENDBRANCH  10  15
BRANCH  12  20
ATOM     20  C   UNL     1       2.163  -4.764   1.060  1.00  0.00     0.033 C 
BRANCH  20  21
ATOM     21  C   UNL     1       2.373  -3.639   2.099  1.00  0.00     0.129 C 
BRANCH  21  22
ATOM     22  N   UNL     1       1.432  -3.517   3.198  1.00  0.00    -0.283 N 
ATOM     23  C   UNL     1       1.049  -2.298   3.697  1.00  0.00     0.229 C 
ATOM     24  C   UNL     1       1.151  -4.521   4.079  1.00  0.00     0.229 C 
ATOM     25  O   UNL     1       1.327  -1.192   3.258  1.00  0.00    -0.274 OA
ATOM     26  C   UNL     1       0.323  -2.498   4.995  1.00  0.00     0.110 C 
ATOM     27  C   UNL     1       0.189  -3.996   5.098  1.00  0.00     0.110 C 
ATOM     28  O   UNL     1       1.602  -5.655   4.087  1.00  0.00    -0.274 OA
ENDBRANCH  21  22
ENDBRANCH  20  21
ENDBRANCH  12  20
ENDBRANCH   8  10
ENDBRANCH   7   8
ENDBRANCH   6   7
ENDBRANCH   5   6
ENDBRANCH   4   5
ENDBRANCH   3   4
ENDBRANCH   2   3
ENDBRANCH   1   2
BRANCH   1  29
ATOM     29  C   UNL     1      -3.636  -5.370   1.643  1.00  0.00     0.188 C 
BRANCH  29  30
ATOM     30  C   UNL     1      -4.709  -4.473   2.291  1.00  0.00     0.188 C 
BRANCH  30  31
ATOM     31  O   UNL     1      -4.213  -3.537   3.233  1.00  0.00    -0.376 OA
BRANCH  31  32
ATOM     32  C   UNL     1      -4.118  -3.891   4.602  1.00  0.00     0.202 C 
BRANCH  32  33
ATOM     33  C   UNL     1      -3.452  -5.212   5.001  1.00  0.00     0.261 C 
BRANCH  33  34
ATOM     34  O   UNL     1      -4.012  -6.420   4.501  1.00  0.00    -0.460 OA
BRANCH  34  35
ATOM     35  C   UNL     1      -5.330  -6.638   4.609  1.00  0.00     0.338 C 
ATOM     36  O   UNL     1      -6.162  -5.955   5.179  1.00  0.00    -0.246 OA
BRANCH  35  37
ATOM     37  C   UNL     1      -5.592  -7.748   3.681  1.00  0.00     0.060 A 
ATOM     38  C   UNL     1      -6.575  -7.594   2.696  1.00  0.00     0.016 A 
ATOM     39  C   UNL     1      -4.806  -8.904   3.750  1.00  0.00     0.016 A 
ATOM     40  C   UNL     1      -6.834  -8.641   1.823  1.00  0.00     0.010 A 
ATOM     41  C   UNL     1      -5.069  -9.953   2.883  1.00  0.00     0.010 A 
ATOM     42  C   UNL     1      -6.129  -9.842   1.969  1.00  0.00    -0.014 A 
BRANCH  42  43
ATOM     43  C   UNL     1      -6.699 -11.078   1.410  1.00  0.00     0.031 A 
ATOM     44  C   UNL     1      -7.511 -11.932   2.342  1.00  0.00     0.074 A 
ATOM     45  C   UNL     1      -6.482 -11.428   0.134  1.00  0.00     0.049 A 
ATOM     46  N   UNL     1      -8.037 -13.108   2.143  1.00  0.00    -0.248 NA
ATOM     47  C   UNL     1      -7.747 -11.389   3.695  1.00  0.00     0.031 C 
ATOM     48  C   UNL     1      -5.721 -10.649  -0.840  1.00  0.00     0.029 A 
ATOM     49  N   UNL     1      -6.861 -12.553  -0.546  1.00  0.00    -0.354 N 
ATOM     50  C   UNL     1      -8.624 -13.463   3.351  1.00  0.00     0.074 A 
ATOM     51  C   UNL     1      -8.381 -12.389   4.284  1.00  0.00     0.031 C 
ATOM     52  C   UNL     1      -5.658 -11.340  -1.991  1.00  0.00     0.029 A 
ATOM     53  C   UNL     1      -6.343 -12.619  -1.816  1.00  0.00     0.049 A 
ATOM     54  H   UNL     1      -7.447 -13.246  -0.164  1.00  0.00     0.167 HD
ATOM     55  C   UNL     1      -9.314 -14.585   3.651  1.00  0.00     0.034 A 
ATOM     56  C   UNL     1      -6.392 -13.624  -2.711  1.00  0.00     0.034 A 
ATOM     57  C   UNL     1      -9.550 -15.636   2.703  1.00  0.00     0.049 A 
ATOM     58  C   UNL     1      -7.144 -14.877  -2.347  1.00  0.00     0.074 A 
ATOM     59  C   UNL     1     -10.268 -16.803   2.873  1.00  0.00     0.029 A 
ATOM     60  N   UNL     1      -9.052 -15.649   1.408  1.00  0.00    -0.354 N 
ATOM     61  N   UNL     1      -7.774 -15.169  -1.233  1.00  0.00    -0.248 NA
ATOM     62  C   UNL     1      -7.221 -15.927  -3.371  1.00  0.00     0.031 C 
ATOM     63  C   UNL     1     -10.168 -17.544   1.692  1.00  0.00     0.029 A 
ATOM     64  C   UNL     1      -9.437 -16.811   0.768  1.00  0.00     0.049 A 
ATOM     65  H   UNL     1      -8.506 -14.936   1.005  1.00  0.00     0.167 HD
ATOM     66  C   UNL     1      -8.363 -16.411  -1.439  1.00  0.00     0.074 A 
ATOM     67  C   UNL     1      -8.017 -16.813  -2.788  1.00  0.00     0.031 C 
ATOM     68  C   UNL     1      -9.119 -17.155  -0.594  1.00  0.00     0.034 A 
BRANCH  55  69
ATOM     69  C   UNL     1      -9.844 -14.728   5.052  1.00  0.00     0.023 A 
ATOM     70  C   UNL     1     -10.893 -13.899   5.502  1.00  0.00     0.012 A 
ATOM     71  C   UNL     1      -9.316 -15.705   5.918  1.00  0.00     0.148 A 
ATOM     72  C   UNL     1     -11.380 -14.013   6.804  1.00  0.00     0.002 A 
ATOM     73  C   UNL     1      -9.843 -15.849   7.195  1.00  0.00     0.091 A 
ATOM     74  F   UNL     1      -8.300 -16.463   5.483  1.00  0.00    -0.205 F 
ATOM     75  C   UNL     1     -10.863 -14.995   7.645  1.00  0.00     0.022 A 
BRANCH  73  76
ATOM     76  S   UNL     1      -9.302 -17.135   8.325  1.00  0.00     0.127 S 
ATOM     77  O   UNL     1      -8.640 -16.353   9.368  1.00  0.00    -0.237 OA
ATOM     78  O   UNL     1     -10.572 -17.739   8.729  1.00  0.00    -0.237 OA
ATOM     79  O   UNL     1      -8.430 -18.009   7.554  1.00  0.00    -0.744 OA
ENDBRANCH  73  76
ENDBRANCH  55  69
BRANCH  56  80
ATOM     80  C   UNL     1      -5.731 -13.472  -4.036  1.00  0.00     0.023 A 
ATOM     81  C   UNL     1      -6.517 -13.370  -5.199  1.00  0.00     0.012 A 
ATOM     82  C   UNL     1      -4.328 -13.400  -4.145  1.00  0.00     0.148 A 
ATOM     83  C   UNL     1      -5.917 -13.233  -6.452  1.00  0.00     0.002 A 
ATOM     84  C   UNL     1      -3.739 -13.208  -5.388  1.00  0.00     0.091 A 
ATOM     85  F   UNL     1      -3.599 -13.506  -3.025  1.00  0.00    -0.205 F 
ATOM     86  C   UNL     1      -4.530 -13.143  -6.545  1.00  0.00     0.022 A 
BRANCH  84  87
ATOM     87  S   UNL     1      -1.973 -12.957  -5.592  1.00  0.00     0.127 S 
ATOM     88  O   UNL     1      -1.584 -14.157  -6.329  1.00  0.00    -0.237 OA
ATOM     89  O   UNL     1      -1.936 -11.718  -6.369  1.00  0.00    -0.237 OA
ATOM     90  O   UNL     1      -1.430 -12.841  -4.246  1.00  0.00    -0.744 OA
ENDBRANCH  84  87
ENDBRANCH  56  80
BRANCH  68  91
ATOM     91  C   UNL     1      -9.694 -18.443  -1.119  1.00  0.00     0.023 A 
ATOM     92  C   UNL     1      -8.865 -19.561  -1.327  1.00  0.00     0.012 A 
ATOM     93  C   UNL     1     -11.086 -18.564  -1.305  1.00  0.00     0.148 A 
ATOM     94  C   UNL     1      -9.411 -20.774  -1.744  1.00  0.00     0.002 A 
ATOM     95  C   UNL     1     -11.628 -19.789  -1.664  1.00  0.00     0.091 A 
ATOM     96  F   UNL     1     -11.852 -17.480  -1.113  1.00  0.00    -0.205 F 
ATOM     97  C   UNL     1     -10.791 -20.892  -1.898  1.00  0.00     0.022 A 
BRANCH  95  98
ATOM     98  S   UNL     1     -13.399 -20.061  -1.776  1.00  0.00     0.127 S 
ATOM     99  O   UNL     1     -13.579 -20.256  -3.214  1.00  0.00    -0.237 OA
ATOM    100  O   UNL     1     -13.577 -21.269  -0.970  1.00  0.00    -0.237 OA
ATOM    101  O   UNL     1     -14.028 -18.867  -1.228  1.00  0.00    -0.744 OA
ENDBRANCH  95  98
ENDBRANCH  68  91
ENDBRANCH  42  43
ENDBRANCH  35  37
ENDBRANCH  34  35
ENDBRANCH  33  34
ENDBRANCH  32  33
ENDBRANCH  31  32
ENDBRANCH  30  31
ENDBRANCH  29  30
ENDBRANCH   1  29
TORSDOF 28
