REMARK SMILES C[C@]12C(=O)N(c3ccc(C(=O)OCCOCCOCCOCCOC(=O)c4ccc(-c5c6nc(c(-c7cccc(S(=O)(=O)[O-])c7F)c7ccc([nH]7)c(-c7cccc(S(=O)(=O)[O-])c7F)c7nc(c(-c8cccc(S(=O)(=O)[O-])c8F)c8ccc5[nH]8)C=C7)C=C6)cc4)cc3)C(=O)[C@H]1[C@H]1c3ccccc3[C@@H]2c2ccccc21
REMARK SMILES IDX 19 1 18 2 17 3 16 4 15 5 14 6 13 7 12 8 10 9 11 10 9 11 6 12
REMARK SMILES IDX 7 13 91 14 8 15 90 16 5 17 1 18 2 19 3 20 94 21 102 22 4 23
REMARK SMILES IDX 92 24 95 25 101 26 103 27 93 28 96 29 108 30 100 31 104 32
REMARK SMILES IDX 97 33 107 34 99 35 105 36 98 37 106 38 20 39 21 40 22 41
REMARK SMILES IDX 23 42 24 43 25 44 26 45 27 46 28 47 89 48 29 49 88 50 30 51
REMARK SMILES IDX 31 52 32 53 82 54 33 55 87 56 81 57 83 58 34 59 86 60 80 61
REMARK SMILES IDX 79 62 35 64 67 65 47 66 66 67 48 68 51 69 65 70 84 71 49 72
REMARK SMILES IDX 50 73 64 75 85 76 52 77 36 78 37 79 45 80 38 81 40 82 46 83
REMARK SMILES IDX 39 84 41 85 42 86 43 87 44 88 68 89 69 90 77 91 70 92 72 93
REMARK SMILES IDX 78 94 71 95 73 96 74 97 75 98 76 99 53 100 54 101 62 102
REMARK SMILES IDX 55 103 57 104 63 105 56 106 58 107 59 108 60 109 61 110
REMARK H PARENT 83 63 51 74
REMARK Flexibility Score: inf
ROOT
ATOM      1  C   UNL     1      -6.394  -5.628  -6.130  1.00  0.00     0.188 C 
ENDROOT
BRANCH   1   2
ATOM      2  O   UNL     1      -5.625  -6.005  -4.996  1.00  0.00    -0.377 OA
BRANCH   2   3
ATOM      3  C   UNL     1      -4.242  -5.727  -5.068  1.00  0.00     0.188 C 
BRANCH   3   4
ATOM      4  C   UNL     1      -3.369  -6.957  -5.387  1.00  0.00     0.188 C 
BRANCH   4   5
ATOM      5  O   UNL     1      -3.949  -8.216  -5.714  1.00  0.00    -0.376 OA
BRANCH   5   6
ATOM      6  C   UNL     1      -5.084  -8.698  -5.002  1.00  0.00     0.202 C 
BRANCH   6   7
ATOM      7  C   UNL     1      -5.050  -8.799  -3.468  1.00  0.00     0.261 C 
BRANCH   7   8
ATOM      8  O   UNL     1      -4.663  -7.593  -2.792  1.00  0.00    -0.460 OA
BRANCH   8   9
ATOM      9  C   UNL     1      -3.508  -7.659  -2.095  1.00  0.00     0.338 C 
ATOM     10  O   UNL     1      -2.789  -8.630  -1.929  1.00  0.00    -0.246 OA
BRANCH   9  11
ATOM     11  C   UNL     1      -3.076  -6.296  -1.734  1.00  0.00     0.060 A 
ATOM     12  C   UNL     1      -2.015  -3.792  -1.000  1.00  0.00     0.052 A 
ATOM     13  C   UNL     1      -1.365  -4.612  -1.939  1.00  0.00     0.028 A 
ATOM     14  C   UNL     1      -3.264  -4.214  -0.516  1.00  0.00     0.028 A 
ATOM     15  C   UNL     1      -1.856  -5.873  -2.255  1.00  0.00     0.018 A 
ATOM     16  C   UNL     1      -3.812  -5.450  -0.905  1.00  0.00     0.018 A 
BRANCH  12  17
ATOM     17  N   UNL     1      -1.283  -2.708  -0.435  1.00  0.00    -0.250 N 
ATOM     18  C   UNL     1       1.183  -0.197  -0.352  1.00  0.00     0.024 C 
ATOM     19  C   UNL     1       0.753  -1.627   0.003  1.00  0.00     0.071 C 
ATOM     20  C   UNL     1      -0.187  -2.147  -1.050  1.00  0.00     0.241 C 
ATOM     21  C   UNL     1      -0.093  -1.669   1.310  1.00  0.00     0.107 C 
ATOM     22  C   UNL     1       1.959  -2.632   0.105  1.00  0.00     0.066 C 
ATOM     23  O   UNL     1       0.060  -2.073  -2.248  1.00  0.00    -0.273 OA
ATOM     24  C   UNL     1      -1.412  -2.278   0.871  1.00  0.00     0.238 C 
ATOM     25  C   UNL     1       0.613  -2.576   2.372  1.00  0.00     0.063 C 
ATOM     26  C   UNL     1       1.417  -4.006   0.530  1.00  0.00    -0.036 A 
ATOM     27  C   UNL     1       2.791  -2.135   1.279  1.00  0.00    -0.036 A 
ATOM     28  O   UNL     1      -2.361  -2.397   1.634  1.00  0.00    -0.274 OA
ATOM     29  C   UNL     1       0.695  -3.974   1.753  1.00  0.00    -0.036 A 
ATOM     30  C   UNL     1       2.064  -2.085   2.500  1.00  0.00    -0.036 A 
ATOM     31  C   UNL     1       1.527  -5.188  -0.188  1.00  0.00     0.005 A 
ATOM     32  C   UNL     1       4.139  -1.814   1.223  1.00  0.00     0.005 A 
ATOM     33  C   UNL     1       0.064  -5.111   2.240  1.00  0.00     0.004 A 
ATOM     34  C   UNL     1       2.709  -1.718   3.671  1.00  0.00     0.004 A 
ATOM     35  C   UNL     1       0.884  -6.329   0.302  1.00  0.00     0.000 A 
ATOM     36  C   UNL     1       4.778  -1.441   2.402  1.00  0.00     0.000 A 
ATOM     37  C   UNL     1       0.156  -6.290   1.501  1.00  0.00     0.000 A 
ATOM     38  C   UNL     1       4.070  -1.395   3.614  1.00  0.00     0.000 A 
ENDBRANCH  12  17
ENDBRANCH   9  11
ENDBRANCH   8   9
ENDBRANCH   7   8
ENDBRANCH   6   7
ENDBRANCH   5   6
ENDBRANCH   4   5
ENDBRANCH   3   4
ENDBRANCH   2   3
ENDBRANCH   1   2
BRANCH   1  39
ATOM     39  C   UNL     1      -5.835  -5.998  -7.514  1.00  0.00     0.188 C 
BRANCH  39  40
ATOM     40  O   UNL     1      -4.619  -5.314  -7.833  1.00  0.00    -0.376 OA
BRANCH  40  41
ATOM     41  C   UNL     1      -4.739  -4.202  -8.719  1.00  0.00     0.202 C 
BRANCH  41  42
ATOM     42  C   UNL     1      -5.152  -2.891  -8.032  1.00  0.00     0.261 C 
BRANCH  42  43
ATOM     43  O   UNL     1      -6.482  -2.869  -7.491  1.00  0.00    -0.460 OA
BRANCH  43  44
ATOM     44  C   UNL     1      -7.511  -3.124  -8.334  1.00  0.00     0.338 C 
ATOM     45  O   UNL     1      -7.446  -3.280  -9.535  1.00  0.00    -0.246 OA
BRANCH  44  46
ATOM     46  C   UNL     1      -8.711  -3.388  -7.505  1.00  0.00     0.060 A 
ATOM     47  C   UNL     1      -9.056  -2.540  -6.448  1.00  0.00     0.016 A 
ATOM     48  C   UNL     1      -9.480  -4.526  -7.779  1.00  0.00     0.016 A 
ATOM     49  C   UNL     1     -10.194  -2.813  -5.686  1.00  0.00     0.010 A 
ATOM     50  C   UNL     1     -10.613  -4.802  -7.010  1.00  0.00     0.010 A 
ATOM     51  C   UNL     1     -10.991  -3.934  -5.975  1.00  0.00    -0.014 A 
BRANCH  51  52
ATOM     52  C   UNL     1     -12.320  -4.071  -5.331  1.00  0.00     0.031 A 
ATOM     53  C   UNL     1     -12.561  -4.984  -4.169  1.00  0.00     0.074 A 
ATOM     54  C   UNL     1     -13.334  -3.348  -5.844  1.00  0.00     0.049 A 
ATOM     55  N   UNL     1     -13.650  -5.123  -3.457  1.00  0.00    -0.248 NA
ATOM     56  C   UNL     1     -11.452  -5.853  -3.750  1.00  0.00     0.031 C 
ATOM     57  C   UNL     1     -13.228  -2.470  -7.012  1.00  0.00     0.029 A 
ATOM     58  N   UNL     1     -14.645  -3.238  -5.460  1.00  0.00    -0.354 N 
ATOM     59  C   UNL     1     -13.366  -6.093  -2.506  1.00  0.00     0.074 A 
ATOM     60  C   UNL     1     -12.003  -6.523  -2.742  1.00  0.00     0.031 C 
ATOM     61  C   UNL     1     -14.422  -1.907  -7.245  1.00  0.00     0.029 A 
ATOM     62  C   UNL     1     -15.376  -2.384  -6.249  1.00  0.00     0.049 A 
ATOM     63  H   UNL     1     -15.025  -3.724  -4.693  1.00  0.00     0.167 HD
ATOM     64  C   UNL     1     -14.164  -6.558  -1.515  1.00  0.00     0.034 A 
ATOM     65  C   UNL     1     -16.667  -2.011  -6.175  1.00  0.00     0.034 A 
ATOM     66  C   UNL     1     -15.513  -6.113  -1.276  1.00  0.00     0.049 A 
ATOM     67  C   UNL     1     -17.521  -2.529  -5.057  1.00  0.00     0.074 A 
ATOM     68  C   UNL     1     -16.365  -6.476  -0.245  1.00  0.00     0.029 A 
ATOM     69  N   UNL     1     -16.213  -5.225  -2.076  1.00  0.00    -0.354 N 
ATOM     70  N   UNL     1     -17.186  -3.324  -4.071  1.00  0.00    -0.248 NA
ATOM     71  C   UNL     1     -18.919  -2.077  -5.020  1.00  0.00     0.031 C 
ATOM     72  C   UNL     1     -17.584  -5.814  -0.429  1.00  0.00     0.029 A 
ATOM     73  C   UNL     1     -17.489  -5.036  -1.571  1.00  0.00     0.049 A 
ATOM     74  H   UNL     1     -15.856  -4.792  -2.885  1.00  0.00     0.167 HD
ATOM     75  C   UNL     1     -18.324  -3.457  -3.287  1.00  0.00     0.074 A 
ATOM     76  C   UNL     1     -19.354  -2.644  -3.901  1.00  0.00     0.031 C 
ATOM     77  C   UNL     1     -18.498  -4.199  -2.167  1.00  0.00     0.034 A 
BRANCH  64  78
ATOM     78  C   UNL     1     -13.587  -7.554  -0.547  1.00  0.00     0.023 A 
ATOM     79  C   UNL     1     -12.775  -7.083   0.503  1.00  0.00     0.012 A 
ATOM     80  C   UNL     1     -13.951  -8.914  -0.589  1.00  0.00     0.148 A 
ATOM     81  C   UNL     1     -12.328  -7.952   1.498  1.00  0.00     0.002 A 
ATOM     82  C   UNL     1     -13.522  -9.770   0.419  1.00  0.00     0.091 A 
ATOM     83  F   UNL     1     -14.719  -9.338  -1.603  1.00  0.00    -0.205 F 
ATOM     84  C   UNL     1     -12.710  -9.291   1.462  1.00  0.00     0.022 A 
BRANCH  82  85
ATOM     85  S   UNL     1     -13.997 -11.501   0.500  1.00  0.00     0.127 S 
ATOM     86  O   UNL     1     -12.714 -12.168   0.283  1.00  0.00    -0.237 OA
ATOM     87  O   UNL     1     -14.520 -11.613   1.861  1.00  0.00    -0.237 OA
ATOM     88  O   UNL     1     -14.983 -11.698  -0.553  1.00  0.00    -0.744 OA
ENDBRANCH  82  85
ENDBRANCH  64  78
BRANCH  65  89
ATOM     89  C   UNL     1     -17.186  -1.019  -7.152  1.00  0.00     0.023 A 
ATOM     90  C   UNL     1     -17.346   0.319  -6.747  1.00  0.00     0.012 A 
ATOM     91  C   UNL     1     -17.424  -1.374  -8.493  1.00  0.00     0.148 A 
ATOM     92  C   UNL     1     -17.742   1.291  -7.665  1.00  0.00     0.002 A 
ATOM     93  C   UNL     1     -17.780  -0.394  -9.410  1.00  0.00     0.091 A 
ATOM     94  F   UNL     1     -17.261  -2.657  -8.847  1.00  0.00    -0.205 F 
ATOM     95  C   UNL     1     -17.949   0.938  -8.996  1.00  0.00     0.022 A 
BRANCH  93  96
ATOM     96  S   UNL     1     -17.962  -0.728 -11.165  1.00  0.00     0.127 S 
ATOM     97  O   UNL     1     -19.385  -0.466 -11.372  1.00  0.00    -0.237 OA
ATOM     98  O   UNL     1     -17.061   0.263 -11.752  1.00  0.00    -0.237 OA
ATOM     99  O   UNL     1     -17.547  -2.111 -11.351  1.00  0.00    -0.744 OA
ENDBRANCH  93  96
ENDBRANCH  65  89
BRANCH  77 100
ATOM    100  C   UNL     1     -19.858  -4.189  -1.526  1.00  0.00     0.023 A 
ATOM    101  C   UNL     1     -20.886  -4.974  -2.086  1.00  0.00     0.012 A 
ATOM    102  C   UNL     1     -20.092  -3.492  -0.325  1.00  0.00     0.148 A 
ATOM    103  C   UNL     1     -22.131  -5.056  -1.465  1.00  0.00     0.002 A 
ATOM    104  C   UNL     1     -21.326  -3.603   0.305  1.00  0.00     0.091 A 
ATOM    105  F   UNL     1     -19.102  -2.742   0.180  1.00  0.00    -0.205 F 
ATOM    106  C   UNL     1     -22.348  -4.381  -0.266  1.00  0.00     0.022 A 
BRANCH 104 107
ATOM    107  S   UNL     1     -21.681  -2.828   1.887  1.00  0.00     0.127 S 
ATOM    108  O   UNL     1     -22.656  -1.808   1.505  1.00  0.00    -0.237 OA
ATOM    109  O   UNL     1     -22.233  -3.941   2.660  1.00  0.00    -0.237 OA
ATOM    110  O   UNL     1     -20.409  -2.318   2.380  1.00  0.00    -0.744 OA
ENDBRANCH 104 107
ENDBRANCH  77 100
ENDBRANCH  51  52
ENDBRANCH  44  46
ENDBRANCH  43  44
ENDBRANCH  42  43
ENDBRANCH  41  42
ENDBRANCH  40  41
ENDBRANCH  39  40
ENDBRANCH   1  39
TORSDOF 24
