REMARK SMILES COC(=O)[C@]1(C)C[C@H](C(=O)OCCOCCOCCOCCOC(=O)c2ccc(-c3c4nc(c(-c5cccc(S(=O)(=O)[O-])c5F)c5ccc([nH]5)c(-c5cccc(S(=O)(=O)[O-])c5F)c5nc(c(-c6cccc(S(=O)(=O)[O-])c6F)c6ccc3[nH]6)C=C5)C=C4)cc2)[C@H](c2ccccc2F)[N@@H+]1C
REMARK SMILES IDX 18 1 17 2 16 3 15 4 14 5 13 6 12 7 11 8 9 9 10 10 8 11 5 12
REMARK SMILES IDX 7 13 97 14 6 15 89 16 98 17 3 19 4 20 2 21 1 22 90 23 91 24
REMARK SMILES IDX 95 25 92 26 94 27 96 28 93 29 19 30 20 31 21 32 22 33 23 34
REMARK SMILES IDX 24 35 25 36 26 37 27 38 88 39 28 40 87 41 29 42 30 43 31 44
REMARK SMILES IDX 81 45 32 46 86 47 80 48 82 49 33 50 85 51 79 52 78 53 34 55
REMARK SMILES IDX 66 56 46 57 65 58 47 59 50 60 64 61 83 62 48 63 49 64 63 66
REMARK SMILES IDX 84 67 51 68 35 69 36 70 44 71 37 72 39 73 45 74 38 75 40 76
REMARK SMILES IDX 41 77 42 78 43 79 67 80 68 81 76 82 69 83 71 84 77 85 70 86
REMARK SMILES IDX 72 87 73 88 74 89 75 90 52 91 53 92 61 93 54 94 56 95 62 96
REMARK SMILES IDX 55 97 57 98 58 99 59 100 60 101
REMARK H PARENT 97 18 82 54 50 65
REMARK Flexibility Score: inf
ROOT
ATOM      1  C   UNL     1      -0.017  -3.990  -8.153  1.00  0.00     0.188 C 
ENDROOT
BRANCH   1   2
ATOM      2  O   UNL     1      -0.475  -3.233  -7.040  1.00  0.00    -0.377 OA
BRANCH   2   3
ATOM      3  C   UNL     1      -1.568  -2.354  -7.202  1.00  0.00     0.188 C 
BRANCH   3   4
ATOM      4  C   UNL     1      -1.471  -1.274  -8.302  1.00  0.00     0.188 C 
BRANCH   4   5
ATOM      5  O   UNL     1      -0.423  -1.464  -9.245  1.00  0.00    -0.376 OA
BRANCH   5   6
ATOM      6  C   UNL     1       0.719  -0.623  -9.146  1.00  0.00     0.202 C 
BRANCH   6   7
ATOM      7  C   UNL     1       1.579  -0.788  -7.885  1.00  0.00     0.261 C 
BRANCH   7   8
ATOM      8  O   UNL     1       0.829  -0.633  -6.675  1.00  0.00    -0.463 OA
BRANCH   8   9
ATOM      9  C   UNL     1       0.356   0.620  -6.457  1.00  0.00     0.315 C 
ATOM     10  O   UNL     1       0.657   1.575  -7.154  1.00  0.00    -0.252 OA
BRANCH   9  11
ATOM     11  C   UNL     1      -0.677   0.588  -5.331  1.00  0.00     0.169 C 
ATOM     12  C   UNL     1       0.685   1.215  -3.498  1.00  0.00     0.194 C 
ATOM     13  C   UNL     1      -0.103   0.020  -4.049  1.00  0.00     0.103 C 
ATOM     14  N   UNL     1      -0.235   2.353  -3.855  1.00  0.00    -0.316 N 
ATOM     15  C   UNL     1       0.876   1.066  -1.981  1.00  0.00     0.092 C 
ATOM     16  C   UNL     1      -1.182   1.977  -4.922  1.00  0.00     0.233 C 
ATOM     17  C   UNL     1       0.300   3.683  -3.759  1.00  0.00     0.334 C 
ATOM     18  H   UNL     1      -0.871   2.511  -3.074  1.00  0.00     0.349 HD
BRANCH  12  19
ATOM     19  C   UNL     1       2.094   1.258  -4.180  1.00  0.00     0.367 C 
ATOM     20  O   UNL     1       2.606   2.220  -4.735  1.00  0.00    -0.245 OA
BRANCH  19  21
ATOM     21  O   UNL     1       2.682   0.024  -4.103  1.00  0.00    -0.464 OA
ATOM     22  C   UNL     1       3.916  -0.122  -4.812  1.00  0.00     0.282 C 
ENDBRANCH  19  21
ENDBRANCH  12  19
BRANCH  16  23
ATOM     23  C   UNL     1      -1.667   2.745  -6.157  1.00  0.00     0.046 A 
ATOM     24  C   UNL     1      -2.659   2.085  -6.941  1.00  0.00     0.013 A 
ATOM     25  C   UNL     1      -1.108   3.886  -6.732  1.00  0.00     0.132 A 
ATOM     26  C   UNL     1      -2.912   2.427  -8.274  1.00  0.00     0.001 A 
ATOM     27  C   UNL     1      -1.370   4.244  -8.061  1.00  0.00     0.040 A 
ATOM     28  F   UNL     1      -0.269   4.684  -6.070  1.00  0.00    -0.206 F 
ATOM     29  C   UNL     1      -2.233   3.490  -8.849  1.00  0.00     0.003 A 
ENDBRANCH  16  23
ENDBRANCH   9  11
ENDBRANCH   8   9
ENDBRANCH   7   8
ENDBRANCH   6   7
ENDBRANCH   5   6
ENDBRANCH   4   5
ENDBRANCH   3   4
ENDBRANCH   2   3
ENDBRANCH   1   2
BRANCH   1  30
ATOM     30  C   UNL     1      -0.871  -4.175  -9.431  1.00  0.00     0.188 C 
BRANCH  30  31
ATOM     31  O   UNL     1      -2.243  -3.833  -9.302  1.00  0.00    -0.376 OA
BRANCH  31  32
ATOM     32  C   UNL     1      -3.175  -4.898  -9.234  1.00  0.00     0.202 C 
BRANCH  32  33
ATOM     33  C   UNL     1      -3.107  -5.783  -7.982  1.00  0.00     0.261 C 
BRANCH  33  34
ATOM     34  O   UNL     1      -1.841  -6.401  -7.715  1.00  0.00    -0.460 OA
BRANCH  34  35
ATOM     35  C   UNL     1      -1.352  -7.254  -8.643  1.00  0.00     0.338 C 
ATOM     36  O   UNL     1      -1.884  -7.584  -9.689  1.00  0.00    -0.246 OA
BRANCH  35  37
ATOM     37  C   UNL     1       0.046  -7.557  -8.271  1.00  0.00     0.060 A 
ATOM     38  C   UNL     1       1.078  -7.239  -9.167  1.00  0.00     0.016 A 
ATOM     39  C   UNL     1       0.336  -8.111  -7.023  1.00  0.00     0.016 A 
ATOM     40  C   UNL     1       2.403  -7.507  -8.826  1.00  0.00     0.010 A 
ATOM     41  C   UNL     1       1.660  -8.406  -6.696  1.00  0.00     0.010 A 
ATOM     42  C   UNL     1       2.693  -8.140  -7.611  1.00  0.00    -0.014 A 
BRANCH  42  43
ATOM     43  C   UNL     1       4.030  -8.742  -7.399  1.00  0.00     0.031 A 
ATOM     44  C   UNL     1       4.196 -10.203  -7.723  1.00  0.00     0.074 A 
ATOM     45  C   UNL     1       5.067  -8.024  -6.934  1.00  0.00     0.049 A 
ATOM     46  N   UNL     1       5.241 -10.972  -7.577  1.00  0.00    -0.248 NA
ATOM     47  C   UNL     1       3.018 -10.887  -8.287  1.00  0.00     0.031 C 
ATOM     48  C   UNL     1       5.034  -6.600  -6.604  1.00  0.00     0.029 A 
ATOM     49  N   UNL     1       6.350  -8.411  -6.635  1.00  0.00    -0.354 N 
ATOM     50  C   UNL     1       4.843 -12.232  -8.008  1.00  0.00     0.074 A 
ATOM     51  C   UNL     1       3.457 -12.130  -8.405  1.00  0.00     0.031 C 
ATOM     52  C   UNL     1       6.237  -6.239  -6.121  1.00  0.00     0.029 A 
ATOM     53  C   UNL     1       7.112  -7.410  -6.081  1.00  0.00     0.049 A 
ATOM     54  H   UNL     1       6.691  -9.319  -6.802  1.00  0.00     0.167 HD
ATOM     55  C   UNL     1       5.570 -13.370  -8.085  1.00  0.00     0.034 A 
ATOM     56  C   UNL     1       8.363  -7.448  -5.579  1.00  0.00     0.034 A 
ATOM     57  C   UNL     1       6.948 -13.469  -7.694  1.00  0.00     0.049 A 
ATOM     58  C   UNL     1       9.134  -8.745  -5.624  1.00  0.00     0.074 A 
ATOM     59  C   UNL     1       7.781 -14.572  -7.748  1.00  0.00     0.029 A 
ATOM     60  N   UNL     1       7.695 -12.428  -7.164  1.00  0.00    -0.354 N 
ATOM     61  N   UNL     1       8.779  -9.904  -6.126  1.00  0.00    -0.248 NA
ATOM     62  C   UNL     1      10.493  -8.731  -5.060  1.00  0.00     0.031 C 
ATOM     63  C   UNL     1       9.024 -14.205  -7.225  1.00  0.00     0.029 A 
ATOM     64  C   UNL     1       8.977 -12.863  -6.880  1.00  0.00     0.049 A 
ATOM     65  H   UNL     1       7.362 -11.514  -7.012  1.00  0.00     0.167 HD
ATOM     66  C   UNL     1       9.883 -10.739  -5.982  1.00  0.00     0.074 A 
ATOM     67  C   UNL     1      10.925  -9.948  -5.361  1.00  0.00     0.031 C 
ATOM     68  C   UNL     1      10.021 -12.045  -6.321  1.00  0.00     0.034 A 
BRANCH  55  69
ATOM     69  C   UNL     1       4.890 -14.595  -8.633  1.00  0.00     0.023 A 
ATOM     70  C   UNL     1       4.595 -14.671 -10.010  1.00  0.00     0.012 A 
ATOM     71  C   UNL     1       4.589 -15.689  -7.800  1.00  0.00     0.148 A 
ATOM     72  C   UNL     1       3.985 -15.805 -10.544  1.00  0.00     0.002 A 
ATOM     73  C   UNL     1       4.023 -16.834  -8.347  1.00  0.00     0.091 A 
ATOM     74  F   UNL     1       4.855 -15.587  -6.490  1.00  0.00    -0.205 F 
ATOM     75  C   UNL     1       3.709 -16.889  -9.715  1.00  0.00     0.022 A 
BRANCH  73  76
ATOM     76  S   UNL     1       3.700 -18.313  -7.381  1.00  0.00     0.127 S 
ATOM     77  O   UNL     1       2.238 -18.353  -7.383  1.00  0.00    -0.237 OA
ATOM     78  O   UNL     1       4.340 -19.351  -8.190  1.00  0.00    -0.237 OA
ATOM     79  O   UNL     1       4.314 -18.088  -6.080  1.00  0.00    -0.744 OA
ENDBRANCH  73  76
ENDBRANCH  55  69
BRANCH  56  80
ATOM     80  C   UNL     1       8.989  -6.220  -5.007  1.00  0.00     0.023 A 
ATOM     81  C   UNL     1      10.102  -5.642  -5.649  1.00  0.00     0.012 A 
ATOM     82  C   UNL     1       8.505  -5.635  -3.821  1.00  0.00     0.148 A 
ATOM     83  C   UNL     1      10.748  -4.534  -5.099  1.00  0.00     0.002 A 
ATOM     84  C   UNL     1       9.116  -4.496  -3.309  1.00  0.00     0.091 A 
ATOM     85  F   UNL     1       7.457  -6.208  -3.212  1.00  0.00    -0.205 F 
ATOM     86  C   UNL     1      10.251  -3.957  -3.934  1.00  0.00     0.022 A 
BRANCH  84  87
ATOM     87  S   UNL     1       8.468  -3.611  -1.887  1.00  0.00     0.127 S 
ATOM     88  O   UNL     1       9.488  -3.881  -0.876  1.00  0.00    -0.237 OA
ATOM     89  O   UNL     1       8.436  -2.234  -2.380  1.00  0.00    -0.237 OA
ATOM     90  O   UNL     1       7.155  -4.186  -1.631  1.00  0.00    -0.744 OA
ENDBRANCH  84  87
ENDBRANCH  56  80
BRANCH  68  91
ATOM     91  C   UNL     1      11.361 -12.695  -6.088  1.00  0.00     0.023 A 
ATOM     92  C   UNL     1      11.787 -12.988  -4.778  1.00  0.00     0.012 A 
ATOM     93  C   UNL     1      12.163 -13.086  -7.180  1.00  0.00     0.148 A 
ATOM     94  C   UNL     1      13.007 -13.627  -4.556  1.00  0.00     0.002 A 
ATOM     95  C   UNL     1      13.351 -13.770  -6.953  1.00  0.00     0.091 A 
ATOM     96  F   UNL     1      11.747 -12.786  -8.418  1.00  0.00    -0.205 F 
ATOM     97  C   UNL     1      13.782 -14.028  -5.642  1.00  0.00     0.022 A 
BRANCH  95  98
ATOM     98  S   UNL     1      14.363 -14.414  -8.290  1.00  0.00     0.127 S 
ATOM     99  O   UNL     1      15.527 -13.531  -8.234  1.00  0.00    -0.237 OA
ATOM    100  O   UNL     1      14.617 -15.786  -7.852  1.00  0.00    -0.237 OA
ATOM    101  O   UNL     1      13.555 -14.303  -9.497  1.00  0.00    -0.744 OA
ENDBRANCH  95  98
ENDBRANCH  68  91
ENDBRANCH  42  43
ENDBRANCH  35  37
ENDBRANCH  34  35
ENDBRANCH  33  34
ENDBRANCH  32  33
ENDBRANCH  31  32
ENDBRANCH  30  31
ENDBRANCH   1  30
TORSDOF 26
