REMARK SMILES CC[C@H](C)CN(CC)C(=O)NC[C@@](C)(O)C(=O)OCCOCCOCCOCCOC(=O)c1ccc(-c2c3nc(c(-c4cccc(S(=O)(=O)[O-])c4F)c4ccc([nH]4)c(-c4cccc(S(=O)(=O)[O-])c4F)c4nc(c(-c5cccc(S(=O)(=O)[O-])c5F)c5ccc2[nH]5)C=C4)C=C3)cc1
REMARK SMILES IDX 22 1 21 2 20 3 19 4 18 5 16 6 17 7 13 8 14 9 12 10 11 11
REMARK SMILES IDX 9 12 10 13 6 15 5 16 3 17 4 18 2 19 1 20 7 21 8 22 15 23
REMARK SMILES IDX 23 25 24 26 25 27 26 28 27 29 28 30 29 31 30 32 31 33 32 34
REMARK SMILES IDX 33 35 34 36 95 37 35 38 94 39 36 40 37 41 38 42 88 43 39 44
REMARK SMILES IDX 93 45 87 46 89 47 40 48 92 49 86 50 85 51 41 53 73 54 53 55
REMARK SMILES IDX 72 56 54 57 57 58 71 59 90 60 55 61 56 62 70 64 91 65 58 66
REMARK SMILES IDX 42 67 43 68 51 69 44 70 46 71 52 72 45 73 47 74 48 75 49 76
REMARK SMILES IDX 50 77 74 78 75 79 83 80 76 81 78 82 84 83 77 84 79 85 80 86
REMARK SMILES IDX 81 87 82 88 59 89 60 90 68 91 61 92 63 93 69 94 62 95 64 96
REMARK SMILES IDX 65 97 66 98 67 99
REMARK H PARENT 11 14 15 24 89 52 57 63
REMARK Flexibility Score: inf
ROOT
ATOM      1  C   UNL     1      -0.770  -7.226  -1.438  1.00  0.00     0.188 C 
ENDROOT
BRANCH   1   2
ATOM      2  O   UNL     1      -2.096  -7.728  -1.541  1.00  0.00    -0.376 OA
BRANCH   2   3
ATOM      3  C   UNL     1      -2.902  -7.191  -2.577  1.00  0.00     0.202 C 
BRANCH   3   4
ATOM      4  C   UNL     1      -2.421  -7.292  -4.034  1.00  0.00     0.261 C 
BRANCH   4   5
ATOM      5  O   UNL     1      -1.015  -7.095  -4.238  1.00  0.00    -0.461 OA
BRANCH   5   6
ATOM      6  C   UNL     1      -0.564  -5.865  -4.575  1.00  0.00     0.339 C 
ATOM      7  O   UNL     1      -1.276  -4.871  -4.681  1.00  0.00    -0.249 OA
BRANCH   6   8
ATOM      8  C   UNL     1       0.976  -5.858  -4.818  1.00  0.00     0.176 C 
ATOM      9  C   UNL     1       1.190  -5.218  -6.192  1.00  0.00     0.057 C 
BRANCH   8  10
ATOM     10  C   UNL     1       1.725  -5.094  -3.684  1.00  0.00     0.164 C 
BRANCH  10  11
ATOM     11  N   UNL     1       1.029  -3.939  -3.149  1.00  0.00    -0.334 N 
ATOM     12  C   UNL     1       0.541  -3.660  -1.926  1.00  0.00     0.317 C 
ATOM     13  O   UNL     1      -0.525  -3.037  -1.927  1.00  0.00    -0.249 OA
ATOM     14  H   UNL     1       0.886  -3.221  -3.808  1.00  0.00     0.165 HD
BRANCH  12  15
ATOM     15  N   UNL     1       1.196  -3.975  -0.762  1.00  0.00    -0.325 N 
BRANCH  15  16
ATOM     16  C   UNL     1       0.549  -3.524   0.487  1.00  0.00     0.124 C 
BRANCH  16  17
ATOM     17  C   UNL     1       0.948  -2.084   0.926  1.00  0.00     0.005 C 
ATOM     18  C   UNL     1       0.501  -1.017  -0.080  1.00  0.00     0.009 C 
BRANCH  17  19
ATOM     19  C   UNL     1       0.381  -1.807   2.336  1.00  0.00     0.002 C 
ATOM     20  C   UNL     1       0.584  -0.379   2.829  1.00  0.00     0.004 C 
ENDBRANCH  17  19
ENDBRANCH  16  17
ENDBRANCH  15  16
BRANCH  15  21
ATOM     21  C   UNL     1       2.542  -4.535  -0.607  1.00  0.00     0.118 C 
ATOM     22  C   UNL     1       2.534  -5.998  -0.179  1.00  0.00     0.027 C 
ENDBRANCH  15  21
ENDBRANCH  12  15
ENDBRANCH  10  11
ENDBRANCH   8  10
BRANCH   8  23
ATOM     23  O   UNL     1       1.556  -7.167  -4.892  1.00  0.00    -0.377 OA
ATOM     24  H   UNL     1       2.511  -7.089  -5.043  1.00  0.00     0.212 HD
ENDBRANCH   8  23
ENDBRANCH   6   8
ENDBRANCH   5   6
ENDBRANCH   4   5
ENDBRANCH   3   4
ENDBRANCH   2   3
ENDBRANCH   1   2
BRANCH   1  25
ATOM     25  C   UNL     1       0.282  -8.229  -1.939  1.00  0.00     0.188 C 
BRANCH  25  26
ATOM     26  O   UNL     1      -0.193  -9.424  -2.519  1.00  0.00    -0.377 OA
BRANCH  26  27
ATOM     27  C   UNL     1      -1.017 -10.279  -1.743  1.00  0.00     0.188 C 
BRANCH  27  28
ATOM     28  C   UNL     1      -1.138 -10.128  -0.207  1.00  0.00     0.188 C 
BRANCH  28  29
ATOM     29  O   UNL     1      -0.067  -9.450   0.443  1.00  0.00    -0.376 OA
BRANCH  29  30
ATOM     30  C   UNL     1       0.838 -10.245   1.194  1.00  0.00     0.202 C 
BRANCH  30  31
ATOM     31  C   UNL     1       1.826 -11.062   0.355  1.00  0.00     0.261 C 
BRANCH  31  32
ATOM     32  O   UNL     1       1.232 -12.039  -0.506  1.00  0.00    -0.460 OA
BRANCH  32  33
ATOM     33  C   UNL     1       0.468 -12.998   0.062  1.00  0.00     0.338 C 
ATOM     34  O   UNL     1       0.241 -13.163   1.248  1.00  0.00    -0.246 OA
BRANCH  33  35
ATOM     35  C   UNL     1      -0.210 -13.703  -1.039  1.00  0.00     0.060 A 
ATOM     36  C   UNL     1      -1.613 -13.707  -1.092  1.00  0.00     0.016 A 
ATOM     37  C   UNL     1       0.549 -14.295  -2.049  1.00  0.00     0.016 A 
ATOM     38  C   UNL     1      -2.263 -14.330  -2.156  1.00  0.00     0.010 A 
ATOM     39  C   UNL     1      -0.101 -14.942  -3.094  1.00  0.00     0.010 A 
ATOM     40  C   UNL     1      -1.506 -14.990  -3.131  1.00  0.00    -0.014 A 
BRANCH  40  41
ATOM     41  C   UNL     1      -2.138 -15.975  -4.033  1.00  0.00     0.031 A 
ATOM     42  C   UNL     1      -2.147 -17.405  -3.574  1.00  0.00     0.074 A 
ATOM     43  C   UNL     1      -2.595 -15.633  -5.248  1.00  0.00     0.049 A 
ATOM     44  N   UNL     1      -2.476 -18.486  -4.226  1.00  0.00    -0.248 NA
ATOM     45  C   UNL     1      -1.699 -17.647  -2.189  1.00  0.00     0.031 C 
ATOM     46  C   UNL     1      -2.651 -14.275  -5.783  1.00  0.00     0.029 A 
ATOM     47  N   UNL     1      -3.060 -16.422  -6.270  1.00  0.00    -0.354 N 
ATOM     48  C   UNL     1      -2.226 -19.537  -3.353  1.00  0.00     0.074 A 
ATOM     49  C   UNL     1      -1.725 -18.967  -2.123  1.00  0.00     0.031 C 
ATOM     50  C   UNL     1      -3.097 -14.328  -7.052  1.00  0.00     0.029 A 
ATOM     51  C   UNL     1      -3.314 -15.724  -7.426  1.00  0.00     0.049 A 
ATOM     52  H   UNL     1      -3.198 -17.392  -6.183  1.00  0.00     0.167 HD
ATOM     53  C   UNL     1      -2.396 -20.862  -3.558  1.00  0.00     0.034 A 
ATOM     54  C   UNL     1      -3.652 -16.175  -8.652  1.00  0.00     0.034 A 
ATOM     55  C   UNL     1      -2.898 -21.415  -4.783  1.00  0.00     0.049 A 
ATOM     56  C   UNL     1      -3.803 -17.661  -8.869  1.00  0.00     0.074 A 
ATOM     57  C   UNL     1      -3.159 -22.738  -5.085  1.00  0.00     0.029 A 
ATOM     58  N   UNL     1      -3.192 -20.674  -5.917  1.00  0.00    -0.354 N 
ATOM     59  N   UNL     1      -3.668 -18.640  -8.007  1.00  0.00    -0.248 NA
ATOM     60  C   UNL     1      -4.171 -18.103 -10.223  1.00  0.00     0.031 C 
ATOM     61  C   UNL     1      -3.578 -22.801  -6.417  1.00  0.00     0.029 A 
ATOM     62  C   UNL     1      -3.618 -21.512  -6.929  1.00  0.00     0.049 A 
ATOM     63  H   UNL     1      -3.110 -19.696  -5.990  1.00  0.00     0.167 HD
ATOM     64  C   UNL     1      -3.987 -19.806  -8.697  1.00  0.00     0.074 A 
ATOM     65  C   UNL     1      -4.316 -19.411 -10.051  1.00  0.00     0.031 C 
ATOM     66  C   UNL     1      -4.006 -21.087  -8.251  1.00  0.00     0.034 A 
BRANCH  53  67
ATOM     67  C   UNL     1      -2.021 -21.790  -2.436  1.00  0.00     0.023 A 
ATOM     68  C   UNL     1      -2.801 -21.829  -1.262  1.00  0.00     0.012 A 
ATOM     69  C   UNL     1      -0.893 -22.626  -2.546  1.00  0.00     0.148 A 
ATOM     70  C   UNL     1      -2.438 -22.653  -0.197  1.00  0.00     0.002 A 
ATOM     71  C   UNL     1      -0.568 -23.481  -1.501  1.00  0.00     0.091 A 
ATOM     72  F   UNL     1      -0.145 -22.550  -3.655  1.00  0.00    -0.205 F 
ATOM     73  C   UNL     1      -1.329 -23.485  -0.321  1.00  0.00     0.022 A 
BRANCH  71  74
ATOM     74  S   UNL     1       0.796 -24.645  -1.602  1.00  0.00     0.127 S 
ATOM     75  O   UNL     1       1.788 -24.014  -0.734  1.00  0.00    -0.237 OA
ATOM     76  O   UNL     1       0.200 -25.866  -1.060  1.00  0.00    -0.237 OA
ATOM     77  O   UNL     1       1.152 -24.721  -3.012  1.00  0.00    -0.744 OA
ENDBRANCH  71  74
ENDBRANCH  53  67
BRANCH  54  78
ATOM     78  C   UNL     1      -3.920 -15.209  -9.755  1.00  0.00     0.023 A 
ATOM     79  C   UNL     1      -5.241 -15.047 -10.216  1.00  0.00     0.012 A 
ATOM     80  C   UNL     1      -2.893 -14.435 -10.331  1.00  0.00     0.148 A 
ATOM     81  C   UNL     1      -5.533 -14.151 -11.244  1.00  0.00     0.002 A 
ATOM     82  C   UNL     1      -3.197 -13.509 -11.322  1.00  0.00     0.091 A 
ATOM     83  F   UNL     1      -1.641 -14.612  -9.886  1.00  0.00    -0.205 F 
ATOM     84  C   UNL     1      -4.514 -13.375 -11.790  1.00  0.00     0.022 A 
BRANCH  82  85
ATOM     85  S   UNL     1      -1.976 -12.387 -12.015  1.00  0.00     0.127 S 
ATOM     86  O   UNL     1      -1.937 -12.813 -13.412  1.00  0.00    -0.237 OA
ATOM     87  O   UNL     1      -2.602 -11.085 -11.785  1.00  0.00    -0.237 OA
ATOM     88  O   UNL     1      -0.753 -12.614 -11.258  1.00  0.00    -0.744 OA
ENDBRANCH  82  85
ENDBRANCH  54  78
BRANCH  66  89
ATOM     89  C   UNL     1      -4.467 -22.165  -9.195  1.00  0.00     0.023 A 
ATOM     90  C   UNL     1      -3.619 -22.616 -10.224  1.00  0.00     0.012 A 
ATOM     91  C   UNL     1      -5.691 -22.825  -8.964  1.00  0.00     0.148 A 
ATOM     92  C   UNL     1      -3.990 -23.701 -11.018  1.00  0.00     0.002 A 
ATOM     93  C   UNL     1      -6.030 -23.937  -9.724  1.00  0.00     0.091 A 
ATOM     94  F   UNL     1      -6.487 -22.368  -7.986  1.00  0.00    -0.205 F 
ATOM     95  C   UNL     1      -5.185 -24.370 -10.758  1.00  0.00     0.022 A 
BRANCH  93  96
ATOM     96  S   UNL     1      -7.491 -24.927  -9.388  1.00  0.00     0.127 S 
ATOM     97  O   UNL     1      -8.312 -24.655 -10.567  1.00  0.00    -0.237 OA
ATOM     98  O   UNL     1      -6.939 -26.280  -9.326  1.00  0.00    -0.237 OA
ATOM     99  O   UNL     1      -8.033 -24.434  -8.128  1.00  0.00    -0.744 OA
ENDBRANCH  93  96
ENDBRANCH  66  89
ENDBRANCH  40  41
ENDBRANCH  33  35
ENDBRANCH  32  33
ENDBRANCH  31  32
ENDBRANCH  30  31
ENDBRANCH  29  30
ENDBRANCH  28  29
ENDBRANCH  27  28
ENDBRANCH  26  27
ENDBRANCH  25  26
ENDBRANCH   1  25
TORSDOF 31
