REMARK SMILES O=C(OCCOCCOCCOCCOC(=O)c1ccc(-c2c3nc(c(-c4cccc(S(=O)(=O)[O-])c4F)c4ccc([nH]4)c(-c4cccc(S(=O)(=O)[O-])c4F)c4nc(c(-c5cccc(S(=O)(=O)[O-])c5F)c5ccc2[nH]5)C=C4)C=C3)cc1)c1ccc(NS(=O)(=O)Cc2c(Cl)cccc2Cl)cc1
REMARK SMILES IDX 8 1 7 2 6 3 5 4 4 5 3 6 2 7 1 8 81 9 82 10 99 11 83 12 98 13
REMARK SMILES IDX 84 14 85 15 86 17 87 18 88 19 89 20 90 21 91 22 96 23 92 24
REMARK SMILES IDX 93 25 95 26 97 27 94 28 9 29 10 30 11 31 12 32 13 33 14 34
REMARK SMILES IDX 15 35 16 36 17 37 18 38 19 39 80 40 20 41 79 42 21 43 22 44
REMARK SMILES IDX 23 45 73 46 24 47 78 48 72 49 74 50 25 51 77 52 71 53 70 54
REMARK SMILES IDX 26 56 58 57 38 58 57 59 39 60 42 61 56 62 75 63 40 64 41 65
REMARK SMILES IDX 55 67 76 68 43 69 27 70 28 71 36 72 29 73 31 74 37 75 30 76
REMARK SMILES IDX 32 77 33 78 34 79 35 80 59 81 60 82 68 83 61 84 63 85 69 86
REMARK SMILES IDX 62 87 64 88 65 89 66 90 67 91 44 92 45 93 53 94 46 95 48 96
REMARK SMILES IDX 54 97 47 98 49 99 50 100 51 101 52 102
REMARK H PARENT 85 16 74 55 42 66
REMARK Flexibility Score: inf
ROOT
ATOM      1  C   UNL     1       1.710  -2.111   1.864  1.00  0.00     0.188 C 
ENDROOT
BRANCH   1   2
ATOM      2  C   UNL     1       2.152  -0.688   1.507  1.00  0.00     0.188 C 
BRANCH   2   3
ATOM      3  O   UNL     1       3.305  -0.775   0.675  1.00  0.00    -0.376 OA
BRANCH   3   4
ATOM      4  C   UNL     1       4.275   0.249   0.765  1.00  0.00     0.202 C 
BRANCH   4   5
ATOM      5  C   UNL     1       3.830   1.621   0.283  1.00  0.00     0.261 C 
BRANCH   5   6
ATOM      6  O   UNL     1       2.492   1.682  -0.250  1.00  0.00    -0.460 OA
BRANCH   6   7
ATOM      7  C   UNL     1       2.027   1.093  -1.376  1.00  0.00     0.338 C 
ATOM      8  O   UNL     1       0.840   1.145  -1.680  1.00  0.00    -0.246 OA
BRANCH   7   9
ATOM      9  C   UNL     1       2.970   0.498  -2.338  1.00  0.00     0.060 A 
ATOM     10  C   UNL     1       3.422  -0.819  -2.223  1.00  0.00     0.018 A 
ATOM     11  C   UNL     1       3.269   1.228  -3.486  1.00  0.00     0.018 A 
ATOM     12  C   UNL     1       4.310  -1.349  -3.159  1.00  0.00     0.027 A 
ATOM     13  C   UNL     1       4.121   0.681  -4.446  1.00  0.00     0.027 A 
ATOM     14  C   UNL     1       4.691  -0.584  -4.255  1.00  0.00     0.049 A 
BRANCH  14  15
ATOM     15  N   UNL     1       5.692  -0.969  -5.175  1.00  0.00    -0.283 N 
ATOM     16  H   UNL     1       5.860  -0.350  -5.921  1.00  0.00     0.180 HD
BRANCH  15  17
ATOM     17  S   UNL     1       6.612  -2.335  -5.141  1.00  0.00     0.237 S 
ATOM     18  O   UNL     1       5.718  -3.471  -5.034  1.00  0.00    -0.206 OA
ATOM     19  O   UNL     1       7.462  -2.220  -6.313  1.00  0.00    -0.206 OA
BRANCH  17  20
ATOM     20  C   UNL     1       7.701  -2.324  -3.701  1.00  0.00     0.198 C 
BRANCH  20  21
ATOM     21  C   UNL     1       7.728  -1.125  -2.773  1.00  0.00     0.006 A 
ATOM     22  C   UNL     1       7.755  -1.346  -1.370  1.00  0.00     0.046 A 
ATOM     23  C   UNL     1       7.909   0.207  -3.185  1.00  0.00     0.046 A 
ATOM     24  Cl  UNL     1       7.782  -2.935  -0.674  1.00  0.00    -0.084 Cl
ATOM     25  C   UNL     1       7.840  -0.291  -0.449  1.00  0.00     0.021 A 
ATOM     26  C   UNL     1       7.931   1.267  -2.260  1.00  0.00     0.021 A 
ATOM     27  Cl  UNL     1       8.254   0.648  -4.821  1.00  0.00    -0.084 Cl
ATOM     28  C   UNL     1       7.889   1.021  -0.893  1.00  0.00     0.003 A 
ENDBRANCH  20  21
ENDBRANCH  17  20
ENDBRANCH  15  17
ENDBRANCH  14  15
ENDBRANCH   7   9
ENDBRANCH   6   7
ENDBRANCH   5   6
ENDBRANCH   4   5
ENDBRANCH   3   4
ENDBRANCH   2   3
ENDBRANCH   1   2
BRANCH   1  29
ATOM     29  O   UNL     1       2.502  -2.762   2.863  1.00  0.00    -0.377 OA
BRANCH  29  30
ATOM     30  C   UNL     1       3.912  -2.576   2.779  1.00  0.00     0.188 C 
BRANCH  30  31
ATOM     31  C   UNL     1       4.644  -3.193   1.568  1.00  0.00     0.188 C 
BRANCH  31  32
ATOM     32  O   UNL     1       3.779  -3.583   0.511  1.00  0.00    -0.376 OA
BRANCH  32  33
ATOM     33  C   UNL     1       3.600  -4.982   0.327  1.00  0.00     0.202 C 
BRANCH  33  34
ATOM     34  C   UNL     1       3.013  -5.824   1.478  1.00  0.00     0.261 C 
BRANCH  34  35
ATOM     35  O   UNL     1       3.509  -5.547   2.795  1.00  0.00    -0.460 OA
BRANCH  35  36
ATOM     36  C   UNL     1       4.717  -6.040   3.143  1.00  0.00     0.338 C 
ATOM     37  O   UNL     1       5.436  -6.753   2.462  1.00  0.00    -0.246 OA
BRANCH  36  38
ATOM     38  C   UNL     1       5.137  -5.351   4.391  1.00  0.00     0.060 A 
ATOM     39  C   UNL     1       6.401  -4.744   4.420  1.00  0.00     0.016 A 
ATOM     40  C   UNL     1       4.265  -5.200   5.477  1.00  0.00     0.016 A 
ATOM     41  C   UNL     1       6.809  -4.020   5.544  1.00  0.00     0.010 A 
ATOM     42  C   UNL     1       4.680  -4.488   6.609  1.00  0.00     0.010 A 
ATOM     43  C   UNL     1       5.970  -3.929   6.663  1.00  0.00    -0.014 A 
BRANCH  43  44
ATOM     44  C   UNL     1       6.542  -3.500   7.965  1.00  0.00     0.031 A 
ATOM     45  C   UNL     1       7.034  -4.582   8.892  1.00  0.00     0.074 A 
ATOM     46  C   UNL     1       6.652  -2.207   8.322  1.00  0.00     0.049 A 
ATOM     47  N   UNL     1       7.589  -4.480  10.070  1.00  0.00    -0.248 NA
ATOM     48  C   UNL     1       6.876  -5.968   8.418  1.00  0.00     0.031 C 
ATOM     49  C   UNL     1       6.223  -1.063   7.522  1.00  0.00     0.029 A 
ATOM     50  N   UNL     1       7.149  -1.645   9.474  1.00  0.00    -0.354 N 
ATOM     51  C   UNL     1       7.823  -5.785  10.488  1.00  0.00     0.074 A 
ATOM     52  C   UNL     1       7.334  -6.661   9.447  1.00  0.00     0.031 C 
ATOM     53  C   UNL     1       6.457   0.067   8.216  1.00  0.00     0.029 A 
ATOM     54  C   UNL     1       7.034  -0.275   9.517  1.00  0.00     0.049 A 
ATOM     55  H   UNL     1       7.551  -2.173  10.201  1.00  0.00     0.167 HD
ATOM     56  C   UNL     1       8.407  -6.223  11.626  1.00  0.00     0.034 A 
ATOM     57  C   UNL     1       7.345   0.597  10.500  1.00  0.00     0.034 A 
ATOM     58  C   UNL     1       8.900  -5.359  12.661  1.00  0.00     0.049 A 
ATOM     59  C   UNL     1       7.961   0.082  11.780  1.00  0.00     0.074 A 
ATOM     60  C   UNL     1       9.542  -5.705  13.836  1.00  0.00     0.029 A 
ATOM     61  N   UNL     1       8.787  -3.978  12.656  1.00  0.00    -0.354 N 
ATOM     62  N   UNL     1       8.290  -1.145  12.106  1.00  0.00    -0.248 NA
ATOM     63  C   UNL     1       8.282   1.079  12.813  1.00  0.00     0.031 C 
ATOM     64  C   UNL     1       9.788  -4.532  14.559  1.00  0.00     0.029 A 
ATOM     65  C   UNL     1       9.336  -3.455  13.814  1.00  0.00     0.049 A 
ATOM     66  H   UNL     1       8.377  -3.447  11.935  1.00  0.00     0.167 HD
ATOM     67  C   UNL     1       8.893  -1.061  13.358  1.00  0.00     0.074 A 
ATOM     68  C   UNL     1       8.900   0.340  13.724  1.00  0.00     0.031 C 
ATOM     69  C   UNL     1       9.388  -2.053  14.140  1.00  0.00     0.034 A 
BRANCH  56  70
ATOM     70  C   UNL     1       8.552  -7.711  11.801  1.00  0.00     0.023 A 
ATOM     71  C   UNL     1       9.481  -8.422  11.014  1.00  0.00     0.012 A 
ATOM     72  C   UNL     1       7.788  -8.399  12.762  1.00  0.00     0.148 A 
ATOM     73  C   UNL     1       9.621  -9.802  11.155  1.00  0.00     0.002 A 
ATOM     74  C   UNL     1       7.968  -9.766  12.931  1.00  0.00     0.091 A 
ATOM     75  F   UNL     1       6.890  -7.709  13.479  1.00  0.00    -0.205 F 
ATOM     76  C   UNL     1       8.873 -10.471  12.120  1.00  0.00     0.022 A 
BRANCH  74  77
ATOM     77  S   UNL     1       7.112 -10.703  14.201  1.00  0.00     0.127 S 
ATOM     78  O   UNL     1       6.194 -11.513  13.401  1.00  0.00    -0.237 OA
ATOM     79  O   UNL     1       8.207 -11.453  14.819  1.00  0.00    -0.237 OA
ATOM     80  O   UNL     1       6.482  -9.720  15.070  1.00  0.00    -0.744 OA
ENDBRANCH  74  77
ENDBRANCH  56  70
BRANCH  57  81
ATOM     81  C   UNL     1       7.115   2.060  10.313  1.00  0.00     0.023 A 
ATOM     82  C   UNL     1       8.217   2.934  10.231  1.00  0.00     0.012 A 
ATOM     83  C   UNL     1       5.813   2.591  10.231  1.00  0.00     0.148 A 
ATOM     84  C   UNL     1       8.027   4.312  10.107  1.00  0.00     0.002 A 
ATOM     85  C   UNL     1       5.632   3.958  10.050  1.00  0.00     0.091 A 
ATOM     86  F   UNL     1       4.776   1.748  10.331  1.00  0.00    -0.205 F 
ATOM     87  C   UNL     1       6.737   4.823  10.008  1.00  0.00     0.022 A 
BRANCH  85  88
ATOM     88  S   UNL     1       4.014   4.692   9.783  1.00  0.00     0.127 S 
ATOM     89  O   UNL     1       3.841   5.484  10.998  1.00  0.00    -0.237 OA
ATOM     90  O   UNL     1       4.239   5.470   8.564  1.00  0.00    -0.237 OA
ATOM     91  O   UNL     1       3.096   3.573   9.622  1.00  0.00    -0.744 OA
ENDBRANCH  85  88
ENDBRANCH  57  81
BRANCH  69  92
ATOM     92  C   UNL     1      10.033  -1.668  15.448  1.00  0.00     0.023 A 
ATOM     93  C   UNL     1       9.242  -1.211  16.521  1.00  0.00     0.012 A 
ATOM     94  C   UNL     1      11.420  -1.837  15.637  1.00  0.00     0.148 A 
ATOM     95  C   UNL     1       9.826  -0.892  17.747  1.00  0.00     0.002 A 
ATOM     96  C   UNL     1      11.987  -1.568  16.877  1.00  0.00     0.091 A 
ATOM     97  F   UNL     1      12.160  -2.259  14.601  1.00  0.00    -0.205 F 
ATOM     98  C   UNL     1      11.194  -1.081  17.928  1.00  0.00     0.022 A 
BRANCH  96  99
ATOM     99  S   UNL     1      13.721  -1.878  17.230  1.00  0.00     0.127 S 
ATOM    100  O   UNL     1      14.260  -0.521  17.291  1.00  0.00    -0.237 OA
ATOM    101  O   UNL     1      13.656  -2.567  18.519  1.00  0.00    -0.237 OA
ATOM    102  O   UNL     1      14.214  -2.698  16.132  1.00  0.00    -0.744 OA
ENDBRANCH  96  99
ENDBRANCH  69  92
ENDBRANCH  43  44
ENDBRANCH  36  38
ENDBRANCH  35  36
ENDBRANCH  34  35
ENDBRANCH  33  34
ENDBRANCH  32  33
ENDBRANCH  31  32
ENDBRANCH  30  31
ENDBRANCH  29  30
ENDBRANCH   1  29
TORSDOF 27
