REMARK SMILES C[NH2+][C@]1(C(=O)OCCOCCOCCOCCOC(=O)c2ccc(-c3c4nc(c(-c5cccc(S(=O)(=O)[O-])c5F)c5ccc([nH]5)c(-c5cccc(S(=O)(=O)[O-])c5F)c5nc(c(-c6cccc(S(=O)(=O)[O-])c6F)c6ccc3[nH]6)C=C5)C=C4)cc2)CCC[C@@H](Sc2nccn2C)C1
REMARK SMILES IDX 13 1 12 2 11 3 10 4 9 5 8 6 7 7 6 8 4 9 5 10 3 11 84 12
REMARK SMILES IDX 95 13 85 14 87 15 86 16 2 17 1 18 88 21 89 22 90 23 93 24
REMARK SMILES IDX 91 25 92 26 94 27 14 28 15 29 16 30 17 31 18 32 19 33 20 34
REMARK SMILES IDX 21 35 22 36 83 37 23 38 82 39 24 40 25 41 26 42 76 43 27 44
REMARK SMILES IDX 81 45 75 46 77 47 28 48 80 49 74 50 73 51 29 53 61 54 41 55
REMARK SMILES IDX 60 56 42 57 45 58 59 59 78 60 43 61 44 62 58 64 79 65 46 66
REMARK SMILES IDX 30 67 31 68 39 69 32 70 34 71 40 72 33 73 35 74 36 75 37 76
REMARK SMILES IDX 38 77 62 78 63 79 71 80 64 81 66 82 72 83 65 84 67 85 68 86
REMARK SMILES IDX 69 87 70 88 47 89 48 90 56 91 49 92 51 93 57 94 50 95 52 96
REMARK SMILES IDX 53 97 54 98 55 99
REMARK H PARENT 2 19 2 20 77 52 45 63
REMARK Flexibility Score: inf
ROOT
ATOM      1  C   UNL     1       2.708  -4.167   2.097  1.00  0.00     0.188 C 
ENDROOT
BRANCH   1   2
ATOM      2  O   UNL     1       1.831  -3.106   1.754  1.00  0.00    -0.377 OA
BRANCH   2   3
ATOM      3  C   UNL     1       1.292  -3.117   0.451  1.00  0.00     0.188 C 
BRANCH   3   4
ATOM      4  C   UNL     1       2.091  -2.345  -0.609  1.00  0.00     0.188 C 
BRANCH   4   5
ATOM      5  O   UNL     1       3.288  -1.665  -0.269  1.00  0.00    -0.376 OA
BRANCH   5   6
ATOM      6  C   UNL     1       3.422  -1.013   0.986  1.00  0.00     0.202 C 
BRANCH   6   7
ATOM      7  C   UNL     1       2.344  -0.056   1.533  1.00  0.00     0.261 C 
BRANCH   7   8
ATOM      8  O   UNL     1       0.981  -0.523   1.571  1.00  0.00    -0.459 OA
BRANCH   8   9
ATOM      9  C   UNL     1       0.167  -0.072   0.585  1.00  0.00     0.368 C 
ATOM     10  O   UNL     1       0.546   0.634  -0.350  1.00  0.00    -0.245 OA
BRANCH   9  11
ATOM     11  C   UNL     1      -1.342  -0.455   0.770  1.00  0.00     0.195 C 
ATOM     12  C   UNL     1      -1.716  -1.726   1.582  1.00  0.00     0.081 C 
ATOM     13  C   UNL     1      -1.877   0.761   1.557  1.00  0.00     0.096 C 
ATOM     14  C   UNL     1      -3.220  -1.839   1.854  1.00  0.00     0.008 C 
ATOM     15  C   UNL     1      -3.365   0.679   1.888  1.00  0.00     0.061 C 
ATOM     16  C   UNL     1      -3.745  -0.623   2.601  1.00  0.00     0.015 C 
BRANCH  11  17
ATOM     17  N   UNL     1      -2.004  -0.470  -0.581  1.00  0.00    -0.335 N 
ATOM     18  C   UNL     1      -1.559  -1.541  -1.470  1.00  0.00     0.331 C 
ATOM     19  H   UNL     1      -3.009  -0.572  -0.441  1.00  0.00     0.347 HD
ATOM     20  H   UNL     1      -1.747   0.406  -1.036  1.00  0.00     0.347 HD
ENDBRANCH  11  17
BRANCH  15  21
ATOM     21  S   UNL     1      -3.909   2.155   2.833  1.00  0.00    -0.084 SA
BRANCH  21  22
ATOM     22  C   UNL     1      -3.054   1.944   4.328  1.00  0.00     0.167 A 
ATOM     23  N   UNL     1      -1.748   1.967   4.457  1.00  0.00    -0.231 NA
ATOM     24  N   UNL     1      -3.673   1.681   5.518  1.00  0.00    -0.329 N 
ATOM     25  C   UNL     1      -1.506   1.673   5.775  1.00  0.00     0.132 A 
ATOM     26  C   UNL     1      -2.689   1.494   6.453  1.00  0.00     0.108 A 
ATOM     27  C   UNL     1      -5.082   1.580   5.797  1.00  0.00     0.152 C 
ENDBRANCH  21  22
ENDBRANCH  15  21
ENDBRANCH   9  11
ENDBRANCH   8   9
ENDBRANCH   7   8
ENDBRANCH   6   7
ENDBRANCH   5   6
ENDBRANCH   4   5
ENDBRANCH   3   4
ENDBRANCH   2   3
ENDBRANCH   1   2
BRANCH   1  28
ATOM     28  C   UNL     1       3.554  -4.783   0.968  1.00  0.00     0.188 C 
BRANCH  28  29
ATOM     29  O   UNL     1       2.801  -5.169  -0.177  1.00  0.00    -0.376 OA
BRANCH  29  30
ATOM     30  C   UNL     1       2.321  -6.500  -0.289  1.00  0.00     0.202 C 
BRANCH  30  31
ATOM     31  C   UNL     1       1.318  -7.022   0.755  1.00  0.00     0.261 C 
BRANCH  31  32
ATOM     32  O   UNL     1       1.737  -7.011   2.126  1.00  0.00    -0.460 OA
BRANCH  32  33
ATOM     33  C   UNL     1       2.897  -7.617   2.450  1.00  0.00     0.338 C 
ATOM     34  O   UNL     1       3.617  -8.268   1.711  1.00  0.00    -0.246 OA
BRANCH  33  35
ATOM     35  C   UNL     1       3.268  -7.166   3.809  1.00  0.00     0.060 A 
ATOM     36  C   UNL     1       4.494  -6.513   3.993  1.00  0.00     0.016 A 
ATOM     37  C   UNL     1       2.401  -7.361   4.887  1.00  0.00     0.016 A 
ATOM     38  C   UNL     1       4.875  -6.086   5.263  1.00  0.00     0.010 A 
ATOM     39  C   UNL     1       2.797  -6.961   6.165  1.00  0.00     0.010 A 
ATOM     40  C   UNL     1       4.051  -6.357   6.362  1.00  0.00    -0.014 A 
BRANCH  40  41
ATOM     41  C   UNL     1       4.602  -6.222   7.730  1.00  0.00     0.031 A 
ATOM     42  C   UNL     1       5.142  -7.457   8.397  1.00  0.00     0.074 A 
ATOM     43  C   UNL     1       4.637  -5.036   8.362  1.00  0.00     0.049 A 
ATOM     44  N   UNL     1       5.633  -7.605   9.598  1.00  0.00    -0.248 NA
ATOM     45  C   UNL     1       5.120  -8.696   7.598  1.00  0.00     0.031 C 
ATOM     46  C   UNL     1       4.165  -3.768   7.810  1.00  0.00     0.029 A 
ATOM     47  N   UNL     1       5.070  -4.716   9.624  1.00  0.00    -0.354 N 
ATOM     48  C   UNL     1       5.950  -8.954   9.711  1.00  0.00     0.074 A 
ATOM     49  C   UNL     1       5.585  -9.584   8.462  1.00  0.00     0.031 C 
ATOM     50  C   UNL     1       4.301  -2.811   8.744  1.00  0.00     0.029 A 
ATOM     51  C   UNL     1       4.841  -3.405   9.966  1.00  0.00     0.049 A 
ATOM     52  H   UNL     1       5.503  -5.363  10.226  1.00  0.00     0.167 HD
ATOM     53  C   UNL     1       6.506  -9.608  10.757  1.00  0.00     0.034 A 
ATOM     54  C   UNL     1       5.019  -2.769  11.142  1.00  0.00     0.034 A 
ATOM     55  C   UNL     1       6.873  -8.976  11.994  1.00  0.00     0.049 A 
ATOM     56  C   UNL     1       5.601  -3.529  12.308  1.00  0.00     0.074 A 
ATOM     57  C   UNL     1       7.474  -9.543  13.103  1.00  0.00     0.029 A 
ATOM     58  N   UNL     1       6.655  -7.640  12.293  1.00  0.00    -0.354 N 
ATOM     59  N   UNL     1       5.989  -4.780  12.370  1.00  0.00    -0.248 NA
ATOM     60  C   UNL     1       5.798  -2.780  13.558  1.00  0.00     0.031 C 
ATOM     61  C   UNL     1       7.582  -8.557  14.089  1.00  0.00     0.029 A 
ATOM     62  C   UNL     1       7.094  -7.366  13.576  1.00  0.00     0.049 A 
ATOM     63  H   UNL     1       6.247  -6.984  11.684  1.00  0.00     0.167 HD
ATOM     64  C   UNL     1       6.513  -4.957  13.647  1.00  0.00     0.074 A 
ATOM     65  C   UNL     1       6.407  -3.679  14.320  1.00  0.00     0.031 C 
ATOM     66  C   UNL     1       7.027  -6.077  14.215  1.00  0.00     0.034 A 
BRANCH  53  67
ATOM     67  C   UNL     1       6.753 -11.085  10.603  1.00  0.00     0.023 A 
ATOM     68  C   UNL     1       7.767 -11.544   9.738  1.00  0.00     0.012 A 
ATOM     69  C   UNL     1       6.006 -12.018  11.348  1.00  0.00     0.148 A 
ATOM     70  C   UNL     1       8.011 -12.909   9.590  1.00  0.00     0.002 A 
ATOM     71  C   UNL     1       6.288 -13.373  11.234  1.00  0.00     0.091 A 
ATOM     72  F   UNL     1       5.030 -11.563  12.146  1.00  0.00    -0.205 F 
ATOM     73  C   UNL     1       7.279 -13.821  10.345  1.00  0.00     0.022 A 
BRANCH  71  74
ATOM     74  S   UNL     1       5.458 -14.622  12.222  1.00  0.00     0.127 S 
ATOM     75  O   UNL     1       4.678 -15.330  11.207  1.00  0.00    -0.237 OA
ATOM     76  O   UNL     1       6.585 -15.380  12.765  1.00  0.00    -0.237 OA
ATOM     77  O   UNL     1       4.675 -13.898  13.213  1.00  0.00    -0.744 OA
ENDBRANCH  71  74
ENDBRANCH  53  67
BRANCH  54  78
ATOM     78  C   UNL     1       4.650  -1.331  11.278  1.00  0.00     0.023 A 
ATOM     79  C   UNL     1       5.656  -0.365  11.471  1.00  0.00     0.012 A 
ATOM     80  C   UNL     1       3.305  -0.918  11.213  1.00  0.00     0.148 A 
ATOM     81  C   UNL     1       5.326   0.982  11.633  1.00  0.00     0.002 A 
ATOM     82  C   UNL     1       2.987   0.431  11.317  1.00  0.00     0.091 A 
ATOM     83  F   UNL     1       2.361  -1.854  11.044  1.00  0.00    -0.205 F 
ATOM     84  C   UNL     1       3.995   1.381  11.547  1.00  0.00     0.022 A 
BRANCH  82  85
ATOM     85  S   UNL     1       1.315   1.049  11.097  1.00  0.00     0.127 S 
ATOM     86  O   UNL     1       0.998   1.539  12.435  1.00  0.00    -0.237 OA
ATOM     87  O   UNL     1       1.512   2.091  10.088  1.00  0.00    -0.237 OA
ATOM     88  O   UNL     1       0.528  -0.087  10.640  1.00  0.00    -0.744 OA
ENDBRANCH  82  85
ENDBRANCH  54  78
BRANCH  66  89
ATOM     89  C   UNL     1       7.567  -5.969  15.619  1.00  0.00     0.023 A 
ATOM     90  C   UNL     1       6.687  -5.809  16.707  1.00  0.00     0.012 A 
ATOM     91  C   UNL     1       8.949  -6.108  15.862  1.00  0.00     0.148 A 
ATOM     92  C   UNL     1       7.177  -5.750  18.012  1.00  0.00     0.002 A 
ATOM     93  C   UNL     1       9.424  -6.104  17.168  1.00  0.00     0.091 A 
ATOM     94  F   UNL     1       9.771  -6.246  14.812  1.00  0.00    -0.205 F 
ATOM     95  C   UNL     1       8.542  -5.910  18.243  1.00  0.00     0.022 A 
BRANCH  93  96
ATOM     96  S   UNL     1      11.149  -6.404  17.567  1.00  0.00     0.127 S 
ATOM     97  O   UNL     1      11.579  -5.087  18.037  1.00  0.00    -0.237 OA
ATOM     98  O   UNL     1      11.051  -7.422  18.613  1.00  0.00    -0.237 OA
ATOM     99  O   UNL     1      11.776  -6.860  16.334  1.00  0.00    -0.744 OA
ENDBRANCH  93  96
ENDBRANCH  66  89
ENDBRANCH  40  41
ENDBRANCH  33  35
ENDBRANCH  32  33
ENDBRANCH  31  32
ENDBRANCH  30  31
ENDBRANCH  29  30
ENDBRANCH  28  29
ENDBRANCH   1  28
TORSDOF 26
