REMARK SMILES C[C@H](Oc1cccc(/C=C2/SC(=S)N(c3ccc(Cl)c(Cl)c3)C2=O)c1)C(=O)OCCOCCOCCOCCOC(=O)c1ccc(-c2c3nc(c(-c4cccc(S(=O)(=O)[O-])c4F)c4ccc([nH]4)c(-c4cccc(S(=O)(=O)[O-])c4F)c4nc(c(-c5cccc(S(=O)(=O)[O-])c5F)c5ccc2[nH]5)C=C4)C=C3)cc1
REMARK SMILES IDX 33 1 32 2 31 3 30 4 29 5 28 6 26 7 27 8 2 9 1 10 3 11 4 12
REMARK SMILES IDX 5 13 25 14 6 15 8 16 7 17 9 18 10 19 11 20 23 21 12 22 14 23
REMARK SMILES IDX 24 24 13 25 15 26 16 27 22 28 17 29 20 30 18 31 21 32 19 33
REMARK SMILES IDX 34 34 35 35 36 36 37 37 38 38 39 39 40 40 41 41 42 42 43 43
REMARK SMILES IDX 44 44 105 45 45 46 104 47 46 48 47 49 48 50 98 51 49 52
REMARK SMILES IDX 103 53 97 54 99 55 50 56 102 57 96 58 95 59 51 61 83 62
REMARK SMILES IDX 63 63 82 64 64 65 67 66 81 67 100 68 65 69 66 70 80 72
REMARK SMILES IDX 101 73 68 74 52 75 53 76 61 77 54 78 56 79 62 80 55 81 57 82
REMARK SMILES IDX 58 83 59 84 60 85 84 86 85 87 93 88 86 89 88 90 94 91 87 92
REMARK SMILES IDX 89 93 90 94 91 95 92 96 69 97 70 98 78 99 71 100 73 101
REMARK SMILES IDX 79 102 72 103 74 104 75 105 76 106 77 107
REMARK H PARENT 99 60 67 71
REMARK Flexibility Score: inf
ROOT
ATOM      1  C   UNL     1      -1.248  -0.095   1.083  1.00  0.00     0.188 C 
ENDROOT
BRANCH   1   2
ATOM      2  C   UNL     1      -1.746   1.250   1.651  1.00  0.00     0.188 C 
BRANCH   2   3
ATOM      3  O   UNL     1      -3.004   1.814   1.288  1.00  0.00    -0.376 OA
BRANCH   3   4
ATOM      4  C   UNL     1      -3.536   1.636  -0.016  1.00  0.00     0.202 C 
BRANCH   4   5
ATOM      5  C   UNL     1      -2.739   2.100  -1.237  1.00  0.00     0.261 C 
BRANCH   5   6
ATOM      6  O   UNL     1      -1.364   1.704  -1.279  1.00  0.00    -0.461 OA
BRANCH   6   7
ATOM      7  C   UNL     1      -0.452   2.663  -0.972  1.00  0.00     0.347 C 
ATOM      8  O   UNL     1      -0.727   3.777  -0.534  1.00  0.00    -0.248 OA
BRANCH   7   9
ATOM      9  C   UNL     1       0.975   2.253  -1.363  1.00  0.00     0.279 C 
ATOM     10  C   UNL     1       1.034   2.481  -2.876  1.00  0.00     0.066 C 
BRANCH   9  11
ATOM     11  O   UNL     1       1.317   0.922  -0.973  1.00  0.00    -0.479 OA
BRANCH  11  12
ATOM     12  C   UNL     1       2.616   0.497  -1.106  1.00  0.00     0.121 A 
ATOM     13  C   UNL     1       3.683   1.292  -1.524  1.00  0.00     0.046 A 
ATOM     14  C   UNL     1       2.854  -0.860  -0.838  1.00  0.00     0.054 A 
ATOM     15  C   UNL     1       4.931   0.726  -1.791  1.00  0.00     0.004 A 
ATOM     16  C   UNL     1       4.117  -1.435  -1.081  1.00  0.00    -0.021 A 
ATOM     17  C   UNL     1       5.144  -0.634  -1.584  1.00  0.00     0.008 A 
BRANCH  16  18
ATOM     18  C   UNL     1       4.412  -2.861  -0.870  1.00  0.00     0.029 C 
ATOM     19  C   UNL     1       3.853  -3.881  -1.534  1.00  0.00     0.081 C 
ATOM     20  S   UNL     1       4.201  -5.534  -1.222  1.00  0.00    -0.054 SA
ATOM     21  C   UNL     1       2.801  -3.765  -2.570  1.00  0.00     0.270 C 
ATOM     22  C   UNL     1       2.852  -6.097  -2.218  1.00  0.00     0.152 C 
ATOM     23  N   UNL     1       2.207  -5.006  -2.781  1.00  0.00    -0.261 N 
ATOM     24  O   UNL     1       2.500  -2.689  -3.067  1.00  0.00    -0.268 OA
ATOM     25  S   UNL     1       2.576  -7.738  -2.393  1.00  0.00    -0.051 S 
BRANCH  23  26
ATOM     26  C   UNL     1       0.922  -5.011  -3.389  1.00  0.00     0.052 A 
ATOM     27  C   UNL     1       0.615  -4.102  -4.418  1.00  0.00     0.028 A 
ATOM     28  C   UNL     1      -0.106  -5.786  -2.865  1.00  0.00     0.048 A 
ATOM     29  C   UNL     1      -0.701  -3.749  -4.686  1.00  0.00     0.024 A 
ATOM     30  C   UNL     1      -1.393  -5.580  -3.333  1.00  0.00     0.061 A 
ATOM     31  C   UNL     1      -1.701  -4.386  -3.978  1.00  0.00     0.059 A 
ATOM     32  Cl  UNL     1      -2.112  -7.054  -3.922  1.00  0.00    -0.083 Cl
ATOM     33  Cl  UNL     1      -2.717  -3.255  -3.093  1.00  0.00    -0.083 Cl
ENDBRANCH  23  26
ENDBRANCH  16  18
ENDBRANCH  11  12
ENDBRANCH   9  11
ENDBRANCH   7   9
ENDBRANCH   6   7
ENDBRANCH   5   6
ENDBRANCH   4   5
ENDBRANCH   3   4
ENDBRANCH   2   3
ENDBRANCH   1   2
BRANCH   1  34
ATOM     34  O   UNL     1      -2.095  -0.673   0.110  1.00  0.00    -0.377 OA
BRANCH  34  35
ATOM     35  C   UNL     1      -2.905  -1.752   0.560  1.00  0.00     0.188 C 
BRANCH  35  36
ATOM     36  C   UNL     1      -3.722  -1.482   1.835  1.00  0.00     0.188 C 
BRANCH  36  37
ATOM     37  O   UNL     1      -2.897  -1.337   2.993  1.00  0.00    -0.376 OA
BRANCH  37  38
ATOM     38  C   UNL     1      -2.788  -2.481   3.834  1.00  0.00     0.202 C 
BRANCH  38  39
ATOM     39  C   UNL     1      -1.956  -3.637   3.259  1.00  0.00     0.261 C 
BRANCH  39  40
ATOM     40  O   UNL     1      -2.499  -4.311   2.107  1.00  0.00    -0.460 OA
BRANCH  40  41
ATOM     41  C   UNL     1      -3.777  -4.752   2.133  1.00  0.00     0.338 C 
ATOM     42  O   UNL     1      -4.549  -4.722   3.070  1.00  0.00    -0.246 OA
BRANCH  41  43
ATOM     43  C   UNL     1      -4.138  -5.157   0.757  1.00  0.00     0.060 A 
ATOM     44  C   UNL     1      -5.221  -4.560   0.089  1.00  0.00     0.016 A 
ATOM     45  C   UNL     1      -3.412  -6.164   0.141  1.00  0.00     0.016 A 
ATOM     46  C   UNL     1      -5.594  -4.985  -1.201  1.00  0.00     0.010 A 
ATOM     47  C   UNL     1      -3.806  -6.596  -1.123  1.00  0.00     0.010 A 
ATOM     48  C   UNL     1      -4.907  -6.031  -1.818  1.00  0.00    -0.014 A 
BRANCH  48  49
ATOM     49  C   UNL     1      -5.345  -6.707  -3.090  1.00  0.00     0.031 A 
ATOM     50  C   UNL     1      -5.635  -8.182  -3.007  1.00  0.00     0.074 A 
ATOM     51  C   UNL     1      -5.271  -6.140  -4.315  1.00  0.00     0.049 A 
ATOM     52  N   UNL     1      -5.661  -9.084  -3.950  1.00  0.00    -0.248 NA
ATOM     53  C   UNL     1      -5.905  -8.708  -1.657  1.00  0.00     0.031 C 
ATOM     54  C   UNL     1      -5.045  -4.733  -4.606  1.00  0.00     0.029 A 
ATOM     55  N   UNL     1      -5.199  -6.739  -5.562  1.00  0.00    -0.354 N 
ATOM     56  C   UNL     1      -5.919 -10.286  -3.307  1.00  0.00     0.074 A 
ATOM     57  C   UNL     1      -5.961 -10.009  -1.887  1.00  0.00     0.031 C 
ATOM     58  C   UNL     1      -4.629  -4.600  -5.878  1.00  0.00     0.029 A 
ATOM     59  C   UNL     1      -4.634  -5.912  -6.517  1.00  0.00     0.049 A 
ATOM     60  H   UNL     1      -5.515  -7.652  -5.748  1.00  0.00     0.167 HD
ATOM     61  C   UNL     1      -6.166 -11.502  -3.845  1.00  0.00     0.034 A 
ATOM     62  C   UNL     1      -4.145  -6.178  -7.748  1.00  0.00     0.034 A 
ATOM     63  C   UNL     1      -6.186 -11.767  -5.255  1.00  0.00     0.049 A 
ATOM     64  C   UNL     1      -4.363  -7.544  -8.346  1.00  0.00     0.074 A 
ATOM     65  C   UNL     1      -6.593 -12.914  -5.911  1.00  0.00     0.029 A 
ATOM     66  N   UNL     1      -5.760 -10.877  -6.226  1.00  0.00    -0.354 N 
ATOM     67  N   UNL     1      -4.829  -8.625  -7.774  1.00  0.00    -0.248 NA
ATOM     68  C   UNL     1      -4.095  -7.699  -9.786  1.00  0.00     0.031 C 
ATOM     69  C   UNL     1      -6.391 -12.726  -7.282  1.00  0.00     0.029 A 
ATOM     70  C   UNL     1      -5.883 -11.451  -7.479  1.00  0.00     0.049 A 
ATOM     71  H   UNL     1      -5.420  -9.970  -6.052  1.00  0.00     0.167 HD
ATOM     72  C   UNL     1      -5.001  -9.555  -8.793  1.00  0.00     0.074 A 
ATOM     73  C   UNL     1      -4.553  -8.924 -10.017  1.00  0.00     0.031 C 
ATOM     74  C   UNL     1      -5.513 -10.808  -8.713  1.00  0.00     0.034 A 
BRANCH  61  75
ATOM     75  C   UNL     1      -6.518 -12.610  -2.891  1.00  0.00     0.023 A 
ATOM     76  C   UNL     1      -7.734 -12.548  -2.178  1.00  0.00     0.012 A 
ATOM     77  C   UNL     1      -5.656 -13.704  -2.695  1.00  0.00     0.148 A 
ATOM     78  C   UNL     1      -8.057 -13.521  -1.236  1.00  0.00     0.002 A 
ATOM     79  C   UNL     1      -6.011 -14.699  -1.794  1.00  0.00     0.091 A 
ATOM     80  F   UNL     1      -4.495 -13.736  -3.365  1.00  0.00    -0.205 F 
ATOM     81  C   UNL     1      -7.199 -14.600  -1.050  1.00  0.00     0.022 A 
BRANCH  79  82
ATOM     82  S   UNL     1      -5.015 -16.173  -1.551  1.00  0.00     0.127 S 
ATOM     83  O   UNL     1      -4.367 -15.885  -0.273  1.00  0.00    -0.237 OA
ATOM     84  O   UNL     1      -6.029 -17.226  -1.496  1.00  0.00    -0.237 OA
ATOM     85  O   UNL     1      -4.131 -16.248  -2.706  1.00  0.00    -0.744 OA
ENDBRANCH  79  82
ENDBRANCH  61  75
BRANCH  62  86
ATOM     86  C   UNL     1      -3.497  -5.100  -8.553  1.00  0.00     0.023 A 
ATOM     87  C   UNL     1      -4.246  -4.443  -9.548  1.00  0.00     0.012 A 
ATOM     88  C   UNL     1      -2.154  -4.721  -8.341  1.00  0.00     0.148 A 
ATOM     89  C   UNL     1      -3.667  -3.447 -10.336  1.00  0.00     0.002 A 
ATOM     90  C   UNL     1      -1.593  -3.704  -9.110  1.00  0.00     0.091 A 
ATOM     91  F   UNL     1      -1.454  -5.363  -7.396  1.00  0.00    -0.205 F 
ATOM     92  C   UNL     1      -2.345  -3.075 -10.114  1.00  0.00     0.022 A 
BRANCH  90  93
ATOM     93  S   UNL     1       0.079  -3.086  -8.863  1.00  0.00     0.127 S 
ATOM     94  O   UNL     1       0.698  -3.359 -10.158  1.00  0.00    -0.237 OA
ATOM     95  O   UNL     1      -0.169  -1.672  -8.584  1.00  0.00    -0.237 OA
ATOM     96  O   UNL     1       0.623  -3.839  -7.743  1.00  0.00    -0.744 OA
ENDBRANCH  90  93
ENDBRANCH  62  86
BRANCH  74  97
ATOM     97  C   UNL     1      -5.726 -11.583  -9.986  1.00  0.00     0.023 A 
ATOM     98  C   UNL     1      -4.634 -12.154 -10.665  1.00  0.00     0.012 A 
ATOM     99  C   UNL     1      -7.037 -11.848 -10.437  1.00  0.00     0.148 A 
ATOM    100  C   UNL     1      -4.841 -12.966 -11.781  1.00  0.00     0.002 A 
ATOM    101  C   UNL     1      -7.238 -12.697 -11.519  1.00  0.00     0.091 A 
ATOM    102  F   UNL     1      -8.063 -11.278  -9.788  1.00  0.00    -0.205 F 
ATOM    103  C   UNL     1      -6.141 -13.250 -12.197  1.00  0.00     0.022 A 
BRANCH 101 104
ATOM    104  S   UNL     1      -8.876 -13.200 -12.060  1.00  0.00     0.127 S 
ATOM    105  O   UNL     1      -8.985 -12.522 -13.351  1.00  0.00    -0.237 OA
ATOM    106  O   UNL     1      -8.741 -14.655 -12.145  1.00  0.00    -0.237 OA
ATOM    107  O   UNL     1      -9.802 -12.738 -11.035  1.00  0.00    -0.744 OA
ENDBRANCH 101 104
ENDBRANCH  74  97
ENDBRANCH  48  49
ENDBRANCH  41  43
ENDBRANCH  40  41
ENDBRANCH  39  40
ENDBRANCH  38  39
ENDBRANCH  37  38
ENDBRANCH  36  37
ENDBRANCH  35  36
ENDBRANCH  34  35
ENDBRANCH   1  34
TORSDOF 27
