REMARK SMILES C[C@@H](NC1=[NH+]CCC1)C(=O)OCCOCCOCCOCCOC(=O)c1ccc(-c2c3nc(c(-c4cccc(S(=O)(=O)[O-])c4F)c4ccc([nH]4)c(-c4cccc(S(=O)(=O)[O-])c4F)c4nc(c(-c5cccc(S(=O)(=O)[O-])c5F)c5ccc2[nH]5)C=C4)C=C3)cc1
REMARK SMILES IDX 18 1 17 2 16 3 15 4 14 5 13 6 12 7 11 8 9 9 10 10 2 11 1 12
REMARK SMILES IDX 3 13 4 14 5 16 8 17 6 18 7 20 19 21 20 22 21 23 22 24 23 25
REMARK SMILES IDX 24 26 25 27 26 28 27 29 88 30 28 31 87 32 29 33 30 34 31 35
REMARK SMILES IDX 81 36 32 37 86 38 80 39 82 40 33 41 85 42 79 43 78 44 34 46
REMARK SMILES IDX 66 47 46 48 65 49 47 50 50 51 64 52 83 53 48 54 49 55 63 57
REMARK SMILES IDX 84 58 51 59 35 60 36 61 44 62 37 63 39 64 45 65 38 66 40 67
REMARK SMILES IDX 41 68 42 69 43 70 67 71 68 72 76 73 69 74 71 75 77 76 70 77
REMARK SMILES IDX 72 78 73 79 74 80 75 81 52 82 53 83 61 84 54 85 56 86 62 87
REMARK SMILES IDX 55 88 57 89 58 90 59 91 60 92
REMARK H PARENT 3 15 5 19 82 45 50 56
REMARK Flexibility Score: inf
ROOT
ATOM      1  C   UNL     1      -3.026   1.972  -0.414  1.00  0.00     0.188 C 
ENDROOT
BRANCH   1   2
ATOM      2  O   UNL     1      -2.142   0.872  -0.217  1.00  0.00    -0.377 OA
BRANCH   2   3
ATOM      3  C   UNL     1      -1.493   0.358  -1.362  1.00  0.00     0.188 C 
BRANCH   3   4
ATOM      4  C   UNL     1      -2.199  -0.823  -2.057  1.00  0.00     0.188 C 
BRANCH   4   5
ATOM      5  O   UNL     1      -3.436  -1.349  -1.598  1.00  0.00    -0.376 OA
BRANCH   5   6
ATOM      6  C   UNL     1      -3.812  -1.303  -0.233  1.00  0.00     0.202 C 
BRANCH   6   7
ATOM      7  C   UNL     1      -2.924  -1.924   0.845  1.00  0.00     0.261 C 
BRANCH   7   8
ATOM      8  O   UNL     1      -1.542  -1.539   0.894  1.00  0.00    -0.460 OA
BRANCH   8   9
ATOM      9  C   UNL     1      -0.652  -2.359   0.276  1.00  0.00     0.350 C 
ATOM     10  O   UNL     1      -0.960  -3.276  -0.481  1.00  0.00    -0.247 OA
BRANCH   9  11
ATOM     11  C   UNL     1       0.789  -2.123   0.741  1.00  0.00     0.279 C 
ATOM     12  C   UNL     1       1.186  -0.650   0.885  1.00  0.00     0.071 C 
BRANCH  11  13
ATOM     13  N   UNL     1       1.116  -2.834   1.983  1.00  0.00    -0.265 N 
ATOM     14  C   UNL     1       0.220  -3.281   2.909  1.00  0.00     0.243 C 
ATOM     15  H   UNL     1       2.069  -3.005   2.164  1.00  0.00     0.305 HD
ATOM     16  N   UNL     1       0.339  -2.910   4.149  1.00  0.00    -0.279 N 
ATOM     17  C   UNL     1      -0.871  -4.282   2.644  1.00  0.00     0.131 C 
ATOM     18  C   UNL     1      -0.799  -3.533   4.858  1.00  0.00     0.234 C 
ATOM     19  H   UNL     1       1.038  -2.334   4.534  1.00  0.00     0.304 HD
ATOM     20  C   UNL     1      -1.793  -3.910   3.776  1.00  0.00     0.058 C 
ENDBRANCH  11  13
ENDBRANCH   9  11
ENDBRANCH   8   9
ENDBRANCH   7   8
ENDBRANCH   6   7
ENDBRANCH   5   6
ENDBRANCH   4   5
ENDBRANCH   3   4
ENDBRANCH   2   3
ENDBRANCH   1   2
BRANCH   1  21
ATOM     21  C   UNL     1      -3.898   1.960  -1.685  1.00  0.00     0.188 C 
BRANCH  21  22
ATOM     22  O   UNL     1      -3.159   1.759  -2.884  1.00  0.00    -0.376 OA
BRANCH  22  23
ATOM     23  C   UNL     1      -2.766   2.887  -3.649  1.00  0.00     0.202 C 
BRANCH  23  24
ATOM     24  C   UNL     1      -1.778   3.874  -3.005  1.00  0.00     0.261 C 
BRANCH  24  25
ATOM     25  O   UNL     1      -2.223   4.519  -1.803  1.00  0.00    -0.460 OA
BRANCH  25  26
ATOM     26  C   UNL     1      -3.384   5.208  -1.865  1.00  0.00     0.338 C 
ATOM     27  O   UNL     1      -4.051   5.425  -2.855  1.00  0.00    -0.246 OA
BRANCH  26  28
ATOM     28  C   UNL     1      -3.832   5.474  -0.481  1.00  0.00     0.060 A 
ATOM     29  C   UNL     1      -5.110   5.040  -0.108  1.00  0.00     0.016 A 
ATOM     30  C   UNL     1      -3.022   6.161   0.426  1.00  0.00     0.016 A 
ATOM     31  C   UNL     1      -5.607   5.350   1.154  1.00  0.00     0.010 A 
ATOM     32  C   UNL     1      -3.530   6.490   1.687  1.00  0.00     0.010 A 
ATOM     33  C   UNL     1      -4.844   6.128   2.034  1.00  0.00    -0.014 A 
BRANCH  33  34
ATOM     34  C   UNL     1      -5.521   6.727   3.208  1.00  0.00     0.031 A 
ATOM     35  C   UNL     1      -6.005   8.150   3.108  1.00  0.00     0.074 A 
ATOM     36  C   UNL     1      -5.777   5.998   4.308  1.00  0.00     0.049 A 
ATOM     37  N   UNL     1      -6.684   8.856   3.973  1.00  0.00    -0.248 NA
ATOM     38  C   UNL     1      -5.686   8.870   1.864  1.00  0.00     0.031 C 
ATOM     39  C   UNL     1      -5.365   4.612   4.518  1.00  0.00     0.029 A 
ATOM     40  N   UNL     1      -6.441   6.332   5.460  1.00  0.00    -0.354 N 
ATOM     41  C   UNL     1      -6.865  10.103   3.385  1.00  0.00     0.074 A 
ATOM     42  C   UNL     1      -6.200  10.067   2.101  1.00  0.00     0.031 C 
ATOM     43  C   UNL     1      -5.765   4.220   5.740  1.00  0.00     0.029 A 
ATOM     44  C   UNL     1      -6.447   5.331   6.401  1.00  0.00     0.049 A 
ATOM     45  H   UNL     1      -6.873   7.206   5.600  1.00  0.00     0.167 HD
ATOM     46  C   UNL     1      -7.546  11.174   3.857  1.00  0.00     0.034 A 
ATOM     47  C   UNL     1      -6.931   5.323   7.659  1.00  0.00     0.034 A 
ATOM     48  C   UNL     1      -8.209  11.207   5.132  1.00  0.00     0.049 A 
ATOM     49  C   UNL     1      -7.657   6.539   8.174  1.00  0.00     0.074 A 
ATOM     50  C   UNL     1      -8.938  12.239   5.696  1.00  0.00     0.029 A 
ATOM     51  N   UNL     1      -8.215  10.166   6.047  1.00  0.00    -0.354 N 
ATOM     52  N   UNL     1      -7.908   7.673   7.565  1.00  0.00    -0.248 NA
ATOM     53  C   UNL     1      -8.203   6.457   9.536  1.00  0.00     0.031 C 
ATOM     54  C   UNL     1      -9.359  11.832   6.967  1.00  0.00     0.029 A 
ATOM     55  C   UNL     1      -8.929  10.531   7.176  1.00  0.00     0.049 A 
ATOM     56  H   UNL     1      -7.776   9.295   5.915  1.00  0.00     0.167 HD
ATOM     57  C   UNL     1      -8.667   8.425   8.456  1.00  0.00     0.074 A 
ATOM     58  C   UNL     1      -8.862   7.603   9.632  1.00  0.00     0.031 C 
ATOM     59  C   UNL     1      -9.148   9.687   8.322  1.00  0.00     0.034 A 
BRANCH  46  60
ATOM     60  C   UNL     1      -7.626  12.392   2.974  1.00  0.00     0.023 A 
ATOM     61  C   UNL     1      -8.425  12.360   1.811  1.00  0.00     0.012 A 
ATOM     62  C   UNL     1      -6.955  13.581   3.317  1.00  0.00     0.148 A 
ATOM     63  C   UNL     1      -8.529  13.481   0.989  1.00  0.00     0.002 A 
ATOM     64  C   UNL     1      -7.101  14.709   2.518  1.00  0.00     0.091 A 
ATOM     65  F   UNL     1      -6.183  13.585   4.413  1.00  0.00    -0.205 F 
ATOM     66  C   UNL     1      -7.877  14.658   1.349  1.00  0.00     0.022 A 
BRANCH  64  67
ATOM     67  S   UNL     1      -6.367  16.295   2.933  1.00  0.00     0.127 S 
ATOM     68  O   UNL     1      -5.381  16.451   1.864  1.00  0.00    -0.237 OA
ATOM     69  O   UNL     1      -7.515  17.197   2.840  1.00  0.00    -0.237 OA
ATOM     70  O   UNL     1      -5.813  16.146   4.271  1.00  0.00    -0.744 OA
ENDBRANCH  64  67
ENDBRANCH  46  60
BRANCH  47  71
ATOM     71  C   UNL     1      -6.754   4.119   8.519  1.00  0.00     0.023 A 
ATOM     72  C   UNL     1      -7.872   3.356   8.911  1.00  0.00     0.012 A 
ATOM     73  C   UNL     1      -5.473   3.731   8.957  1.00  0.00     0.148 A 
ATOM     74  C   UNL     1      -7.720   2.255   9.754  1.00  0.00     0.002 A 
ATOM     75  C   UNL     1      -5.322   2.598   9.745  1.00  0.00     0.091 A 
ATOM     76  F   UNL     1      -4.424   4.481   8.589  1.00  0.00    -0.205 F 
ATOM     77  C   UNL     1      -6.446   1.870  10.163  1.00  0.00     0.022 A 
BRANCH  75  78
ATOM     78  S   UNL     1      -3.709   1.957  10.207  1.00  0.00     0.127 S 
ATOM     79  O   UNL     1      -3.676   2.237  11.639  1.00  0.00    -0.237 OA
ATOM     80  O   UNL     1      -3.839   0.542   9.856  1.00  0.00    -0.237 OA
ATOM     81  O   UNL     1      -2.749   2.692   9.395  1.00  0.00    -0.744 OA
ENDBRANCH  75  78
ENDBRANCH  47  71
BRANCH  59  82
ATOM     82  C   UNL     1      -9.965  10.243   9.462  1.00  0.00     0.023 A 
ATOM     83  C   UNL     1      -9.346  10.555  10.689  1.00  0.00     0.012 A 
ATOM     84  C   UNL     1     -11.343  10.493   9.302  1.00  0.00     0.148 A 
ATOM     85  C   UNL     1     -10.094  11.055  11.755  1.00  0.00     0.002 A 
ATOM     86  C   UNL     1     -12.071  11.043  10.350  1.00  0.00     0.091 A 
ATOM     87  F   UNL     1     -11.920  10.178   8.133  1.00  0.00    -0.205 F 
ATOM     88  C   UNL     1     -11.453  11.307  11.582  1.00  0.00     0.022 A 
BRANCH  86  89
ATOM     89  S   UNL     1     -13.802  11.493  10.186  1.00  0.00     0.127 S 
ATOM     90  O   UNL     1     -14.457  10.447  10.970  1.00  0.00    -0.237 OA
ATOM     91  O   UNL     1     -13.836  12.823  10.796  1.00  0.00    -0.237 OA
ATOM     92  O   UNL     1     -14.087  11.477   8.758  1.00  0.00    -0.744 OA
ENDBRANCH  86  89
ENDBRANCH  59  82
ENDBRANCH  33  34
ENDBRANCH  26  28
ENDBRANCH  25  26
ENDBRANCH  24  25
ENDBRANCH  23  24
ENDBRANCH  22  23
ENDBRANCH  21  22
ENDBRANCH   1  21
TORSDOF 24
