REMARK SMILES O=C(CSc1cc(-c2ccccc2)nc(-c2ccccc2F)n1)OCCOCCOCCOCCOC(=O)c1ccc(-c2c3nc(c(-c4cccc(S(=O)(=O)[O-])c4F)c4ccc([nH]4)c(-c4cccc(S(=O)(=O)[O-])c4F)c4nc(c(-c5cccc(S(=O)(=O)[O-])c5F)c5ccc2[nH]5)C=C4)C=C3)cc1
REMARK SMILES IDX 30 1 29 2 28 3 27 4 26 5 25 6 24 7 2 8 1 9 3 10 4 11 5 12
REMARK SMILES IDX 6 13 23 14 7 15 15 16 14 17 8 18 9 19 13 20 10 21 12 22
REMARK SMILES IDX 11 23 16 24 17 25 21 26 18 27 20 28 22 29 19 30 31 31 32 32
REMARK SMILES IDX 33 33 34 34 35 35 36 36 37 37 38 38 39 39 40 40 101 41 41 42
REMARK SMILES IDX 100 43 42 44 43 45 44 46 94 47 45 48 99 49 93 50 95 51 46 52
REMARK SMILES IDX 98 53 92 54 91 55 47 57 79 58 59 59 78 60 60 61 63 62 77 63
REMARK SMILES IDX 96 64 61 65 62 66 76 68 97 69 64 70 48 71 49 72 57 73 50 74
REMARK SMILES IDX 52 75 58 76 51 77 53 78 54 79 55 80 56 81 80 82 81 83 89 84
REMARK SMILES IDX 82 85 84 86 90 87 83 88 85 89 86 90 87 91 88 92 65 93 66 94
REMARK SMILES IDX 74 95 67 96 69 97 75 98 68 99 70 100 71 101 72 102 73 103
REMARK H PARENT 95 56 63 67
REMARK Flexibility Score: inf
ROOT
ATOM      1  O   UNL     1       2.708   2.072   3.067  1.00  0.00    -0.377 OA
ENDROOT
BRANCH   1   2
ATOM      2  C   UNL     1       2.058   1.268   2.095  1.00  0.00     0.188 C 
BRANCH   2   3
ATOM      3  C   UNL     1       2.668  -0.119   1.881  1.00  0.00     0.188 C 
BRANCH   3   4
ATOM      4  O   UNL     1       4.064  -0.224   1.657  1.00  0.00    -0.376 OA
BRANCH   4   5
ATOM      5  C   UNL     1       4.777   0.110   0.479  1.00  0.00     0.202 C 
BRANCH   5   6
ATOM      6  C   UNL     1       4.122   0.769  -0.729  1.00  0.00     0.261 C 
BRANCH   6   7
ATOM      7  O   UNL     1       2.773   0.394  -1.039  1.00  0.00    -0.463 OA
BRANCH   7   8
ATOM      8  C   UNL     1       2.271  -0.851  -1.150  1.00  0.00     0.316 C 
ATOM      9  O   UNL     1       1.066  -0.992  -1.368  1.00  0.00    -0.251 OA
BRANCH   8  10
ATOM     10  C   UNL     1       3.134  -2.059  -0.846  1.00  0.00     0.199 C 
BRANCH  10  11
ATOM     11  S   UNL     1       4.518  -2.285  -1.994  1.00  0.00    -0.094 SA
BRANCH  11  12
ATOM     12  C   UNL     1       3.468  -2.526  -3.387  1.00  0.00     0.101 A 
ATOM     13  C   UNL     1       3.055  -3.797  -3.645  1.00  0.00     0.064 A 
ATOM     14  N   UNL     1       2.911  -1.432  -3.909  1.00  0.00    -0.222 NA
ATOM     15  C   UNL     1       1.968  -3.902  -4.474  1.00  0.00     0.075 A 
ATOM     16  C   UNL     1       1.824  -1.624  -4.673  1.00  0.00     0.163 A 
ATOM     17  N   UNL     1       1.337  -2.836  -5.005  1.00  0.00    -0.228 NA
BRANCH  15  18
ATOM     18  C   UNL     1       1.526  -5.241  -4.838  1.00  0.00     0.000 A 
ATOM     19  C   UNL     1       1.859  -5.743  -6.101  1.00  0.00     0.010 A 
ATOM     20  C   UNL     1       0.977  -6.112  -3.879  1.00  0.00     0.010 A 
ATOM     21  C   UNL     1       1.698  -7.096  -6.387  1.00  0.00     0.001 A 
ATOM     22  C   UNL     1       0.809  -7.465  -4.170  1.00  0.00     0.001 A 
ATOM     23  C   UNL     1       1.184  -7.957  -5.419  1.00  0.00     0.000 A 
ENDBRANCH  15  18
BRANCH  16  24
ATOM     24  C   UNL     1       1.154  -0.411  -5.144  1.00  0.00     0.055 A 
ATOM     25  C   UNL     1       1.906   0.716  -5.540  1.00  0.00     0.015 A 
ATOM     26  C   UNL     1      -0.240  -0.293  -5.176  1.00  0.00     0.134 A 
ATOM     27  C   UNL     1       1.287   1.886  -5.989  1.00  0.00     0.001 A 
ATOM     28  C   UNL     1      -0.866   0.876  -5.617  1.00  0.00     0.040 A 
ATOM     29  F   UNL     1      -1.023  -1.295  -4.746  1.00  0.00    -0.206 F 
ATOM     30  C   UNL     1      -0.102   1.963  -6.035  1.00  0.00     0.003 A 
ENDBRANCH  16  24
ENDBRANCH  11  12
ENDBRANCH  10  11
ENDBRANCH   8  10
ENDBRANCH   7   8
ENDBRANCH   6   7
ENDBRANCH   5   6
ENDBRANCH   4   5
ENDBRANCH   3   4
ENDBRANCH   2   3
ENDBRANCH   1   2
BRANCH   1  31
ATOM     31  C   UNL     1       4.068   2.341   2.780  1.00  0.00     0.188 C 
BRANCH  31  32
ATOM     32  C   UNL     1       5.074   1.538   3.635  1.00  0.00     0.188 C 
BRANCH  32  33
ATOM     33  O   UNL     1       4.673   0.439   4.439  1.00  0.00    -0.376 OA
BRANCH  33  34
ATOM     34  C   UNL     1       3.502   0.496   5.235  1.00  0.00     0.202 C 
BRANCH  34  35
ATOM     35  C   UNL     1       3.114   1.711   6.095  1.00  0.00     0.261 C 
BRANCH  35  36
ATOM     36  O   UNL     1       3.439   3.003   5.582  1.00  0.00    -0.460 OA
BRANCH  36  37
ATOM     37  C   UNL     1       4.602   3.534   6.019  1.00  0.00     0.338 C 
ATOM     38  O   UNL     1       5.382   3.044   6.821  1.00  0.00    -0.246 OA
BRANCH  37  39
ATOM     39  C   UNL     1       4.904   4.716   5.188  1.00  0.00     0.060 A 
ATOM     40  C   UNL     1       6.131   4.759   4.506  1.00  0.00     0.016 A 
ATOM     41  C   UNL     1       3.977   5.750   5.048  1.00  0.00     0.016 A 
ATOM     42  C   UNL     1       6.449   5.849   3.703  1.00  0.00     0.010 A 
ATOM     43  C   UNL     1       4.316   6.866   4.285  1.00  0.00     0.010 A 
ATOM     44  C   UNL     1       5.569   6.933   3.647  1.00  0.00    -0.014 A 
BRANCH  44  45
ATOM     45  C   UNL     1       6.077   8.244   3.192  1.00  0.00     0.031 A 
ATOM     46  C   UNL     1       6.598   9.179   4.247  1.00  0.00     0.074 A 
ATOM     47  C   UNL     1       6.067   8.600   1.898  1.00  0.00     0.049 A 
ATOM     48  N   UNL     1       7.001  10.415   4.136  1.00  0.00    -0.248 NA
ATOM     49  C   UNL     1       6.662   8.644   5.620  1.00  0.00     0.031 C 
ATOM     50  C   UNL     1       5.617   7.761   0.790  1.00  0.00     0.029 A 
ATOM     51  N   UNL     1       6.418   9.787   1.308  1.00  0.00    -0.354 N 
ATOM     52  C   UNL     1       7.321  10.819   5.426  1.00  0.00     0.074 A 
ATOM     53  C   UNL     1       7.065   9.701   6.305  1.00  0.00     0.031 C 
ATOM     54  C   UNL     1       5.677   8.478  -0.346  1.00  0.00     0.029 A 
ATOM     55  C   UNL     1       6.136   9.832  -0.036  1.00  0.00     0.049 A 
ATOM     56  H   UNL     1       6.831  10.534   1.798  1.00  0.00     0.167 HD
ATOM     57  C   UNL     1       7.790  12.017   5.843  1.00  0.00     0.034 A 
ATOM     58  C   UNL     1       6.205  10.863  -0.901  1.00  0.00     0.034 A 
ATOM     59  C   UNL     1       8.043  13.121   4.963  1.00  0.00     0.049 A 
ATOM     60  C   UNL     1       6.692  12.203  -0.408  1.00  0.00     0.074 A 
ATOM     61  C   UNL     1       8.553  14.368   5.272  1.00  0.00     0.029 A 
ATOM     62  N   UNL     1       7.785  13.118   3.601  1.00  0.00    -0.354 N 
ATOM     63  N   UNL     1       7.080  12.550   0.796  1.00  0.00    -0.248 NA
ATOM     64  C   UNL     1       6.780  13.285  -1.400  1.00  0.00     0.031 C 
ATOM     65  C   UNL     1       8.563  15.134   4.103  1.00  0.00     0.029 A 
ATOM     66  C   UNL     1       8.111  14.346   3.055  1.00  0.00     0.049 A 
ATOM     67  H   UNL     1       7.423  12.354   3.096  1.00  0.00     0.167 HD
ATOM     68  C   UNL     1       7.499  13.873   0.697  1.00  0.00     0.074 A 
ATOM     69  C   UNL     1       7.325  14.262  -0.687  1.00  0.00     0.031 C 
ATOM     70  C   UNL     1       7.981  14.695   1.663  1.00  0.00     0.034 A 
BRANCH  57  71
ATOM     71  C   UNL     1       8.043  12.188   7.317  1.00  0.00     0.023 A 
ATOM     72  C   UNL     1       9.109  11.504   7.936  1.00  0.00     0.012 A 
ATOM     73  C   UNL     1       7.233  13.047   8.085  1.00  0.00     0.148 A 
ATOM     74  C   UNL     1       9.339  11.639   9.305  1.00  0.00     0.002 A 
ATOM     75  C   UNL     1       7.502  13.218   9.437  1.00  0.00     0.091 A 
ATOM     76  F   UNL     1       6.207  13.666   7.484  1.00  0.00    -0.205 F 
ATOM     77  C   UNL     1       8.543  12.503  10.052  1.00  0.00     0.022 A 
BRANCH  75  78
ATOM     78  S   UNL     1       6.587  14.371  10.465  1.00  0.00     0.127 S 
ATOM     79  O   UNL     1       5.843  13.464  11.338  1.00  0.00    -0.237 OA
ATOM     80  O   UNL     1       7.663  15.109  11.127  1.00  0.00    -0.237 OA
ATOM     81  O   UNL     1       5.776  15.167   9.555  1.00  0.00    -0.744 OA
ENDBRANCH  75  78
ENDBRANCH  57  71
BRANCH  58  82
ATOM     82  C   UNL     1       5.818  10.667  -2.327  1.00  0.00     0.023 A 
ATOM     83  C   UNL     1       6.806  10.716  -3.329  1.00  0.00     0.012 A 
ATOM     84  C   UNL     1       4.481  10.415  -2.692  1.00  0.00     0.148 A 
ATOM     85  C   UNL     1       6.465  10.550  -4.672  1.00  0.00     0.002 A 
ATOM     86  C   UNL     1       4.157  10.194  -4.025  1.00  0.00     0.091 A 
ATOM     87  F   UNL     1       3.555  10.383  -1.724  1.00  0.00    -0.205 F 
ATOM     88  C   UNL     1       5.144  10.279  -5.019  1.00  0.00     0.022 A 
BRANCH  86  89
ATOM     89  S   UNL     1       2.509   9.718  -4.555  1.00  0.00     0.127 S 
ATOM     90  O   UNL     1       2.111  10.867  -5.365  1.00  0.00    -0.237 OA
ATOM     91  O   UNL     1       2.781   8.496  -5.312  1.00  0.00    -0.237 OA
ATOM     92  O   UNL     1       1.742   9.514  -3.334  1.00  0.00    -0.744 OA
ENDBRANCH  86  89
ENDBRANCH  58  82
BRANCH  70  93
ATOM     93  C   UNL     1       8.424  16.078   1.259  1.00  0.00     0.023 A 
ATOM     94  C   UNL     1       7.474  17.059   0.917  1.00  0.00     0.012 A 
ATOM     95  C   UNL     1       9.789  16.426   1.314  1.00  0.00     0.148 A 
ATOM     96  C   UNL     1       7.879  18.357   0.604  1.00  0.00     0.002 A 
ATOM     97  C   UNL     1      10.180  17.733   1.056  1.00  0.00     0.091 A 
ATOM     98  F   UNL     1      10.679  15.473   1.629  1.00  0.00    -0.205 F 
ATOM     99  C   UNL     1       9.227  18.697   0.687  1.00  0.00     0.022 A 
BRANCH  97 100
ATOM    100  S   UNL     1      11.879  18.286   1.240  1.00  0.00     0.127 S 
ATOM    101  O   UNL     1      12.264  18.529  -0.149  1.00  0.00    -0.237 OA
ATOM    102  O   UNL     1      11.724  19.494   2.051  1.00  0.00    -0.237 OA
ATOM    103  O   UNL     1      12.588  17.199   1.902  1.00  0.00    -0.744 OA
ENDBRANCH  97 100
ENDBRANCH  70  93
ENDBRANCH  44  45
ENDBRANCH  37  39
ENDBRANCH  36  37
ENDBRANCH  35  36
ENDBRANCH  34  35
ENDBRANCH  33  34
ENDBRANCH  32  33
ENDBRANCH  31  32
ENDBRANCH   1  31
TORSDOF 27
