REMARK SMILES Cc1c(CCC(=O)N2CCC(C(=O)OCCOCCOCCOCCOC(=O)c3ccc(-c4c5nc(c(-c6cccc(S(=O)(=O)[O-])c6F)c6ccc([nH]6)c(-c6cccc(S(=O)(=O)[O-])c6F)c6nc(c(-c7cccc(S(=O)(=O)[O-])c7F)c7ccc4[nH]7)C=C6)C=C5)cc3)CC2)c(=O)oc2cc3oc4c(c3cc12)CCCC4
REMARK SMILES IDX 20 1 19 2 18 3 17 4 16 5 15 6 14 7 12 8 13 9 11 10 6 11 7 12
REMARK SMILES IDX 8 13 9 14 93 15 10 16 92 17 5 18 4 19 3 20 1 21 2 22 105 23
REMARK SMILES IDX 94 24 97 25 104 26 95 27 96 28 98 29 103 30 99 31 102 32
REMARK SMILES IDX 100 33 101 34 106 35 109 36 107 37 108 38 21 39 22 40 23 41
REMARK SMILES IDX 24 42 25 43 26 44 27 45 28 46 29 47 30 48 91 49 31 50 90 51
REMARK SMILES IDX 32 52 33 53 34 54 84 55 35 56 89 57 83 58 85 59 36 60 88 61
REMARK SMILES IDX 82 62 81 63 37 65 69 66 49 67 68 68 50 69 53 70 67 71 86 72
REMARK SMILES IDX 51 73 52 74 66 76 87 77 54 78 38 79 39 80 47 81 40 82 42 83
REMARK SMILES IDX 48 84 41 85 43 86 44 87 45 88 46 89 70 90 71 91 79 92 72 93
REMARK SMILES IDX 74 94 80 95 73 96 75 97 76 98 77 99 78 100 55 101 56 102
REMARK SMILES IDX 64 103 57 104 59 105 65 106 58 107 60 108 61 109 62 110
REMARK SMILES IDX 63 111
REMARK H PARENT 85 64 53 75
REMARK Flexibility Score: inf
ROOT
ATOM      1  O   UNL     1       0.158  -4.945   3.553  1.00  0.00    -0.377 OA
ENDROOT
BRANCH   1   2
ATOM      2  C   UNL     1      -0.717  -4.139   4.324  1.00  0.00     0.188 C 
BRANCH   2   3
ATOM      3  C   UNL     1      -2.225  -4.360   4.245  1.00  0.00     0.188 C 
BRANCH   3   4
ATOM      4  O   UNL     1      -2.820  -3.753   3.111  1.00  0.00    -0.376 OA
BRANCH   4   5
ATOM      5  C   UNL     1      -3.093  -4.551   1.965  1.00  0.00     0.202 C 
BRANCH   5   6
ATOM      6  C   UNL     1      -2.236  -4.282   0.686  1.00  0.00     0.261 C 
BRANCH   6   7
ATOM      7  O   UNL     1      -0.811  -4.027   0.841  1.00  0.00    -0.463 OA
BRANCH   7   8
ATOM      8  C   UNL     1      -0.574  -2.794   1.316  1.00  0.00     0.309 C 
ATOM      9  O   UNL     1      -1.455  -2.058   1.752  1.00  0.00    -0.252 OA
BRANCH   8  10
ATOM     10  C   UNL     1       0.838  -2.260   1.371  1.00  0.00     0.103 C 
ATOM     11  C   UNL     1       3.599   0.308  -0.298  1.00  0.00     0.222 C 
ATOM     12  O   UNL     1       4.402  -0.229  -1.067  1.00  0.00    -0.275 OA
ATOM     13  N   UNL     1       3.001  -0.419   0.733  1.00  0.00    -0.343 N 
ATOM     14  C   UNL     1       3.343  -1.826   1.098  1.00  0.00     0.120 C 
ATOM     15  C   UNL     1       1.726  -0.007   1.238  1.00  0.00     0.120 C 
ATOM     16  C   UNL     1       2.166  -2.884   0.959  1.00  0.00     0.037 C 
ATOM     17  C   UNL     1       0.765  -0.964   0.580  1.00  0.00     0.037 C 
BRANCH  11  18
ATOM     18  C   UNL     1       3.379   1.864  -0.369  1.00  0.00     0.105 C 
BRANCH  18  19
ATOM     19  C   UNL     1       2.213   2.534  -1.165  1.00  0.00     0.053 C 
BRANCH  19  20
ATOM     20  C   UNL     1       1.003   2.974  -0.339  1.00  0.00     0.042 A 
ATOM     21  C   UNL     1      -0.554   1.227  -1.258  1.00  0.00     0.046 C 
ATOM     22  C   UNL     1      -0.146   2.278  -0.269  1.00  0.00    -0.030 A 
ATOM     23  C   UNL     1      -0.936   2.489   0.953  1.00  0.00     0.022 A 
ATOM     24  C   UNL     1       1.002   4.321   0.326  1.00  0.00     0.339 A 
ATOM     25  C   UNL     1      -1.073   3.779   1.434  1.00  0.00     0.142 A 
ATOM     26  C   UNL     1      -1.447   1.452   1.734  1.00  0.00     0.024 A 
ATOM     27  O   UNL     1       1.974   5.069   0.252  1.00  0.00    -0.246 OA
ATOM     28  O   UNL     1      -0.199   4.757   0.920  1.00  0.00    -0.422 OA
ATOM     29  C   UNL     1      -1.998   4.118   2.442  1.00  0.00     0.095 A 
ATOM     30  C   UNL     1      -2.210   1.722   2.871  1.00  0.00     0.025 A 
ATOM     31  C   UNL     1      -2.612   3.033   3.077  1.00  0.00     0.138 A 
ATOM     32  C   UNL     1      -2.889   0.920   3.813  1.00  0.00     0.001 A 
ATOM     33  O   UNL     1      -3.738   3.023   3.873  1.00  0.00    -0.461 OA
ATOM     34  C   UNL     1      -3.978   1.701   4.123  1.00  0.00     0.108 A 
ATOM     35  C   UNL     1      -2.972  -0.556   3.956  1.00  0.00     0.040 C 
ATOM     36  C   UNL     1      -5.354   1.117   4.071  1.00  0.00     0.076 C 
ATOM     37  C   UNL     1      -4.229  -1.079   3.238  1.00  0.00     0.005 C 
ATOM     38  C   UNL     1      -5.304   0.007   2.973  1.00  0.00     0.008 C 
ENDBRANCH  19  20
ENDBRANCH  18  19
ENDBRANCH  11  18
ENDBRANCH   8  10
ENDBRANCH   7   8
ENDBRANCH   6   7
ENDBRANCH   5   6
ENDBRANCH   4   5
ENDBRANCH   3   4
ENDBRANCH   2   3
ENDBRANCH   1   2
BRANCH   1  39
ATOM     39  C   UNL     1      -0.330  -6.101   2.909  1.00  0.00     0.188 C 
BRANCH  39  40
ATOM     40  C   UNL     1      -0.731  -7.333   3.726  1.00  0.00     0.188 C 
BRANCH  40  41
ATOM     41  O   UNL     1      -0.218  -7.509   5.034  1.00  0.00    -0.376 OA
BRANCH  41  42
ATOM     42  C   UNL     1       1.117  -7.108   5.299  1.00  0.00     0.202 C 
BRANCH  42  43
ATOM     43  C   UNL     1       2.251  -7.780   4.514  1.00  0.00     0.261 C 
BRANCH  43  44
ATOM     44  O   UNL     1       2.255  -7.507   3.102  1.00  0.00    -0.460 OA
BRANCH  44  45
ATOM     45  C   UNL     1       1.969  -8.542   2.273  1.00  0.00     0.338 C 
ATOM     46  O   UNL     1       1.742  -9.701   2.597  1.00  0.00    -0.246 OA
BRANCH  45  47
ATOM     47  C   UNL     1       1.800  -8.029   0.895  1.00  0.00     0.060 A 
ATOM     48  C   UNL     1       2.832  -7.345   0.254  1.00  0.00     0.016 A 
ATOM     49  C   UNL     1       0.562  -8.188   0.260  1.00  0.00     0.016 A 
ATOM     50  C   UNL     1       2.632  -6.853  -1.041  1.00  0.00     0.010 A 
ATOM     51  C   UNL     1       0.353  -7.651  -1.012  1.00  0.00     0.010 A 
ATOM     52  C   UNL     1       1.393  -7.007  -1.695  1.00  0.00    -0.014 A 
BRANCH  52  53
ATOM     53  C   UNL     1       1.287  -6.676  -3.141  1.00  0.00     0.031 A 
ATOM     54  C   UNL     1       0.303  -7.470  -3.953  1.00  0.00     0.074 A 
ATOM     55  C   UNL     1       1.716  -5.502  -3.652  1.00  0.00     0.049 A 
ATOM     56  N   UNL     1      -0.957  -7.157  -4.070  1.00  0.00    -0.248 NA
ATOM     57  C   UNL     1       0.629  -8.795  -4.482  1.00  0.00     0.031 C 
ATOM     58  C   UNL     1       1.498  -4.209  -2.993  1.00  0.00     0.029 A 
ATOM     59  N   UNL     1       2.163  -5.170  -4.912  1.00  0.00    -0.354 N 
ATOM     60  C   UNL     1      -1.597  -8.229  -4.678  1.00  0.00     0.074 A 
ATOM     61  C   UNL     1      -0.570  -9.223  -4.905  1.00  0.00     0.031 C 
ATOM     62  C   UNL     1       1.659  -3.226  -3.904  1.00  0.00     0.029 A 
ATOM     63  C   UNL     1       2.133  -3.797  -5.164  1.00  0.00     0.049 A 
ATOM     64  H   UNL     1       2.473  -5.834  -5.569  1.00  0.00     0.167 HD
ATOM     65  C   UNL     1      -2.924  -8.239  -4.990  1.00  0.00     0.034 A 
ATOM     66  C   UNL     1       1.944  -3.235  -6.393  1.00  0.00     0.034 A 
ATOM     67  C   UNL     1      -3.638  -7.032  -4.686  1.00  0.00     0.049 A 
ATOM     68  C   UNL     1       0.486  -3.549  -6.628  1.00  0.00     0.074 A 
ATOM     69  C   UNL     1      -4.425  -6.540  -3.667  1.00  0.00     0.029 A 
ATOM     70  N   UNL     1      -3.559  -5.989  -5.579  1.00  0.00    -0.354 N 
ATOM     71  N   UNL     1      -0.535  -2.909  -6.120  1.00  0.00    -0.248 NA
ATOM     72  C   UNL     1       0.179  -4.882  -7.149  1.00  0.00     0.031 C 
ATOM     73  C   UNL     1      -4.368  -5.113  -3.791  1.00  0.00     0.029 A 
ATOM     74  C   UNL     1      -3.508  -4.827  -4.849  1.00  0.00     0.049 A 
ATOM     75  H   UNL     1      -3.542  -6.062  -6.560  1.00  0.00     0.167 HD
ATOM     76  C   UNL     1      -1.542  -3.870  -5.988  1.00  0.00     0.074 A 
ATOM     77  C   UNL     1      -1.024  -5.064  -6.629  1.00  0.00     0.031 C 
ATOM     78  C   UNL     1      -2.679  -3.706  -5.246  1.00  0.00     0.034 A 
BRANCH  65  79
ATOM     79  C   UNL     1      -3.591  -9.289  -5.807  1.00  0.00     0.023 A 
ATOM     80  C   UNL     1      -3.789  -8.991  -7.172  1.00  0.00     0.012 A 
ATOM     81  C   UNL     1      -4.194 -10.436  -5.262  1.00  0.00     0.148 A 
ATOM     82  C   UNL     1      -4.616  -9.776  -7.970  1.00  0.00     0.002 A 
ATOM     83  C   UNL     1      -5.008 -11.230  -6.072  1.00  0.00     0.091 A 
ATOM     84  F   UNL     1      -4.003 -10.706  -3.963  1.00  0.00    -0.205 F 
ATOM     85  C   UNL     1      -5.232 -10.890  -7.418  1.00  0.00     0.022 A 
BRANCH  83  86
ATOM     86  S   UNL     1      -5.846 -12.709  -5.485  1.00  0.00     0.127 S 
ATOM     87  O   UNL     1      -7.248 -12.297  -5.512  1.00  0.00    -0.237 OA
ATOM     88  O   UNL     1      -5.479 -13.691  -6.506  1.00  0.00    -0.237 OA
ATOM     89  O   UNL     1      -5.295 -12.979  -4.163  1.00  0.00    -0.744 OA
ENDBRANCH  83  86
ENDBRANCH  65  79
BRANCH  66  90
ATOM     90  C   UNL     1       3.015  -3.506  -7.417  1.00  0.00     0.023 A 
ATOM     91  C   UNL     1       4.356  -3.289  -7.018  1.00  0.00     0.012 A 
ATOM     92  C   UNL     1       2.799  -3.946  -8.737  1.00  0.00     0.148 A 
ATOM     93  C   UNL     1       5.435  -3.599  -7.851  1.00  0.00     0.002 A 
ATOM     94  C   UNL     1       3.876  -4.323  -9.541  1.00  0.00     0.091 A 
ATOM     95  F   UNL     1       1.549  -3.994  -9.212  1.00  0.00    -0.205 F 
ATOM     96  C   UNL     1       5.194  -4.150  -9.102  1.00  0.00     0.022 A 
BRANCH  94  97
ATOM     97  S   UNL     1       3.659  -5.148 -11.125  1.00  0.00     0.127 S 
ATOM     98  O   UNL     1       4.430  -4.290 -12.024  1.00  0.00    -0.237 OA
ATOM     99  O   UNL     1       4.258  -6.454 -10.854  1.00  0.00    -0.237 OA
ATOM    100  O   UNL     1       2.223  -5.169 -11.367  1.00  0.00    -0.744 OA
ENDBRANCH  94  97
ENDBRANCH  66  90
BRANCH  78 101
ATOM    101  C   UNL     1      -2.968  -2.322  -4.738  1.00  0.00     0.023 A 
ATOM    102  C   UNL     1      -3.138  -1.287  -5.681  1.00  0.00     0.012 A 
ATOM    103  C   UNL     1      -3.181  -2.028  -3.378  1.00  0.00     0.148 A 
ATOM    104  C   UNL     1      -3.518  -0.004  -5.289  1.00  0.00     0.002 A 
ATOM    105  C   UNL     1      -3.631  -0.763  -3.002  1.00  0.00     0.091 A 
ATOM    106  F   UNL     1      -2.966  -2.982  -2.459  1.00  0.00    -0.205 F 
ATOM    107  C   UNL     1      -3.780   0.256  -3.949  1.00  0.00     0.022 A 
BRANCH 105 108
ATOM    108  S   UNL     1      -4.079  -0.406  -1.301  1.00  0.00     0.127 S 
ATOM    109  O   UNL     1      -3.880   1.042  -1.206  1.00  0.00    -0.237 OA
ATOM    110  O   UNL     1      -5.473  -0.836  -1.249  1.00  0.00    -0.237 OA
ATOM    111  O   UNL     1      -3.135  -1.185  -0.517  1.00  0.00    -0.744 OA
ENDBRANCH 105 108
ENDBRANCH  78 101
ENDBRANCH  52  53
ENDBRANCH  45  47
ENDBRANCH  44  45
ENDBRANCH  43  44
ENDBRANCH  42  43
ENDBRANCH  41  42
ENDBRANCH  40  41
ENDBRANCH  39  40
ENDBRANCH   1  39
TORSDOF 26
