REMARK SMILES CC(C)(C)Nc1ncnc(N2CCC(C(=O)OCCOCCOCCOCCOC(=O)c3ccc(-c4c5nc(c(-c6cccc(S(=O)(=O)[O-])c6F)c6ccc([nH]6)c(-c6cccc(S(=O)(=O)[O-])c6F)c6nc(c(-c7cccc(S(=O)(=O)[O-])c7F)c7ccc4[nH]7)C=C6)C=C5)cc3)CC2)c1N
REMARK SMILES IDX 23 1 22 2 21 3 20 4 19 5 18 6 17 7 15 8 16 9 14 10 11 11
REMARK SMILES IDX 12 12 96 13 13 14 95 15 10 16 6 17 7 18 97 19 8 20 9 21 5 22
REMARK SMILES IDX 2 24 1 25 3 26 4 27 98 28 24 31 25 32 26 33 27 34 28 35
REMARK SMILES IDX 29 36 30 37 31 38 32 39 33 40 94 41 34 42 93 43 35 44 36 45
REMARK SMILES IDX 37 46 87 47 38 48 92 49 86 50 88 51 39 52 91 53 85 54 84 55
REMARK SMILES IDX 40 57 72 58 52 59 71 60 53 61 56 62 70 63 89 64 54 65 55 66
REMARK SMILES IDX 69 68 90 69 57 70 41 71 42 72 50 73 43 74 45 75 51 76 44 77
REMARK SMILES IDX 46 78 47 79 48 80 49 81 73 82 74 83 82 84 75 85 77 86 83 87
REMARK SMILES IDX 76 88 78 89 79 90 80 91 81 92 58 93 59 94 67 95 60 96 62 97
REMARK SMILES IDX 68 98 61 99 63 100 64 101 65 102 66 103
REMARK H PARENT 5 23 98 29 98 30 88 56 56 67
REMARK Flexibility Score: inf
ROOT
ATOM      1  O   UNL     1       7.587   5.931   4.082  1.00  0.00    -0.377 OA
ENDROOT
BRANCH   1   2
ATOM      2  C   UNL     1       7.869   4.748   4.795  1.00  0.00     0.188 C 
BRANCH   2   3
ATOM      3  C   UNL     1       9.330   4.289   4.793  1.00  0.00     0.188 C 
BRANCH   3   4
ATOM      4  O   UNL     1      10.378   5.117   4.316  1.00  0.00    -0.376 OA
BRANCH   4   5
ATOM      5  C   UNL     1      10.201   5.973   3.196  1.00  0.00     0.202 C 
BRANCH   5   6
ATOM      6  C   UNL     1       9.677   5.453   1.849  1.00  0.00     0.261 C 
BRANCH   6   7
ATOM      7  O   UNL     1       8.424   4.754   1.872  1.00  0.00    -0.463 OA
BRANCH   7   8
ATOM      8  C   UNL     1       8.504   3.411   1.798  1.00  0.00     0.309 C 
ATOM      9  O   UNL     1       9.554   2.774   1.756  1.00  0.00    -0.252 OA
BRANCH   8  10
ATOM     10  C   UNL     1       7.167   2.714   1.691  1.00  0.00     0.103 C 
ATOM     11  N   UNL     1       4.619   1.985   0.691  1.00  0.00    -0.355 N 
ATOM     12  C   UNL     1       4.701   2.462   2.053  1.00  0.00     0.119 C 
ATOM     13  C   UNL     1       5.802   1.452   0.035  1.00  0.00     0.119 C 
ATOM     14  C   UNL     1       5.895   3.387   2.226  1.00  0.00     0.037 C 
ATOM     15  C   UNL     1       6.974   2.396   0.211  1.00  0.00     0.037 C 
BRANCH  11  16
ATOM     16  C   UNL     1       3.534   2.404  -0.066  1.00  0.00     0.157 A 
ATOM     17  C   UNL     1       1.704   1.931  -1.485  1.00  0.00     0.155 A 
ATOM     18  N   UNL     1       1.285   3.203  -1.404  1.00  0.00    -0.217 NA
ATOM     19  C   UNL     1       2.888   1.488  -0.901  1.00  0.00     0.118 A 
ATOM     20  C   UNL     1       2.022   4.016  -0.633  1.00  0.00     0.226 A 
ATOM     21  N   UNL     1       3.091   3.664   0.091  1.00  0.00    -0.217 NA
BRANCH  17  22
ATOM     22  N   UNL     1       0.828   1.073  -2.140  1.00  0.00    -0.364 N 
ATOM     23  H   UNL     1       0.639   1.236  -3.093  1.00  0.00     0.162 HD
BRANCH  22  24
ATOM     24  C   UNL     1       0.168  -0.073  -1.480  1.00  0.00     0.030 C 
ATOM     25  C   UNL     1       0.457  -0.248   0.023  1.00  0.00     0.034 C 
ATOM     26  C   UNL     1       0.537  -1.354  -2.246  1.00  0.00     0.034 C 
ATOM     27  C   UNL     1      -1.354   0.140  -1.617  1.00  0.00     0.034 C 
ENDBRANCH  22  24
ENDBRANCH  17  22
BRANCH  19  28
ATOM     28  N   UNL     1       3.376   0.194  -1.099  1.00  0.00    -0.393 N 
ATOM     29  H   UNL     1       2.897  -0.427  -1.694  1.00  0.00     0.156 HD
ATOM     30  H   UNL     1       4.199  -0.097  -0.644  1.00  0.00     0.156 HD
ENDBRANCH  19  28
ENDBRANCH  11  16
ENDBRANCH   8  10
ENDBRANCH   7   8
ENDBRANCH   6   7
ENDBRANCH   5   6
ENDBRANCH   4   5
ENDBRANCH   3   4
ENDBRANCH   2   3
ENDBRANCH   1   2
BRANCH   1  31
ATOM     31  C   UNL     1       7.477   7.135   4.831  1.00  0.00     0.188 C 
BRANCH  31  32
ATOM     32  C   UNL     1       8.373   7.277   6.076  1.00  0.00     0.188 C 
BRANCH  32  33
ATOM     33  O   UNL     1       8.275   6.190   6.990  1.00  0.00    -0.376 OA
BRANCH  33  34
ATOM     34  C   UNL     1       7.341   6.272   8.058  1.00  0.00     0.202 C 
BRANCH  34  35
ATOM     35  C   UNL     1       5.843   6.385   7.720  1.00  0.00     0.261 C 
BRANCH  35  36
ATOM     36  O   UNL     1       5.429   7.546   6.985  1.00  0.00    -0.460 OA
BRANCH  36  37
ATOM     37  C   UNL     1       5.776   8.761   7.462  1.00  0.00     0.338 C 
ATOM     38  O   UNL     1       6.333   9.005   8.511  1.00  0.00    -0.246 OA
BRANCH  37  39
ATOM     39  C   UNL     1       5.551   9.747   6.382  1.00  0.00     0.060 A 
ATOM     40  C   UNL     1       6.638  10.508   5.930  1.00  0.00     0.016 A 
ATOM     41  C   UNL     1       4.279   9.931   5.837  1.00  0.00     0.016 A 
ATOM     42  C   UNL     1       6.446  11.493   4.963  1.00  0.00     0.010 A 
ATOM     43  C   UNL     1       4.082  10.938   4.890  1.00  0.00     0.010 A 
ATOM     44  C   UNL     1       5.157  11.749   4.483  1.00  0.00    -0.014 A 
BRANCH  44  45
ATOM     45  C   UNL     1       4.890  12.996   3.730  1.00  0.00     0.031 A 
ATOM     46  C   UNL     1       4.368  14.183   4.494  1.00  0.00     0.074 A 
ATOM     47  C   UNL     1       5.105  13.075   2.406  1.00  0.00     0.049 A 
ATOM     48  N   UNL     1       3.973  15.345   4.049  1.00  0.00    -0.248 NA
ATOM     49  C   UNL     1       4.282  14.041   5.960  1.00  0.00     0.031 C 
ATOM     50  C   UNL     1       5.646  12.003   1.572  1.00  0.00     0.029 A 
ATOM     51  N   UNL     1       4.865  14.101   1.526  1.00  0.00    -0.354 N 
ATOM     52  C   UNL     1       3.565  16.060   5.169  1.00  0.00     0.074 A 
ATOM     53  C   UNL     1       3.759  15.204   6.318  1.00  0.00     0.031 C 
ATOM     54  C   UNL     1       5.662  12.416   0.292  1.00  0.00     0.029 A 
ATOM     55  C   UNL     1       5.101  13.763   0.213  1.00  0.00     0.049 A 
ATOM     56  H   UNL     1       4.555  14.992   1.807  1.00  0.00     0.167 HD
ATOM     57  C   UNL     1       3.083  17.321   5.233  1.00  0.00     0.034 A 
ATOM     58  C   UNL     1       4.857  14.453  -0.919  1.00  0.00     0.034 A 
ATOM     59  C   UNL     1       2.910  18.172   4.087  1.00  0.00     0.049 A 
ATOM     60  C   UNL     1       4.275  15.842  -0.820  1.00  0.00     0.074 A 
ATOM     61  C   UNL     1       2.442  19.473   4.051  1.00  0.00     0.029 A 
ATOM     62  N   UNL     1       3.192  17.809   2.781  1.00  0.00    -0.354 N 
ATOM     63  N   UNL     1       3.961  16.532   0.250  1.00  0.00    -0.248 NA
ATOM     64  C   UNL     1       4.045  16.561  -2.082  1.00  0.00     0.031 C 
ATOM     65  C   UNL     1       2.411  19.886   2.717  1.00  0.00     0.029 A 
ATOM     66  C   UNL     1       2.906  18.860   1.929  1.00  0.00     0.049 A 
ATOM     67  H   UNL     1       3.544  16.933   2.500  1.00  0.00     0.167 HD
ATOM     68  C   UNL     1       3.543  17.779  -0.207  1.00  0.00     0.074 A 
ATOM     69  C   UNL     1       3.661  17.754  -1.649  1.00  0.00     0.031 C 
ATOM     70  C   UNL     1       3.093  18.844   0.501  1.00  0.00     0.034 A 
BRANCH  57  71
ATOM     71  C   UNL     1       2.728  17.888   6.581  1.00  0.00     0.023 A 
ATOM     72  C   UNL     1       3.754  18.281   7.463  1.00  0.00     0.012 A 
ATOM     73  C   UNL     1       1.386  18.155   6.914  1.00  0.00     0.148 A 
ATOM     74  C   UNL     1       3.449  18.932   8.658  1.00  0.00     0.002 A 
ATOM     75  C   UNL     1       1.093  18.848   8.082  1.00  0.00     0.091 A 
ATOM     76  F   UNL     1       0.427  17.750   6.070  1.00  0.00    -0.205 F 
ATOM     77  C   UNL     1       2.122  19.231   8.958  1.00  0.00     0.022 A 
BRANCH  75  78
ATOM     78  S   UNL     1      -0.572  19.366   8.513  1.00  0.00     0.127 S 
ATOM     79  O   UNL     1      -0.798  18.629   9.757  1.00  0.00    -0.237 OA
ATOM     80  O   UNL     1      -0.408  20.809   8.681  1.00  0.00    -0.237 OA
ATOM     81  O   UNL     1      -1.422  18.969   7.399  1.00  0.00    -0.744 OA
ENDBRANCH  75  78
ENDBRANCH  57  71
BRANCH  58  82
ATOM     82  C   UNL     1       5.181  13.856  -2.247  1.00  0.00     0.023 A 
ATOM     83  C   UNL     1       6.197  14.427  -3.039  1.00  0.00     0.012 A 
ATOM     84  C   UNL     1       4.494  12.724  -2.728  1.00  0.00     0.148 A 
ATOM     85  C   UNL     1       6.498  13.904  -4.298  1.00  0.00     0.002 A 
ATOM     86  C   UNL     1       4.843  12.170  -3.954  1.00  0.00     0.091 A 
ATOM     87  F   UNL     1       3.515  12.206  -1.973  1.00  0.00    -0.205 F 
ATOM     88  C   UNL     1       5.830  12.770  -4.750  1.00  0.00     0.022 A 
BRANCH  86  89
ATOM     89  S   UNL     1       4.133  10.632  -4.554  1.00  0.00     0.127 S 
ATOM     90  O   UNL     1       3.317  11.096  -5.673  1.00  0.00    -0.237 OA
ATOM     91  O   UNL     1       5.329   9.878  -4.932  1.00  0.00    -0.237 OA
ATOM     92  O   UNL     1       3.401  10.072  -3.426  1.00  0.00    -0.744 OA
ENDBRANCH  86  89
ENDBRANCH  58  82
BRANCH  70  93
ATOM     93  C   UNL     1       2.747  20.104  -0.251  1.00  0.00     0.023 A 
ATOM     94  C   UNL     1       1.601  20.150  -1.067  1.00  0.00     0.012 A 
ATOM     95  C   UNL     1       3.509  21.276  -0.064  1.00  0.00     0.148 A 
ATOM     96  C   UNL     1       1.238  21.331  -1.714  1.00  0.00     0.002 A 
ATOM     97  C   UNL     1       3.108  22.463  -0.664  1.00  0.00     0.091 A 
ATOM     98  F   UNL     1       4.605  21.211   0.706  1.00  0.00    -0.205 F 
ATOM     99  C   UNL     1       1.982  22.489  -1.502  1.00  0.00     0.022 A 
BRANCH  97 100
ATOM    100  S   UNL     1       3.938  24.027  -0.355  1.00  0.00     0.127 S 
ATOM    101  O   UNL     1       4.620  24.258  -1.627  1.00  0.00    -0.237 OA
ATOM    102  O   UNL     1       2.815  24.927  -0.093  1.00  0.00    -0.237 OA
ATOM    103  O   UNL     1       4.810  23.800   0.789  1.00  0.00    -0.744 OA
ENDBRANCH  97 100
ENDBRANCH  70  93
ENDBRANCH  44  45
ENDBRANCH  37  39
ENDBRANCH  36  37
ENDBRANCH  35  36
ENDBRANCH  34  35
ENDBRANCH  33  34
ENDBRANCH  32  33
ENDBRANCH  31  32
ENDBRANCH   1  31
TORSDOF 27
