REMARK SMILES O=C(OCCOCCOCCOCCOC(=O)c1ccc(-c2c3nc(c(-c4cccc(S(=O)(=O)[O-])c4F)c4ccc([nH]4)c(-c4cccc(S(=O)(=O)[O-])c4F)c4nc(c(-c5cccc(S(=O)(=O)[O-])c5F)c5ccc2[nH]5)C=C4)C=C3)cc1)C1=Cc2cc(S(F)(F)(F)(F)F)ccc2O[C@@H]1C(F)(F)F
REMARK SMILES IDX 10 1 9 2 8 3 7 4 6 5 5 6 4 7 3 8 2 9 1 10 81 11 82 12 96 13
REMARK SMILES IDX 83 14 95 15 84 16 94 17 85 18 93 19 92 20 97 21 98 22 99 23
REMARK SMILES IDX 100 24 86 25 87 26 88 27 89 28 90 29 91 30 11 31 12 32 13 33
REMARK SMILES IDX 14 34 15 35 16 36 17 37 18 38 19 39 80 40 20 41 79 42 21 43
REMARK SMILES IDX 22 44 23 45 73 46 24 47 78 48 72 49 74 50 25 51 77 52 71 53
REMARK SMILES IDX 70 54 26 56 58 57 38 58 57 59 39 60 42 61 56 62 75 63 40 64
REMARK SMILES IDX 41 65 55 67 76 68 43 69 27 70 28 71 36 72 29 73 31 74 37 75
REMARK SMILES IDX 30 76 32 77 33 78 34 79 35 80 59 81 60 82 68 83 61 84 63 85
REMARK SMILES IDX 69 86 62 87 64 88 65 89 66 90 67 91 44 92 45 93 53 94 46 95
REMARK SMILES IDX 48 96 54 97 47 98 49 99 50 100 51 101 52 102
REMARK H PARENT 74 55 42 66
REMARK Flexibility Score: inf
ROOT
ATOM      1  C   UNL     1       4.341  -2.124   1.748  1.00  0.00     0.188 C 
ENDROOT
BRANCH   1   2
ATOM      2  O   UNL     1       2.921  -2.124   1.748  1.00  0.00    -0.377 OA
BRANCH   2   3
ATOM      3  C   UNL     1       2.448  -2.464   0.453  1.00  0.00     0.188 C 
BRANCH   3   4
ATOM      4  C   UNL     1       2.955  -1.446  -0.555  1.00  0.00     0.188 C 
BRANCH   4   5
ATOM      5  O   UNL     1       4.375  -1.446  -0.555  1.00  0.00    -0.376 OA
BRANCH   5   6
ATOM      6  C   UNL     1       4.848  -1.106   0.740  1.00  0.00     0.202 C 
BRANCH   6   7
ATOM      7  C   UNL     1       4.341   0.276   1.117  1.00  0.00     0.261 C 
BRANCH   7   8
ATOM      8  O   UNL     1       2.921   0.276   1.117  1.00  0.00    -0.460 OA
BRANCH   8   9
ATOM      9  C   UNL     1       2.212  -0.036  -0.072  1.00  0.00     0.338 C 
ATOM     10  O   UNL     1       0.941  -0.036  -0.072  1.00  0.00    -0.246 OA
BRANCH   9  11
ATOM     11  C   UNL     1       2.971  -0.370  -1.345  1.00  0.00     0.087 C 
ATOM     12  C   UNL     1       4.332  -0.370  -1.345  1.00  0.00     0.027 C 
ATOM     13  C   UNL     1       2.212  -0.705  -2.618  1.00  0.00     0.316 C 
ATOM     14  C   UNL     1       5.092  -0.036  -0.072  1.00  0.00     0.019 A 
ATOM     15  O   UNL     1       3.474  -1.298   1.128  1.00  0.00    -0.475 OA
ATOM     16  C   UNL     1       6.200   0.794  -0.130  1.00  0.00     0.036 A 
ATOM     17  C   UNL     1       4.702  -0.585   1.072  1.00  0.00     0.128 A 
ATOM     18  C   UNL     1       7.008   0.753   1.031  1.00  0.00     0.107 A 
ATOM     19  C   UNL     1       5.474  -0.470   2.203  1.00  0.00     0.048 A 
ATOM     20  C   UNL     1       6.613   0.286   2.202  1.00  0.00     0.028 A 
BRANCH  13  21
ATOM     21  C   UNL     1       2.579  -2.108  -3.074  1.00  0.00     0.430 C 
ATOM     22  F   UNL     1       2.257  -2.981  -2.123  1.00  0.00    -0.167 F 
ATOM     23  F   UNL     1       1.914  -2.400  -4.188  1.00  0.00    -0.167 F 
ATOM     24  F   UNL     1       3.886  -2.169  -3.309  1.00  0.00    -0.167 F 
ENDBRANCH  13  21
BRANCH  18  25
ATOM     25  S   UNL     1       8.698   1.385   0.903  1.00  0.00     0.310 S 
ATOM     26  F   UNL     1       8.883   1.391   2.478  1.00  0.00    -0.094 F 
ATOM     27  F   UNL     1       8.130   2.849   1.033  1.00  0.00    -0.094 F 
ATOM     28  F   UNL     1      10.151   1.930   0.792  1.00  0.00    -0.094 F 
ATOM     29  F   UNL     1       9.261  -0.090   0.915  1.00  0.00    -0.094 F 
ATOM     30  F   UNL     1       7.241   0.816   1.127  1.00  0.00    -0.094 F 
ENDBRANCH  18  25
ENDBRANCH   9  11
ENDBRANCH   8   9
ENDBRANCH   7   8
ENDBRANCH   6   7
ENDBRANCH   5   6
ENDBRANCH   4   5
ENDBRANCH   3   4
ENDBRANCH   2   3
ENDBRANCH   1   2
BRANCH   1  31
ATOM     31  C   UNL     1       4.848  -3.507   1.370  1.00  0.00     0.188 C 
BRANCH  31  32
ATOM     32  O   UNL     1       4.375  -3.847   0.075  1.00  0.00    -0.376 OA
BRANCH  32  33
ATOM     33  C   UNL     1       2.955  -3.847   0.075  1.00  0.00     0.202 C 
BRANCH  33  34
ATOM     34  C   UNL     1       2.448  -4.865   1.084  1.00  0.00     0.261 C 
BRANCH  34  35
ATOM     35  O   UNL     1       2.921  -4.525   2.379  1.00  0.00    -0.460 OA
BRANCH  35  36
ATOM     36  C   UNL     1       4.318  -4.459   2.630  1.00  0.00     0.338 C 
ATOM     37  O   UNL     1       5.144  -4.705   1.695  1.00  0.00    -0.246 OA
BRANCH  36  38
ATOM     38  C   UNL     1       4.824  -4.095   4.016  1.00  0.00     0.060 A 
ATOM     39  C   UNL     1       5.904  -3.238   4.152  1.00  0.00     0.016 A 
ATOM     40  C   UNL     1       4.262  -4.668   5.074  1.00  0.00     0.016 A 
ATOM     41  C   UNL     1       6.506  -3.273   5.431  1.00  0.00     0.010 A 
ATOM     42  C   UNL     1       4.831  -4.548   6.319  1.00  0.00     0.010 A 
ATOM     43  C   UNL     1       5.933  -3.764   6.515  1.00  0.00    -0.014 A 
BRANCH  43  44
ATOM     44  C   UNL     1       6.472  -3.474   7.907  1.00  0.00     0.031 A 
ATOM     45  C   UNL     1       6.877  -4.560   8.684  1.00  0.00     0.074 A 
ATOM     46  C   UNL     1       6.577  -2.153   8.308  1.00  0.00     0.049 A 
ATOM     47  N   UNL     1       7.447  -4.530   9.890  1.00  0.00    -0.248 NA
ATOM     48  C   UNL     1       6.734  -5.965   8.275  1.00  0.00     0.031 C 
ATOM     49  C   UNL     1       6.179  -1.051   7.526  1.00  0.00     0.029 A 
ATOM     50  N   UNL     1       7.070  -1.668   9.499  1.00  0.00    -0.354 N 
ATOM     51  C   UNL     1       7.708  -5.771  10.307  1.00  0.00     0.074 A 
ATOM     52  C   UNL     1       7.248  -6.712   9.276  1.00  0.00     0.031 C 
ATOM     53  C   UNL     1       6.417   0.081   8.240  1.00  0.00     0.029 A 
ATOM     54  C   UNL     1       6.969  -0.294   9.480  1.00  0.00     0.049 A 
ATOM     55  H   UNL     1       7.432  -2.210  10.237  1.00  0.00     0.167 HD
ATOM     56  C   UNL     1       8.315  -6.154  11.504  1.00  0.00     0.034 A 
ATOM     57  C   UNL     1       7.330   0.597  10.477  1.00  0.00     0.034 A 
ATOM     58  C   UNL     1       8.716  -5.259  12.483  1.00  0.00     0.049 A 
ATOM     59  C   UNL     1       7.884   0.210  11.700  1.00  0.00     0.074 A 
ATOM     60  C   UNL     1       9.335  -5.628  13.693  1.00  0.00     0.029 A 
ATOM     61  N   UNL     1       8.592  -3.888  12.474  1.00  0.00    -0.354 N 
ATOM     62  N   UNL     1       8.181  -1.027  12.100  1.00  0.00    -0.248 NA
ATOM     63  C   UNL     1       8.240   1.144  12.777  1.00  0.00     0.031 C 
ATOM     64  C   UNL     1       9.573  -4.496  14.407  1.00  0.00     0.029 A 
ATOM     65  C   UNL     1       9.106  -3.401  13.656  1.00  0.00     0.049 A 
ATOM     66  H   UNL     1       8.204  -3.348  11.748  1.00  0.00     0.167 HD
ATOM     67  C   UNL     1       8.713  -0.999  13.323  1.00  0.00     0.074 A 
ATOM     68  C   UNL     1       8.752   0.397  13.779  1.00  0.00     0.031 C 
ATOM     69  C   UNL     1       9.172  -2.082  14.076  1.00  0.00     0.034 A 
BRANCH  56  70
ATOM     70  C   UNL     1       8.548  -7.636  11.748  1.00  0.00     0.023 A 
ATOM     71  C   UNL     1       9.319  -8.356  10.850  1.00  0.00     0.012 A 
ATOM     72  C   UNL     1       7.986  -8.223  12.798  1.00  0.00     0.148 A 
ATOM     73  C   UNL     1       9.201  -9.759  10.989  1.00  0.00     0.002 A 
ATOM     74  C   UNL     1       8.026  -9.589  12.941  1.00  0.00     0.091 A 
ATOM     75  F   UNL     1       7.379  -7.482  13.721  1.00  0.00    -0.205 F 
ATOM     76  C   UNL     1       8.720 -10.368  12.057  1.00  0.00     0.022 A 
BRANCH  74  77
ATOM     77  S   UNL     1       7.146 -10.368  14.317  1.00  0.00     0.127 S 
ATOM     78  O   UNL     1       6.099 -11.341  13.769  1.00  0.00    -0.237 OA
ATOM     79  O   UNL     1       8.143 -11.132  15.192  1.00  0.00    -0.237 OA
ATOM     80  O   UNL     1       6.372  -9.165  15.253  1.00  0.00    -0.744 OA
ENDBRANCH  74  77
ENDBRANCH  56  70
BRANCH  57  81
ATOM     81  C   UNL     1       7.113   2.081  10.226  1.00  0.00     0.023 A 
ATOM     82  C   UNL     1       8.220   2.913  10.249  1.00  0.00     0.012 A 
ATOM     83  C   UNL     1       5.897   2.558   9.986  1.00  0.00     0.148 A 
ATOM     84  C   UNL     1       7.901   4.290  10.292  1.00  0.00     0.002 A 
ATOM     85  C   UNL     1       5.681   3.912   9.906  1.00  0.00     0.091 A 
ATOM     86  F   UNL     1       4.880   1.717   9.822  1.00  0.00    -0.205 F 
ATOM     87  C   UNL     1       6.721   4.796   9.979  1.00  0.00     0.022 A 
BRANCH  85  88
ATOM     88  S   UNL     1       3.994   4.536   9.700  1.00  0.00     0.127 S 
ATOM     89  O   UNL     1       3.636   5.440  10.882  1.00  0.00    -0.237 OA
ATOM     90  O   UNL     1       3.901   5.336   8.399  1.00  0.00    -0.237 OA
ATOM     91  O   UNL     1       2.903   3.220   9.639  1.00  0.00    -0.744 OA
ENDBRANCH  85  88
ENDBRANCH  57  81
BRANCH  69  92
ATOM     92  C   UNL     1       9.780  -1.796  15.439  1.00  0.00     0.023 A 
ATOM     93  C   UNL     1       9.033  -1.133  16.398  1.00  0.00     0.012 A 
ATOM     94  C   UNL     1      11.038  -2.154  15.671  1.00  0.00     0.148 A 
ATOM     95  C   UNL     1       9.800  -0.630  17.476  1.00  0.00     0.002 A 
ATOM     96  C   UNL     1      11.684  -1.739  16.811  1.00  0.00     0.091 A 
ATOM     97  F   UNL     1      11.679  -2.919  14.793  1.00  0.00    -0.205 F 
ATOM     98  C   UNL     1      11.023  -1.029  17.775  1.00  0.00     0.022 A 
BRANCH  96  99
ATOM     99  S   UNL     1      13.434  -2.140  17.041  1.00  0.00     0.127 S 
ATOM    100  O   UNL     1      14.240  -0.846  17.174  1.00  0.00    -0.237 OA
ATOM    101  O   UNL     1      13.603  -2.979  18.310  1.00  0.00    -0.237 OA
ATOM    102  O   UNL     1      13.997  -3.027  15.692  1.00  0.00    -0.744 OA
ENDBRANCH  96  99
ENDBRANCH  69  92
ENDBRANCH  43  44
ENDBRANCH  36  38
ENDBRANCH  35  36
ENDBRANCH  34  35
ENDBRANCH  33  34
ENDBRANCH  32  33
ENDBRANCH  31  32
ENDBRANCH   1  31
TORSDOF 25
