REMARK SMILES CCCC[C@H](NS(=O)(=O)c1cccc(F)c1)C(=O)OCCOCCOCCOCCOC(=O)c1ccc(-c2c3nc(c(-c4cccc(S(=O)(=O)[O-])c4F)c4ccc([nH]4)c(-c4cccc(S(=O)(=O)[O-])c4F)c4nc(c(-c5cccc(S(=O)(=O)[O-])c5F)c5ccc2[nH]5)C=C4)C=C3)cc1
REMARK SMILES IDX 25 1 24 2 23 3 22 4 21 5 20 6 19 7 17 8 18 9 5 10 4 11 3 12
REMARK SMILES IDX 2 13 1 14 6 15 7 17 8 18 9 19 10 20 11 21 16 22 12 23 14 24
REMARK SMILES IDX 13 25 15 26 26 27 27 28 28 29 29 30 30 31 31 32 32 33 33 34
REMARK SMILES IDX 34 35 35 36 96 37 36 38 95 39 37 40 38 41 39 42 89 43 40 44
REMARK SMILES IDX 94 45 88 46 90 47 41 48 93 49 87 50 86 51 42 53 74 54 54 55
REMARK SMILES IDX 73 56 55 57 58 58 72 59 91 60 56 61 57 62 71 64 92 65 59 66
REMARK SMILES IDX 43 67 44 68 52 69 45 70 47 71 53 72 46 73 48 74 49 75 50 76
REMARK SMILES IDX 51 77 75 78 76 79 84 80 77 81 79 82 85 83 78 84 80 85 81 86
REMARK SMILES IDX 82 87 83 88 60 89 61 90 69 91 62 92 64 93 70 94 63 95 65 96
REMARK SMILES IDX 66 97 67 98 68 99
REMARK H PARENT 6 16 90 52 58 63
REMARK Flexibility Score: inf
ROOT
ATOM      1  O   UNL     1      -1.161  -0.037   4.042  1.00  0.00    -0.377 OA
ENDROOT
BRANCH   1   2
ATOM      2  C   UNL     1      -2.288   0.654   3.501  1.00  0.00     0.188 C 
BRANCH   2   3
ATOM      3  C   UNL     1      -3.643   0.300   4.096  1.00  0.00     0.188 C 
BRANCH   3   4
ATOM      4  O   UNL     1      -3.601   0.284   5.500  1.00  0.00    -0.376 OA
BRANCH   4   5
ATOM      5  C   UNL     1      -3.520  -0.963   6.183  1.00  0.00     0.202 C 
BRANCH   5   6
ATOM      6  C   UNL     1      -2.971  -2.307   5.621  1.00  0.00     0.261 C 
BRANCH   6   7
ATOM      7  O   UNL     1      -1.831  -2.324   4.740  1.00  0.00    -0.462 OA
BRANCH   7   8
ATOM      8  C   UNL     1      -2.108  -2.456   3.418  1.00  0.00     0.324 C 
ATOM      9  O   UNL     1      -3.256  -2.594   2.986  1.00  0.00    -0.250 OA
BRANCH   8  10
ATOM     10  C   UNL     1      -0.921  -2.459   2.454  1.00  0.00     0.179 C 
BRANCH  10  11
ATOM     11  C   UNL     1      -0.990  -3.868   1.800  1.00  0.00     0.032 C 
BRANCH  11  12
ATOM     12  C   UNL     1      -1.091  -3.828   0.272  1.00  0.00     0.002 C 
BRANCH  12  13
ATOM     13  C   UNL     1       0.220  -3.532  -0.450  1.00  0.00    -0.003 C 
ATOM     14  C   UNL     1       1.323  -4.519  -0.097  1.00  0.00     0.004 C 
ENDBRANCH  12  13
ENDBRANCH  11  12
ENDBRANCH  10  11
BRANCH  10  15
ATOM     15  N   UNL     1       0.488  -2.167   2.857  1.00  0.00    -0.197 NA
ATOM     16  H   UNL     1       1.071  -2.866   2.396  1.00  0.00     0.142 HD
BRANCH  15  17
ATOM     17  S   UNL     1       1.204  -0.652   2.536  1.00  0.00     0.241 S 
ATOM     18  O   UNL     1       2.619  -0.905   2.371  1.00  0.00    -0.207 OA
ATOM     19  O   UNL     1       0.447   0.045   1.520  1.00  0.00    -0.207 OA
BRANCH  17  20
ATOM     20  C   UNL     1       1.061   0.235   4.063  1.00  0.00     0.085 A 
ATOM     21  C   UNL     1       0.176   1.829   4.149  1.00  0.00     0.022 A 
ATOM     22  C   UNL     1       1.331  -0.729   5.556  1.00  0.00     0.061 A 
ATOM     23  C   UNL     1      -0.463   2.414   5.758  1.00  0.00     0.004 A 
ATOM     24  C   UNL     1       0.719  -0.134   7.124  1.00  0.00     0.124 A 
ATOM     25  C   UNL     1      -0.181   1.415   7.242  1.00  0.00     0.039 A 
ATOM     26  F   UNL     1       0.903  -0.879   8.220  1.00  0.00    -0.207 F 
ENDBRANCH  17  20
ENDBRANCH  15  17
ENDBRANCH  10  15
ENDBRANCH   8  10
ENDBRANCH   7   8
ENDBRANCH   6   7
ENDBRANCH   5   6
ENDBRANCH   4   5
ENDBRANCH   3   4
ENDBRANCH   2   3
ENDBRANCH   1   2
BRANCH   1  27
ATOM     27  C   UNL     1      -0.526   0.372   5.424  1.00  0.00     0.188 C 
BRANCH  27  28
ATOM     28  C   UNL     1       1.376   1.411   5.772  1.00  0.00     0.188 C 
BRANCH  28  29
ATOM     29  O   UNL     1       1.753   2.916   5.482  1.00  0.00    -0.376 OA
BRANCH  29  30
ATOM     30  C   UNL     1       2.692   3.156   4.427  1.00  0.00     0.202 C 
BRANCH  30  31
ATOM     31  C   UNL     1       4.171   2.859   4.698  1.00  0.00     0.261 C 
BRANCH  31  32
ATOM     32  O   UNL     1       4.410   1.875   5.703  1.00  0.00    -0.460 OA
BRANCH  32  33
ATOM     33  C   UNL     1       4.301   2.342   6.971  1.00  0.00     0.338 C 
ATOM     34  O   UNL     1       4.139   3.503   7.311  1.00  0.00    -0.246 OA
BRANCH  33  35
ATOM     35  C   UNL     1       4.289   1.199   7.912  1.00  0.00     0.060 A 
ATOM     36  C   UNL     1       3.471   1.291   9.044  1.00  0.00     0.016 A 
ATOM     37  C   UNL     1       5.091   0.070   7.712  1.00  0.00     0.016 A 
ATOM     38  C   UNL     1       3.514   0.296  10.018  1.00  0.00     0.010 A 
ATOM     39  C   UNL     1       5.143  -0.923   8.695  1.00  0.00     0.010 A 
ATOM     40  C   UNL     1       4.399  -0.782   9.879  1.00  0.00    -0.014 A 
BRANCH  40  41
ATOM     41  C   UNL     1       4.731  -1.585  11.081  1.00  0.00     0.031 A 
ATOM     42  C   UNL     1       5.926  -1.164  11.897  1.00  0.00     0.074 A 
ATOM     43  C   UNL     1       3.971  -2.617  11.485  1.00  0.00     0.049 A 
ATOM     44  N   UNL     1       6.357  -1.636  13.036  1.00  0.00    -0.248 NA
ATOM     45  C   UNL     1       6.737  -0.055  11.361  1.00  0.00     0.031 C 
ATOM     46  C   UNL     1       2.785  -3.116  10.793  1.00  0.00     0.029 A 
ATOM     47  N   UNL     1       4.092  -3.434  12.583  1.00  0.00    -0.354 N 
ATOM     48  C   UNL     1       7.485  -0.889  13.350  1.00  0.00     0.074 A 
ATOM     49  C   UNL     1       7.692   0.050  12.272  1.00  0.00     0.031 C 
ATOM     50  C   UNL     1       2.293  -4.164  11.479  1.00  0.00     0.029 A 
ATOM     51  C   UNL     1       3.134  -4.418  12.651  1.00  0.00     0.049 A 
ATOM     52  H   UNL     1       4.800  -3.326  13.259  1.00  0.00     0.167 HD
ATOM     53  C   UNL     1       8.268  -0.959  14.450  1.00  0.00     0.034 A 
ATOM     54  C   UNL     1       2.957  -5.408  13.551  1.00  0.00     0.034 A 
ATOM     55  C   UNL     1       8.062  -1.887  15.525  1.00  0.00     0.049 A 
ATOM     56  C   UNL     1       3.875  -5.502  14.747  1.00  0.00     0.074 A 
ATOM     57  C   UNL     1       8.783  -2.005  16.700  1.00  0.00     0.029 A 
ATOM     58  N   UNL     1       7.085  -2.868  15.550  1.00  0.00    -0.354 N 
ATOM     59  N   UNL     1       4.863  -4.712  15.090  1.00  0.00    -0.248 NA
ATOM     60  C   UNL     1       3.638  -6.602  15.697  1.00  0.00     0.031 C 
ATOM     61  C   UNL     1       8.276  -3.093  17.411  1.00  0.00     0.029 A 
ATOM     62  C   UNL     1       7.201  -3.614  16.709  1.00  0.00     0.049 A 
ATOM     63  H   UNL     1       6.410  -3.013  14.849  1.00  0.00     0.167 HD
ATOM     64  C   UNL     1       5.336  -5.191  16.309  1.00  0.00     0.074 A 
ATOM     65  C   UNL     1       4.525  -6.340  16.649  1.00  0.00     0.031 C 
ATOM     66  C   UNL     1       6.354  -4.722  17.070  1.00  0.00     0.034 A 
BRANCH  53  67
ATOM     67  C   UNL     1       9.414   0.009  14.568  1.00  0.00     0.023 A 
ATOM     68  C   UNL     1       9.155   1.368  14.837  1.00  0.00     0.012 A 
ATOM     69  C   UNL     1      10.745  -0.448  14.513  1.00  0.00     0.148 A 
ATOM     70  C   UNL     1      10.206   2.263  15.030  1.00  0.00     0.002 A 
ATOM     71  C   UNL     1      11.785   0.439  14.756  1.00  0.00     0.091 A 
ATOM     72  F   UNL     1      10.965  -1.740  14.235  1.00  0.00    -0.205 F 
ATOM     73  C   UNL     1      11.518   1.796  15.005  1.00  0.00     0.022 A 
BRANCH  71  74
ATOM     74  S   UNL     1      13.502  -0.079  14.835  1.00  0.00     0.127 S 
ATOM     75  O   UNL     1      14.072   0.616  13.681  1.00  0.00    -0.237 OA
ATOM     76  O   UNL     1      13.921   0.449  16.133  1.00  0.00    -0.237 OA
ATOM     77  O   UNL     1      13.492  -1.532  14.739  1.00  0.00    -0.744 OA
ENDBRANCH  71  74
ENDBRANCH  53  67
BRANCH  54  78
ATOM     78  C   UNL     1       1.831  -6.371  13.378  1.00  0.00     0.023 A 
ATOM     79  C   UNL     1       0.750  -6.357  14.281  1.00  0.00     0.012 A 
ATOM     80  C   UNL     1       1.812  -7.278  12.300  1.00  0.00     0.148 A 
ATOM     81  C   UNL     1      -0.319  -7.242  14.125  1.00  0.00     0.002 A 
ATOM     82  C   UNL     1       0.717  -8.114  12.116  1.00  0.00     0.091 A 
ATOM     83  F   UNL     1       2.858  -7.288  11.462  1.00  0.00    -0.205 F 
ATOM     84  C   UNL     1      -0.342  -8.110  13.036  1.00  0.00     0.022 A 
BRANCH  82  85
ATOM     85  S   UNL     1       0.538  -9.170  10.674  1.00  0.00     0.127 S 
ATOM     86  O   UNL     1       0.552 -10.502  11.273  1.00  0.00    -0.237 OA
ATOM     87  O   UNL     1      -0.759  -8.742  10.151  1.00  0.00    -0.237 OA
ATOM     88  O   UNL     1       1.669  -8.861   9.810  1.00  0.00    -0.744 OA
ENDBRANCH  82  85
ENDBRANCH  54  78
BRANCH  66  89
ATOM     89  C   UNL     1       6.662  -5.396  18.383  1.00  0.00     0.023 A 
ATOM     90  C   UNL     1       7.330  -6.635  18.396  1.00  0.00     0.012 A 
ATOM     91  C   UNL     1       6.462  -4.703  19.596  1.00  0.00     0.148 A 
ATOM     92  C   UNL     1       7.797  -7.173  19.596  1.00  0.00     0.002 A 
ATOM     93  C   UNL     1       6.976  -5.220  20.779  1.00  0.00     0.091 A 
ATOM     94  F   UNL     1       5.816  -3.529  19.559  1.00  0.00    -0.205 F 
ATOM     95  C   UNL     1       7.637  -6.458  20.782  1.00  0.00     0.022 A 
BRANCH  93  96
ATOM     96  S   UNL     1       6.925  -4.319  22.333  1.00  0.00     0.127 S 
ATOM     97  O   UNL     1       6.089  -5.194  23.156  1.00  0.00    -0.237 OA
ATOM     98  O   UNL     1       8.336  -4.287  22.716  1.00  0.00    -0.237 OA
ATOM     99  O   UNL     1       6.343  -3.018  22.031  1.00  0.00    -0.744 OA
ENDBRANCH  93  96
ENDBRANCH  66  89
ENDBRANCH  40  41
ENDBRANCH  33  35
ENDBRANCH  32  33
ENDBRANCH  31  32
ENDBRANCH  30  31
ENDBRANCH  29  30
ENDBRANCH  28  29
ENDBRANCH  27  28
ENDBRANCH   1  27
TORSDOF 29
