REMARK SMILES O=C(COc1ccc(N2C[C@@H](C(=O)OCCOCCOCCOCCOC(=O)c3ccc(-c4c5nc(c(-c6cccc(S(=O)(=O)[O-])c6F)c6ccc([nH]6)c(-c6cccc(S(=O)(=O)[O-])c6F)c6nc(c(-c7cccc(S(=O)(=O)[O-])c7F)c7ccc4[nH]7)C=C6)C=C5)cc3)CC2=O)cc1)Nc1ccc(Cl)cc1Cl
REMARK SMILES IDX 19 1 18 2 17 3 16 4 15 5 14 6 12 7 13 8 11 9 9 10 10 11
REMARK SMILES IDX 93 12 92 13 94 14 8 15 5 16 6 17 96 18 7 19 95 20 4 21 3 22
REMARK SMILES IDX 2 23 1 24 97 25 98 27 99 28 104 29 100 30 103 31 105 32
REMARK SMILES IDX 101 33 102 34 20 35 21 36 22 37 23 38 24 39 25 40 26 41
REMARK SMILES IDX 27 42 28 43 29 44 30 45 91 46 31 47 90 48 32 49 33 50 34 51
REMARK SMILES IDX 84 52 35 53 89 54 83 55 85 56 36 57 88 58 82 59 81 60 37 62
REMARK SMILES IDX 69 63 49 64 68 65 50 66 53 67 67 68 86 69 51 70 52 71 66 73
REMARK SMILES IDX 87 74 54 75 38 76 39 77 47 78 40 79 42 80 48 81 41 82 43 83
REMARK SMILES IDX 44 84 45 85 46 86 70 87 71 88 79 89 72 90 74 91 80 92 73 93
REMARK SMILES IDX 75 94 76 95 77 96 78 97 55 98 56 99 64 100 57 101 59 102
REMARK SMILES IDX 65 103 58 104 60 105 61 106 62 107 63 108
REMARK H PARENT 97 26 85 61 53 72
REMARK Flexibility Score: inf
ROOT
ATOM      1  C   UNL     1      -1.119 -10.428  -2.624  1.00  0.00     0.188 C 
ENDROOT
BRANCH   1   2
ATOM      2  C   UNL     1      -0.860 -11.377  -1.446  1.00  0.00     0.188 C 
BRANCH   2   3
ATOM      3  O   UNL     1      -1.895 -11.787  -0.566  1.00  0.00    -0.376 OA
BRANCH   3   4
ATOM      4  C   UNL     1      -2.893 -10.887  -0.100  1.00  0.00     0.202 C 
BRANCH   4   5
ATOM      5  C   UNL     1      -2.550  -9.508   0.486  1.00  0.00     0.261 C 
BRANCH   5   6
ATOM      6  O   UNL     1      -1.600  -8.744  -0.265  1.00  0.00    -0.463 OA
BRANCH   6   7
ATOM      7  C   UNL     1      -0.355  -8.696   0.241  1.00  0.00     0.311 C 
ATOM      8  O   UNL     1      -0.013  -9.177   1.318  1.00  0.00    -0.252 OA
BRANCH   7   9
ATOM      9  C   UNL     1       0.644  -8.028  -0.663  1.00  0.00     0.128 C 
ATOM     10  N   UNL     1       1.696  -5.977  -0.871  1.00  0.00    -0.312 N 
ATOM     11  C   UNL     1       1.169  -6.857   0.127  1.00  0.00     0.141 C 
ATOM     12  C   UNL     1       1.158  -6.234  -2.129  1.00  0.00     0.227 C 
ATOM     13  C   UNL     1       0.228  -7.399  -1.992  1.00  0.00     0.117 C 
ATOM     14  O   UNL     1       1.393  -5.675  -3.190  1.00  0.00    -0.274 OA
BRANCH  10  15
ATOM     15  C   UNL     1       2.370  -4.806  -0.516  1.00  0.00     0.044 A 
ATOM     16  C   UNL     1       3.512  -2.397   0.286  1.00  0.00     0.120 A 
ATOM     17  C   UNL     1       3.856  -3.572   0.947  1.00  0.00     0.048 A 
ATOM     18  C   UNL     1       2.642  -2.441  -0.799  1.00  0.00     0.048 A 
ATOM     19  C   UNL     1       3.265  -4.777   0.560  1.00  0.00     0.030 A 
ATOM     20  C   UNL     1       2.078  -3.635  -1.202  1.00  0.00     0.030 A 
BRANCH  16  21
ATOM     21  O   UNL     1       4.103  -1.224   0.673  1.00  0.00    -0.484 OA
BRANCH  21  22
ATOM     22  C   UNL     1       3.158  -0.322   1.262  1.00  0.00     0.329 C 
BRANCH  22  23
ATOM     23  C   UNL     1       2.237   0.404   0.273  1.00  0.00     0.262 C 
ATOM     24  O   UNL     1       1.045   0.543   0.518  1.00  0.00    -0.271 OA
ATOM     25  N   UNL     1       2.891   0.751  -0.907  1.00  0.00    -0.322 N 
ATOM     26  H   UNL     1       3.874   0.688  -0.921  1.00  0.00     0.170 HD
BRANCH  25  27
ATOM     27  C   UNL     1       2.242   1.190  -2.088  1.00  0.00     0.060 A 
ATOM     28  C   UNL     1       2.719   0.626  -3.286  1.00  0.00     0.029 A 
ATOM     29  C   UNL     1       1.166   2.093  -2.150  1.00  0.00     0.066 A 
ATOM     30  C   UNL     1       2.088   0.892  -4.504  1.00  0.00     0.023 A 
ATOM     31  C   UNL     1       0.529   2.347  -3.372  1.00  0.00     0.043 A 
ATOM     32  Cl  UNL     1       0.701   3.101  -0.823  1.00  0.00    -0.082 Cl
ATOM     33  C   UNL     1       0.987   1.741  -4.538  1.00  0.00     0.042 A 
ATOM     34  Cl  UNL     1       0.225   2.083  -6.042  1.00  0.00    -0.084 Cl
ENDBRANCH  25  27
ENDBRANCH  22  23
ENDBRANCH  21  22
ENDBRANCH  16  21
ENDBRANCH  10  15
ENDBRANCH   7   9
ENDBRANCH   6   7
ENDBRANCH   5   6
ENDBRANCH   4   5
ENDBRANCH   3   4
ENDBRANCH   2   3
ENDBRANCH   1   2
BRANCH   1  35
ATOM     35  O   UNL     1      -2.328  -9.709  -2.569  1.00  0.00    -0.377 OA
BRANCH  35  36
ATOM     36  C   UNL     1      -3.410 -10.205  -3.348  1.00  0.00     0.188 C 
BRANCH  36  37
ATOM     37  C   UNL     1      -3.517 -11.733  -3.537  1.00  0.00     0.188 C 
BRANCH  37  38
ATOM     38  O   UNL     1      -2.316 -12.359  -3.970  1.00  0.00    -0.376 OA
BRANCH  38  39
ATOM     39  C   UNL     1      -2.103 -12.558  -5.361  1.00  0.00     0.202 C 
BRANCH  39  40
ATOM     40  C   UNL     1      -2.041 -11.331  -6.289  1.00  0.00     0.261 C 
BRANCH  40  41
ATOM     41  O   UNL     1      -3.197 -10.480  -6.321  1.00  0.00    -0.460 OA
BRANCH  41  42
ATOM     42  C   UNL     1      -4.390 -11.033  -6.615  1.00  0.00     0.338 C 
ATOM     43  O   UNL     1      -4.600 -12.192  -6.937  1.00  0.00    -0.246 OA
BRANCH  42  44
ATOM     44  C   UNL     1      -5.442 -10.054  -6.267  1.00  0.00     0.060 A 
ATOM     45  C   UNL     1      -6.412 -10.413  -5.321  1.00  0.00     0.016 A 
ATOM     46  C   UNL     1      -5.474  -8.793  -6.866  1.00  0.00     0.016 A 
ATOM     47  C   UNL     1      -7.443  -9.529  -5.004  1.00  0.00     0.010 A 
ATOM     48  C   UNL     1      -6.523  -7.918  -6.567  1.00  0.00     0.010 A 
ATOM     49  C   UNL     1      -7.533  -8.298  -5.665  1.00  0.00    -0.014 A 
BRANCH  49  50
ATOM     50  C   UNL     1      -8.786  -7.509  -5.571  1.00  0.00     0.031 A 
ATOM     51  C   UNL     1      -9.785  -7.627  -6.692  1.00  0.00     0.074 A 
ATOM     52  C   UNL     1      -9.040  -6.713  -4.517  1.00  0.00     0.049 A 
ATOM     53  N   UNL     1     -10.921  -7.003  -6.857  1.00  0.00    -0.248 NA
ATOM     54  C   UNL     1      -9.457  -8.574  -7.772  1.00  0.00     0.031 C 
ATOM     55  C   UNL     1      -8.163  -6.529  -3.362  1.00  0.00     0.029 A 
ATOM     56  N   UNL     1     -10.107  -5.885  -4.265  1.00  0.00    -0.354 N 
ATOM     57  C   UNL     1     -11.423  -7.449  -8.074  1.00  0.00     0.074 A 
ATOM     58  C   UNL     1     -10.472  -8.399  -8.606  1.00  0.00     0.031 C 
ATOM     59  C   UNL     1      -8.710  -5.613  -2.542  1.00  0.00     0.029 A 
ATOM     60  C   UNL     1      -9.957  -5.126  -3.128  1.00  0.00     0.049 A 
ATOM     61  H   UNL     1     -10.903  -5.840  -4.843  1.00  0.00     0.167 HD
ATOM     62  C   UNL     1     -12.575  -7.102  -8.692  1.00  0.00     0.034 A 
ATOM     63  C   UNL     1     -10.722  -4.127  -2.640  1.00  0.00     0.034 A 
ATOM     64  C   UNL     1     -13.531  -6.175  -8.153  1.00  0.00     0.049 A 
ATOM     65  C   UNL     1     -11.986  -3.741  -3.370  1.00  0.00     0.074 A 
ATOM     66  C   UNL     1     -14.757  -5.806  -8.679  1.00  0.00     0.029 A 
ATOM     67  N   UNL     1     -13.364  -5.457  -6.981  1.00  0.00    -0.354 N 
ATOM     68  N   UNL     1     -12.507  -4.259  -4.456  1.00  0.00    -0.248 NA
ATOM     69  C   UNL     1     -12.785  -2.652  -2.787  1.00  0.00     0.031 C 
ATOM     70  C   UNL     1     -15.310  -4.829  -7.848  1.00  0.00     0.029 A 
ATOM     71  C   UNL     1     -14.455  -4.631  -6.777  1.00  0.00     0.049 A 
ATOM     72  H   UNL     1     -12.586  -5.525  -6.382  1.00  0.00     0.167 HD
ATOM     73  C   UNL     1     -13.712  -3.593  -4.657  1.00  0.00     0.074 A 
ATOM     74  C   UNL     1     -13.854  -2.648  -3.571  1.00  0.00     0.031 C 
ATOM     75  C   UNL     1     -14.615  -3.741  -5.657  1.00  0.00     0.034 A 
BRANCH  62  76
ATOM     76  C   UNL     1     -12.881  -7.725 -10.027  1.00  0.00     0.023 A 
ATOM     77  C   UNL     1     -13.287  -9.072 -10.101  1.00  0.00     0.012 A 
ATOM     78  C   UNL     1     -12.863  -6.939 -11.196  1.00  0.00     0.148 A 
ATOM     79  C   UNL     1     -13.656  -9.632 -11.323  1.00  0.00     0.002 A 
ATOM     80  C   UNL     1     -13.278  -7.491 -12.401  1.00  0.00     0.091 A 
ATOM     81  F   UNL     1     -12.452  -5.667 -11.103  1.00  0.00    -0.205 F 
ATOM     82  C   UNL     1     -13.666  -8.839 -12.468  1.00  0.00     0.022 A 
BRANCH  80  83
ATOM     83  S   UNL     1     -13.408  -6.531 -13.913  1.00  0.00     0.127 S 
ATOM     84  O   UNL     1     -12.398  -7.172 -14.756  1.00  0.00    -0.237 OA
ATOM     85  O   UNL     1     -14.790  -6.785 -14.316  1.00  0.00    -0.237 OA
ATOM     86  O   UNL     1     -13.120  -5.152 -13.544  1.00  0.00    -0.744 OA
ENDBRANCH  80  83
ENDBRANCH  62  76
BRANCH  63  87
ATOM     87  C   UNL     1     -10.324  -3.403  -1.398  1.00  0.00     0.023 A 
ATOM     88  C   UNL     1     -11.128  -3.494  -0.244  1.00  0.00     0.012 A 
ATOM     89  C   UNL     1      -9.175  -2.590  -1.370  1.00  0.00     0.148 A 
ATOM     90  C   UNL     1     -10.824  -2.747   0.895  1.00  0.00     0.002 A 
ATOM     91  C   UNL     1      -8.844  -1.899  -0.211  1.00  0.00     0.091 A 
ATOM     92  F   UNL     1      -8.433  -2.500  -2.482  1.00  0.00    -0.205 F 
ATOM     93  C   UNL     1      -9.679  -1.956   0.915  1.00  0.00     0.022 A 
BRANCH  91  94
ATOM     94  S   UNL     1      -7.321  -0.961  -0.056  1.00  0.00     0.127 S 
ATOM     95  O   UNL     1      -7.817   0.413  -0.059  1.00  0.00    -0.237 OA
ATOM     96  O   UNL     1      -6.811  -1.432   1.232  1.00  0.00    -0.237 OA
ATOM     97  O   UNL     1      -6.508  -1.346  -1.201  1.00  0.00    -0.744 OA
ENDBRANCH  91  94
ENDBRANCH  63  87
BRANCH  75  98
ATOM     98  C   UNL     1     -15.877  -2.918  -5.599  1.00  0.00     0.023 A 
ATOM     99  C   UNL     1     -15.832  -1.530  -5.833  1.00  0.00     0.012 A 
ATOM    100  C   UNL     1     -17.122  -3.544  -5.387  1.00  0.00     0.148 A 
ATOM    101  C   UNL     1     -17.003  -0.772  -5.818  1.00  0.00     0.002 A 
ATOM    102  C   UNL     1     -18.289  -2.792  -5.430  1.00  0.00     0.091 A 
ATOM    103  F   UNL     1     -17.142  -4.864  -5.153  1.00  0.00    -0.205 F 
ATOM    104  C   UNL     1     -18.231  -1.404  -5.630  1.00  0.00     0.022 A 
BRANCH 102 105
ATOM    105  S   UNL     1     -19.920  -3.535  -5.301  1.00  0.00     0.127 S 
ATOM    106  O   UNL     1     -20.362  -3.057  -3.993  1.00  0.00    -0.237 OA
ATOM    107  O   UNL     1     -20.622  -2.938  -6.438  1.00  0.00    -0.237 OA
ATOM    108  O   UNL     1     -19.718  -4.974  -5.403  1.00  0.00    -0.744 OA
ENDBRANCH 102 105
ENDBRANCH  75  98
ENDBRANCH  49  50
ENDBRANCH  42  44
ENDBRANCH  41  42
ENDBRANCH  40  41
ENDBRANCH  39  40
ENDBRANCH  38  39
ENDBRANCH  37  38
ENDBRANCH  36  37
ENDBRANCH  35  36
ENDBRANCH   1  35
TORSDOF 28
