REMARK SMILES CNC(=O)C[N@H+]1CC[C@@H](C(=O)OCCOCCOCCOCCOC(=O)c2ccc(-c3c4nc(c(-c5cccc(S(=O)(=O)[O-])c5F)c5ccc([nH]5)c(-c5cccc(S(=O)(=O)[O-])c5F)c5nc(c(-c6cccc(S(=O)(=O)[O-])c6F)c6ccc3[nH]6)C=C5)C=C4)cc2)[C@H]1C
REMARK SMILES IDX 19 1 18 2 17 3 16 4 15 5 14 6 13 7 12 8 10 9 11 10 9 11 6 12
REMARK SMILES IDX 7 13 90 14 8 16 91 17 5 18 3 19 1 20 2 21 4 23 20 24 21 25
REMARK SMILES IDX 22 26 23 27 24 28 25 29 26 30 27 31 28 32 89 33 29 34 88 35
REMARK SMILES IDX 30 36 31 37 32 38 82 39 33 40 87 41 81 42 83 43 34 44 86 45
REMARK SMILES IDX 80 46 79 47 35 49 67 50 47 51 66 52 48 53 51 54 65 55 84 56
REMARK SMILES IDX 49 57 50 58 64 60 85 61 52 62 36 63 37 64 45 65 38 66 40 67
REMARK SMILES IDX 46 68 39 69 41 70 42 71 43 72 44 73 68 74 69 75 77 76 70 77
REMARK SMILES IDX 72 78 78 79 71 80 73 81 74 82 75 83 76 84 53 85 54 86 62 87
REMARK SMILES IDX 55 88 57 89 63 90 56 91 58 92 59 93 60 94 61 95
REMARK H PARENT 6 15 2 22 83 48 51 59
REMARK Flexibility Score: inf
ROOT
ATOM      1  C   UNL     1       0.295  -8.532   0.916  1.00  0.00     0.188 C 
ENDROOT
BRANCH   1   2
ATOM      2  O   UNL     1       0.763  -7.188   0.922  1.00  0.00    -0.377 OA
BRANCH   2   3
ATOM      3  C   UNL     1       2.047  -6.873   1.435  1.00  0.00     0.188 C 
BRANCH   3   4
ATOM      4  C   UNL     1       2.522  -7.437   2.788  1.00  0.00     0.188 C 
BRANCH   4   5
ATOM      5  O   UNL     1       1.879  -8.617   3.210  1.00  0.00    -0.376 OA
BRANCH   5   6
ATOM      6  C   UNL     1       0.864  -8.586   4.195  1.00  0.00     0.202 C 
BRANCH   6   7
ATOM      7  C   UNL     1      -0.089  -7.399   4.418  1.00  0.00     0.261 C 
BRANCH   7   8
ATOM      8  O   UNL     1       0.075  -6.259   3.570  1.00  0.00    -0.463 OA
BRANCH   8   9
ATOM      9  C   UNL     1       0.612  -5.166   4.144  1.00  0.00     0.315 C 
ATOM     10  O   UNL     1       1.066  -5.151   5.288  1.00  0.00    -0.252 OA
BRANCH   9  11
ATOM     11  C   UNL     1       0.683  -3.937   3.263  1.00  0.00     0.162 C 
ATOM     12  N   UNL     1       0.029  -2.326   1.688  1.00  0.00    -0.324 N 
ATOM     13  C   UNL     1      -0.100  -1.694   2.997  1.00  0.00     0.264 C 
ATOM     14  C   UNL     1       0.102  -3.805   1.843  1.00  0.00     0.195 C 
ATOM     15  H   UNL     1       0.922  -2.073   1.265  1.00  0.00     0.348 HD
ATOM     16  C   UNL     1       0.006  -2.802   4.015  1.00  0.00     0.083 C 
ATOM     17  C   UNL     1      -1.193  -4.561   1.548  1.00  0.00     0.076 C 
BRANCH  12  18
ATOM     18  C   UNL     1      -0.895  -1.782   0.685  1.00  0.00     0.363 C 
BRANCH  18  19
ATOM     19  C   UNL     1      -0.248  -1.804  -0.700  1.00  0.00     0.274 C 
ATOM     20  C   UNL     1       1.192   0.212  -0.173  1.00  0.00     0.143 C 
ATOM     21  N   UNL     1       0.664  -0.832  -1.018  1.00  0.00    -0.354 N 
ATOM     22  H   UNL     1       1.003  -0.848  -1.942  1.00  0.00     0.163 HD
ATOM     23  O   UNL     1      -0.525  -2.650  -1.551  1.00  0.00    -0.269 OA
ENDBRANCH  18  19
ENDBRANCH  12  18
ENDBRANCH   9  11
ENDBRANCH   8   9
ENDBRANCH   7   8
ENDBRANCH   6   7
ENDBRANCH   5   6
ENDBRANCH   4   5
ENDBRANCH   3   4
ENDBRANCH   2   3
ENDBRANCH   1   2
BRANCH   1  24
ATOM     24  C   UNL     1       1.284  -9.695   0.695  1.00  0.00     0.188 C 
BRANCH  24  25
ATOM     25  O   UNL     1       2.595  -9.295   0.332  1.00  0.00    -0.376 OA
BRANCH  25  26
ATOM     26  C   UNL     1       2.905  -9.316  -1.055  1.00  0.00     0.202 C 
BRANCH  26  27
ATOM     27  C   UNL     1       2.054  -8.434  -1.984  1.00  0.00     0.261 C 
BRANCH  27  28
ATOM     28  O   UNL     1       0.649  -8.736  -2.046  1.00  0.00    -0.460 OA
BRANCH  28  29
ATOM     29  C   UNL     1       0.277  -9.980  -2.409  1.00  0.00     0.338 C 
ATOM     30  O   UNL     1       1.005 -10.906  -2.730  1.00  0.00    -0.246 OA
BRANCH  29  31
ATOM     31  C   UNL     1      -1.175 -10.101  -2.167  1.00  0.00     0.060 A 
ATOM     32  C   UNL     1      -1.635 -11.029  -1.223  1.00  0.00     0.016 A 
ATOM     33  C   UNL     1      -2.076  -9.301  -2.872  1.00  0.00     0.016 A 
ATOM     34  C   UNL     1      -3.005 -11.185  -1.009  1.00  0.00     0.010 A 
ATOM     35  C   UNL     1      -3.448  -9.474  -2.671  1.00  0.00     0.010 A 
ATOM     36  C   UNL     1      -3.920 -10.442  -1.766  1.00  0.00    -0.014 A 
BRANCH  36  37
ATOM     37  C   UNL     1      -5.355 -10.819  -1.762  1.00  0.00     0.031 A 
ATOM     38  C   UNL     1      -5.870 -11.668  -2.894  1.00  0.00     0.074 A 
ATOM     39  C   UNL     1      -6.184 -10.430  -0.776  1.00  0.00     0.049 A 
ATOM     40  N   UNL     1      -7.087 -12.078  -3.137  1.00  0.00    -0.248 NA
ATOM     41  C   UNL     1      -4.876 -12.117  -3.886  1.00  0.00     0.031 C 
ATOM     42  C   UNL     1      -5.804  -9.621   0.381  1.00  0.00     0.029 A 
ATOM     43  N   UNL     1      -7.530 -10.645  -0.609  1.00  0.00    -0.354 N 
ATOM     44  C   UNL     1      -7.011 -12.812  -4.315  1.00  0.00     0.074 A 
ATOM     45  C   UNL     1      -5.632 -12.778  -4.749  1.00  0.00     0.031 C 
ATOM     46  C   UNL     1      -6.902  -9.375   1.119  1.00  0.00     0.029 A 
ATOM     47  C   UNL     1      -8.063  -9.983   0.473  1.00  0.00     0.049 A 
ATOM     48  H   UNL     1      -8.063 -11.217  -1.207  1.00  0.00     0.167 HD
ATOM     49  C   UNL     1      -7.995 -13.471  -4.969  1.00  0.00     0.034 A 
ATOM     50  C   UNL     1      -9.346  -9.857   0.872  1.00  0.00     0.034 A 
ATOM     51  C   UNL     1      -9.364 -13.511  -4.534  1.00  0.00     0.049 A 
ATOM     52  C   UNL     1     -10.432 -10.561   0.094  1.00  0.00     0.074 A 
ATOM     53  C   UNL     1     -10.432 -14.166  -5.120  1.00  0.00     0.029 A 
ATOM     54  N   UNL     1      -9.858 -12.862  -3.414  1.00  0.00    -0.354 N 
ATOM     55  N   UNL     1     -10.329 -11.331  -0.963  1.00  0.00    -0.248 NA
ATOM     56  C   UNL     1     -11.811 -10.406   0.585  1.00  0.00     0.031 C 
ATOM     57  C   UNL     1     -11.579 -13.889  -4.371  1.00  0.00     0.029 A 
ATOM     58  C   UNL     1     -11.216 -13.097  -3.293  1.00  0.00     0.049 A 
ATOM     59  H   UNL     1      -9.322 -12.315  -2.796  1.00  0.00     0.167 HD
ATOM     60  C   UNL     1     -11.617 -11.785  -1.233  1.00  0.00     0.074 A 
ATOM     61  C   UNL     1     -12.480 -11.223  -0.217  1.00  0.00     0.031 C 
ATOM     62  C   UNL     1     -12.051 -12.584  -2.239  1.00  0.00     0.034 A 
BRANCH  49  63
ATOM     63  C   UNL     1      -7.625 -14.231  -6.214  1.00  0.00     0.023 A 
ATOM     64  C   UNL     1      -6.891 -15.429  -6.106  1.00  0.00     0.012 A 
ATOM     65  C   UNL     1      -8.072 -13.805  -7.480  1.00  0.00     0.148 A 
ATOM     66  C   UNL     1      -6.586 -16.180  -7.240  1.00  0.00     0.002 A 
ATOM     67  C   UNL     1      -7.804 -14.582  -8.600  1.00  0.00     0.091 A 
ATOM     68  F   UNL     1      -8.753 -12.654  -7.562  1.00  0.00    -0.205 F 
ATOM     69  C   UNL     1      -7.053 -15.764  -8.484  1.00  0.00     0.022 A 
BRANCH  67  70
ATOM     70  S   UNL     1      -8.427 -14.179 -10.236  1.00  0.00     0.127 S 
ATOM     71  O   UNL     1      -7.188 -13.920 -10.968  1.00  0.00    -0.237 OA
ATOM     72  O   UNL     1      -9.112 -15.415 -10.614  1.00  0.00    -0.237 OA
ATOM     73  O   UNL     1      -9.297 -13.024 -10.065  1.00  0.00    -0.744 OA
ENDBRANCH  67  70
ENDBRANCH  49  63
BRANCH  50  74
ATOM     74  C   UNL     1      -9.693  -9.031   2.066  1.00  0.00     0.023 A 
ATOM     75  C   UNL     1     -10.245  -9.643   3.208  1.00  0.00     0.012 A 
ATOM     76  C   UNL     1      -9.516  -7.633   2.057  1.00  0.00     0.148 A 
ATOM     77  C   UNL     1     -10.664  -8.875   4.296  1.00  0.00     0.002 A 
ATOM     78  C   UNL     1      -9.877  -6.881   3.169  1.00  0.00     0.091 A 
ATOM     79  F   UNL     1      -9.008  -7.063   0.956  1.00  0.00    -0.205 F 
ATOM     80  C   UNL     1     -10.473  -7.496   4.280  1.00  0.00     0.022 A 
BRANCH  78  81
ATOM     81  S   UNL     1      -9.551  -5.119   3.284  1.00  0.00     0.127 S 
ATOM     82  O   UNL     1     -10.894  -4.557   3.170  1.00  0.00    -0.237 OA
ATOM     83  O   UNL     1      -8.948  -5.010   4.614  1.00  0.00    -0.237 OA
ATOM     84  O   UNL     1      -8.640  -4.816   2.189  1.00  0.00    -0.744 OA
ENDBRANCH  78  81
ENDBRANCH  50  74
BRANCH  62  85
ATOM     85  C   UNL     1     -13.511 -12.961  -2.262  1.00  0.00     0.023 A 
ATOM     86  C   UNL     1     -14.486 -12.000  -2.594  1.00  0.00     0.012 A 
ATOM     87  C   UNL     1     -13.906 -14.293  -2.028  1.00  0.00     0.148 A 
ATOM     88  C   UNL     1     -15.835 -12.350  -2.652  1.00  0.00     0.002 A 
ATOM     89  C   UNL     1     -15.245 -14.647  -2.142  1.00  0.00     0.091 A 
ATOM     90  F   UNL     1     -12.965 -15.191  -1.701  1.00  0.00    -0.205 F 
ATOM     91  C   UNL     1     -16.212 -13.674  -2.438  1.00  0.00     0.022 A 
BRANCH  89  92
ATOM     92  S   UNL     1     -15.812 -16.344  -1.982  1.00  0.00     0.127 S 
ATOM     93  O   UNL     1     -16.551 -16.293  -0.721  1.00  0.00    -0.237 OA
ATOM     94  O   UNL     1     -16.648 -16.503  -3.172  1.00  0.00    -0.237 OA
ATOM     95  O   UNL     1     -14.614 -17.172  -1.968  1.00  0.00    -0.744 OA
ENDBRANCH  89  92
ENDBRANCH  62  85
ENDBRANCH  36  37
ENDBRANCH  29  31
ENDBRANCH  28  29
ENDBRANCH  27  28
ENDBRANCH  26  27
ENDBRANCH  25  26
ENDBRANCH  24  25
ENDBRANCH   1  24
TORSDOF 25
