REMARK SMILES O=C(CCCN1C(=O)C(=O)/C(=C(/[O-])c2ccccc2)[C@@H]1/C=C/c1ccccc1)OCCOCCOCCOCCOC(=O)c1ccc(-c2c3nc(c(-c4cccc(S(=O)(=O)[O-])c4F)c4ccc([nH]4)c(-c4cccc(S(=O)(=O)[O-])c4F)c4nc(c(-c5cccc(S(=O)(=O)[O-])c5F)c5ccc2[nH]5)C=C4)C=C3)cc1
REMARK SMILES IDX 34 1 33 2 32 3 31 4 30 5 29 6 2 7 1 8 3 9 4 10 5 11 6 12
REMARK SMILES IDX 7 13 20 14 8 15 9 16 11 17 10 18 12 19 13 20 21 21 22 22
REMARK SMILES IDX 23 23 24 24 28 25 25 26 27 27 26 28 14 29 15 30 19 31 16 32
REMARK SMILES IDX 18 33 17 34 35 35 36 36 37 37 38 38 39 39 40 40 41 41 42 42
REMARK SMILES IDX 43 43 44 44 45 45 106 46 46 47 105 48 47 49 48 50 49 51
REMARK SMILES IDX 99 52 50 53 104 54 98 55 100 56 51 57 103 58 97 59 96 60
REMARK SMILES IDX 52 62 84 63 64 64 83 65 65 66 68 67 82 68 101 69 66 70 67 71
REMARK SMILES IDX 81 73 102 74 69 75 53 76 54 77 62 78 55 79 57 80 63 81 56 82
REMARK SMILES IDX 58 83 59 84 60 85 61 86 85 87 86 88 94 89 87 90 89 91 95 92
REMARK SMILES IDX 88 93 90 94 91 95 92 96 93 97 70 98 71 99 79 100 72 101
REMARK SMILES IDX 74 102 80 103 73 104 75 105 76 106 77 107 78 108
REMARK H PARENT 100 61 68 72
REMARK Flexibility Score: inf
ROOT
ATOM      1  C   UNL     1       1.703   1.432   2.603  1.00  0.00     0.188 C 
ENDROOT
BRANCH   1   2
ATOM      2  C   UNL     1       1.951   0.079   1.933  1.00  0.00     0.188 C 
BRANCH   2   3
ATOM      3  O   UNL     1       3.188  -0.122   1.268  1.00  0.00    -0.376 OA
BRANCH   3   4
ATOM      4  C   UNL     1       3.678   0.866   0.376  1.00  0.00     0.202 C 
BRANCH   4   5
ATOM      5  C   UNL     1       2.870   1.312  -0.833  1.00  0.00     0.261 C 
BRANCH   5   6
ATOM      6  O   UNL     1       2.743   0.283  -1.821  1.00  0.00    -0.463 OA
BRANCH   6   7
ATOM      7  C   UNL     1       2.044  -0.779  -1.396  1.00  0.00     0.305 C 
ATOM      8  O   UNL     1       0.826  -0.781  -1.263  1.00  0.00    -0.252 OA
BRANCH   7   9
ATOM      9  C   UNL     1       2.916  -1.946  -1.023  1.00  0.00     0.124 C 
BRANCH   9  10
ATOM     10  C   UNL     1       4.346  -2.096  -1.550  1.00  0.00     0.033 C 
BRANCH  10  11
ATOM     11  C   UNL     1       5.406  -0.976  -1.762  1.00  0.00     0.121 C 
BRANCH  11  12
ATOM     12  N   UNL     1       6.393  -0.647  -0.704  1.00  0.00    -0.325 N 
ATOM     13  C   UNL     1       6.926   0.631  -0.627  1.00  0.00     0.295 C 
ATOM     14  C   UNL     1       7.035  -1.565   0.241  1.00  0.00     0.143 C 
ATOM     15  O   UNL     1       6.691   1.587  -1.350  1.00  0.00    -0.265 OA
ATOM     16  C   UNL     1       7.810   0.690   0.606  1.00  0.00     0.248 C 
ATOM     17  C   UNL     1       7.880  -0.685   1.156  1.00  0.00     0.024 C 
ATOM     18  O   UNL     1       8.273   1.718   1.067  1.00  0.00    -0.283 OA
ATOM     19  C   UNL     1       8.610  -1.040   2.236  1.00  0.00    -0.092 C 
ATOM     20  O   UNL     1       8.657  -2.336   2.718  1.00  0.00    -0.872 OA
BRANCH  14  21
ATOM     21  C   UNL     1       7.900  -2.554  -0.523  1.00  0.00     0.003 C 
ATOM     22  C   UNL     1       7.396  -3.375  -1.452  1.00  0.00     0.006 C 
BRANCH  22  23
ATOM     23  C   UNL     1       8.033  -4.257  -2.407  1.00  0.00    -0.026 A 
ATOM     24  C   UNL     1       7.874  -3.938  -3.764  1.00  0.00     0.008 A 
ATOM     25  C   UNL     1       8.507  -5.506  -2.023  1.00  0.00     0.008 A 
ATOM     26  C   UNL     1       8.161  -4.884  -4.739  1.00  0.00     0.001 A 
ATOM     27  C   UNL     1       8.793  -6.452  -3.005  1.00  0.00     0.001 A 
ATOM     28  C   UNL     1       8.611  -6.145  -4.357  1.00  0.00     0.000 A 
ENDBRANCH  22  23
ENDBRANCH  14  21
BRANCH  19  29
ATOM     29  C   UNL     1       9.515  -0.148   2.991  1.00  0.00    -0.033 A 
ATOM     30  C   UNL     1      10.902  -0.254   2.804  1.00  0.00     0.007 A 
ATOM     31  C   UNL     1       9.032   0.776   3.928  1.00  0.00     0.007 A 
ATOM     32  C   UNL     1      11.786   0.557   3.524  1.00  0.00     0.001 A 
ATOM     33  C   UNL     1       9.918   1.589   4.646  1.00  0.00     0.001 A 
ATOM     34  C   UNL     1      11.293   1.480   4.442  1.00  0.00     0.000 A 
ENDBRANCH  19  29
ENDBRANCH  11  12
ENDBRANCH  10  11
ENDBRANCH   9  10
ENDBRANCH   7   9
ENDBRANCH   6   7
ENDBRANCH   5   6
ENDBRANCH   4   5
ENDBRANCH   3   4
ENDBRANCH   2   3
ENDBRANCH   1   2
BRANCH   1  35
ATOM     35  O   UNL     1       2.639   2.428   2.266  1.00  0.00    -0.377 OA
BRANCH  35  36
ATOM     36  C   UNL     1       3.848   2.570   3.008  1.00  0.00     0.188 C 
BRANCH  36  37
ATOM     37  C   UNL     1       4.654   1.382   3.588  1.00  0.00     0.188 C 
BRANCH  37  38
ATOM     38  O   UNL     1       3.920   0.313   4.132  1.00  0.00    -0.376 OA
BRANCH  38  39
ATOM     39  C   UNL     1       3.328   0.355   5.412  1.00  0.00     0.202 C 
BRANCH  39  40
ATOM     40  C   UNL     1       3.113   1.601   6.297  1.00  0.00     0.261 C 
BRANCH  40  41
ATOM     41  O   UNL     1       3.496   2.883   5.807  1.00  0.00    -0.460 OA
BRANCH  41  42
ATOM     42  C   UNL     1       4.721   3.353   6.156  1.00  0.00     0.338 C 
ATOM     43  O   UNL     1       5.533   2.785   6.864  1.00  0.00    -0.246 OA
BRANCH  42  44
ATOM     44  C   UNL     1       5.015   4.564   5.339  1.00  0.00     0.060 A 
ATOM     45  C   UNL     1       6.202   4.588   4.591  1.00  0.00     0.016 A 
ATOM     46  C   UNL     1       4.096   5.613   5.221  1.00  0.00     0.016 A 
ATOM     47  C   UNL     1       6.501   5.682   3.773  1.00  0.00     0.010 A 
ATOM     48  C   UNL     1       4.403   6.715   4.415  1.00  0.00     0.010 A 
ATOM     49  C   UNL     1       5.631   6.779   3.728  1.00  0.00    -0.014 A 
BRANCH  49  50
ATOM     50  C   UNL     1       6.124   8.098   3.250  1.00  0.00     0.031 A 
ATOM     51  C   UNL     1       6.641   9.050   4.298  1.00  0.00     0.074 A 
ATOM     52  C   UNL     1       6.100   8.470   1.957  1.00  0.00     0.049 A 
ATOM     53  N   UNL     1       7.029  10.292   4.182  1.00  0.00    -0.248 NA
ATOM     54  C   UNL     1       6.713   8.524   5.673  1.00  0.00     0.031 C 
ATOM     55  C   UNL     1       5.654   7.642   0.840  1.00  0.00     0.029 A 
ATOM     56  N   UNL     1       6.437   9.670   1.375  1.00  0.00    -0.354 N 
ATOM     57  C   UNL     1       7.348  10.706   5.470  1.00  0.00     0.074 A 
ATOM     58  C   UNL     1       7.098   9.590   6.353  1.00  0.00     0.031 C 
ATOM     59  C   UNL     1       5.707   8.372  -0.290  1.00  0.00     0.029 A 
ATOM     60  C   UNL     1       6.161   9.726   0.029  1.00  0.00     0.049 A 
ATOM     61  H   UNL     1       6.837  10.418   1.875  1.00  0.00     0.167 HD
ATOM     62  C   UNL     1       7.816  11.905   5.887  1.00  0.00     0.034 A 
ATOM     63  C   UNL     1       6.237  10.760  -0.836  1.00  0.00     0.034 A 
ATOM     64  C   UNL     1       8.074  13.012   5.011  1.00  0.00     0.049 A 
ATOM     65  C   UNL     1       6.728  12.102  -0.346  1.00  0.00     0.074 A 
ATOM     66  C   UNL     1       8.586  14.256   5.327  1.00  0.00     0.029 A 
ATOM     67  N   UNL     1       7.820  13.014   3.649  1.00  0.00    -0.354 N 
ATOM     68  N   UNL     1       7.116  12.454   0.857  1.00  0.00    -0.248 NA
ATOM     69  C   UNL     1       6.820  13.184  -1.340  1.00  0.00     0.031 C 
ATOM     70  C   UNL     1       8.601  15.028   4.161  1.00  0.00     0.029 A 
ATOM     71  C   UNL     1       8.150  14.245   3.110  1.00  0.00     0.049 A 
ATOM     72  H   UNL     1       7.458  12.253   3.139  1.00  0.00     0.167 HD
ATOM     73  C   UNL     1       7.540  13.776   0.754  1.00  0.00     0.074 A 
ATOM     74  C   UNL     1       7.368  14.162  -0.630  1.00  0.00     0.031 C 
ATOM     75  C   UNL     1       8.025  14.598   1.719  1.00  0.00     0.034 A 
BRANCH  62  76
ATOM     76  C   UNL     1       8.070  12.075   7.362  1.00  0.00     0.023 A 
ATOM     77  C   UNL     1       9.134  11.386   7.980  1.00  0.00     0.012 A 
ATOM     78  C   UNL     1       7.263  12.933   8.132  1.00  0.00     0.148 A 
ATOM     79  C   UNL     1       9.362  11.514   9.350  1.00  0.00     0.002 A 
ATOM     80  C   UNL     1       7.529  13.097   9.486  1.00  0.00     0.091 A 
ATOM     81  F   UNL     1       6.239  13.558   7.533  1.00  0.00    -0.205 F 
ATOM     82  C   UNL     1       8.567  12.377  10.099  1.00  0.00     0.022 A 
BRANCH  80  83
ATOM     83  S   UNL     1       6.616  14.248  10.518  1.00  0.00     0.127 S 
ATOM     84  O   UNL     1       5.872  13.337  11.388  1.00  0.00    -0.237 OA
ATOM     85  O   UNL     1       7.693  14.982  11.183  1.00  0.00    -0.237 OA
ATOM     86  O   UNL     1       5.804  15.047   9.612  1.00  0.00    -0.744 OA
ENDBRANCH  80  83
ENDBRANCH  62  76
BRANCH  63  87
ATOM     87  C   UNL     1       5.856  10.571  -2.267  1.00  0.00     0.023 A 
ATOM     88  C   UNL     1       6.846  10.627  -3.267  1.00  0.00     0.012 A 
ATOM     89  C   UNL     1       4.518  10.336  -2.640  1.00  0.00     0.148 A 
ATOM     90  C   UNL     1       6.508  10.481  -4.614  1.00  0.00     0.002 A 
ATOM     91  C   UNL     1       4.195  10.137  -3.978  1.00  0.00     0.091 A 
ATOM     92  F   UNL     1       3.587  10.305  -1.676  1.00  0.00    -0.205 F 
ATOM     93  C   UNL     1       5.186  10.226  -4.968  1.00  0.00     0.022 A 
BRANCH  91  94
ATOM     94  S   UNL     1       2.541   9.694  -4.521  1.00  0.00     0.127 S 
ATOM     95  O   UNL     1       2.163  10.862  -5.314  1.00  0.00    -0.237 OA
ATOM     96  O   UNL     1       2.797   8.480  -5.297  1.00  0.00    -0.237 OA
ATOM     97  O   UNL     1       1.766   9.484  -3.306  1.00  0.00    -0.744 OA
ENDBRANCH  91  94
ENDBRANCH  63  87
BRANCH  75  98
ATOM     98  C   UNL     1       8.474  15.980   1.318  1.00  0.00     0.023 A 
ATOM     99  C   UNL     1       7.527  16.964   0.972  1.00  0.00     0.012 A 
ATOM    100  C   UNL     1       9.839  16.327   1.382  1.00  0.00     0.148 A 
ATOM    101  C   UNL     1       7.936  18.263   0.666  1.00  0.00     0.002 A 
ATOM    102  C   UNL     1      10.233  17.635   1.129  1.00  0.00     0.091 A 
ATOM    103  F   UNL     1      10.726  15.373   1.701  1.00  0.00    -0.205 F 
ATOM    104  C   UNL     1       9.285  18.601   0.757  1.00  0.00     0.022 A 
BRANCH 102 105
ATOM    105  S   UNL     1      11.931  18.187   1.325  1.00  0.00     0.127 S 
ATOM    106  O   UNL     1      12.325  18.437  -0.061  1.00  0.00    -0.237 OA
ATOM    107  O   UNL     1      11.773  19.391   2.141  1.00  0.00    -0.237 OA
ATOM    108  O   UNL     1      12.637  17.097   1.985  1.00  0.00    -0.744 OA
ENDBRANCH 102 105
ENDBRANCH  75  98
ENDBRANCH  49  50
ENDBRANCH  42  44
ENDBRANCH  41  42
ENDBRANCH  40  41
ENDBRANCH  39  40
ENDBRANCH  38  39
ENDBRANCH  37  38
ENDBRANCH  36  37
ENDBRANCH  35  36
ENDBRANCH   1  35
TORSDOF 29
