REMARK SMILES Cc1cc(C(=O)N2CCC[C@H]2C(=O)OCCOCCOCCOCCOC(=O)c2ccc(-c3c4nc(c(-c5cccc(S(=O)(=O)[O-])c5F)c5ccc([nH]5)c(-c5cccc(S(=O)(=O)[O-])c5F)c5nc(c(-c6cccc(S(=O)(=O)[O-])c6F)c6ccc3[nH]6)C=C5)C=C4)cc2)c2c(C)noc2n1
REMARK SMILES IDX 21 1 20 2 19 3 18 4 17 5 16 6 15 7 14 8 12 9 13 10 11 11
REMARK SMILES IDX 7 12 8 13 9 14 10 15 5 16 6 17 4 18 1 19 2 20 3 21 98 22
REMARK SMILES IDX 97 23 92 24 96 25 93 26 95 27 94 28 22 29 23 30 24 31 25 32
REMARK SMILES IDX 26 33 27 34 28 35 29 36 30 37 91 38 31 39 90 40 32 41 33 42
REMARK SMILES IDX 34 43 84 44 35 45 89 46 83 47 85 48 36 49 88 50 82 51 81 52
REMARK SMILES IDX 37 54 69 55 49 56 68 57 50 58 53 59 67 60 86 61 51 62 52 63
REMARK SMILES IDX 66 65 87 66 54 67 38 68 39 69 47 70 40 71 42 72 48 73 41 74
REMARK SMILES IDX 43 75 44 76 45 77 46 78 70 79 71 80 79 81 72 82 74 83 80 84
REMARK SMILES IDX 73 85 75 86 76 87 77 88 78 89 55 90 56 91 64 92 57 93 59 94
REMARK SMILES IDX 65 95 58 96 60 97 61 98 62 99 63 100
REMARK H PARENT 85 53 53 64
REMARK Flexibility Score: inf
ROOT
ATOM      1  C   UNL     1       1.690 -10.448   0.448  1.00  0.00     0.188 C 
ENDROOT
BRANCH   1   2
ATOM      2  O   UNL     1       2.397  -9.374  -0.158  1.00  0.00    -0.377 OA
BRANCH   2   3
ATOM      3  C   UNL     1       1.630  -8.219  -0.438  1.00  0.00     0.188 C 
BRANCH   3   4
ATOM      4  C   UNL     1       1.151  -8.082  -1.899  1.00  0.00     0.188 C 
BRANCH   4   5
ATOM      5  O   UNL     1       1.716  -8.882  -2.938  1.00  0.00    -0.376 OA
BRANCH   5   6
ATOM      6  C   UNL     1       3.075  -9.289  -2.857  1.00  0.00     0.202 C 
BRANCH   6   7
ATOM      7  C   UNL     1       4.138  -8.187  -2.833  1.00  0.00     0.261 C 
BRANCH   7   8
ATOM      8  O   UNL     1       3.854  -7.152  -1.879  1.00  0.00    -0.462 OA
BRANCH   8   9
ATOM      9  C   UNL     1       4.052  -5.875  -2.294  1.00  0.00     0.328 C 
ATOM     10  O   UNL     1       4.572  -5.569  -3.362  1.00  0.00    -0.250 OA
BRANCH   9  11
ATOM     11  C   UNL     1       3.516  -4.830  -1.293  1.00  0.00     0.195 C 
ATOM     12  N   UNL     1       2.087  -4.481  -1.371  1.00  0.00    -0.325 N 
ATOM     13  C   UNL     1       1.438  -4.579  -0.070  1.00  0.00     0.121 C 
ATOM     14  C   UNL     1       2.583  -4.503   0.925  1.00  0.00     0.024 C 
ATOM     15  C   UNL     1       3.767  -5.137   0.191  1.00  0.00     0.039 C 
BRANCH  12  16
ATOM     16  C   UNL     1       1.611  -3.862  -2.514  1.00  0.00     0.255 C 
ATOM     17  O   UNL     1       1.925  -4.241  -3.636  1.00  0.00    -0.269 OA
BRANCH  16  18
ATOM     18  C   UNL     1       0.859  -2.593  -2.400  1.00  0.00     0.056 A 
ATOM     19  C   UNL     1       0.941   0.501  -0.216  1.00  0.00     0.067 C 
ATOM     20  C   UNL     1       0.605  -0.425  -1.351  1.00  0.00     0.042 A 
ATOM     21  C   UNL     1       1.170  -1.694  -1.368  1.00  0.00     0.038 A 
ATOM     22  N   UNL     1      -0.222   0.042  -2.304  1.00  0.00    -0.216 NA
ATOM     23  C   UNL     1      -0.465  -0.833  -3.299  1.00  0.00     0.258 A 
ATOM     24  C   UNL     1       0.007  -2.134  -3.423  1.00  0.00     0.077 A 
ATOM     25  O   UNL     1      -1.232  -0.529  -4.380  1.00  0.00    -0.336 OA
ATOM     26  C   UNL     1      -0.568  -2.580  -4.648  1.00  0.00     0.091 A 
ATOM     27  N   UNL     1      -1.299  -1.616  -5.229  1.00  0.00    -0.082 NA
ATOM     28  C   UNL     1      -0.476  -3.899  -5.320  1.00  0.00     0.071 C 
ENDBRANCH  16  18
ENDBRANCH  12  16
ENDBRANCH   9  11
ENDBRANCH   8   9
ENDBRANCH   7   8
ENDBRANCH   6   7
ENDBRANCH   5   6
ENDBRANCH   4   5
ENDBRANCH   3   4
ENDBRANCH   2   3
ENDBRANCH   1   2
BRANCH   1  29
ATOM     29  C   UNL     1       0.366 -10.821  -0.232  1.00  0.00     0.188 C 
BRANCH  29  30
ATOM     30  O   UNL     1      -0.621  -9.794  -0.088  1.00  0.00    -0.376 OA
BRANCH  30  31
ATOM     31  C   UNL     1      -1.577  -9.983   0.955  1.00  0.00     0.202 C 
BRANCH  31  32
ATOM     32  C   UNL     1      -1.024  -9.799   2.377  1.00  0.00     0.261 C 
BRANCH  32  33
ATOM     33  O   UNL     1      -0.123 -10.825   2.825  1.00  0.00    -0.460 OA
BRANCH  33  34
ATOM     34  C   UNL     1      -0.592 -12.094   2.803  1.00  0.00     0.338 C 
ATOM     35  O   UNL     1      -1.686 -12.465   2.436  1.00  0.00    -0.246 OA
BRANCH  34  36
ATOM     36  C   UNL     1       0.511 -12.981   3.184  1.00  0.00     0.060 A 
ATOM     37  C   UNL     1       1.252 -13.653   2.204  1.00  0.00     0.016 A 
ATOM     38  C   UNL     1       0.746 -13.199   4.533  1.00  0.00     0.016 A 
ATOM     39  C   UNL     1       2.234 -14.571   2.582  1.00  0.00     0.010 A 
ATOM     40  C   UNL     1       1.699 -14.141   4.901  1.00  0.00     0.010 A 
ATOM     41  C   UNL     1       2.442 -14.854   3.937  1.00  0.00    -0.014 A 
BRANCH  41  42
ATOM     42  C   UNL     1       3.350 -15.963   4.348  1.00  0.00     0.031 A 
ATOM     43  C   UNL     1       4.036 -15.780   5.655  1.00  0.00     0.074 A 
ATOM     44  C   UNL     1       3.037 -17.251   4.055  1.00  0.00     0.049 A 
ATOM     45  N   UNL     1       3.377 -16.040   6.742  1.00  0.00    -0.248 NA
ATOM     46  C   UNL     1       5.285 -15.062   5.888  1.00  0.00     0.031 C 
ATOM     47  C   UNL     1       1.723 -17.669   3.538  1.00  0.00     0.029 A 
ATOM     48  N   UNL     1       3.661 -18.441   4.390  1.00  0.00    -0.354 N 
ATOM     49  C   UNL     1       3.985 -15.356   7.768  1.00  0.00     0.074 A 
ATOM     50  C   UNL     1       5.229 -14.858   7.219  1.00  0.00     0.031 C 
ATOM     51  C   UNL     1       1.565 -18.986   3.763  1.00  0.00     0.029 A 
ATOM     52  C   UNL     1       2.803 -19.533   4.293  1.00  0.00     0.049 A 
ATOM     53  H   UNL     1       4.604 -18.507   4.665  1.00  0.00     0.167 HD
ATOM     54  C   UNL     1       3.365 -15.184   8.968  1.00  0.00     0.034 A 
ATOM     55  C   UNL     1       2.904 -20.721   4.943  1.00  0.00     0.034 A 
ATOM     56  C   UNL     1       2.015 -15.698   9.133  1.00  0.00     0.049 A 
ATOM     57  C   UNL     1       2.352 -20.406   6.310  1.00  0.00     0.074 A 
ATOM     58  C   UNL     1       0.890 -15.404   9.883  1.00  0.00     0.029 A 
ATOM     59  N   UNL     1       1.622 -16.738   8.334  1.00  0.00    -0.354 N 
ATOM     60  N   UNL     1       1.087 -20.251   6.616  1.00  0.00    -0.248 NA
ATOM     61  C   UNL     1       3.291 -19.981   7.361  1.00  0.00     0.031 C 
ATOM     62  C   UNL     1      -0.095 -16.418   9.618  1.00  0.00     0.029 A 
ATOM     63  C   UNL     1       0.469 -17.341   8.758  1.00  0.00     0.049 A 
ATOM     64  H   UNL     1       2.119 -17.024   7.534  1.00  0.00     0.167 HD
ATOM     65  C   UNL     1       1.102 -19.442   7.745  1.00  0.00     0.074 A 
ATOM     66  C   UNL     1       2.461 -19.442   8.244  1.00  0.00     0.031 C 
ATOM     67  C   UNL     1       0.112 -18.568   8.089  1.00  0.00     0.034 A 
BRANCH  54  68
ATOM     68  C   UNL     1       4.109 -14.671  10.143  1.00  0.00     0.023 A 
ATOM     69  C   UNL     1       4.738 -15.651  10.938  1.00  0.00     0.012 A 
ATOM     70  C   UNL     1       4.109 -13.332  10.562  1.00  0.00     0.148 A 
ATOM     71  C   UNL     1       5.348 -15.313  12.141  1.00  0.00     0.002 A 
ATOM     72  C   UNL     1       4.721 -12.999  11.770  1.00  0.00     0.091 A 
ATOM     73  F   UNL     1       3.498 -12.419   9.793  1.00  0.00    -0.205 F 
ATOM     74  C   UNL     1       5.336 -13.988  12.560  1.00  0.00     0.022 A 
BRANCH  72  75
ATOM     75  S   UNL     1       4.763 -11.327  12.427  1.00  0.00     0.127 S 
ATOM     76  O   UNL     1       4.018 -11.472  13.677  1.00  0.00    -0.237 OA
ATOM     77  O   UNL     1       6.199 -11.105  12.595  1.00  0.00    -0.237 OA
ATOM     78  O   UNL     1       4.130 -10.485  11.421  1.00  0.00    -0.744 OA
ENDBRANCH  72  75
ENDBRANCH  54  68
BRANCH  55  79
ATOM     79  C   UNL     1       4.146 -21.521   4.694  1.00  0.00     0.023 A 
ATOM     80  C   UNL     1       4.604 -21.602   3.354  1.00  0.00     0.012 A 
ATOM     81  C   UNL     1       4.857 -22.252   5.661  1.00  0.00     0.148 A 
ATOM     82  C   UNL     1       5.772 -22.285   3.009  1.00  0.00     0.002 A 
ATOM     83  C   UNL     1       6.058 -22.878   5.328  1.00  0.00     0.091 A 
ATOM     84  F   UNL     1       4.362 -22.346   6.900  1.00  0.00    -0.205 F 
ATOM     85  C   UNL     1       6.517 -22.899   4.004  1.00  0.00     0.022 A 
BRANCH  83  86
ATOM     86  S   UNL     1       7.129 -23.623   6.565  1.00  0.00     0.127 S 
ATOM     87  O   UNL     1       7.445 -24.916   5.961  1.00  0.00    -0.237 OA
ATOM     88  O   UNL     1       8.236 -22.669   6.594  1.00  0.00    -0.237 OA
ATOM     89  O   UNL     1       6.336 -23.694   7.784  1.00  0.00    -0.744 OA
ENDBRANCH  83  86
ENDBRANCH  55  79
BRANCH  67  90
ATOM     90  C   UNL     1      -1.273 -18.879   7.651  1.00  0.00     0.023 A 
ATOM     91  C   UNL     1      -1.862 -20.055   8.162  1.00  0.00     0.012 A 
ATOM     92  C   UNL     1      -2.028 -18.036   6.818  1.00  0.00     0.148 A 
ATOM     93  C   UNL     1      -3.177 -20.392   7.855  1.00  0.00     0.002 A 
ATOM     94  C   UNL     1      -3.345 -18.377   6.517  1.00  0.00     0.091 A 
ATOM     95  F   UNL     1      -1.459 -16.919   6.342  1.00  0.00    -0.205 F 
ATOM     96  C   UNL     1      -3.919 -19.552   7.035  1.00  0.00     0.022 A 
BRANCH  94  97
ATOM     97  S   UNL     1      -4.403 -17.367   5.474  1.00  0.00     0.127 S 
ATOM     98  O   UNL     1      -4.938 -18.352   4.532  1.00  0.00    -0.237 OA
ATOM     99  O   UNL     1      -5.379 -16.859   6.438  1.00  0.00    -0.237 OA
ATOM    100  O   UNL     1      -3.537 -16.364   4.872  1.00  0.00    -0.744 OA
ENDBRANCH  94  97
ENDBRANCH  67  90
ENDBRANCH  41  42
ENDBRANCH  34  36
ENDBRANCH  33  34
ENDBRANCH  32  33
ENDBRANCH  31  32
ENDBRANCH  30  31
ENDBRANCH  29  30
ENDBRANCH   1  29
TORSDOF 25
