REMARK SMILES Cc1ccc(Cl)c(Nc2ccccc2C(=O)NCC(=O)OCCOCCOCCOCCOC(=O)c2ccc(-c3c4nc(c(-c5cccc(S(=O)(=O)[O-])c5F)c5ccc([nH]5)c(-c5cccc(S(=O)(=O)[O-])c5F)c5nc(c(-c6cccc(S(=O)(=O)[O-])c6F)c6ccc3[nH]6)C=C5)C=C4)cc2)c1Cl
REMARK SMILES IDX 26 1 25 2 24 3 23 4 22 5 21 6 19 7 20 8 18 9 17 10 15 11
REMARK SMILES IDX 16 12 14 14 9 15 10 16 11 17 13 18 12 19 8 20 7 22 1 23 2 24
REMARK SMILES IDX 3 25 99 26 4 27 100 28 5 29 6 30 27 31 28 32 29 33 30 34
REMARK SMILES IDX 31 35 32 36 33 37 34 38 35 39 36 40 37 41 98 42 38 43 97 44
REMARK SMILES IDX 39 45 40 46 41 47 91 48 42 49 96 50 90 51 92 52 43 53 95 54
REMARK SMILES IDX 89 55 88 56 44 58 76 59 56 60 75 61 57 62 60 63 74 64 93 65
REMARK SMILES IDX 58 66 59 67 73 69 94 70 61 71 45 72 46 73 54 74 47 75 49 76
REMARK SMILES IDX 55 77 48 78 50 79 51 80 52 81 53 82 77 83 78 84 86 85 79 86
REMARK SMILES IDX 81 87 87 88 80 89 82 90 83 91 84 92 85 93 62 94 63 95 71 96
REMARK SMILES IDX 64 97 66 98 72 99 65 100 67 101 68 102 69 103 70 104
REMARK H PARENT 17 13 8 21 92 57 60 68
REMARK Flexibility Score: inf
ROOT
ATOM      1  C   UNL     1      -2.032   0.237   2.986  1.00  0.00     0.188 C 
ENDROOT
BRANCH   1   2
ATOM      2  C   UNL     1      -3.299   0.229   2.110  1.00  0.00     0.188 C 
BRANCH   2   3
ATOM      3  O   UNL     1      -4.513  -0.054   2.770  1.00  0.00    -0.376 OA
BRANCH   3   4
ATOM      4  C   UNL     1      -5.106  -1.346   2.775  1.00  0.00     0.202 C 
BRANCH   4   5
ATOM      5  C   UNL     1      -4.431  -2.649   2.324  1.00  0.00     0.261 C 
BRANCH   5   6
ATOM      6  O   UNL     1      -3.006  -2.640   2.311  1.00  0.00    -0.462 OA
BRANCH   6   7
ATOM      7  C   UNL     1      -2.493  -2.746   1.072  1.00  0.00     0.325 C 
ATOM      8  O   UNL     1      -3.161  -2.888   0.046  1.00  0.00    -0.250 OA
BRANCH   7   9
ATOM      9  C   UNL     1      -1.013  -2.501   0.955  1.00  0.00     0.239 C 
BRANCH   9  10
ATOM     10  N   UNL     1       0.068  -2.312   1.888  1.00  0.00    -0.341 N 
ATOM     11  C   UNL     1       1.399  -2.339   1.483  1.00  0.00     0.253 C 
ATOM     12  O   UNL     1       2.274  -1.805   2.159  1.00  0.00    -0.269 OA
ATOM     13  H   UNL     1      -0.141  -2.160   2.838  1.00  0.00     0.164 HD
BRANCH  11  14
ATOM     14  C   UNL     1       1.779  -3.204   0.315  1.00  0.00     0.063 A 
ATOM     15  C   UNL     1       1.272  -3.122  -1.007  1.00  0.00     0.051 A 
ATOM     16  C   UNL     1       1.427  -4.257  -1.831  1.00  0.00     0.027 A 
ATOM     17  C   UNL     1       2.112  -5.395  -1.400  1.00  0.00     0.002 A 
ATOM     18  C   UNL     1       2.535  -4.326   0.710  1.00  0.00     0.016 A 
ATOM     19  C   UNL     1       2.701  -5.414  -0.143  1.00  0.00     0.001 A 
BRANCH  15  20
ATOM     20  N   UNL     1       0.604  -2.025  -1.607  1.00  0.00    -0.352 N 
ATOM     21  H   UNL     1       0.013  -2.288  -2.349  1.00  0.00     0.167 HD
BRANCH  20  22
ATOM     22  C   UNL     1       0.607  -0.628  -1.363  1.00  0.00     0.077 A 
ATOM     23  C   UNL     1       2.761   2.173   0.131  1.00  0.00     0.046 C 
ATOM     24  C   UNL     1       1.588   1.418  -0.432  1.00  0.00    -0.030 A 
ATOM     25  C   UNL     1       0.335   2.047  -0.482  1.00  0.00     0.006 A 
ATOM     26  C   UNL     1       1.721   0.089  -0.890  1.00  0.00     0.069 A 
ATOM     27  C   UNL     1      -0.754   1.396  -1.047  1.00  0.00     0.023 A 
ATOM     28  Cl  UNL     1       3.318  -0.592  -1.019  1.00  0.00    -0.082 Cl
ATOM     29  C   UNL     1      -0.610   0.086  -1.504  1.00  0.00     0.066 A 
ATOM     30  Cl  UNL     1      -2.001  -0.659  -2.225  1.00  0.00    -0.082 Cl
ENDBRANCH  20  22
ENDBRANCH  15  20
ENDBRANCH  11  14
ENDBRANCH   9  10
ENDBRANCH   7   9
ENDBRANCH   6   7
ENDBRANCH   5   6
ENDBRANCH   4   5
ENDBRANCH   3   4
ENDBRANCH   2   3
ENDBRANCH   1   2
BRANCH   1  31
ATOM     31  O   UNL     1      -1.858  -0.809   3.924  1.00  0.00    -0.377 OA
BRANCH  31  32
ATOM     32  C   UNL     1      -2.746  -0.921   5.037  1.00  0.00     0.188 C 
BRANCH  32  33
ATOM     33  C   UNL     1      -3.629   0.261   5.502  1.00  0.00     0.188 C 
BRANCH  33  34
ATOM     34  O   UNL     1      -3.153   1.546   5.144  1.00  0.00    -0.376 OA
BRANCH  34  35
ATOM     35  C   UNL     1      -2.490   2.290   6.154  1.00  0.00     0.202 C 
BRANCH  35  36
ATOM     36  C   UNL     1      -1.163   1.706   6.660  1.00  0.00     0.261 C 
BRANCH  36  37
ATOM     37  O   UNL     1      -1.246   0.421   7.301  1.00  0.00    -0.460 OA
BRANCH  37  38
ATOM     38  C   UNL     1      -2.049   0.303   8.380  1.00  0.00     0.338 C 
ATOM     39  O   UNL     1      -2.679   1.194   8.928  1.00  0.00    -0.246 OA
BRANCH  38  40
ATOM     40  C   UNL     1      -2.220  -1.137   8.663  1.00  0.00     0.060 A 
ATOM     41  C   UNL     1      -3.513  -1.678   8.641  1.00  0.00     0.016 A 
ATOM     42  C   UNL     1      -1.119  -1.949   8.944  1.00  0.00     0.016 A 
ATOM     43  C   UNL     1      -3.712  -3.022   8.950  1.00  0.00     0.010 A 
ATOM     44  C   UNL     1      -1.322  -3.292   9.276  1.00  0.00     0.010 A 
ATOM     45  C   UNL     1      -2.624  -3.820   9.325  1.00  0.00    -0.014 A 
BRANCH  45  46
ATOM     46  C   UNL     1      -2.888  -5.118   9.993  1.00  0.00     0.031 A 
ATOM     47  C   UNL     1      -2.886  -5.154  11.498  1.00  0.00     0.074 A 
ATOM     48  C   UNL     1      -3.165  -6.232   9.293  1.00  0.00     0.049 A 
ATOM     49  N   UNL     1      -3.125  -6.153  12.306  1.00  0.00    -0.248 NA
ATOM     50  C   UNL     1      -2.573  -3.888  12.181  1.00  0.00     0.031 C 
ATOM     51  C   UNL     1      -3.199  -6.330   7.836  1.00  0.00     0.029 A 
ATOM     52  N   UNL     1      -3.453  -7.502   9.726  1.00  0.00    -0.354 N 
ATOM     53  C   UNL     1      -2.974  -5.643  13.590  1.00  0.00     0.074 A 
ATOM     54  C   UNL     1      -2.598  -4.254  13.453  1.00  0.00     0.031 C 
ATOM     55  C   UNL     1      -3.463  -7.603   7.494  1.00  0.00     0.029 A 
ATOM     56  C   UNL     1      -3.601  -8.410   8.706  1.00  0.00     0.049 A 
ATOM     57  H   UNL     1      -3.545  -7.739  10.677  1.00  0.00     0.167 HD
ATOM     58  C   UNL     1      -3.151  -6.265  14.780  1.00  0.00     0.034 A 
ATOM     59  C   UNL     1      -3.805  -9.742   8.748  1.00  0.00     0.034 A 
ATOM     60  C   UNL     1      -3.520  -7.647  14.919  1.00  0.00     0.049 A 
ATOM     61  C   UNL     1      -3.972 -10.424  10.083  1.00  0.00     0.074 A 
ATOM     62  C   UNL     1      -3.750  -8.365  16.079  1.00  0.00     0.029 A 
ATOM     63  N   UNL     1      -3.695  -8.529  13.863  1.00  0.00    -0.354 N 
ATOM     64  N   UNL     1      -3.939  -9.906  11.288  1.00  0.00    -0.248 NA
ATOM     65  C   UNL     1      -4.248 -11.868  10.061  1.00  0.00     0.031 C 
ATOM     66  C   UNL     1      -4.030  -9.690  15.725  1.00  0.00     0.029 A 
ATOM     67  C   UNL     1      -4.019  -9.787  14.342  1.00  0.00     0.049 A 
ATOM     68  H   UNL     1      -3.602  -8.295  12.911  1.00  0.00     0.167 HD
ATOM     69  C   UNL     1      -4.222 -10.950  12.163  1.00  0.00     0.074 A 
ATOM     70  C   UNL     1      -4.449 -12.125  11.346  1.00  0.00     0.031 C 
ATOM     71  C   UNL     1      -4.279 -10.942  13.519  1.00  0.00     0.034 A 
BRANCH  58  72
ATOM     72  C   UNL     1      -2.953  -5.437  16.023  1.00  0.00     0.023 A 
ATOM     73  C   UNL     1      -3.882  -4.425  16.347  1.00  0.00     0.012 A 
ATOM     74  C   UNL     1      -1.857  -5.665  16.877  1.00  0.00     0.148 A 
ATOM     75  C   UNL     1      -3.697  -3.623  17.472  1.00  0.00     0.002 A 
ATOM     76  C   UNL     1      -1.707  -4.896  18.024  1.00  0.00     0.091 A 
ATOM     77  F   UNL     1      -0.971  -6.613  16.541  1.00  0.00    -0.205 F 
ATOM     78  C   UNL     1      -2.616  -3.865  18.315  1.00  0.00     0.022 A 
BRANCH  76  79
ATOM     79  S   UNL     1      -0.393  -5.182  19.214  1.00  0.00     0.127 S 
ATOM     80  O   UNL     1       0.465  -4.019  18.992  1.00  0.00    -0.237 OA
ATOM     81  O   UNL     1      -1.121  -5.168  20.484  1.00  0.00    -0.237 OA
ATOM     82  O   UNL     1       0.192  -6.468  18.864  1.00  0.00    -0.744 OA
ENDBRANCH  76  79
ENDBRANCH  58  72
BRANCH  59  83
ATOM     83  C   UNL     1      -3.889 -10.518   7.479  1.00  0.00     0.023 A 
ATOM     84  C   UNL     1      -5.117 -11.073   7.073  1.00  0.00     0.012 A 
ATOM     85  C   UNL     1      -2.754 -10.686   6.660  1.00  0.00     0.148 A 
ATOM     86  C   UNL     1      -5.209 -11.806   5.889  1.00  0.00     0.002 A 
ATOM     87  C   UNL     1      -2.865 -11.367   5.454  1.00  0.00     0.091 A 
ATOM     88  F   UNL     1      -1.592 -10.162   7.073  1.00  0.00    -0.205 F 
ATOM     89  C   UNL     1      -4.087 -11.943   5.075  1.00  0.00     0.022 A 
BRANCH  87  90
ATOM     90  S   UNL     1      -1.510 -11.483   4.282  1.00  0.00     0.127 S 
ATOM     91  O   UNL     1      -1.241 -12.919   4.277  1.00  0.00    -0.237 OA
ATOM     92  O   UNL     1      -2.130 -10.967   3.060  1.00  0.00    -0.237 OA
ATOM     93  O   UNL     1      -0.447 -10.646   4.819  1.00  0.00    -0.744 OA
ENDBRANCH  87  90
ENDBRANCH  59  83
BRANCH  71  94
ATOM     94  C   UNL     1      -4.639 -12.234  14.211  1.00  0.00     0.023 A 
ATOM     95  C   UNL     1      -3.732 -13.313  14.214  1.00  0.00     0.012 A 
ATOM     96  C   UNL     1      -5.862 -12.363  14.901  1.00  0.00     0.148 A 
ATOM     97  C   UNL     1      -4.056 -14.513  14.847  1.00  0.00     0.002 A 
ATOM     98  C   UNL     1      -6.155 -13.542  15.576  1.00  0.00     0.091 A 
ATOM     99  F   UNL     1      -6.722 -11.334  14.877  1.00  0.00    -0.205 F 
ATOM    100  C   UNL     1      -5.261 -14.624  15.536  1.00  0.00     0.022 A 
BRANCH  98 101
ATOM    101  S   UNL     1      -7.639 -13.737  16.570  1.00  0.00     0.127 S 
ATOM    102  O   UNL     1      -8.457 -14.598  15.718  1.00  0.00    -0.237 OA
ATOM    103  O   UNL     1      -7.123 -14.385  17.776  1.00  0.00    -0.237 OA
ATOM    104  O   UNL     1      -8.155 -12.392  16.783  1.00  0.00    -0.744 OA
ENDBRANCH  98 101
ENDBRANCH  71  94
ENDBRANCH  45  46
ENDBRANCH  38  40
ENDBRANCH  37  38
ENDBRANCH  36  37
ENDBRANCH  35  36
ENDBRANCH  34  35
ENDBRANCH  33  34
ENDBRANCH  32  33
ENDBRANCH  31  32
ENDBRANCH   1  31
TORSDOF 27
