REMARK SMILES O=C(OCCOCCOCCOCCOC(=O)c1cc(S(=O)(=O)Nc2ccc(F)c(C(F)(F)F)c2)c[nH]1)c1ccc(-c2c3nc(c(-c4cccc(S(=O)(=O)[O-])c4F)c4ccc([nH]4)c(-c4cccc(S(=O)(=O)[O-])c4F)c4nc(c(-c5cccc(S(=O)(=O)[O-])c5F)c5ccc2[nH]5)C=C4)C=C3)cc1
REMARK SMILES IDX 10 1 9 2 8 3 7 4 6 5 5 6 4 7 3 8 2 9 1 10 38 11 39 12 100 13
REMARK SMILES IDX 40 14 99 15 41 16 42 17 43 18 93 19 44 20 98 21 92 22 94 23
REMARK SMILES IDX 45 24 97 25 91 26 90 27 46 29 78 30 58 31 77 32 59 33 62 34
REMARK SMILES IDX 76 35 95 36 60 37 61 38 75 40 96 41 63 42 47 43 48 44 56 45
REMARK SMILES IDX 49 46 51 47 57 48 50 49 52 50 53 51 54 52 55 53 79 54 80 55
REMARK SMILES IDX 88 56 81 57 83 58 89 59 82 60 84 61 85 62 86 63 87 64 64 65
REMARK SMILES IDX 65 66 73 67 66 68 68 69 74 70 67 71 69 72 70 73 71 74 72 75
REMARK SMILES IDX 11 76 12 77 13 78 14 79 15 80 16 81 17 82 18 83 19 84 37 85
REMARK SMILES IDX 20 86 36 87 21 89 22 90 23 91 24 92 25 94 26 95 35 96 27 97
REMARK SMILES IDX 30 98 28 99 29 100 31 101 32 102 33 103 34 104
REMARK H PARENT 94 28 62 39 37 88 24 93
REMARK Flexibility Score: inf
ROOT
ATOM      1  C   UNL     1       4.037   2.360   2.498  1.00  0.00     0.188 C 
ENDROOT
BRANCH   1   2
ATOM      2  O   UNL     1       2.728   1.929   2.773  1.00  0.00    -0.377 OA
BRANCH   2   3
ATOM      3  C   UNL     1       2.226   1.013   1.816  1.00  0.00     0.188 C 
BRANCH   3   4
ATOM      4  C   UNL     1       3.041  -0.281   1.609  1.00  0.00     0.188 C 
BRANCH   4   5
ATOM      5  O   UNL     1       4.404  -0.295   1.199  1.00  0.00    -0.376 OA
BRANCH   5   6
ATOM      6  C   UNL     1       5.051   0.412   0.155  1.00  0.00     0.202 C 
BRANCH   6   7
ATOM      7  C   UNL     1       4.376   0.939  -1.119  1.00  0.00     0.261 C 
BRANCH   7   8
ATOM      8  O   UNL     1       2.970   1.137  -1.032  1.00  0.00    -0.460 OA
BRANCH   8   9
ATOM      9  C   UNL     1       1.977   0.234  -1.216  1.00  0.00     0.338 C 
ATOM     10  O   UNL     1       0.820   0.587  -1.002  1.00  0.00    -0.246 OA
BRANCH   9  11
ATOM     11  C   UNL     1       2.237  -1.151  -1.674  1.00  0.00     0.060 A 
ATOM     12  C   UNL     1       3.488  -1.768  -1.690  1.00  0.00     0.016 A 
ATOM     13  C   UNL     1       1.125  -1.864  -2.137  1.00  0.00     0.016 A 
ATOM     14  C   UNL     1       3.694  -2.909  -2.418  1.00  0.00     0.010 A 
ATOM     15  C   UNL     1       1.303  -3.060  -2.805  1.00  0.00     0.010 A 
ATOM     16  C   UNL     1       2.599  -3.520  -3.011  1.00  0.00    -0.014 A 
BRANCH  16  17
ATOM     17  C   UNL     1       2.901  -4.749  -3.736  1.00  0.00     0.031 A 
ATOM     18  C   UNL     1       3.215  -5.865  -2.711  1.00  0.00     0.074 A 
ATOM     19  C   UNL     1       2.990  -4.587  -5.096  1.00  0.00     0.049 A 
ATOM     20  N   UNL     1       4.148  -6.768  -2.727  1.00  0.00    -0.248 NA
ATOM     21  C   UNL     1       2.510  -5.872  -1.392  1.00  0.00     0.031 C 
ATOM     22  C   UNL     1       2.649  -3.347  -5.848  1.00  0.00     0.029 A 
ATOM     23  N   UNL     1       3.393  -5.399  -6.130  1.00  0.00    -0.354 N 
ATOM     24  C   UNL     1       3.930  -7.608  -1.604  1.00  0.00     0.074 A 
ATOM     25  C   UNL     1       3.061  -6.892  -0.728  1.00  0.00     0.031 C 
ATOM     26  C   UNL     1       2.931  -3.473  -7.166  1.00  0.00     0.029 A 
ATOM     27  C   UNL     1       3.450  -4.803  -7.421  1.00  0.00     0.049 A 
ATOM     28  H   UNL     1       3.628  -6.344  -5.985  1.00  0.00     0.167 HD
ATOM     29  C   UNL     1       4.310  -8.923  -1.585  1.00  0.00     0.034 A 
ATOM     30  C   UNL     1       3.918  -5.349  -8.591  1.00  0.00     0.034 A 
ATOM     31  C   UNL     1       4.867  -9.246  -2.860  1.00  0.00     0.049 A 
ATOM     32  C   UNL     1       4.161  -6.758  -8.256  1.00  0.00     0.074 A 
ATOM     33  C   UNL     1       6.050  -8.906  -3.459  1.00  0.00     0.029 A 
ATOM     34  N   UNL     1       3.946  -9.627  -3.811  1.00  0.00    -0.354 N 
ATOM     35  N   UNL     1       3.223  -7.628  -8.022  1.00  0.00    -0.248 NA
ATOM     36  C   UNL     1       5.541  -7.198  -8.026  1.00  0.00     0.031 C 
ATOM     37  C   UNL     1       5.648  -8.615  -4.777  1.00  0.00     0.029 A 
ATOM     38  C   UNL     1       4.340  -9.072  -4.997  1.00  0.00     0.049 A 
ATOM     39  H   UNL     1       3.153 -10.192  -3.665  1.00  0.00     0.167 HD
ATOM     40  C   UNL     1       3.887  -8.553  -7.258  1.00  0.00     0.074 A 
ATOM     41  C   UNL     1       5.292  -8.430  -7.592  1.00  0.00     0.031 C 
ATOM     42  C   UNL     1       3.368  -8.920  -6.053  1.00  0.00     0.034 A 
BRANCH  29  43
ATOM     43  C   UNL     1       4.013 -10.107  -0.695  1.00  0.00     0.023 A 
ATOM     44  C   UNL     1       4.873 -11.230  -0.882  1.00  0.00     0.012 A 
ATOM     45  C   UNL     1       2.837 -10.314   0.043  1.00  0.00     0.148 A 
ATOM     46  C   UNL     1       4.526 -12.518  -0.479  1.00  0.00     0.002 A 
ATOM     47  C   UNL     1       2.518 -11.602   0.491  1.00  0.00     0.091 A 
ATOM     48  F   UNL     1       1.998  -9.294   0.241  1.00  0.00    -0.205 F 
ATOM     49  C   UNL     1       3.337 -12.704   0.197  1.00  0.00     0.022 A 
BRANCH  47  50
ATOM     50  S   UNL     1       1.043 -11.974   1.449  1.00  0.00     0.127 S 
ATOM     51  O   UNL     1       0.257 -12.760   0.501  1.00  0.00    -0.237 OA
ATOM     52  O   UNL     1       1.600 -12.748   2.561  1.00  0.00    -0.237 OA
ATOM     53  O   UNL     1       0.486 -10.687   1.838  1.00  0.00    -0.744 OA
ENDBRANCH  47  50
ENDBRANCH  29  43
BRANCH  30  54
ATOM     54  C   UNL     1       4.321  -4.922  -9.992  1.00  0.00     0.023 A 
ATOM     55  C   UNL     1       4.088  -3.657 -10.547  1.00  0.00     0.012 A 
ATOM     56  C   UNL     1       5.101  -5.813 -10.802  1.00  0.00     0.148 A 
ATOM     57  C   UNL     1       4.676  -3.279 -11.777  1.00  0.00     0.002 A 
ATOM     58  C   UNL     1       5.792  -5.396 -11.933  1.00  0.00     0.091 A 
ATOM     59  F   UNL     1       5.157  -7.113 -10.494  1.00  0.00    -0.205 F 
ATOM     60  C   UNL     1       5.568  -4.124 -12.442  1.00  0.00     0.022 A 
BRANCH  58  61
ATOM     61  S   UNL     1       7.102  -6.399 -12.671  1.00  0.00     0.127 S 
ATOM     62  O   UNL     1       6.719  -6.426 -14.081  1.00  0.00    -0.237 OA
ATOM     63  O   UNL     1       8.286  -5.595 -12.371  1.00  0.00    -0.237 OA
ATOM     64  O   UNL     1       7.063  -7.690 -11.996  1.00  0.00    -0.744 OA
ENDBRANCH  58  61
ENDBRANCH  30  54
BRANCH  42  65
ATOM     65  C   UNL     1       1.841  -8.800  -5.923  1.00  0.00     0.023 A 
ATOM     66  C   UNL     1       1.060  -9.441  -6.906  1.00  0.00     0.012 A 
ATOM     67  C   UNL     1       1.131  -8.037  -4.963  1.00  0.00     0.148 A 
ATOM     68  C   UNL     1      -0.334  -9.317  -6.954  1.00  0.00     0.002 A 
ATOM     69  C   UNL     1      -0.262  -7.881  -5.025  1.00  0.00     0.091 A 
ATOM     70  F   UNL     1       1.810  -7.479  -3.968  1.00  0.00    -0.205 F 
ATOM     71  C   UNL     1      -0.995  -8.532  -6.020  1.00  0.00     0.022 A 
BRANCH  69  72
ATOM     72  S   UNL     1      -1.211  -6.809  -3.920  1.00  0.00     0.127 S 
ATOM     73  O   UNL     1      -2.029  -6.032  -4.855  1.00  0.00    -0.237 OA
ATOM     74  O   UNL     1      -1.966  -7.772  -3.124  1.00  0.00    -0.237 OA
ATOM     75  O   UNL     1      -0.237  -6.010  -3.187  1.00  0.00    -0.744 OA
ENDBRANCH  69  72
ENDBRANCH  42  65
ENDBRANCH  16  17
ENDBRANCH   9  11
ENDBRANCH   8   9
ENDBRANCH   7   8
ENDBRANCH   6   7
ENDBRANCH   5   6
ENDBRANCH   4   5
ENDBRANCH   3   4
ENDBRANCH   2   3
ENDBRANCH   1   2
BRANCH   1  76
ATOM     76  C   UNL     1       5.131   1.665   3.339  1.00  0.00     0.188 C 
BRANCH  76  77
ATOM     77  O   UNL     1       4.862   0.911   4.519  1.00  0.00    -0.376 OA
BRANCH  77  78
ATOM     78  C   UNL     1       3.572   0.855   5.103  1.00  0.00     0.202 C 
BRANCH  78  79
ATOM     79  C   UNL     1       3.118   2.098   5.880  1.00  0.00     0.261 C 
BRANCH  79  80
ATOM     80  O   UNL     1       3.344   3.345   5.209  1.00  0.00    -0.459 OA
BRANCH  80  81
ATOM     81  C   UNL     1       4.602   3.844   5.356  1.00  0.00     0.354 C 
ATOM     82  O   UNL     1       5.456   3.434   6.111  1.00  0.00    -0.244 OA
BRANCH  81  83
ATOM     83  C   UNL     1       4.817   4.924   4.416  1.00  0.00     0.126 A 
ATOM     84  C   UNL     1       3.950   5.873   3.899  1.00  0.00     0.057 A 
ATOM     85  N   UNL     1       6.053   5.182   3.860  1.00  0.00    -0.354 N 
ATOM     86  C   UNL     1       4.790   6.953   3.535  1.00  0.00     0.106 A 
ATOM     87  C   UNL     1       6.046   6.429   3.295  1.00  0.00     0.105 A 
ATOM     88  H   UNL     1       6.821   4.566   3.868  1.00  0.00     0.166 HD
BRANCH  86  89
ATOM     89  S   UNL     1       4.417   8.634   3.683  1.00  0.00     0.263 S 
ATOM     90  O   UNL     1       5.604   9.190   4.304  1.00  0.00    -0.201 OA
ATOM     91  O   UNL     1       3.992   9.050   2.368  1.00  0.00    -0.201 OA
BRANCH  89  92
ATOM     92  N   UNL     1       3.154   8.933   4.778  1.00  0.00    -0.280 N 
ATOM     93  H   UNL     1       2.640   9.770   4.709  1.00  0.00     0.180 HD
BRANCH  92  94
ATOM     94  C   UNL     1       2.826   7.986   5.796  1.00  0.00     0.050 A 
ATOM     95  C   UNL     1       3.759   7.324   6.596  1.00  0.00     0.030 A 
ATOM     96  C   UNL     1       1.463   7.747   5.986  1.00  0.00     0.043 A 
ATOM     97  C   UNL     1       3.329   6.291   7.439  1.00  0.00     0.042 A 
ATOM     98  C   UNL     1       1.020   6.736   6.857  1.00  0.00     0.093 A 
ATOM     99  C   UNL     1       1.971   5.995   7.548  1.00  0.00     0.135 A 
ATOM    100  F   UNL     1       1.600   4.977   8.335  1.00  0.00    -0.206 F 
BRANCH  98 101
ATOM    101  C   UNL     1      -0.448   6.495   7.030  1.00  0.00     0.419 C 
ATOM    102  F   UNL     1      -1.043   7.518   7.709  1.00  0.00    -0.166 F 
ATOM    103  F   UNL     1      -1.104   6.423   5.838  1.00  0.00    -0.166 F 
ATOM    104  F   UNL     1      -0.776   5.363   7.705  1.00  0.00    -0.166 F 
ENDBRANCH  98 101
ENDBRANCH  92  94
ENDBRANCH  89  92
ENDBRANCH  86  89
ENDBRANCH  81  83
ENDBRANCH  80  81
ENDBRANCH  79  80
ENDBRANCH  78  79
ENDBRANCH  77  78
ENDBRANCH  76  77
ENDBRANCH   1  76
TORSDOF 27
