REMARK SMILES CC1(C)C(NC(=O)[C@@H]2CCC[C@@H](C(=O)OCCOCCOCCOCCOC(=O)c3ccc(-c4c5nc(c(-c6cccc(S(=O)(=O)[O-])c6F)c6ccc([nH]6)c(-c6cccc(S(=O)(=O)[O-])c6F)c6nc(c(-c7cccc(S(=O)(=O)[O-])c7F)c7ccc4[nH]7)C=C6)C=C5)cc3)C2)C1(C)C
REMARK SMILES IDX 22 1 21 2 20 3 19 4 18 5 17 6 16 7 15 8 13 9 14 10 12 11
REMARK SMILES IDX 8 12 9 13 93 14 10 15 11 16 6 17 5 18 7 20 4 21 1 22 2 23
REMARK SMILES IDX 3 24 94 25 95 26 96 27 23 28 24 29 25 30 26 31 27 32 28 33
REMARK SMILES IDX 29 34 30 35 31 36 92 37 32 38 91 39 33 40 34 41 35 42 85 43
REMARK SMILES IDX 36 44 90 45 84 46 86 47 37 48 89 49 83 50 82 51 38 53 70 54
REMARK SMILES IDX 50 55 69 56 51 57 54 58 68 59 87 60 52 61 53 62 67 64 88 65
REMARK SMILES IDX 55 66 39 67 40 68 48 69 41 70 43 71 49 72 42 73 44 74 45 75
REMARK SMILES IDX 46 76 47 77 71 78 72 79 80 80 73 81 75 82 81 83 74 84 76 85
REMARK SMILES IDX 77 86 78 87 79 88 56 89 57 90 65 91 58 92 60 93 66 94 59 95
REMARK SMILES IDX 61 96 62 97 63 98 64 99
REMARK H PARENT 5 19 86 52 54 63
REMARK Flexibility Score: inf
ROOT
ATOM      1  C   UNL     1       7.199   3.750   5.743  1.00  0.00     0.188 C 
ENDROOT
BRANCH   1   2
ATOM      2  O   UNL     1       6.064   3.392   6.496  1.00  0.00    -0.377 OA
BRANCH   2   3
ATOM      3  C   UNL     1       4.848   3.343   5.779  1.00  0.00     0.188 C 
BRANCH   3   4
ATOM      4  C   UNL     1       4.838   2.798   4.332  1.00  0.00     0.188 C 
BRANCH   4   5
ATOM      5  O   UNL     1       5.781   3.411   3.464  1.00  0.00    -0.376 OA
BRANCH   5   6
ATOM      6  C   UNL     1       5.332   4.471   2.630  1.00  0.00     0.202 C 
BRANCH   6   7
ATOM      7  C   UNL     1       4.738   5.707   3.328  1.00  0.00     0.261 C 
BRANCH   7   8
ATOM      8  O   UNL     1       3.608   5.445   4.192  1.00  0.00    -0.463 OA
BRANCH   8   9
ATOM      9  C   UNL     1       2.473   5.013   3.597  1.00  0.00     0.309 C 
ATOM     10  O   UNL     1       2.377   4.886   2.383  1.00  0.00    -0.252 OA
BRANCH   9  11
ATOM     11  C   UNL     1       1.349   4.728   4.624  1.00  0.00     0.100 C 
ATOM     12  C   UNL     1      -0.094   3.425   3.066  1.00  0.00     0.079 C 
ATOM     13  C   UNL     1      -0.110   2.172   3.933  1.00  0.00     0.013 C 
ATOM     14  C   UNL     1      -0.006   4.704   3.902  1.00  0.00     0.028 C 
ATOM     15  C   UNL     1       1.178   2.120   4.749  1.00  0.00     0.002 C 
ATOM     16  C   UNL     1       1.444   3.444   5.479  1.00  0.00     0.015 C 
BRANCH  12  17
ATOM     17  C   UNL     1      -1.198   3.443   2.037  1.00  0.00     0.223 C 
ATOM     18  N   UNL     1      -0.920   2.894   0.806  1.00  0.00    -0.352 N 
ATOM     19  H   UNL     1      -1.666   2.882   0.163  1.00  0.00     0.163 HD
ATOM     20  O   UNL     1      -2.315   3.899   2.277  1.00  0.00    -0.275 OA
BRANCH  18  21
ATOM     21  C   UNL     1       0.319   2.336   0.340  1.00  0.00     0.094 C 
ATOM     22  C   UNL     1       1.350   0.074  -0.155  1.00  0.00     0.014 C 
ATOM     23  C   UNL     1       0.372   1.150  -0.595  1.00  0.00    -0.007 C 
ATOM     24  C   UNL     1      -0.910   0.555  -1.123  1.00  0.00     0.014 C 
ATOM     25  C   UNL     1       0.842   2.552  -1.062  1.00  0.00    -0.007 C 
ATOM     26  C   UNL     1       2.321   2.860  -1.200  1.00  0.00     0.014 C 
ATOM     27  C   UNL     1       0.017   3.392  -2.012  1.00  0.00     0.014 C 
ENDBRANCH  18  21
ENDBRANCH  12  17
ENDBRANCH   9  11
ENDBRANCH   8   9
ENDBRANCH   7   8
ENDBRANCH   6   7
ENDBRANCH   5   6
ENDBRANCH   4   5
ENDBRANCH   3   4
ENDBRANCH   2   3
ENDBRANCH   1   2
BRANCH   1  28
ATOM     28  C   UNL     1       7.960   2.525   5.206  1.00  0.00     0.188 C 
BRANCH  28  29
ATOM     29  O   UNL     1       7.410   1.216   5.287  1.00  0.00    -0.376 OA
BRANCH  29  30
ATOM     30  C   UNL     1       6.767   0.720   6.451  1.00  0.00     0.202 C 
BRANCH  30  31
ATOM     31  C   UNL     1       7.202   1.006   7.901  1.00  0.00     0.261 C 
BRANCH  31  32
ATOM     32  O   UNL     1       7.849   2.246   8.176  1.00  0.00    -0.460 OA
BRANCH  32  33
ATOM     33  C   UNL     1       9.197   2.231   8.127  1.00  0.00     0.338 C 
ATOM     34  O   UNL     1       9.916   1.275   7.886  1.00  0.00    -0.246 OA
BRANCH  33  35
ATOM     35  C   UNL     1       9.665   3.628   8.208  1.00  0.00     0.060 A 
ATOM     36  C   UNL     1      10.441   4.132   7.154  1.00  0.00     0.016 A 
ATOM     37  C   UNL     1       9.303   4.446   9.281  1.00  0.00     0.016 A 
ATOM     38  C   UNL     1      10.867   5.454   7.172  1.00  0.00     0.010 A 
ATOM     39  C   UNL     1       9.774   5.759   9.323  1.00  0.00     0.010 A 
ATOM     40  C   UNL     1      10.583   6.252   8.284  1.00  0.00    -0.014 A 
BRANCH  40  41
ATOM     41  C   UNL     1      11.351   7.499   8.475  1.00  0.00     0.031 A 
ATOM     42  C   UNL     1      12.610   7.420   9.290  1.00  0.00     0.074 A 
ATOM     43  C   UNL     1      10.956   8.659   7.927  1.00  0.00     0.049 A 
ATOM     44  N   UNL     1      13.451   8.364   9.612  1.00  0.00    -0.248 NA
ATOM     45  C   UNL     1      12.967   6.088   9.812  1.00  0.00     0.031 C 
ATOM     46  C   UNL     1       9.770   8.844   7.095  1.00  0.00     0.029 A 
ATOM     47  N   UNL     1      11.513   9.909   8.010  1.00  0.00    -0.354 N 
ATOM     48  C   UNL     1      14.419   7.750  10.396  1.00  0.00     0.074 A 
ATOM     49  C   UNL     1      14.054   6.357  10.515  1.00  0.00     0.031 C 
ATOM     50  C   UNL     1       9.674  10.143   6.761  1.00  0.00     0.029 A 
ATOM     51  C   UNL     1      10.775  10.880   7.379  1.00  0.00     0.049 A 
ATOM     52  H   UNL     1      12.361  10.093   8.476  1.00  0.00     0.167 HD
ATOM     53  C   UNL     1      15.522   8.295  10.959  1.00  0.00     0.034 A 
ATOM     54  C   UNL     1      10.963  12.214   7.329  1.00  0.00     0.034 A 
ATOM     55  C   UNL     1      15.873   9.683  10.843  1.00  0.00     0.049 A 
ATOM     56  C   UNL     1      12.166  12.810   8.016  1.00  0.00     0.074 A 
ATOM     57  C   UNL     1      16.981  10.336  11.350  1.00  0.00     0.029 A 
ATOM     58  N   UNL     1      15.106  10.639  10.193  1.00  0.00    -0.354 N 
ATOM     59  N   UNL     1      13.130  12.207   8.670  1.00  0.00    -0.248 NA
ATOM     60  C   UNL     1      12.321  14.270   7.931  1.00  0.00     0.031 C 
ATOM     61  C   UNL     1      16.862  11.696  11.041  1.00  0.00     0.029 A 
ATOM     62  C   UNL     1      15.705  11.881  10.300  1.00  0.00     0.049 A 
ATOM     63  H   UNL     1      14.259  10.459   9.723  1.00  0.00     0.167 HD
ATOM     64  C   UNL     1      14.027  13.205   9.038  1.00  0.00     0.074 A 
ATOM     65  C   UNL     1      13.495  14.451   8.522  1.00  0.00     0.031 C 
ATOM     66  C   UNL     1      15.182  13.104   9.743  1.00  0.00     0.034 A 
BRANCH  53  67
ATOM     67  C   UNL     1      16.414   7.377  11.752  1.00  0.00     0.023 A 
ATOM     68  C   UNL     1      17.163   6.380  11.093  1.00  0.00     0.012 A 
ATOM     69  C   UNL     1      16.510   7.500  13.151  1.00  0.00     0.148 A 
ATOM     70  C   UNL     1      17.954   5.490  11.819  1.00  0.00     0.002 A 
ATOM     71  C   UNL     1      17.340   6.643  13.862  1.00  0.00     0.091 A 
ATOM     72  F   UNL     1      15.768   8.434  13.764  1.00  0.00    -0.205 F 
ATOM     73  C   UNL     1      18.050   5.627  13.200  1.00  0.00     0.022 A 
BRANCH  71  74
ATOM     74  S   UNL     1      17.592   6.792  15.633  1.00  0.00     0.127 S 
ATOM     75  O   UNL     1      16.871   5.623  16.134  1.00  0.00    -0.237 OA
ATOM     76  O   UNL     1      19.048   6.704  15.745  1.00  0.00    -0.237 OA
ATOM     77  O   UNL     1      17.032   8.083  16.011  1.00  0.00    -0.744 OA
ENDBRANCH  71  74
ENDBRANCH  53  67
BRANCH  54  78
ATOM     78  C   UNL     1      10.012  13.071   6.569  1.00  0.00     0.023 A 
ATOM     79  C   UNL     1      10.439  13.693   5.380  1.00  0.00     0.012 A 
ATOM     80  C   UNL     1       8.684  13.254   7.001  1.00  0.00     0.148 A 
ATOM     81  C   UNL     1       9.569  14.503   4.649  1.00  0.00     0.002 A 
ATOM     82  C   UNL     1       7.807  14.018   6.240  1.00  0.00     0.091 A 
ATOM     83  F   UNL     1       8.301  12.661   8.141  1.00  0.00    -0.205 F 
ATOM     84  C   UNL     1       8.252  14.657   5.073  1.00  0.00     0.022 A 
BRANCH  82  85
ATOM     85  S   UNL     1       6.063  14.177   6.639  1.00  0.00     0.127 S 
ATOM     86  O   UNL     1       5.947  15.608   6.912  1.00  0.00    -0.237 OA
ATOM     87  O   UNL     1       5.434  13.733   5.395  1.00  0.00    -0.237 OA
ATOM     88  O   UNL     1       5.834  13.301   7.780  1.00  0.00    -0.744 OA
ENDBRANCH  82  85
ENDBRANCH  54  78
BRANCH  66  89
ATOM     89  C   UNL     1      15.983  14.362   9.963  1.00  0.00     0.023 A 
ATOM     90  C   UNL     1      15.519  15.352  10.851  1.00  0.00     0.012 A 
ATOM     91  C   UNL     1      17.240  14.524   9.345  1.00  0.00     0.148 A 
ATOM     92  C   UNL     1      16.275  16.499  11.092  1.00  0.00     0.002 A 
ATOM     93  C   UNL     1      18.013  15.642   9.632  1.00  0.00     0.091 A 
ATOM     94  F   UNL     1      17.659  13.578   8.492  1.00  0.00    -0.205 F 
ATOM     95  C   UNL     1      17.525  16.638  10.494  1.00  0.00     0.022 A 
BRANCH  93  96
ATOM     96  S   UNL     1      19.676  15.858   8.989  1.00  0.00     0.127 S 
ATOM     97  O   UNL     1      19.490  16.957   8.043  1.00  0.00    -0.237 OA
ATOM     98  O   UNL     1      20.429  16.210  10.193  1.00  0.00    -0.237 OA
ATOM     99  O   UNL     1      20.048  14.581   8.395  1.00  0.00    -0.744 OA
ENDBRANCH  93  96
ENDBRANCH  66  89
ENDBRANCH  40  41
ENDBRANCH  33  35
ENDBRANCH  32  33
ENDBRANCH  31  32
ENDBRANCH  30  31
ENDBRANCH  29  30
ENDBRANCH  28  29
ENDBRANCH   1  28
TORSDOF 25
