REMARK SMILES O=C(OCCOCCOCCOCCOC(=O)c1ccc(-c2c3nc(c(-c4cccc(S(=O)(=O)[O-])c4F)c4ccc([nH]4)c(-c4cccc(S(=O)(=O)[O-])c4F)c4nc(c(-c5cccc(S(=O)(=O)[O-])c5F)c5ccc2[nH]5)C=C4)C=C3)cc1)c1ccc(/[NH+]=C2\S[C@@H](Cc3ccc(F)cc3)C(=O)N2Cc2ccccc2)cc1
REMARK SMILES IDX 9 1 8 2 7 3 6 4 5 5 4 6 3 7 2 8 1 9 81 10 82 11 108 12 83 13
REMARK SMILES IDX 107 14 84 15 85 16 86 17 87 19 99 20 88 21 97 22 98 23
REMARK SMILES IDX 100 24 101 25 102 26 106 27 103 28 105 29 104 30 89 31 90 32
REMARK SMILES IDX 91 33 96 34 92 35 95 36 93 37 94 38 10 39 11 40 12 41 13 42
REMARK SMILES IDX 14 43 15 44 16 45 17 46 18 47 19 48 80 49 20 50 79 51 21 52
REMARK SMILES IDX 22 53 23 54 73 55 24 56 78 57 72 58 74 59 25 60 77 61 71 62
REMARK SMILES IDX 70 63 26 65 58 66 38 67 57 68 39 69 42 70 56 71 75 72 40 73
REMARK SMILES IDX 41 74 55 76 76 77 43 78 27 79 28 80 36 81 29 82 31 83 37 84
REMARK SMILES IDX 30 85 32 86 33 87 34 88 35 89 59 90 60 91 68 92 61 93 63 94
REMARK SMILES IDX 69 95 62 96 64 97 65 98 66 99 67 100 44 101 45 102 53 103
REMARK SMILES IDX 46 104 48 105 54 106 47 107 49 108 50 109 51 110 52 111
REMARK H PARENT 85 18 74 64 42 75
REMARK Flexibility Score: inf
ROOT
ATOM      1  O   UNL     1       2.477   3.405  -1.746  1.00  0.00    -0.377 OA
ENDROOT
BRANCH   1   2
ATOM      2  C   UNL     1       1.793   2.493  -0.892  1.00  0.00     0.188 C 
BRANCH   2   3
ATOM      3  C   UNL     1       2.244   1.036  -0.996  1.00  0.00     0.188 C 
BRANCH   3   4
ATOM      4  O   UNL     1       3.549   0.870  -0.429  1.00  0.00    -0.376 OA
BRANCH   4   5
ATOM      5  C   UNL     1       4.408  -0.018  -1.147  1.00  0.00     0.202 C 
BRANCH   5   6
ATOM      6  C   UNL     1       4.198  -1.496  -0.820  1.00  0.00     0.261 C 
BRANCH   6   7
ATOM      7  O   UNL     1       2.820  -1.810  -0.572  1.00  0.00    -0.460 OA
BRANCH   7   8
ATOM      8  C   UNL     1       2.172  -1.836   0.618  1.00  0.00     0.338 C 
ATOM      9  O   UNL     1       0.985  -2.163   0.634  1.00  0.00    -0.246 OA
BRANCH   8  10
ATOM     10  C   UNL     1       2.810  -1.523   1.935  1.00  0.00     0.060 A 
ATOM     11  C   UNL     1       3.875  -0.647   2.138  1.00  0.00     0.020 A 
ATOM     12  C   UNL     1       2.218  -2.105   3.073  1.00  0.00     0.020 A 
ATOM     13  C   UNL     1       4.378  -0.406   3.411  1.00  0.00     0.052 A 
ATOM     14  C   UNL     1       2.721  -1.868   4.358  1.00  0.00     0.052 A 
ATOM     15  C   UNL     1       3.836  -1.051   4.518  1.00  0.00     0.125 A 
BRANCH  15  16
ATOM     16  N   UNL     1       4.521  -0.928   5.731  1.00  0.00    -0.235 N 
ATOM     17  C   UNL     1       5.486  -1.762   5.942  1.00  0.00     0.320 C 
ATOM     18  H   UNL     1       4.279  -0.239   6.391  1.00  0.00     0.313 HD
ATOM     19  S   UNL     1       5.836  -3.201   5.011  1.00  0.00    -0.022 SA
ATOM     20  N   UNL     1       6.412  -1.597   6.933  1.00  0.00    -0.186 N 
ATOM     21  C   UNL     1       6.891  -3.860   6.316  1.00  0.00     0.178 C 
ATOM     22  C   UNL     1       7.311  -2.631   7.112  1.00  0.00     0.324 C 
ATOM     23  O   UNL     1       8.271  -2.598   7.874  1.00  0.00    -0.245 OA
BRANCH  20  24
ATOM     24  C   UNL     1       6.528  -0.351   7.679  1.00  0.00     0.283 C 
BRANCH  24  25
ATOM     25  C   UNL     1       7.271   0.732   6.916  1.00  0.00    -0.006 A 
ATOM     26  C   UNL     1       8.635   0.966   7.138  1.00  0.00     0.008 A 
ATOM     27  C   UNL     1       6.605   1.523   5.966  1.00  0.00     0.008 A 
ATOM     28  C   UNL     1       9.309   1.966   6.429  1.00  0.00     0.000 A 
ATOM     29  C   UNL     1       7.284   2.501   5.238  1.00  0.00     0.000 A 
ATOM     30  C   UNL     1       8.636   2.726   5.473  1.00  0.00     0.000 A 
ENDBRANCH  24  25
ENDBRANCH  20  24
BRANCH  21  31
ATOM     31  C   UNL     1       8.024  -4.671   5.699  1.00  0.00     0.063 C 
BRANCH  31  32
ATOM     32  C   UNL     1       8.742  -5.530   6.713  1.00  0.00    -0.046 A 
ATOM     33  C   UNL     1      10.110  -5.337   6.947  1.00  0.00     0.007 A 
ATOM     34  C   UNL     1       8.052  -6.520   7.433  1.00  0.00     0.007 A 
ATOM     35  C   UNL     1      10.770  -6.094   7.913  1.00  0.00     0.039 A 
ATOM     36  C   UNL     1       8.713  -7.268   8.406  1.00  0.00     0.039 A 
ATOM     37  C   UNL     1      10.064  -7.044   8.640  1.00  0.00     0.123 A 
ATOM     38  F   UNL     1      10.695  -7.756   9.583  1.00  0.00    -0.207 F 
ENDBRANCH  31  32
ENDBRANCH  21  31
ENDBRANCH  15  16
ENDBRANCH   8  10
ENDBRANCH   7   8
ENDBRANCH   6   7
ENDBRANCH   5   6
ENDBRANCH   4   5
ENDBRANCH   3   4
ENDBRANCH   2   3
ENDBRANCH   1   2
BRANCH   1  39
ATOM     39  C   UNL     1       3.896   3.317  -1.768  1.00  0.00     0.188 C 
BRANCH  39  40
ATOM     40  C   UNL     1       4.665   3.590  -0.458  1.00  0.00     0.188 C 
BRANCH  40  41
ATOM     41  O   UNL     1       3.855   3.831   0.687  1.00  0.00    -0.376 OA
BRANCH  41  42
ATOM     42  C   UNL     1       3.763   5.196   1.091  1.00  0.00     0.202 C 
BRANCH  42  43
ATOM     43  C   UNL     1       2.910   6.092   0.182  1.00  0.00     0.261 C 
BRANCH  43  44
ATOM     44  O   UNL     1       3.393   6.238  -1.163  1.00  0.00    -0.460 OA
BRANCH  44  45
ATOM     45  C   UNL     1       4.624   6.762  -1.354  1.00  0.00     0.338 C 
ATOM     46  O   UNL     1       5.357   7.237  -0.503  1.00  0.00    -0.246 OA
BRANCH  45  47
ATOM     47  C   UNL     1       5.037   6.419  -2.738  1.00  0.00     0.060 A 
ATOM     48  C   UNL     1       6.300   5.842  -2.935  1.00  0.00     0.016 A 
ATOM     49  C   UNL     1       4.142   6.530  -3.809  1.00  0.00     0.016 A 
ATOM     50  C   UNL     1       6.675   5.393  -4.205  1.00  0.00     0.010 A 
ATOM     51  C   UNL     1       4.524   6.095  -5.080  1.00  0.00     0.010 A 
ATOM     52  C   UNL     1       5.803   5.552  -5.291  1.00  0.00    -0.014 A 
BRANCH  52  53
ATOM     53  C   UNL     1       6.316   5.412  -6.676  1.00  0.00     0.031 A 
ATOM     54  C   UNL     1       6.836   6.657  -7.344  1.00  0.00     0.074 A 
ATOM     55  C   UNL     1       6.311   4.242  -7.342  1.00  0.00     0.049 A 
ATOM     56  N   UNL     1       7.322   6.816  -8.546  1.00  0.00    -0.248 NA
ATOM     57  C   UNL     1       6.794   7.894  -6.542  1.00  0.00     0.031 C 
ATOM     58  C   UNL     1       5.830   2.966  -6.819  1.00  0.00     0.029 A 
ATOM     59  N   UNL     1       6.708   3.952  -8.626  1.00  0.00    -0.354 N 
ATOM     60  C   UNL     1       7.625   8.168  -8.650  1.00  0.00     0.074 A 
ATOM     61  C   UNL     1       7.253   8.790  -7.400  1.00  0.00     0.031 C 
ATOM     62  C   UNL     1       5.936   2.032  -7.784  1.00  0.00     0.029 A 
ATOM     63  C   UNL     1       6.475   2.648  -8.997  1.00  0.00     0.049 A 
ATOM     64  H   UNL     1       7.121   4.616  -9.224  1.00  0.00     0.167 HD
ATOM     65  C   UNL     1       8.181   8.836  -9.686  1.00  0.00     0.034 A 
ATOM     66  C   UNL     1       6.662   2.032 -10.184  1.00  0.00     0.034 A 
ATOM     67  C   UNL     1       8.553   8.228 -10.931  1.00  0.00     0.049 A 
ATOM     68  C   UNL     1       7.252   2.809 -11.339  1.00  0.00     0.074 A 
ATOM     69  C   UNL     1       9.158   8.816 -12.027  1.00  0.00     0.029 A 
ATOM     70  N   UNL     1       8.339   6.898 -11.254  1.00  0.00    -0.354 N 
ATOM     71  N   UNL     1       7.662   4.054 -11.376  1.00  0.00    -0.248 NA
ATOM     72  C   UNL     1       7.433   2.084 -12.607  1.00  0.00     0.031 C 
ATOM     73  C   UNL     1       9.287   7.845 -13.024  1.00  0.00     0.029 A 
ATOM     74  C   UNL     1       8.790   6.647 -12.537  1.00  0.00     0.049 A 
ATOM     75  H   UNL     1       7.928   6.231 -10.658  1.00  0.00     0.167 HD
ATOM     76  C   UNL     1       8.185   4.248 -12.652  1.00  0.00     0.074 A 
ATOM     77  C   UNL     1       8.056   2.988 -13.352  1.00  0.00     0.031 C 
ATOM     78  C   UNL     1       8.713   5.371 -13.200  1.00  0.00     0.034 A 
BRANCH  65  79
ATOM     79  C   UNL     1       8.438  10.305  -9.498  1.00  0.00     0.023 A 
ATOM     80  C   UNL     1       9.486  10.724  -8.652  1.00  0.00     0.012 A 
ATOM     81  C   UNL     1       7.668  11.267 -10.178  1.00  0.00     0.148 A 
ATOM     82  C   UNL     1       9.744  12.080  -8.462  1.00  0.00     0.002 A 
ATOM     83  C   UNL     1       7.960  12.616 -10.017  1.00  0.00     0.091 A 
ATOM     84  F   UNL     1       6.657  10.847 -10.951  1.00  0.00    -0.205 F 
ATOM     85  C   UNL     1       8.989  13.024  -9.152  1.00  0.00     0.022 A 
BRANCH  83  86
ATOM     86  S   UNL     1       7.094  13.905 -10.918  1.00  0.00     0.127 S 
ATOM     87  O   UNL     1       6.315  14.536  -9.854  1.00  0.00    -0.237 OA
ATOM     88  O   UNL     1       8.199  14.716 -11.429  1.00  0.00    -0.237 OA
ATOM     89  O   UNL     1       6.315  13.224 -11.944  1.00  0.00    -0.744 OA
ENDBRANCH  83  86
ENDBRANCH  65  79
BRANCH  66  90
ATOM     90  C   UNL     1       6.327   0.587 -10.347  1.00  0.00     0.023 A 
ATOM     91  C   UNL     1       7.363  -0.348 -10.546  1.00  0.00     0.012 A 
ATOM     92  C   UNL     1       4.993   0.135 -10.323  1.00  0.00     0.148 A 
ATOM     93  C   UNL     1       7.075  -1.699 -10.752  1.00  0.00     0.002 A 
ATOM     94  C   UNL     1       4.717  -1.219 -10.475  1.00  0.00     0.091 A 
ATOM     95  F   UNL     1       4.020   1.041 -10.155  1.00  0.00    -0.205 F 
ATOM     96  C   UNL     1       5.755  -2.135 -10.708  1.00  0.00     0.022 A 
BRANCH  94  97
ATOM     97  S   UNL     1       3.059  -1.892 -10.313  1.00  0.00     0.127 S 
ATOM     98  O   UNL     1       2.768  -2.304 -11.684  1.00  0.00    -0.237 OA
ATOM     99  O   UNL     1       3.273  -2.990  -9.370  1.00  0.00    -0.237 OA
ATOM    100  O   UNL     1       2.244  -0.803  -9.793  1.00  0.00    -0.744 OA
ENDBRANCH  94  97
ENDBRANCH  66  90
BRANCH  78 101
ATOM    101  C   UNL     1       9.240   5.294 -14.611  1.00  0.00     0.023 A 
ATOM    102  C   UNL     1       8.342   5.213 -15.693  1.00  0.00     0.012 A 
ATOM    103  C   UNL     1      10.622   5.401 -14.866  1.00  0.00     0.148 A 
ATOM    104  C   UNL     1       8.813   5.210 -17.006  1.00  0.00     0.002 A 
ATOM    105  C   UNL     1      11.081   5.447 -16.178  1.00  0.00     0.091 A 
ATOM    106  F   UNL     1      11.462   5.462 -13.823  1.00  0.00    -0.205 F 
ATOM    107  C   UNL     1      10.179   5.340 -17.248  1.00  0.00     0.022 A 
BRANCH 105 108
ATOM    108  S   UNL     1      12.811   5.713 -16.583  1.00  0.00     0.127 S 
ATOM    109  O   UNL     1      13.215   4.387 -17.049  1.00  0.00    -0.237 OA
ATOM    110  O   UNL     1      12.732   6.730 -17.632  1.00  0.00    -0.237 OA
ATOM    111  O   UNL     1      13.447   6.164 -15.353  1.00  0.00    -0.744 OA
ENDBRANCH 105 108
ENDBRANCH  78 101
ENDBRANCH  52  53
ENDBRANCH  45  47
ENDBRANCH  44  45
ENDBRANCH  43  44
ENDBRANCH  42  43
ENDBRANCH  41  42
ENDBRANCH  40  41
ENDBRANCH  39  40
ENDBRANCH   1  39
TORSDOF 28
