REMARK SMILES Cc1ccc(NC(=O)[C@H]2CC(Cl)=CC[C@@H]2C(=O)OCCOCCOCCOCCOC(=O)c2ccc(-c3c4nc(c(-c5cccc(S(=O)(=O)[O-])c5F)c5ccc([nH]5)c(-c5cccc(S(=O)(=O)[O-])c5F)c5nc(c(-c6cccc(S(=O)(=O)[O-])c6F)c6ccc3[nH]6)C=C5)C=C4)cc2)cc1[N+](=O)[O-]
REMARK SMILES IDX 24 1 23 2 22 3 21 4 20 5 19 6 18 7 16 8 17 9 15 10 9 11
REMARK SMILES IDX 10 12 11 13 14 14 12 15 13 16 7 17 6 18 8 20 5 21 1 22 2 23
REMARK SMILES IDX 3 24 97 25 4 26 96 27 98 28 99 29 100 30 25 31 26 32 27 33
REMARK SMILES IDX 28 34 29 35 30 36 31 37 32 38 33 39 34 40 95 41 35 42 94 43
REMARK SMILES IDX 36 44 37 45 38 46 88 47 39 48 93 49 87 50 89 51 40 52 92 53
REMARK SMILES IDX 86 54 85 55 41 57 73 58 53 59 72 60 54 61 57 62 71 63 90 64
REMARK SMILES IDX 55 65 56 66 70 68 91 69 58 70 42 71 43 72 51 73 44 74 46 75
REMARK SMILES IDX 52 76 45 77 47 78 48 79 49 80 50 81 74 82 75 83 83 84 76 85
REMARK SMILES IDX 78 86 84 87 77 88 79 89 80 90 81 91 82 92 59 93 60 94 68 95
REMARK SMILES IDX 61 96 63 97 69 98 62 99 64 100 65 101 66 102 67 103
REMARK H PARENT 6 19 89 56 57 67
REMARK Flexibility Score: inf
ROOT
ATOM      1  O   UNL     1      -2.389  -0.987   3.548  1.00  0.00    -0.377 OA
ENDROOT
BRANCH   1   2
ATOM      2  C   UNL     1      -2.391  -2.045   2.596  1.00  0.00     0.188 C 
BRANCH   2   3
ATOM      3  C   UNL     1      -1.150  -2.304   1.771  1.00  0.00     0.188 C 
BRANCH   3   4
ATOM      4  O   UNL     1      -0.329  -1.215   1.719  1.00  0.00    -0.376 OA
BRANCH   4   5
ATOM      5  C   UNL     1       0.335  -0.498   0.664  1.00  0.00     0.202 C 
BRANCH   5   6
ATOM      6  C   UNL     1       0.226  -0.402  -1.415  1.00  0.00     0.261 C 
BRANCH   6   7
ATOM      7  O   UNL     1      -0.074  -1.764  -2.649  1.00  0.00    -0.463 OA
BRANCH   7   8
ATOM      8  C   UNL     1      -0.667  -3.301  -2.551  1.00  0.00     0.310 C 
ATOM      9  O   UNL     1       0.086  -4.248  -2.786  1.00  0.00    -0.252 OA
BRANCH   8  10
ATOM     10  C   UNL     1      -2.378  -3.699  -1.873  1.00  0.00     0.116 C 
ATOM     11  C   UNL     1      -3.366  -2.872  -0.450  1.00  0.00     0.098 C 
ATOM     12  C   UNL     1      -4.178  -4.053   0.190  1.00  0.00     0.062 C 
ATOM     13  C   UNL     1      -3.712  -5.479  -0.050  1.00  0.00     0.015 C 
ATOM     14  C   UNL     1      -2.574  -5.167  -2.211  1.00  0.00     0.044 C 
ATOM     15  Cl  UNL     1      -4.146  -6.624   1.178  1.00  0.00    -0.089 Cl
ATOM     16  C   UNL     1      -3.022  -5.965  -1.084  1.00  0.00    -0.010 C 
BRANCH  11  17
ATOM     17  C   UNL     1      -4.159  -1.180   0.150  1.00  0.00     0.228 C 
ATOM     18  N   UNL     1      -3.691   0.468   0.520  1.00  0.00    -0.326 N 
ATOM     19  H   UNL     1      -4.442   0.886   1.001  1.00  0.00     0.169 HD
ATOM     20  O   UNL     1      -5.395  -1.301   0.360  1.00  0.00    -0.274 OA
BRANCH  18  21
ATOM     21  C   UNL     1      -2.369   1.721   0.372  1.00  0.00     0.048 A 
ATOM     22  C   UNL     1       2.494   2.417  -1.298  1.00  0.00     0.052 C 
ATOM     23  C   UNL     1       1.114   2.744  -0.562  1.00  0.00     0.027 A 
ATOM     24  C   UNL     1       0.554   1.434  -0.239  1.00  0.00     0.012 A 
ATOM     25  C   UNL     1      -0.061   4.031  -0.363  1.00  0.00     0.274 A 
ATOM     26  C   UNL     1      -1.169   0.843   0.192  1.00  0.00     0.027 A 
ATOM     27  C   UNL     1      -1.891   3.704   0.106  1.00  0.00     0.112 A 
BRANCH  25  28
ATOM     28  N   UNL     1       0.519   5.193  -0.923  1.00  0.00     0.063 N 
ATOM     29  O   UNL     1      -0.173   6.201  -0.907  1.00  0.00    -0.258 OA
ATOM     30  O   UNL     1       1.631   5.082  -1.477  1.00  0.00    -0.258 OA
ENDBRANCH  25  28
ENDBRANCH  18  21
ENDBRANCH  11  17
ENDBRANCH   8  10
ENDBRANCH   7   8
ENDBRANCH   6   7
ENDBRANCH   5   6
ENDBRANCH   4   5
ENDBRANCH   3   4
ENDBRANCH   2   3
ENDBRANCH   1   2
BRANCH   1  31
ATOM     31  C   UNL     1      -1.116  -0.720   4.123  1.00  0.00     0.188 C 
BRANCH  31  32
ATOM     32  C   UNL     1      -0.288  -2.017   4.217  1.00  0.00     0.188 C 
BRANCH  32  33
ATOM     33  O   UNL     1      -0.887  -3.227   4.552  1.00  0.00    -0.376 OA
BRANCH  33  34
ATOM     34  C   UNL     1      -1.177  -3.075   5.911  1.00  0.00     0.202 C 
BRANCH  34  35
ATOM     35  C   UNL     1      -0.508  -1.822   6.661  1.00  0.00     0.261 C 
BRANCH  35  36
ATOM     36  O   UNL     1       0.910  -1.011   6.213  1.00  0.00    -0.460 OA
BRANCH  36  37
ATOM     37  C   UNL     1       1.927  -0.602   5.232  1.00  0.00     0.338 C 
ATOM     38  O   UNL     1       2.522   0.435   5.545  1.00  0.00    -0.246 OA
BRANCH  37  39
ATOM     39  C   UNL     1       2.382  -1.279   3.717  1.00  0.00     0.060 A 
ATOM     40  C   UNL     1       2.739  -0.546   2.588  1.00  0.00     0.016 A 
ATOM     41  C   UNL     1       2.307  -2.635   3.311  1.00  0.00     0.016 A 
ATOM     42  C   UNL     1       2.563  -1.129   1.176  1.00  0.00     0.010 A 
ATOM     43  C   UNL     1       1.809  -3.095   1.933  1.00  0.00     0.010 A 
ATOM     44  C   UNL     1       1.587  -2.242   0.846  1.00  0.00    -0.014 A 
BRANCH  44  45
ATOM     45  C   UNL     1       0.229  -2.337  -0.543  1.00  0.00     0.031 A 
ATOM     46  C   UNL     1       1.723  -2.605  -1.570  1.00  0.00     0.074 A 
ATOM     47  C   UNL     1      -1.360  -1.707  -1.149  1.00  0.00     0.049 A 
ATOM     48  N   UNL     1       2.087  -2.020  -2.699  1.00  0.00    -0.248 NA
ATOM     49  C   UNL     1       2.937  -3.343  -1.066  1.00  0.00     0.031 C 
ATOM     50  C   UNL     1      -2.253  -1.688  -2.788  1.00  0.00     0.029 A 
ATOM     51  N   UNL     1      -2.398  -0.516  -1.195  1.00  0.00    -0.354 N 
ATOM     52  C   UNL     1       2.992  -2.909  -3.232  1.00  0.00     0.074 A 
ATOM     53  C   UNL     1       3.772  -3.213  -2.097  1.00  0.00     0.031 C 
ATOM     54  C   UNL     1      -2.974  -0.724  -3.356  1.00  0.00     0.029 A 
ATOM     55  C   UNL     1      -2.942   0.239  -2.353  1.00  0.00     0.049 A 
ATOM     56  H   UNL     1      -2.739  -0.229  -0.317  1.00  0.00     0.167 HD
ATOM     57  C   UNL     1       2.635  -3.727  -4.279  1.00  0.00     0.034 A 
ATOM     58  C   UNL     1      -2.987   1.584  -2.647  1.00  0.00     0.034 A 
ATOM     59  C   UNL     1       1.434  -3.182  -5.023  1.00  0.00     0.049 A 
ATOM     60  C   UNL     1      -2.089   1.708  -3.892  1.00  0.00     0.074 A 
ATOM     61  C   UNL     1       0.208  -3.666  -5.477  1.00  0.00     0.029 A 
ATOM     62  N   UNL     1       1.287  -1.793  -5.132  1.00  0.00    -0.354 N 
ATOM     63  N   UNL     1      -1.392   0.690  -4.319  1.00  0.00    -0.248 NA
ATOM     64  C   UNL     1      -1.763   2.924  -4.616  1.00  0.00     0.031 C 
ATOM     65  C   UNL     1      -0.658  -2.552  -5.797  1.00  0.00     0.029 A 
ATOM     66  C   UNL     1       0.071  -1.381  -5.665  1.00  0.00     0.049 A 
ATOM     67  H   UNL     1       1.988  -1.160  -4.854  1.00  0.00     0.167 HD
ATOM     68  C   UNL     1      -0.661   0.991  -5.393  1.00  0.00     0.074 A 
ATOM     69  C   UNL     1      -0.841   2.444  -5.477  1.00  0.00     0.031 C 
ATOM     70  C   UNL     1      -0.025   0.018  -6.115  1.00  0.00     0.034 A 
BRANCH  57  71
ATOM     71  C   UNL     1       3.205  -5.203  -4.389  1.00  0.00     0.023 A 
ATOM     72  C   UNL     1       2.598  -6.060  -5.329  1.00  0.00     0.012 A 
ATOM     73  C   UNL     1       4.256  -5.839  -3.632  1.00  0.00     0.148 A 
ATOM     74  C   UNL     1       2.972  -7.409  -5.507  1.00  0.00     0.002 A 
ATOM     75  C   UNL     1       4.658  -7.174  -3.836  1.00  0.00     0.091 A 
ATOM     76  F   UNL     1       4.915  -5.196  -2.672  1.00  0.00    -0.205 F 
ATOM     77  C   UNL     1       4.009  -7.965  -4.774  1.00  0.00     0.022 A 
BRANCH  75  78
ATOM     78  S   UNL     1       6.031  -7.959  -2.938  1.00  0.00     0.127 S 
ATOM     79  O   UNL     1       5.412  -9.181  -2.420  1.00  0.00    -0.237 OA
ATOM     80  O   UNL     1       7.007  -8.186  -4.003  1.00  0.00    -0.237 OA
ATOM     81  O   UNL     1       6.455  -7.021  -1.905  1.00  0.00    -0.744 OA
ENDBRANCH  75  78
ENDBRANCH  57  71
BRANCH  58  82
ATOM     82  C   UNL     1      -2.814   2.567  -1.532  1.00  0.00     0.023 A 
ATOM     83  C   UNL     1      -4.024   2.970  -0.313  1.00  0.00     0.012 A 
ATOM     84  C   UNL     1      -1.140   2.444  -0.986  1.00  0.00     0.148 A 
ATOM     85  C   UNL     1      -3.675   3.138   1.431  1.00  0.00     0.002 A 
ATOM     86  C   UNL     1      -0.721   2.620   1.040  1.00  0.00     0.091 A 
ATOM     87  F   UNL     1      -0.345   2.493  -2.093  1.00  0.00    -0.205 F 
ATOM     88  C   UNL     1      -2.101   2.922   2.133  1.00  0.00     0.022 A 
BRANCH  86  89
ATOM     89  S   UNL     1       0.754   3.283   2.282  1.00  0.00     0.127 S 
ATOM     90  O   UNL     1       0.282   4.662   2.421  1.00  0.00    -0.237 OA
ATOM     91  O   UNL     1       0.541   2.435   3.452  1.00  0.00    -0.237 OA
ATOM     92  O   UNL     1       2.061   3.134   1.664  1.00  0.00    -0.744 OA
ENDBRANCH  86  89
ENDBRANCH  58  82
BRANCH  70  93
ATOM     93  C   UNL     1       0.639   0.358  -7.407  1.00  0.00     0.023 A 
ATOM     94  C   UNL     1       0.190   1.440  -8.175  1.00  0.00     0.012 A 
ATOM     95  C   UNL     1       1.666  -0.445  -7.948  1.00  0.00     0.148 A 
ATOM     96  C   UNL     1       0.872   1.843  -9.313  1.00  0.00     0.002 A 
ATOM     97  C   UNL     1       2.285  -0.101  -9.125  1.00  0.00     0.091 A 
ATOM     98  F   UNL     1       2.040  -1.579  -7.358  1.00  0.00    -0.205 F 
ATOM     99  C   UNL     1       1.933   1.079  -9.780  1.00  0.00     0.022 A 
BRANCH  97 100
ATOM    100  S   UNL     1       3.480  -1.187  -9.898  1.00  0.00     0.127 S 
ATOM    101  O   UNL     1       2.799  -1.500 -11.154  1.00  0.00    -0.237 OA
ATOM    102  O   UNL     1       4.636  -0.301 -10.025  1.00  0.00    -0.237 OA
ATOM    103  O   UNL     1       3.670  -2.323  -9.009  1.00  0.00    -0.744 OA
ENDBRANCH  97 100
ENDBRANCH  70  93
ENDBRANCH  44  45
ENDBRANCH  37  39
ENDBRANCH  36  37
ENDBRANCH  35  36
ENDBRANCH  34  35
ENDBRANCH  33  34
ENDBRANCH  32  33
ENDBRANCH  31  32
ENDBRANCH   1  31
TORSDOF 26
