REMARK SMILES O=C(OCCOCCOCCOCCOC(=O)c1cc(SC[C@H]2CCOC2)ccn1)c1ccc(-c2c3nc(c(-c4cccc(S(=O)(=O)[O-])c4F)c4ccc([nH]4)c(-c4cccc(S(=O)(=O)[O-])c4F)c4nc(c(-c5cccc(S(=O)(=O)[O-])c5F)c5ccc2[nH]5)C=C4)C=C3)cc1
REMARK SMILES IDX 9 1 8 2 7 3 6 4 5 5 4 6 3 7 2 8 1 9 31 10 32 11 93 12 33 13
REMARK SMILES IDX 92 14 34 15 35 16 36 17 86 18 37 19 91 20 85 21 87 22 38 23
REMARK SMILES IDX 90 24 84 25 83 26 39 28 71 29 51 30 70 31 52 32 55 33 69 34
REMARK SMILES IDX 88 35 53 36 54 37 68 39 89 40 56 41 40 42 41 43 49 44 42 45
REMARK SMILES IDX 44 46 50 47 43 48 45 49 46 50 47 51 48 52 72 53 73 54 81 55
REMARK SMILES IDX 74 56 76 57 82 58 75 59 77 60 78 61 79 62 80 63 57 64 58 65
REMARK SMILES IDX 66 66 59 67 61 68 67 69 60 70 62 71 63 72 64 73 65 74 10 75
REMARK SMILES IDX 11 76 12 77 13 78 14 79 15 80 16 81 17 82 18 83 19 84 30 85
REMARK SMILES IDX 20 86 29 87 28 88 21 89 22 90 23 91 24 92 27 93 25 94 26 95
REMARK H PARENT 87 27 55 38
REMARK Flexibility Score: inf
ROOT
ATOM      1  O   UNL     1       6.195  -8.157  -6.597  1.00  0.00    -0.377 OA
ENDROOT
BRANCH   1   2
ATOM      2  C   UNL     1       7.452  -7.617  -7.003  1.00  0.00     0.188 C 
BRANCH   2   3
ATOM      3  C   UNL     1       8.658  -8.091  -6.192  1.00  0.00     0.188 C 
BRANCH   3   4
ATOM      4  O   UNL     1       8.898  -9.484  -6.404  1.00  0.00    -0.376 OA
BRANCH   4   5
ATOM      5  C   UNL     1       9.335 -10.212  -5.258  1.00  0.00     0.202 C 
BRANCH   5   6
ATOM      6  C   UNL     1      10.846 -10.164  -5.022  1.00  0.00     0.261 C 
BRANCH   6   7
ATOM      7  O   UNL     1      11.383  -8.858  -5.273  1.00  0.00    -0.460 OA
BRANCH   7   8
ATOM      8  C   UNL     1      11.932  -8.394  -6.425  1.00  0.00     0.338 C 
ATOM      9  O   UNL     1      12.368  -7.242  -6.428  1.00  0.00    -0.246 OA
BRANCH   8  10
ATOM     10  C   UNL     1      12.063  -9.199  -7.684  1.00  0.00     0.060 A 
ATOM     11  C   UNL     1      11.273 -10.295  -8.042  1.00  0.00     0.016 A 
ATOM     12  C   UNL     1      13.043  -8.777  -8.599  1.00  0.00     0.016 A 
ATOM     13  C   UNL     1      11.506 -11.016  -9.206  1.00  0.00     0.010 A 
ATOM     14  C   UNL     1      13.267  -9.476  -9.789  1.00  0.00     0.010 A 
ATOM     15  C   UNL     1      12.525 -10.628 -10.067  1.00  0.00    -0.014 A 
BRANCH  15  16
ATOM     16  C   UNL     1      12.919 -11.562 -11.136  1.00  0.00     0.031 A 
ATOM     17  C   UNL     1      14.141 -12.400 -10.908  1.00  0.00     0.074 A 
ATOM     18  C   UNL     1      12.139 -11.726 -12.217  1.00  0.00     0.049 A 
ATOM     19  N   UNL     1      14.719 -13.256 -11.703  1.00  0.00    -0.248 NA
ATOM     20  C   UNL     1      14.795 -12.263  -9.592  1.00  0.00     0.031 C 
ATOM     21  C   UNL     1      10.876 -11.026 -12.460  1.00  0.00     0.029 A 
ATOM     22  N   UNL     1      12.290 -12.537 -13.310  1.00  0.00    -0.354 N 
ATOM     23  C   UNL     1      15.832 -13.715 -11.010  1.00  0.00     0.074 A 
ATOM     24  C   UNL     1      15.842 -13.060  -9.723  1.00  0.00     0.031 C 
ATOM     25  C   UNL     1      10.371 -11.432 -13.637  1.00  0.00     0.029 A 
ATOM     26  C   UNL     1      11.300 -12.375 -14.251  1.00  0.00     0.049 A 
ATOM     27  H   UNL     1      13.033 -13.173 -13.412  1.00  0.00     0.167 HD
ATOM     28  C   UNL     1      16.765 -14.603 -11.420  1.00  0.00     0.034 A 
ATOM     29  C   UNL     1      11.190 -12.908 -15.483  1.00  0.00     0.034 A 
ATOM     30  C   UNL     1      16.719 -15.248 -12.700  1.00  0.00     0.049 A 
ATOM     31  C   UNL     1      12.267 -13.858 -15.937  1.00  0.00     0.074 A 
ATOM     32  C   UNL     1      17.619 -16.136 -13.255  1.00  0.00     0.029 A 
ATOM     33  N   UNL     1      15.704 -15.063 -13.631  1.00  0.00    -0.354 N 
ATOM     34  N   UNL     1      13.314 -14.296 -15.274  1.00  0.00    -0.248 NA
ATOM     35  C   UNL     1      12.149 -14.399 -17.296  1.00  0.00     0.031 C 
ATOM     36  C   UNL     1      17.159 -16.471 -14.533  1.00  0.00     0.029 A 
ATOM     37  C   UNL     1      15.957 -15.815 -14.761  1.00  0.00     0.049 A 
ATOM     38  H   UNL     1      14.920 -14.482 -13.503  1.00  0.00     0.167 HD
ATOM     39  C   UNL     1      13.965 -15.180 -16.124  1.00  0.00     0.074 A 
ATOM     40  C   UNL     1      13.179 -15.233 -17.343  1.00  0.00     0.031 C 
ATOM     41  C   UNL     1      15.115 -15.873 -15.931  1.00  0.00     0.034 A 
BRANCH  28  42
ATOM     42  C   UNL     1      17.909 -14.877 -10.483  1.00  0.00     0.023 A 
ATOM     43  C   UNL     1      17.704 -15.650  -9.322  1.00  0.00     0.012 A 
ATOM     44  C   UNL     1      19.184 -14.335 -10.737  1.00  0.00     0.148 A 
ATOM     45  C   UNL     1      18.739 -15.844  -8.407  1.00  0.00     0.002 A 
ATOM     46  C   UNL     1      20.220 -14.566  -9.841  1.00  0.00     0.091 A 
ATOM     47  F   UNL     1      19.349 -13.577 -11.829  1.00  0.00    -0.205 F 
ATOM     48  C   UNL     1      19.997 -15.308  -8.669  1.00  0.00     0.022 A 
BRANCH  46  49
ATOM     49  S   UNL     1      21.889 -13.960 -10.114  1.00  0.00     0.127 S 
ATOM     50  O   UNL     1      22.001 -12.929  -9.084  1.00  0.00    -0.237 OA
ATOM     51  O   UNL     1      22.693 -15.157  -9.869  1.00  0.00    -0.237 OA
ATOM     52  O   UNL     1      21.921 -13.477 -11.488  1.00  0.00    -0.744 OA
ENDBRANCH  46  49
ENDBRANCH  28  42
BRANCH  29  53
ATOM     53  C   UNL     1      10.032 -12.556 -16.355  1.00  0.00     0.023 A 
ATOM     54  C   UNL     1       9.085 -13.541 -16.695  1.00  0.00     0.012 A 
ATOM     55  C   UNL     1       9.845 -11.240 -16.826  1.00  0.00     0.148 A 
ATOM     56  C   UNL     1       7.989 -13.229 -17.503  1.00  0.00     0.002 A 
ATOM     57  C   UNL     1       8.722 -10.922 -17.582  1.00  0.00     0.091 A 
ATOM     58  F   UNL     1      10.767 -10.317 -16.516  1.00  0.00    -0.205 F 
ATOM     59  C   UNL     1       7.801 -11.919 -17.936  1.00  0.00     0.022 A 
BRANCH  57  60
ATOM     60  S   UNL     1       8.336  -9.236 -18.070  1.00  0.00     0.127 S 
ATOM     61  O   UNL     1       8.615  -9.268 -19.503  1.00  0.00    -0.237 OA
ATOM     62  O   UNL     1       6.918  -9.135 -17.721  1.00  0.00    -0.237 OA
ATOM     63  O   UNL     1       9.209  -8.387 -17.272  1.00  0.00    -0.744 OA
ENDBRANCH  57  60
ENDBRANCH  29  53
BRANCH  41  64
ATOM     64  C   UNL     1      15.573 -16.771 -17.045  1.00  0.00     0.023 A 
ATOM     65  C   UNL     1      16.158 -16.212 -18.197  1.00  0.00     0.012 A 
ATOM     66  C   UNL     1      15.521 -18.171 -16.897  1.00  0.00     0.148 A 
ATOM     67  C   UNL     1      16.664 -17.036 -19.200  1.00  0.00     0.002 A 
ATOM     68  C   UNL     1      16.073 -18.984 -17.877  1.00  0.00     0.091 A 
ATOM     69  F   UNL     1      14.941 -18.677 -15.799  1.00  0.00    -0.205 F 
ATOM     70  C   UNL     1      16.636 -18.419 -19.033  1.00  0.00     0.022 A 
BRANCH  68  71
ATOM     71  S   UNL     1      16.177 -20.767 -17.690  1.00  0.00     0.127 S 
ATOM     72  O   UNL     1      15.139 -21.224 -18.611  1.00  0.00    -0.237 OA
ATOM     73  O   UNL     1      17.546 -21.046 -18.125  1.00  0.00    -0.237 OA
ATOM     74  O   UNL     1      15.927 -21.036 -16.280  1.00  0.00    -0.744 OA
ENDBRANCH  68  71
ENDBRANCH  41  64
ENDBRANCH  15  16
ENDBRANCH   8  10
ENDBRANCH   7   8
ENDBRANCH   6   7
ENDBRANCH   5   6
ENDBRANCH   4   5
ENDBRANCH   3   4
ENDBRANCH   2   3
ENDBRANCH   1   2
BRANCH   1  75
ATOM     75  C   UNL     1       6.109  -9.576  -6.491  1.00  0.00     0.188 C 
BRANCH  75  76
ATOM     76  C   UNL     1       6.450 -10.450  -7.718  1.00  0.00     0.188 C 
BRANCH  76  77
ATOM     77  O   UNL     1       6.810  -9.728  -8.887  1.00  0.00    -0.376 OA
BRANCH  77  78
ATOM     78  C   UNL     1       5.835  -9.715  -9.928  1.00  0.00     0.202 C 
BRANCH  78  79
ATOM     79  C   UNL     1       4.658  -8.772  -9.653  1.00  0.00     0.261 C 
BRANCH  79  80
ATOM     80  O   UNL     1       3.856  -9.144  -8.516  1.00  0.00    -0.459 OA
BRANCH  80  81
ATOM     81  C   UNL     1       3.196 -10.328  -8.568  1.00  0.00     0.357 C 
ATOM     82  O   UNL     1       3.070 -11.060  -9.532  1.00  0.00    -0.244 OA
BRANCH  81  83
ATOM     83  C   UNL     1       2.789 -10.635  -7.168  1.00  0.00     0.149 A 
ATOM     84  C   UNL     1       2.028  -9.711  -6.464  1.00  0.00     0.051 A 
ATOM     85  N   UNL     1       3.355 -11.737  -6.608  1.00  0.00    -0.249 NA
ATOM     86  C   UNL     1       1.844  -9.908  -5.099  1.00  0.00     0.011 A 
ATOM     87  C   UNL     1       3.182 -11.894  -5.282  1.00  0.00     0.113 A 
ATOM     88  C   UNL     1       2.451 -11.016  -4.498  1.00  0.00     0.035 A 
BRANCH  86  89
ATOM     89  S   UNL     1       0.881  -8.849  -4.028  1.00  0.00    -0.126 SA
BRANCH  89  90
ATOM     90  C   UNL     1       0.400  -7.439  -5.087  1.00  0.00     0.081 C 
BRANCH  90  91
ATOM     91  C   UNL     1       1.511  -6.405  -5.250  1.00  0.00     0.027 C 
ATOM     92  C   UNL     1       1.090  -5.225  -6.104  1.00  0.00     0.035 C 
ATOM     93  C   UNL     1       1.925  -5.719  -3.955  1.00  0.00     0.164 C 
ATOM     94  C   UNL     1       2.079  -4.162  -5.681  1.00  0.00     0.160 C 
ATOM     95  O   UNL     1       2.338  -4.385  -4.290  1.00  0.00    -0.381 OA
ENDBRANCH  90  91
ENDBRANCH  89  90
ENDBRANCH  86  89
ENDBRANCH  81  83
ENDBRANCH  80  81
ENDBRANCH  79  80
ENDBRANCH  78  79
ENDBRANCH  77  78
ENDBRANCH  76  77
ENDBRANCH  75  76
ENDBRANCH   1  75
TORSDOF 26
