REMARK SMILES Cc1cccc(CS[C@@H]2CC[C@]([NH3+])(C(=O)OCCOCCOCCOCCOC(=O)c3ccc(-c4c5nc(c(-c6cccc(S(=O)(=O)[O-])c6F)c6ccc([nH]6)c(-c6cccc(S(=O)(=O)[O-])c6F)c6nc(c(-c7cccc(S(=O)(=O)[O-])c7F)c7ccc4[nH]7)C=C6)C=C5)cc3)C2)c1
REMARK SMILES IDX 22 1 21 2 20 3 19 4 18 5 17 6 16 7 14 8 15 9 12 10 9 11
REMARK SMILES IDX 10 12 94 13 11 14 8 15 7 16 6 17 1 18 2 19 3 20 95 21 4 22
REMARK SMILES IDX 5 23 13 24 23 28 24 29 25 30 26 31 27 32 28 33 29 34 30 35
REMARK SMILES IDX 31 36 32 37 93 38 33 39 92 40 34 41 35 42 36 43 86 44 37 45
REMARK SMILES IDX 91 46 85 47 87 48 38 49 90 50 84 51 83 52 39 54 71 55 51 56
REMARK SMILES IDX 70 57 52 58 55 59 69 60 88 61 53 62 54 63 68 65 89 66 56 67
REMARK SMILES IDX 40 68 41 69 49 70 42 71 44 72 50 73 43 74 45 75 46 76 47 77
REMARK SMILES IDX 48 78 72 79 73 80 81 81 74 82 76 83 82 84 75 85 77 86 78 87
REMARK SMILES IDX 79 88 80 89 57 90 58 91 66 92 59 93 61 94 67 95 60 96 62 97
REMARK SMILES IDX 63 98 64 99 65 100
REMARK H PARENT 13 25 13 26 13 27 87 53 55 64
REMARK Flexibility Score: inf
ROOT
ATOM      1  O   UNL     1       1.709   5.209  -7.251  1.00  0.00    -0.377 OA
ENDROOT
BRANCH   1   2
ATOM      2  C   UNL     1       0.740   4.964  -6.256  1.00  0.00     0.188 C 
BRANCH   2   3
ATOM      3  C   UNL     1       0.466   6.109  -5.277  1.00  0.00     0.188 C 
BRANCH   3   4
ATOM      4  O   UNL     1       1.528   6.547  -4.439  1.00  0.00    -0.376 OA
BRANCH   4   5
ATOM      5  C   UNL     1       2.337   5.531  -3.861  1.00  0.00     0.202 C 
BRANCH   5   6
ATOM      6  C   UNL     1       1.852   5.120  -2.513  1.00  0.00     0.261 C 
BRANCH   6   7
ATOM      7  O   UNL     1       0.986   4.004  -2.671  1.00  0.00    -0.459 OA
BRANCH   7   8
ATOM      8  C   UNL     1      -0.300   4.356  -2.658  1.00  0.00     0.368 C 
ATOM      9  O   UNL     1      -0.730   5.463  -2.347  1.00  0.00    -0.245 OA
BRANCH   8  10
ATOM     10  C   UNL     1      -1.192   3.248  -3.198  1.00  0.00     0.193 C 
ATOM     11  C   UNL     1      -3.139   2.093  -2.323  1.00  0.00     0.054 C 
ATOM     12  C   UNL     1      -2.095   1.055  -2.752  1.00  0.00     0.022 C 
ATOM     13  C   UNL     1      -2.474   3.443  -2.398  1.00  0.00     0.095 C 
ATOM     14  C   UNL     1      -0.773   1.805  -2.915  1.00  0.00     0.082 C 
BRANCH  11  15
ATOM     15  S   UNL     1      -3.986   1.943  -0.705  1.00  0.00    -0.154 SA
BRANCH  15  16
ATOM     16  C   UNL     1      -2.581   1.936   0.504  1.00  0.00     0.105 C 
BRANCH  16  17
ATOM     17  C   UNL     1      -1.847   0.620   0.538  1.00  0.00    -0.038 A 
ATOM     18  C   UNL     1       1.739  -0.649   0.678  1.00  0.00     0.044 C 
ATOM     19  C   UNL     1       0.249  -0.609   0.584  1.00  0.00    -0.051 A 
ATOM     20  C   UNL     1      -0.432  -1.786   0.276  1.00  0.00     0.003 A 
ATOM     21  C   UNL     1      -0.461   0.592   0.722  1.00  0.00     0.008 A 
ATOM     22  C   UNL     1      -1.816  -1.785   0.193  1.00  0.00     0.001 A 
ATOM     23  C   UNL     1      -2.519  -0.597   0.359  1.00  0.00     0.004 A 
ENDBRANCH  16  17
ENDBRANCH  15  16
ENDBRANCH  11  15
BRANCH  10  24
ATOM     24  N   UNL     1      -1.433   3.415  -4.648  1.00  0.00    -0.343 N 
ATOM     25  H   UNL     1      -2.033   2.660  -4.982  1.00  0.00     0.345 HD
ATOM     26  H   UNL     1      -0.543   3.387  -5.146  1.00  0.00     0.345 HD
ATOM     27  H   UNL     1      -1.889   4.311  -4.816  1.00  0.00     0.345 HD
ENDBRANCH  10  24
ENDBRANCH   8  10
ENDBRANCH   7   8
ENDBRANCH   6   7
ENDBRANCH   5   6
ENDBRANCH   4   5
ENDBRANCH   3   4
ENDBRANCH   2   3
ENDBRANCH   1   2
BRANCH   1  28
ATOM     28  C   UNL     1       2.823   6.005  -6.924  1.00  0.00     0.188 C 
BRANCH  28  29
ATOM     29  C   UNL     1       2.961   7.413  -7.586  1.00  0.00     0.188 C 
BRANCH  29  30
ATOM     30  O   UNL     1       1.871   7.924  -8.306  1.00  0.00    -0.376 OA
BRANCH  30  31
ATOM     31  C   UNL     1       1.332   6.915  -9.120  1.00  0.00     0.202 C 
BRANCH  31  32
ATOM     32  C   UNL     1       2.309   5.892  -9.824  1.00  0.00     0.261 C 
BRANCH  32  33
ATOM     33  O   UNL     1       3.861   5.654  -9.562  1.00  0.00    -0.460 OA
BRANCH  33  34
ATOM     34  C   UNL     1       5.184   5.487  -9.270  1.00  0.00     0.338 C 
ATOM     35  O   UNL     1       5.872   4.989 -10.165  1.00  0.00    -0.246 OA
BRANCH  34  36
ATOM     36  C   UNL     1       5.925   5.698  -7.916  1.00  0.00     0.060 A 
ATOM     37  C   UNL     1       6.968   4.866  -7.524  1.00  0.00     0.016 A 
ATOM     38  C   UNL     1       5.652   6.610  -6.925  1.00  0.00     0.016 A 
ATOM     39  C   UNL     1       7.143   4.524  -6.153  1.00  0.00     0.010 A 
ATOM     40  C   UNL     1       5.622   6.149  -5.603  1.00  0.00     0.010 A 
ATOM     41  C   UNL     1       6.188   4.928  -5.258  1.00  0.00    -0.014 A 
BRANCH  41  42
ATOM     42  C   UNL     1       5.658   4.206  -4.059  1.00  0.00     0.031 A 
ATOM     43  C   UNL     1       5.603   5.022  -2.769  1.00  0.00     0.074 A 
ATOM     44  C   UNL     1       4.874   3.090  -4.266  1.00  0.00     0.049 A 
ATOM     45  N   UNL     1       4.940   4.752  -1.697  1.00  0.00    -0.248 NA
ATOM     46  C   UNL     1       6.274   6.325  -2.634  1.00  0.00     0.031 C 
ATOM     47  C   UNL     1       3.685   2.702  -3.496  1.00  0.00     0.029 A 
ATOM     48  N   UNL     1       4.847   2.095  -5.248  1.00  0.00    -0.354 N 
ATOM     49  C   UNL     1       4.835   5.907  -0.906  1.00  0.00     0.074 A 
ATOM     50  C   UNL     1       5.697   6.858  -1.547  1.00  0.00     0.031 C 
ATOM     51  C   UNL     1       3.080   1.611  -3.992  1.00  0.00     0.029 A 
ATOM     52  C   UNL     1       4.044   0.996  -4.860  1.00  0.00     0.049 A 
ATOM     53  H   UNL     1       5.328   2.151  -6.105  1.00  0.00     0.167 HD
ATOM     54  C   UNL     1       3.951   5.935   0.145  1.00  0.00     0.034 A 
ATOM     55  C   UNL     1       4.533  -0.222  -4.442  1.00  0.00     0.034 A 
ATOM     56  C   UNL     1       3.466   4.566   0.392  1.00  0.00     0.049 A 
ATOM     57  C   UNL     1       4.733  -0.338  -2.905  1.00  0.00     0.074 A 
ATOM     58  C   UNL     1       2.228   3.956   0.300  1.00  0.00     0.029 A 
ATOM     59  N   UNL     1       4.396   3.534   0.507  1.00  0.00    -0.354 N 
ATOM     60  N   UNL     1       4.572   0.655  -2.057  1.00  0.00    -0.248 NA
ATOM     61  C   UNL     1       5.005  -1.584  -2.184  1.00  0.00     0.031 C 
ATOM     62  C   UNL     1       2.488   2.603  -0.057  1.00  0.00     0.029 A 
ATOM     63  C   UNL     1       3.826   2.322   0.166  1.00  0.00     0.049 A 
ATOM     64  H   UNL     1       5.331   3.653   0.792  1.00  0.00     0.167 HD
ATOM     65  C   UNL     1       4.719   0.251  -0.757  1.00  0.00     0.074 A 
ATOM     66  C   UNL     1       4.972  -1.177  -0.898  1.00  0.00     0.031 C 
ATOM     67  C   UNL     1       4.566   1.073   0.339  1.00  0.00     0.034 A 
BRANCH  54  68
ATOM     68  C   UNL     1       3.346   7.137   0.913  1.00  0.00     0.023 A 
ATOM     69  C   UNL     1       2.461   6.820   1.981  1.00  0.00     0.012 A 
ATOM     70  C   UNL     1       3.475   8.527   0.639  1.00  0.00     0.148 A 
ATOM     71  C   UNL     1       1.733   7.777   2.704  1.00  0.00     0.002 A 
ATOM     72  C   UNL     1       2.784   9.496   1.406  1.00  0.00     0.091 A 
ATOM     73  F   UNL     1       4.234   8.928  -0.387  1.00  0.00    -0.205 F 
ATOM     74  C   UNL     1       1.900   9.119   2.423  1.00  0.00     0.022 A 
BRANCH  72  75
ATOM     75  S   UNL     1       2.970  11.286   1.202  1.00  0.00     0.127 S 
ATOM     76  O   UNL     1       1.603  11.716   0.905  1.00  0.00    -0.237 OA
ATOM     77  O   UNL     1       3.455  11.700   2.520  1.00  0.00    -0.237 OA
ATOM     78  O   UNL     1       3.923  11.474   0.116  1.00  0.00    -0.744 OA
ENDBRANCH  72  75
ENDBRANCH  54  68
BRANCH  55  79
ATOM     79  C   UNL     1       5.176  -0.963  -5.574  1.00  0.00     0.023 A 
ATOM     80  C   UNL     1       4.327  -1.145  -6.710  1.00  0.00     0.012 A 
ATOM     81  C   UNL     1       6.526  -0.703  -5.779  1.00  0.00     0.148 A 
ATOM     82  C   UNL     1       4.737  -0.739  -7.982  1.00  0.00     0.002 A 
ATOM     83  C   UNL     1       6.888  -0.184  -7.014  1.00  0.00     0.091 A 
ATOM     84  F   UNL     1       7.348  -0.676  -4.721  1.00  0.00    -0.205 F 
ATOM     85  C   UNL     1       6.007  -0.210  -8.123  1.00  0.00     0.022 A 
BRANCH  83  86
ATOM     86  S   UNL     1       7.899   1.299  -6.984  1.00  0.00     0.127 S 
ATOM     87  O   UNL     1       8.966   1.028  -7.937  1.00  0.00    -0.237 OA
ATOM     88  O   UNL     1       6.857   2.210  -7.449  1.00  0.00    -0.237 OA
ATOM     89  O   UNL     1       8.315   1.494  -5.604  1.00  0.00    -0.744 OA
ENDBRANCH  83  86
ENDBRANCH  55  79
BRANCH  67  90
ATOM     90  C   UNL     1       4.962   0.733   1.782  1.00  0.00     0.023 A 
ATOM     91  C   UNL     1       5.801  -0.350   2.080  1.00  0.00     0.012 A 
ATOM     92  C   UNL     1       4.607   1.571   2.885  1.00  0.00     0.148 A 
ATOM     93  C   UNL     1       6.198  -0.641   3.390  1.00  0.00     0.002 A 
ATOM     94  C   UNL     1       5.142   1.373   4.152  1.00  0.00     0.091 A 
ATOM     95  F   UNL     1       3.705   2.549   2.742  1.00  0.00    -0.205 F 
ATOM     96  C   UNL     1       5.897   0.236   4.421  1.00  0.00     0.022 A 
BRANCH  94  97
ATOM     97  S   UNL     1       5.037   2.622   5.446  1.00  0.00     0.127 S 
ATOM     98  O   UNL     1       4.173   1.966   6.425  1.00  0.00    -0.237 OA
ATOM     99  O   UNL     1       6.439   2.743   5.851  1.00  0.00    -0.237 OA
ATOM    100  O   UNL     1       4.488   3.814   4.817  1.00  0.00    -0.744 OA
ENDBRANCH  94  97
ENDBRANCH  67  90
ENDBRANCH  41  42
ENDBRANCH  34  36
ENDBRANCH  33  34
ENDBRANCH  32  33
ENDBRANCH  31  32
ENDBRANCH  30  31
ENDBRANCH  29  30
ENDBRANCH  28  29
ENDBRANCH   1  28
TORSDOF 27
