REMARK SMILES CCOc1cc(OCC)cc(-c2ccc([C@@H](C)C(=O)OCCOCCOCCOCCOC(=O)c3ccc(-c4c5nc(c(-c6cccc(S(=O)(=O)[O-])c6F)c6ccc([nH]6)c(-c6cccc(S(=O)(=O)[O-])c6F)c6nc(c(-c7cccc(S(=O)(=O)[O-])c7F)c7ccc4[nH]7)C=C6)C=C5)cc3)cc2F)c1
REMARK SMILES IDX 25 1 24 2 23 3 22 4 21 5 20 6 18 7 19 8 16 9 17 10 15 11
REMARK SMILES IDX 12 12 13 13 99 14 14 15 98 16 100 17 11 18 4 19 5 20 101 21
REMARK SMILES IDX 6 22 10 23 3 24 2 25 1 26 7 27 8 28 9 29 26 30 27 31 28 32
REMARK SMILES IDX 29 33 30 34 31 35 32 36 33 37 34 38 35 39 36 40 97 41 37 42
REMARK SMILES IDX 96 43 38 44 39 45 40 46 90 47 41 48 95 49 89 50 91 51 42 52
REMARK SMILES IDX 94 53 88 54 87 55 43 57 75 58 55 59 74 60 56 61 59 62 73 63
REMARK SMILES IDX 92 64 57 65 58 66 72 68 93 69 60 70 44 71 45 72 53 73 46 74
REMARK SMILES IDX 48 75 54 76 47 77 49 78 50 79 51 80 52 81 76 82 77 83 85 84
REMARK SMILES IDX 78 85 80 86 86 87 79 88 81 89 82 90 83 91 84 92 61 93 62 94
REMARK SMILES IDX 70 95 63 96 65 97 71 98 64 99 66 100 67 101 68 102 69 103
REMARK H PARENT 91 56 59 67
REMARK Flexibility Score: inf
ROOT
ATOM      1  C   UNL     1       6.200  -3.042   1.749  1.00  0.00     0.188 C 
ENDROOT
BRANCH   1   2
ATOM      2  C   UNL     1       6.583  -4.467   2.175  1.00  0.00     0.188 C 
BRANCH   2   3
ATOM      3  O   UNL     1       7.374  -4.708   3.331  1.00  0.00    -0.376 OA
BRANCH   3   4
ATOM      4  C   UNL     1       8.401  -3.801   3.706  1.00  0.00     0.202 C 
BRANCH   4   5
ATOM      5  C   UNL     1       9.504  -3.402   2.706  1.00  0.00     0.261 C 
BRANCH   5   6
ATOM      6  O   UNL     1       9.076  -3.005   1.387  1.00  0.00    -0.463 OA
BRANCH   6   7
ATOM      7  C   UNL     1       9.264  -3.905   0.396  1.00  0.00     0.313 C 
ATOM      8  O   UNL     1       9.776  -5.010   0.569  1.00  0.00    -0.252 OA
BRANCH   7   9
ATOM      9  C   UNL     1       8.819  -3.462  -0.998  1.00  0.00     0.126 C 
ATOM     10  C   UNL     1      10.061  -3.186  -1.838  1.00  0.00     0.025 C 
BRANCH   9  11
ATOM     11  C   UNL     1       7.775  -2.362  -1.181  1.00  0.00    -0.031 A 
ATOM     12  C   UNL     1       5.741  -0.377  -1.583  1.00  0.00     0.018 A 
ATOM     13  C   UNL     1       6.937  -0.088  -0.896  1.00  0.00     0.012 A 
ATOM     14  C   UNL     1       5.580  -1.687  -2.042  1.00  0.00     0.131 A 
ATOM     15  C   UNL     1       7.940  -1.056  -0.704  1.00  0.00     0.005 A 
ATOM     16  C   UNL     1       6.575  -2.656  -1.861  1.00  0.00     0.044 A 
ATOM     17  F   UNL     1       4.466  -2.042  -2.702  1.00  0.00    -0.206 F 
BRANCH  12  18
ATOM     18  C   UNL     1       4.774   0.693  -1.898  1.00  0.00    -0.008 A 
ATOM     19  C   UNL     1       2.547   1.679  -1.929  1.00  0.00     0.123 A 
ATOM     20  C   UNL     1       3.038   2.805  -2.590  1.00  0.00     0.092 A 
ATOM     21  C   UNL     1       3.405   0.623  -1.596  1.00  0.00     0.055 A 
ATOM     22  C   UNL     1       4.385   2.880  -2.935  1.00  0.00     0.123 A 
ATOM     23  C   UNL     1       5.233   1.829  -2.587  1.00  0.00     0.055 A 
BRANCH  19  24
ATOM     24  O   UNL     1       1.188   1.576  -1.795  1.00  0.00    -0.494 OA
BRANCH  24  25
ATOM     25  C   UNL     1       0.714   1.651  -0.448  1.00  0.00     0.226 C 
ATOM     26  C   UNL     1       0.603   0.266   0.155  1.00  0.00     0.049 C 
ENDBRANCH  24  25
ENDBRANCH  19  24
BRANCH  22  27
ATOM     27  O   UNL     1       4.770   4.010  -3.605  1.00  0.00    -0.494 OA
BRANCH  27  28
ATOM     28  C   UNL     1       6.034   3.982  -4.276  1.00  0.00     0.226 C 
ATOM     29  C   UNL     1       7.171   4.402  -3.357  1.00  0.00     0.049 C 
ENDBRANCH  27  28
ENDBRANCH  22  27
ENDBRANCH  12  18
ENDBRANCH   9  11
ENDBRANCH   7   9
ENDBRANCH   6   7
ENDBRANCH   5   6
ENDBRANCH   4   5
ENDBRANCH   3   4
ENDBRANCH   2   3
ENDBRANCH   1   2
BRANCH   1  30
ATOM     30  O   UNL     1       6.829  -2.004   2.470  1.00  0.00    -0.377 OA
BRANCH  30  31
ATOM     31  C   UNL     1       6.037  -1.334   3.436  1.00  0.00     0.188 C 
BRANCH  31  32
ATOM     32  C   UNL     1       5.127  -2.210   4.319  1.00  0.00     0.188 C 
BRANCH  32  33
ATOM     33  O   UNL     1       4.295  -3.106   3.589  1.00  0.00    -0.376 OA
BRANCH  33  34
ATOM     34  C   UNL     1       2.964  -2.706   3.305  1.00  0.00     0.202 C 
BRANCH  34  35
ATOM     35  C   UNL     1       2.746  -1.512   2.365  1.00  0.00     0.261 C 
BRANCH  35  36
ATOM     36  O   UNL     1       3.356  -0.264   2.728  1.00  0.00    -0.460 OA
BRANCH  36  37
ATOM     37  C   UNL     1       3.001   0.288   3.904  1.00  0.00     0.338 C 
ATOM     38  O   UNL     1       2.143  -0.128   4.670  1.00  0.00    -0.246 OA
BRANCH  37  39
ATOM     39  C   UNL     1       3.964   1.362   4.233  1.00  0.00     0.060 A 
ATOM     40  C   UNL     1       4.691   1.258   5.426  1.00  0.00     0.016 A 
ATOM     41  C   UNL     1       4.134   2.472   3.400  1.00  0.00     0.016 A 
ATOM     42  C   UNL     1       5.534   2.293   5.828  1.00  0.00     0.010 A 
ATOM     43  C   UNL     1       4.961   3.523   3.817  1.00  0.00     0.010 A 
ATOM     44  C   UNL     1       5.619   3.460   5.060  1.00  0.00    -0.014 A 
BRANCH  44  45
ATOM     45  C   UNL     1       6.168   4.689   5.689  1.00  0.00     0.031 A 
ATOM     46  C   UNL     1       5.192   5.676   6.276  1.00  0.00     0.074 A 
ATOM     47  C   UNL     1       7.491   4.909   5.789  1.00  0.00     0.049 A 
ATOM     48  N   UNL     1       5.419   6.812   6.881  1.00  0.00    -0.248 NA
ATOM     49  C   UNL     1       3.764   5.332   6.166  1.00  0.00     0.031 C 
ATOM     50  C   UNL     1       8.538   4.023   5.288  1.00  0.00     0.029 A 
ATOM     51  N   UNL     1       8.175   5.966   6.338  1.00  0.00    -0.354 N 
ATOM     52  C   UNL     1       4.168   7.332   7.192  1.00  0.00     0.074 A 
ATOM     53  C   UNL     1       3.184   6.396   6.697  1.00  0.00     0.031 C 
ATOM     54  C   UNL     1       9.736   4.586   5.529  1.00  0.00     0.029 A 
ATOM     55  C   UNL     1       9.538   5.881   6.179  1.00  0.00     0.049 A 
ATOM     56  H   UNL     1       7.732   6.713   6.801  1.00  0.00     0.167 HD
ATOM     57  C   UNL     1       3.860   8.478   7.844  1.00  0.00     0.034 A 
ATOM     58  C   UNL     1      10.509   6.759   6.503  1.00  0.00     0.034 A 
ATOM     59  C   UNL     1       4.836   9.405   8.347  1.00  0.00     0.049 A 
ATOM     60  C   UNL     1      10.139   8.045   7.200  1.00  0.00     0.074 A 
ATOM     61  C   UNL     1       4.627  10.579   9.047  1.00  0.00     0.029 A 
ATOM     62  N   UNL     1       6.206   9.271   8.190  1.00  0.00    -0.354 N 
ATOM     63  N   UNL     1       8.958   8.478   7.570  1.00  0.00    -0.248 NA
ATOM     64  C   UNL     1      11.245   8.945   7.562  1.00  0.00     0.031 C 
ATOM     65  C   UNL     1       5.871  11.175   9.280  1.00  0.00     0.029 A 
ATOM     66  C   UNL     1       6.857  10.345   8.773  1.00  0.00     0.049 A 
ATOM     67  H   UNL     1       6.652   8.521   7.732  1.00  0.00     0.167 HD
ATOM     68  C   UNL     1       9.182   9.672   8.249  1.00  0.00     0.074 A 
ATOM     69  C   UNL     1      10.615   9.886   8.252  1.00  0.00     0.031 C 
ATOM     70  C   UNL     1       8.286  10.519   8.815  1.00  0.00     0.034 A 
BRANCH  57  71
ATOM     71  C   UNL     1       2.400   8.791   8.050  1.00  0.00     0.023 A 
ATOM     72  C   UNL     1       1.634   8.028   8.955  1.00  0.00     0.012 A 
ATOM     73  C   UNL     1       1.796   9.867   7.371  1.00  0.00     0.148 A 
ATOM     74  C   UNL     1       0.282   8.307   9.153  1.00  0.00     0.002 A 
ATOM     75  C   UNL     1       0.462  10.171   7.611  1.00  0.00     0.091 A 
ATOM     76  F   UNL     1       2.533  10.565   6.495  1.00  0.00    -0.205 F 
ATOM     77  C   UNL     1      -0.300   9.384   8.490  1.00  0.00     0.022 A 
BRANCH  75  78
ATOM     78  S   UNL     1      -0.357  11.587   6.871  1.00  0.00     0.127 S 
ATOM     79  O   UNL     1      -1.306  10.939   5.966  1.00  0.00    -0.237 OA
ATOM     80  O   UNL     1      -0.966  12.231   8.035  1.00  0.00    -0.237 OA
ATOM     81  O   UNL     1       0.689  12.365   6.223  1.00  0.00    -0.744 OA
ENDBRANCH  75  78
ENDBRANCH  57  71
BRANCH  58  82
ATOM     82  C   UNL     1      11.935   6.448   6.197  1.00  0.00     0.023 A 
ATOM     83  C   UNL     1      12.845   6.220   7.248  1.00  0.00     0.012 A 
ATOM     84  C   UNL     1      12.395   6.389   4.867  1.00  0.00     0.148 A 
ATOM     85  C   UNL     1      14.193   5.978   6.982  1.00  0.00     0.002 A 
ATOM     86  C   UNL     1      13.727   6.089   4.607  1.00  0.00     0.091 A 
ATOM     87  F   UNL     1      11.518   6.623   3.881  1.00  0.00    -0.205 F 
ATOM     88  C   UNL     1      14.632   5.903   5.663  1.00  0.00     0.022 A 
BRANCH  86  89
ATOM     89  S   UNL     1      14.355   5.850   2.942  1.00  0.00     0.127 S 
ATOM     90  O   UNL     1      15.260   6.987   2.797  1.00  0.00    -0.237 OA
ATOM     91  O   UNL     1      15.013   4.548   3.056  1.00  0.00    -0.237 OA
ATOM     92  O   UNL     1      13.186   5.859   2.073  1.00  0.00    -0.744 OA
ENDBRANCH  86  89
ENDBRANCH  58  82
BRANCH  70  93
ATOM     93  C   UNL     1       8.823  11.721   9.552  1.00  0.00     0.023 A 
ATOM     94  C   UNL     1       9.429  12.780   8.847  1.00  0.00     0.012 A 
ATOM     95  C   UNL     1       8.676  11.819  10.951  1.00  0.00     0.148 A 
ATOM     96  C   UNL     1       9.925  13.892   9.528  1.00  0.00     0.002 A 
ATOM     97  C   UNL     1       9.121  12.956  11.615  1.00  0.00     0.091 A 
ATOM     98  F   UNL     1       8.111  10.796  11.609  1.00  0.00    -0.205 F 
ATOM     99  C   UNL     1       9.762  13.985  10.908  1.00  0.00     0.022 A 
BRANCH  97 100
ATOM    100  S   UNL     1       8.858  13.204  13.374  1.00  0.00     0.127 S 
ATOM    101  O   UNL     1      10.202  12.992  13.909  1.00  0.00    -0.237 OA
ATOM    102  O   UNL     1       8.392  14.590  13.426  1.00  0.00    -0.237 OA
ATOM    103  O   UNL     1       7.862  12.218  13.774  1.00  0.00    -0.744 OA
ENDBRANCH  97 100
ENDBRANCH  70  93
ENDBRANCH  44  45
ENDBRANCH  37  39
ENDBRANCH  36  37
ENDBRANCH  35  36
ENDBRANCH  34  35
ENDBRANCH  33  34
ENDBRANCH  32  33
ENDBRANCH  31  32
ENDBRANCH  30  31
ENDBRANCH   1  30
TORSDOF 29
