REMARK SMILES Nc1nc2ccccc2nc1N1CCC(C(=O)OCCOCCOCCOCCOC(=O)c2ccc(-c3c4nc(c(-c5cccc(S(=O)(=O)[O-])c5F)c5ccc([nH]5)c(-c5cccc(S(=O)(=O)[O-])c5F)c5nc(c(-c6cccc(S(=O)(=O)[O-])c6F)c6ccc3[nH]6)C=C5)C=C4)cc2)CC1
REMARK SMILES IDX 25 1 24 2 23 3 22 4 21 5 20 6 19 7 18 8 16 9 17 10 15 11
REMARK SMILES IDX 12 12 13 13 97 14 14 15 96 16 11 17 2 18 3 19 4 20 10 21
REMARK SMILES IDX 5 22 9 23 6 24 8 25 7 26 1 27 26 30 27 31 28 32 29 33 30 34
REMARK SMILES IDX 31 35 32 36 33 37 34 38 95 39 35 40 94 41 36 42 37 43 38 44
REMARK SMILES IDX 88 45 39 46 93 47 87 48 89 49 40 50 92 51 86 52 85 53 41 55
REMARK SMILES IDX 73 56 53 57 72 58 54 59 57 60 71 61 90 62 55 63 56 64 70 66
REMARK SMILES IDX 91 67 58 68 42 69 43 70 51 71 44 72 46 73 52 74 45 75 47 76
REMARK SMILES IDX 48 77 49 78 50 79 74 80 75 81 83 82 76 83 78 84 84 85 77 86
REMARK SMILES IDX 79 87 80 88 81 89 82 90 59 91 60 92 68 93 61 94 63 95 69 96
REMARK SMILES IDX 62 97 64 98 65 99 66 100 67 101
REMARK H PARENT 1 28 1 29 89 54 57 65
REMARK Flexibility Score: inf
ROOT
ATOM      1  C   UNL     1       3.303  -3.777   8.393  1.00  0.00     0.188 C 
ENDROOT
BRANCH   1   2
ATOM      2  O   UNL     1       3.164  -2.598   7.605  1.00  0.00    -0.377 OA
BRANCH   2   3
ATOM      3  C   UNL     1       4.349  -1.931   7.226  1.00  0.00     0.188 C 
BRANCH   3   4
ATOM      4  C   UNL     1       4.676  -0.671   8.039  1.00  0.00     0.188 C 
BRANCH   4   5
ATOM      5  O   UNL     1       4.033  -0.411   9.276  1.00  0.00    -0.376 OA
BRANCH   5   6
ATOM      6  C   UNL     1       2.627  -0.581   9.415  1.00  0.00     0.202 C 
BRANCH   6   7
ATOM      7  C   UNL     1       1.650   0.068   8.421  1.00  0.00     0.261 C 
BRANCH   7   8
ATOM      8  O   UNL     1       1.779  -0.346   7.047  1.00  0.00    -0.463 OA
BRANCH   8   9
ATOM      9  C   UNL     1       2.209   0.600   6.185  1.00  0.00     0.309 C 
ATOM     10  O   UNL     1       2.551   1.735   6.509  1.00  0.00    -0.252 OA
BRANCH   9  11
ATOM     11  C   UNL     1       2.226   0.174   4.732  1.00  0.00     0.103 C 
ATOM     12  N   UNL     1       1.445  -0.645   2.111  1.00  0.00    -0.353 N 
ATOM     13  C   UNL     1       2.381  -1.465   2.864  1.00  0.00     0.119 C 
ATOM     14  C   UNL     1       1.252   0.752   2.496  1.00  0.00     0.119 C 
ATOM     15  C   UNL     1       2.168  -1.312   4.369  1.00  0.00     0.037 C 
ATOM     16  C   UNL     1       1.080   0.883   4.007  1.00  0.00     0.037 C 
BRANCH  12  17
ATOM     17  C   UNL     1       0.361  -1.295   1.520  1.00  0.00     0.172 A 
ATOM     18  C   UNL     1      -0.105  -0.899   0.239  1.00  0.00     0.167 A 
ATOM     19  N   UNL     1      -1.130  -1.511  -0.381  1.00  0.00    -0.226 NA
ATOM     20  C   UNL     1      -1.688  -2.545   0.273  1.00  0.00     0.091 A 
ATOM     21  N   UNL     1      -0.188  -2.355   2.152  1.00  0.00    -0.225 NA
ATOM     22  C   UNL     1      -2.749  -3.220  -0.315  1.00  0.00     0.031 A 
ATOM     23  C   UNL     1      -1.219  -2.969   1.542  1.00  0.00     0.091 A 
ATOM     24  C   UNL     1      -3.366  -4.298   0.320  1.00  0.00     0.002 A 
ATOM     25  C   UNL     1      -1.843  -4.043   2.164  1.00  0.00     0.031 A 
ATOM     26  C   UNL     1      -2.913  -4.710   1.566  1.00  0.00     0.002 A 
BRANCH  18  27
ATOM     27  N   UNL     1       0.490   0.151  -0.459  1.00  0.00    -0.381 N 
ATOM     28  H   UNL     1       0.149   0.408  -1.346  1.00  0.00     0.158 HD
ATOM     29  H   UNL     1       1.250   0.635  -0.064  1.00  0.00     0.158 HD
ENDBRANCH  18  27
ENDBRANCH  12  17
ENDBRANCH   9  11
ENDBRANCH   8   9
ENDBRANCH   7   8
ENDBRANCH   6   7
ENDBRANCH   5   6
ENDBRANCH   4   5
ENDBRANCH   3   4
ENDBRANCH   2   3
ENDBRANCH   1   2
BRANCH   1  30
ATOM     30  C   UNL     1       4.435  -3.817   9.437  1.00  0.00     0.188 C 
BRANCH  30  31
ATOM     31  O   UNL     1       5.734  -3.654   8.871  1.00  0.00    -0.376 OA
BRANCH  31  32
ATOM     32  C   UNL     1       6.470  -4.832   8.556  1.00  0.00     0.202 C 
BRANCH  32  33
ATOM     33  C   UNL     1       5.945  -5.679   7.384  1.00  0.00     0.261 C 
BRANCH  33  34
ATOM     34  O   UNL     1       4.685  -6.344   7.580  1.00  0.00    -0.460 OA
BRANCH  34  35
ATOM     35  C   UNL     1       4.497  -7.081   8.696  1.00  0.00     0.338 C 
ATOM     36  O   UNL     1       5.331  -7.360   9.539  1.00  0.00    -0.246 OA
BRANCH  35  37
ATOM     37  C   UNL     1       3.041  -7.309   8.832  1.00  0.00     0.060 A 
ATOM     38  C   UNL     1       2.295  -7.817   7.765  1.00  0.00     0.016 A 
ATOM     39  C   UNL     1       2.413  -6.979  10.040  1.00  0.00     0.016 A 
ATOM     40  C   UNL     1       0.924  -8.034   7.923  1.00  0.00     0.010 A 
ATOM     41  C   UNL     1       1.040  -7.187  10.193  1.00  0.00     0.010 A 
ATOM     42  C   UNL     1       0.291  -7.743   9.145  1.00  0.00    -0.014 A 
BRANCH  42  43
ATOM     43  C   UNL     1      -1.088  -8.231   9.391  1.00  0.00     0.031 A 
ATOM     44  C   UNL     1      -2.285  -7.331   9.350  1.00  0.00     0.074 A 
ATOM     45  C   UNL     1      -1.236  -9.536   9.690  1.00  0.00     0.049 A 
ATOM     46  N   UNL     1      -3.548  -7.654   9.460  1.00  0.00    -0.248 NA
ATOM     47  C   UNL     1      -2.045  -5.892   9.170  1.00  0.00     0.031 C 
ATOM     48  C   UNL     1      -0.135 -10.492   9.827  1.00  0.00     0.029 A 
ATOM     49  N   UNL     1      -2.359 -10.281   9.940  1.00  0.00    -0.354 N 
ATOM     50  C   UNL     1      -4.259  -6.465   9.369  1.00  0.00     0.074 A 
ATOM     51  C   UNL     1      -3.282  -5.407   9.208  1.00  0.00     0.031 C 
ATOM     52  C   UNL     1      -0.637 -11.699  10.124  1.00  0.00     0.029 A 
ATOM     53  C   UNL     1      -2.091 -11.602  10.209  1.00  0.00     0.049 A 
ATOM     54  H   UNL     1      -3.270  -9.907   9.929  1.00  0.00     0.167 HD
ATOM     55  C   UNL     1      -5.601  -6.283   9.396  1.00  0.00     0.034 A 
ATOM     56  C   UNL     1      -2.917 -12.628  10.483  1.00  0.00     0.034 A 
ATOM     57  C   UNL     1      -6.566  -7.343   9.543  1.00  0.00     0.049 A 
ATOM     58  C   UNL     1      -4.399 -12.401  10.484  1.00  0.00     0.074 A 
ATOM     59  C   UNL     1      -7.947  -7.255   9.501  1.00  0.00     0.029 A 
ATOM     60  N   UNL     1      -6.259  -8.673   9.779  1.00  0.00    -0.354 N 
ATOM     61  N   UNL     1      -5.058 -11.296  10.237  1.00  0.00    -0.248 NA
ATOM     62  C   UNL     1      -5.254 -13.562  10.770  1.00  0.00     0.031 C 
ATOM     63  C   UNL     1      -8.476  -8.529   9.728  1.00  0.00     0.029 A 
ATOM     64  C   UNL     1      -7.424  -9.414   9.896  1.00  0.00     0.049 A 
ATOM     65  H   UNL     1      -5.348  -9.039   9.852  1.00  0.00     0.167 HD
ATOM     66  C   UNL     1      -6.403 -11.630  10.317  1.00  0.00     0.074 A 
ATOM     67  C   UNL     1      -6.468 -13.045  10.622  1.00  0.00     0.031 C 
ATOM     68  C   UNL     1      -7.483 -10.828  10.162  1.00  0.00     0.034 A 
BRANCH  55  69
ATOM     69  C   UNL     1      -6.138  -4.892   9.193  1.00  0.00     0.023 A 
ATOM     70  C   UNL     1      -6.202  -4.372   7.886  1.00  0.00     0.012 A 
ATOM     71  C   UNL     1      -6.709  -4.167  10.258  1.00  0.00     0.148 A 
ATOM     72  C   UNL     1      -6.822  -3.148   7.639  1.00  0.00     0.002 A 
ATOM     73  C   UNL     1      -7.348  -2.960  10.001  1.00  0.00     0.091 A 
ATOM     74  F   UNL     1      -6.632  -4.682  11.493  1.00  0.00    -0.205 F 
ATOM     75  C   UNL     1      -7.404  -2.449   8.693  1.00  0.00     0.022 A 
BRANCH  73  76
ATOM     76  S   UNL     1      -8.179  -2.004  11.275  1.00  0.00     0.127 S 
ATOM     77  O   UNL     1      -7.366  -0.788  11.307  1.00  0.00    -0.237 OA
ATOM     78  O   UNL     1      -9.515  -1.828  10.705  1.00  0.00    -0.237 OA
ATOM     79  O   UNL     1      -8.129  -2.812  12.485  1.00  0.00    -0.744 OA
ENDBRANCH  73  76
ENDBRANCH  55  69
BRANCH  56  80
ATOM     80  C   UNL     1      -2.339 -13.981  10.693  1.00  0.00     0.023 A 
ATOM     81  C   UNL     1      -2.414 -14.927   9.654  1.00  0.00     0.012 A 
ATOM     82  C   UNL     1      -1.634 -14.295  11.870  1.00  0.00     0.148 A 
ATOM     83  C   UNL     1      -1.800 -16.172   9.787  1.00  0.00     0.002 A 
ATOM     84  C   UNL     1      -0.993 -15.522  11.980  1.00  0.00     0.091 A 
ATOM     85  F   UNL     1      -1.577 -13.371  12.839  1.00  0.00    -0.205 F 
ATOM     86  C   UNL     1      -1.082 -16.465  10.944  1.00  0.00     0.022 A 
BRANCH  84  87
ATOM     87  S   UNL     1       0.043 -15.952  13.383  1.00  0.00     0.127 S 
ATOM     88  O   UNL     1      -0.678 -17.091  13.947  1.00  0.00    -0.237 OA
ATOM     89  O   UNL     1       1.307 -16.286  12.727  1.00  0.00    -0.237 OA
ATOM     90  O   UNL     1       0.089 -14.764  14.223  1.00  0.00    -0.744 OA
ENDBRANCH  84  87
ENDBRANCH  56  80
BRANCH  68  91
ATOM     91  C   UNL     1      -8.847 -11.442  10.313  1.00  0.00     0.023 A 
ATOM     92  C   UNL     1      -9.352 -11.692  11.604  1.00  0.00     0.012 A 
ATOM     93  C   UNL     1      -9.671 -11.654   9.190  1.00  0.00     0.148 A 
ATOM     94  C   UNL     1     -10.658 -12.151  11.774  1.00  0.00     0.002 A 
ATOM     95  C   UNL     1     -10.982 -12.078   9.370  1.00  0.00     0.091 A 
ATOM     96  F   UNL     1      -9.162 -11.416   7.973  1.00  0.00    -0.205 F 
ATOM     97  C   UNL     1     -11.475 -12.331  10.661  1.00  0.00     0.022 A 
BRANCH  95  98
ATOM     98  S   UNL     1     -12.135 -12.272   8.006  1.00  0.00     0.127 S 
ATOM     99  O   UNL     1     -12.380 -13.714   8.026  1.00  0.00    -0.237 OA
ATOM    100  O   UNL     1     -13.267 -11.455   8.442  1.00  0.00    -0.237 OA
ATOM    101  O   UNL     1     -11.447 -11.779   6.820  1.00  0.00    -0.744 OA
ENDBRANCH  95  98
ENDBRANCH  68  91
ENDBRANCH  42  43
ENDBRANCH  35  37
ENDBRANCH  34  35
ENDBRANCH  33  34
ENDBRANCH  32  33
ENDBRANCH  31  32
ENDBRANCH  30  31
ENDBRANCH   1  30
TORSDOF 25
