REMARK SMILES O=C(OCCOCCOCCOCCOC(=O)c1ccc(-c2c3nc(c(-c4cccc(S(=O)(=O)[O-])c4F)c4ccc([nH]4)c(-c4cccc(S(=O)(=O)[O-])c4F)c4nc(c(-c5cccc(S(=O)(=O)[O-])c5F)c5ccc2[nH]5)C=C4)C=C3)cc1)C1=Cc2cc(C(F)(F)F)ccc2O[C@@H]1C(F)(F)F
REMARK SMILES IDX 10 1 9 2 8 3 7 4 6 5 5 6 4 7 3 8 2 9 1 10 81 11 82 12 94 13
REMARK SMILES IDX 83 14 93 15 84 16 92 17 85 18 91 19 90 20 95 21 96 22 97 23
REMARK SMILES IDX 98 24 86 25 87 26 88 27 89 28 11 29 12 30 13 31 14 32 15 33
REMARK SMILES IDX 16 34 17 35 18 36 19 37 80 38 20 39 79 40 21 41 22 42 23 43
REMARK SMILES IDX 73 44 24 45 78 46 72 47 74 48 25 49 77 50 71 51 70 52 26 54
REMARK SMILES IDX 58 55 38 56 57 57 39 58 42 59 56 60 75 61 40 62 41 63 55 65
REMARK SMILES IDX 76 66 43 67 27 68 28 69 36 70 29 71 31 72 37 73 30 74 32 75
REMARK SMILES IDX 33 76 34 77 35 78 59 79 60 80 68 81 61 82 63 83 69 84 62 85
REMARK SMILES IDX 64 86 65 87 66 88 67 89 44 90 45 91 53 92 46 93 48 94 54 95
REMARK SMILES IDX 47 96 49 97 50 98 51 99 52 100
REMARK H PARENT 74 53 42 64
REMARK Flexibility Score: inf
ROOT
ATOM      1  C   UNL     1       3.012   0.733  -4.315  1.00  0.00     0.188 C 
ENDROOT
BRANCH   1   2
ATOM      2  O   UNL     1       1.718   1.272  -4.072  1.00  0.00    -0.377 OA
BRANCH   2   3
ATOM      3  C   UNL     1       0.953   0.585  -3.090  1.00  0.00     0.188 C 
BRANCH   3   4
ATOM      4  C   UNL     1       1.345   0.992  -1.677  1.00  0.00     0.188 C 
BRANCH   4   5
ATOM      5  O   UNL     1       2.707   0.742  -1.369  1.00  0.00    -0.376 OA
BRANCH   5   6
ATOM      6  C   UNL     1       3.138  -0.604  -1.230  1.00  0.00     0.202 C 
BRANCH   6   7
ATOM      7  C   UNL     1       2.612  -1.350  -0.004  1.00  0.00     0.261 C 
BRANCH   7   8
ATOM      8  O   UNL     1       2.017  -0.470   0.970  1.00  0.00    -0.460 OA
BRANCH   8   9
ATOM      9  C   UNL     1       2.551  -0.458   2.214  1.00  0.00     0.338 C 
ATOM     10  O   UNL     1       2.026  -1.011   3.169  1.00  0.00    -0.246 OA
BRANCH   9  11
ATOM     11  C   UNL     1       3.727   0.443   2.357  1.00  0.00     0.087 C 
ATOM     12  C   UNL     1       4.785  -0.193   2.890  1.00  0.00     0.027 C 
ATOM     13  C   UNL     1       3.893   1.516   1.312  1.00  0.00     0.316 C 
ATOM     14  C   UNL     1       5.904  -0.372   1.963  1.00  0.00     0.018 A 
ATOM     15  O   UNL     1       5.079   1.381   0.493  1.00  0.00    -0.475 OA
ATOM     16  C   UNL     1       6.885  -1.338   2.222  1.00  0.00     0.025 A 
ATOM     17  C   UNL     1       5.923   0.337   0.762  1.00  0.00     0.128 A 
ATOM     18  C   UNL     1       7.839  -1.655   1.242  1.00  0.00     0.056 A 
ATOM     19  C   UNL     1       6.818  -0.024  -0.241  1.00  0.00     0.048 A 
ATOM     20  C   UNL     1       7.749  -1.039  -0.016  1.00  0.00     0.017 A 
BRANCH  13  21
ATOM     21  C   UNL     1       3.760   2.917   1.914  1.00  0.00     0.430 C 
ATOM     22  F   UNL     1       3.481   3.840   0.962  1.00  0.00    -0.167 F 
ATOM     23  F   UNL     1       2.737   2.971   2.806  1.00  0.00    -0.167 F 
ATOM     24  F   UNL     1       4.875   3.319   2.562  1.00  0.00    -0.167 F 
ENDBRANCH  13  21
BRANCH  18  25
ATOM     25  C   UNL     1       9.002  -2.570   1.542  1.00  0.00     0.416 C 
ATOM     26  F   UNL     1      10.155  -1.862   1.713  1.00  0.00    -0.166 F 
ATOM     27  F   UNL     1       8.847  -3.299   2.682  1.00  0.00    -0.166 F 
ATOM     28  F   UNL     1       9.257  -3.463   0.550  1.00  0.00    -0.166 F 
ENDBRANCH  18  25
ENDBRANCH   9  11
ENDBRANCH   8   9
ENDBRANCH   7   8
ENDBRANCH   6   7
ENDBRANCH   5   6
ENDBRANCH   4   5
ENDBRANCH   3   4
ENDBRANCH   2   3
ENDBRANCH   1   2
BRANCH   1  29
ATOM     29  C   UNL     1       4.212   1.550  -3.776  1.00  0.00     0.188 C 
BRANCH  29  30
ATOM     30  O   UNL     1       4.243   2.973  -3.741  1.00  0.00    -0.376 OA
BRANCH  30  31
ATOM     31  C   UNL     1       3.177   3.708  -4.308  1.00  0.00     0.202 C 
BRANCH  31  32
ATOM     32  C   UNL     1       3.152   3.779  -5.844  1.00  0.00     0.261 C 
BRANCH  32  33
ATOM     33  O   UNL     1       3.514   2.559  -6.514  1.00  0.00    -0.460 OA
BRANCH  33  34
ATOM     34  C   UNL     1       4.830   2.421  -6.846  1.00  0.00     0.338 C 
ATOM     35  O   UNL     1       5.684   3.271  -6.786  1.00  0.00    -0.246 OA
BRANCH  34  36
ATOM     36  C   UNL     1       5.119   0.976  -7.108  1.00  0.00     0.060 A 
ATOM     37  C   UNL     1       6.273   0.428  -6.527  1.00  0.00     0.016 A 
ATOM     38  C   UNL     1       4.256   0.151  -7.836  1.00  0.00     0.016 A 
ATOM     39  C   UNL     1       6.569  -0.933  -6.671  1.00  0.00     0.010 A 
ATOM     40  C   UNL     1       4.567  -1.208  -8.003  1.00  0.00     0.010 A 
ATOM     41  C   UNL     1       5.737  -1.754  -7.441  1.00  0.00    -0.014 A 
BRANCH  41  42
ATOM     42  C   UNL     1       6.196  -3.110  -7.850  1.00  0.00     0.031 A 
ATOM     43  C   UNL     1       6.870  -3.246  -9.191  1.00  0.00     0.074 A 
ATOM     44  C   UNL     1       6.011  -4.204  -7.085  1.00  0.00     0.049 A 
ATOM     45  N   UNL     1       7.265  -4.322  -9.817  1.00  0.00    -0.248 NA
ATOM     46  C   UNL     1       7.128  -1.994  -9.924  1.00  0.00     0.031 C 
ATOM     47  C   UNL     1       5.401  -4.220  -5.757  1.00  0.00     0.029 A 
ATOM     48  N   UNL     1       6.290  -5.527  -7.341  1.00  0.00    -0.354 N 
ATOM     49  C   UNL     1       7.776  -3.884 -11.033  1.00  0.00     0.074 A 
ATOM     50  C   UNL     1       7.653  -2.444 -11.053  1.00  0.00     0.031 C 
ATOM     51  C   UNL     1       5.307  -5.495  -5.336  1.00  0.00     0.029 A 
ATOM     52  C   UNL     1       5.818  -6.389  -6.376  1.00  0.00     0.049 A 
ATOM     53  H   UNL     1       6.782  -5.829  -8.139  1.00  0.00     0.167 HD
ATOM     54  C   UNL     1       8.303  -4.611 -12.044  1.00  0.00     0.034 A 
ATOM     55  C   UNL     1       5.762  -7.739  -6.356  1.00  0.00     0.034 A 
ATOM     56  C   UNL     1       8.451  -6.040 -12.026  1.00  0.00     0.049 A 
ATOM     57  C   UNL     1       6.315  -8.527  -7.522  1.00  0.00     0.074 A 
ATOM     58  C   UNL     1       9.034  -6.852 -12.982  1.00  0.00     0.029 A 
ATOM     59  N   UNL     1       7.992  -6.870 -11.019  1.00  0.00    -0.354 N 
ATOM     60  N   UNL     1       6.915  -8.094  -8.604  1.00  0.00    -0.248 NA
ATOM     61  C   UNL     1       6.199  -9.994  -7.455  1.00  0.00     0.031 C 
ATOM     62  C   UNL     1       8.887  -8.180 -12.573  1.00  0.00     0.029 A 
ATOM     63  C   UNL     1       8.249  -8.190 -11.344  1.00  0.00     0.049 A 
ATOM     64  H   UNL     1       7.548  -6.568 -10.194  1.00  0.00     0.167 HD
ATOM     65  C   UNL     1       7.271  -9.230  -9.327  1.00  0.00     0.074 A 
ATOM     66  C   UNL     1       6.848 -10.373  -8.547  1.00  0.00     0.031 C 
ATOM     67  C   UNL     1       7.874  -9.321 -10.538  1.00  0.00     0.034 A 
BRANCH  54  68
ATOM     68  C   UNL     1       8.768  -3.878 -13.272  1.00  0.00     0.023 A 
ATOM     69  C   UNL     1       9.970  -3.145 -13.240  1.00  0.00     0.012 A 
ATOM     70  C   UNL     1       8.056  -3.997 -14.481  1.00  0.00     0.148 A 
ATOM     71  C   UNL     1      10.450  -2.528 -14.394  1.00  0.00     0.002 A 
ATOM     72  C   UNL     1       8.563  -3.418 -15.636  1.00  0.00     0.091 A 
ATOM     73  F   UNL     1       6.903  -4.681 -14.477  1.00  0.00    -0.205 F 
ATOM     74  C   UNL     1       9.755  -2.675 -15.593  1.00  0.00     0.022 A 
BRANCH  72  75
ATOM     75  S   UNL     1       7.788  -3.618 -17.243  1.00  0.00     0.127 S 
ATOM     76  O   UNL     1       7.382  -2.246 -17.547  1.00  0.00    -0.237 OA
ATOM     77  O   UNL     1       8.896  -4.120 -18.054  1.00  0.00    -0.237 OA
ATOM     78  O   UNL     1       6.694  -4.558 -17.050  1.00  0.00    -0.744 OA
ENDBRANCH  72  75
ENDBRANCH  54  68
BRANCH  55  79
ATOM     79  C   UNL     1       5.132  -8.459  -5.208  1.00  0.00     0.023 A 
ATOM     80  C   UNL     1       5.912  -9.301  -4.391  1.00  0.00     0.012 A 
ATOM     81  C   UNL     1       3.751  -8.348  -4.952  1.00  0.00     0.148 A 
ATOM     82  C   UNL     1       5.322 -10.052  -3.371  1.00  0.00     0.002 A 
ATOM     83  C   UNL     1       3.182  -9.048  -3.894  1.00  0.00     0.091 A 
ATOM     84  F   UNL     1       3.015  -7.567  -5.755  1.00  0.00    -0.205 F 
ATOM     85  C   UNL     1       3.960  -9.919  -3.117  1.00  0.00     0.022 A 
BRANCH  83  86
ATOM     86  S   UNL     1       1.466  -8.825  -3.412  1.00  0.00     0.127 S 
ATOM     87  O   UNL     1       0.864 -10.081  -3.848  1.00  0.00    -0.237 OA
ATOM     88  O   UNL     1       1.579  -8.663  -1.962  1.00  0.00    -0.237 OA
ATOM     89  O   UNL     1       1.018  -7.626  -4.110  1.00  0.00    -0.744 OA
ENDBRANCH  83  86
ENDBRANCH  55  79
BRANCH  67  90
ATOM     90  C   UNL     1       8.148 -10.696 -11.096  1.00  0.00     0.023 A 
ATOM     91  C   UNL     1       7.081 -11.485 -11.569  1.00  0.00     0.012 A 
ATOM     92  C   UNL     1       9.469 -11.167 -11.233  1.00  0.00     0.148 A 
ATOM     93  C   UNL     1       7.322 -12.734 -12.141  1.00  0.00     0.002 A 
ATOM     94  C   UNL     1       9.706 -12.390 -11.850  1.00  0.00     0.091 A 
ATOM     95  F   UNL     1      10.470 -10.406 -10.767  1.00  0.00    -0.205 F 
ATOM     96  C   UNL     1       8.633 -13.181 -12.293  1.00  0.00     0.022 A 
BRANCH  94  97
ATOM     97  S   UNL     1      11.362 -13.006 -12.176  1.00  0.00     0.127 S 
ATOM     98  O   UNL     1      11.439 -14.148 -11.266  1.00  0.00    -0.237 OA
ATOM     99  O   UNL     1      11.286 -13.359 -13.594  1.00  0.00    -0.237 OA
ATOM    100  O   UNL     1      12.269 -11.907 -11.872  1.00  0.00    -0.744 OA
ENDBRANCH  94  97
ENDBRANCH  67  90
ENDBRANCH  41  42
ENDBRANCH  34  36
ENDBRANCH  33  34
ENDBRANCH  32  33
ENDBRANCH  31  32
ENDBRANCH  30  31
ENDBRANCH  29  30
ENDBRANCH   1  29
TORSDOF 25
