REMARK SMILES NS(=O)(=O)c1ccc(-n2nc(NC(=O)NCCCCCCCCCCC(=O)OCCOCCOCCOCCOC(=O)c3ccc(-c4c5nc(c(-c6cccc(S(=O)(=O)[O-])c6F)c6ccc([nH]6)c(-c6cccc(S(=O)(=O)[O-])c6F)c6nc(c(-c7cccc(S(=O)(=O)[O-])c7F)c7ccc4[nH]7)C=C6)C=C5)cc3)cc2-c2ccccc2)cc1
REMARK SMILES IDX 29 1 28 2 26 3 27 4 25 5 24 6 23 7 22 8 21 9 20 10 19 11
REMARK SMILES IDX 18 12 17 13 16 14 15 15 12 16 13 17 14 19 11 21 9 22 10 23
REMARK SMILES IDX 107 24 106 25 8 26 5 27 6 28 115 29 7 30 114 31 2 32 3 33
REMARK SMILES IDX 4 34 1 35 108 38 109 39 113 40 110 41 112 42 111 43 30 44
REMARK SMILES IDX 31 45 32 46 33 47 34 48 35 49 36 50 37 51 38 52 39 53 40 54
REMARK SMILES IDX 41 55 42 56 43 57 44 58 105 59 45 60 104 61 46 62 47 63
REMARK SMILES IDX 48 64 98 65 49 66 103 67 97 68 99 69 50 70 102 71 96 72
REMARK SMILES IDX 95 73 51 75 83 76 63 77 82 78 64 79 67 80 81 81 100 82 65 83
REMARK SMILES IDX 66 84 80 86 101 87 68 88 52 89 53 90 61 91 54 92 56 93 62 94
REMARK SMILES IDX 55 95 57 96 58 97 59 98 60 99 84 100 85 101 93 102 86 103
REMARK SMILES IDX 88 104 94 105 87 106 89 107 90 108 91 109 92 110 69 111
REMARK SMILES IDX 70 112 78 113 71 114 73 115 79 116 72 117 74 118 75 119
REMARK SMILES IDX 76 120 77 121
REMARK H PARENT 12 18 15 20 1 36 1 37 99 74 67 85
REMARK Flexibility Score: inf
ROOT
ATOM      1  C   UNL     1       6.827   1.433   4.712  1.00  0.00     0.261 C 
ENDROOT
BRANCH   1   2
ATOM      2  O   UNL     1       5.909   1.232   3.622  1.00  0.00    -0.463 OA
BRANCH   2   3
ATOM      3  C   UNL     1       6.185   0.228   2.762  1.00  0.00     0.305 C 
ATOM      4  O   UNL     1       7.168  -0.503   2.840  1.00  0.00    -0.252 OA
BRANCH   3   5
ATOM      5  C   UNL     1       5.136   0.012   1.685  1.00  0.00     0.123 C 
BRANCH   5   6
ATOM      6  C   UNL     1       3.997   1.000   1.427  1.00  0.00     0.012 C 
BRANCH   6   7
ATOM      7  C   UNL     1       4.331   2.493   1.433  1.00  0.00     0.001 C 
BRANCH   7   8
ATOM      8  C   UNL     1       5.340   2.893   0.363  1.00  0.00     0.000 C 
BRANCH   8   9
ATOM      9  C   UNL     1       4.789   2.794  -1.058  1.00  0.00     0.000 C 
BRANCH   9  10
ATOM     10  C   UNL     1       3.604   3.720  -1.348  1.00  0.00     0.000 C 
BRANCH  10  11
ATOM     11  C   UNL     1       3.859   5.213  -1.105  1.00  0.00     0.000 C 
BRANCH  11  12
ATOM     12  C   UNL     1       5.071   5.813  -1.830  1.00  0.00     0.002 C 
BRANCH  12  13
ATOM     13  C   UNL     1       5.195   5.479  -3.318  1.00  0.00     0.021 C 
BRANCH  13  14
ATOM     14  C   UNL     1       3.948   5.758  -4.144  1.00  0.00     0.117 C 
BRANCH  14  15
ATOM     15  N   UNL     1       3.750   7.156  -4.451  1.00  0.00    -0.338 N 
ATOM     16  N   UNL     1       2.569   7.014  -6.509  1.00  0.00    -0.291 N 
ATOM     17  C   UNL     1       3.197   7.721  -5.545  1.00  0.00     0.320 C 
ATOM     18  H   UNL     1       2.550   7.457  -7.388  1.00  0.00     0.173 HD
ATOM     19  O   UNL     1       3.393   8.926  -5.734  1.00  0.00    -0.248 OA
ATOM     20  H   UNL     1       4.063   7.787  -3.763  1.00  0.00     0.165 HD
BRANCH  16  21
ATOM     21  C   UNL     1       1.950   5.785  -6.484  1.00  0.00     0.157 A 
ATOM     22  N   UNL     1       1.225   3.904  -5.797  1.00  0.00    -0.231 N 
ATOM     23  N   UNL     1       1.490   5.166  -5.400  1.00  0.00    -0.149 NA
ATOM     24  C   UNL     1       1.220   3.798  -7.185  1.00  0.00     0.076 A 
ATOM     25  C   UNL     1       1.688   5.018  -7.638  1.00  0.00     0.078 A 
BRANCH  22  26
ATOM     26  C   UNL     1       1.106   2.876  -4.821  1.00  0.00     0.065 A 
ATOM     27  C   UNL     1       0.760   0.832  -2.957  1.00  0.00     0.082 A 
ATOM     28  C   UNL     1       1.473   0.581  -4.132  1.00  0.00     0.024 A 
ATOM     29  C   UNL     1       0.266   2.112  -2.680  1.00  0.00     0.024 A 
ATOM     30  C   UNL     1       1.638   1.602  -5.067  1.00  0.00     0.030 A 
ATOM     31  C   UNL     1       0.464   3.145  -3.604  1.00  0.00     0.030 A 
BRANCH  27  32
ATOM     32  S   UNL     1       0.424  -0.503  -1.849  1.00  0.00     0.238 S 
ATOM     33  O   UNL     1       1.264  -1.629  -2.196  1.00  0.00    -0.207 OA
ATOM     34  O   UNL     1      -1.001  -0.628  -1.683  1.00  0.00    -0.207 OA
BRANCH  32  35
ATOM     35  N   UNL     1       1.027   0.045  -0.384  1.00  0.00    -0.225 NA
ATOM     36  H   UNL     1       0.878  -0.667   0.332  1.00  0.00     0.137 HD
ATOM     37  H   UNL     1       0.544   0.902  -0.116  1.00  0.00     0.137 HD
ENDBRANCH  32  35
ENDBRANCH  27  32
ENDBRANCH  22  26
BRANCH  24  38
ATOM     38  C   UNL     1       0.775   2.630  -7.944  1.00  0.00     0.000 A 
ATOM     39  C   UNL     1      -0.440   2.000  -7.639  1.00  0.00     0.010 A 
ATOM     40  C   UNL     1       1.570   2.110  -8.973  1.00  0.00     0.010 A 
ATOM     41  C   UNL     1      -0.834   0.850  -8.322  1.00  0.00     0.001 A 
ATOM     42  C   UNL     1       1.171   0.962  -9.661  1.00  0.00     0.001 A 
ATOM     43  C   UNL     1      -0.027   0.329  -9.331  1.00  0.00     0.000 A 
ENDBRANCH  24  38
ENDBRANCH  16  21
ENDBRANCH  14  15
ENDBRANCH  13  14
ENDBRANCH  12  13
ENDBRANCH  11  12
ENDBRANCH  10  11
ENDBRANCH   9  10
ENDBRANCH   8   9
ENDBRANCH   7   8
ENDBRANCH   6   7
ENDBRANCH   5   6
ENDBRANCH   3   5
ENDBRANCH   2   3
ENDBRANCH   1   2
BRANCH   1  44
ATOM     44  C   UNL     1       6.151   1.515   6.085  1.00  0.00     0.202 C 
BRANCH  44  45
ATOM     45  O   UNL     1       5.175   0.531   6.398  1.00  0.00    -0.376 OA
BRANCH  45  46
ATOM     46  C   UNL     1       4.029   0.398   5.559  1.00  0.00     0.188 C 
BRANCH  46  47
ATOM     47  C   UNL     1       3.358   1.639   4.933  1.00  0.00     0.188 C 
BRANCH  47  48
ATOM     48  O   UNL     1       3.911   2.892   5.290  1.00  0.00    -0.377 OA
BRANCH  48  49
ATOM     49  C   UNL     1       3.135   3.643   6.213  1.00  0.00     0.188 C 
BRANCH  49  50
ATOM     50  C   UNL     1       2.801   2.916   7.527  1.00  0.00     0.188 C 
BRANCH  50  51
ATOM     51  O   UNL     1       2.138   1.661   7.346  1.00  0.00    -0.376 OA
BRANCH  51  52
ATOM     52  C   UNL     1       0.742   1.604   7.614  1.00  0.00     0.202 C 
BRANCH  52  53
ATOM     53  C   UNL     1      -0.140   2.040   6.440  1.00  0.00     0.261 C 
BRANCH  53  54
ATOM     54  O   UNL     1       0.077   3.374   5.990  1.00  0.00    -0.460 OA
BRANCH  54  55
ATOM     55  C   UNL     1      -0.069   4.336   6.922  1.00  0.00     0.338 C 
ATOM     56  O   UNL     1      -0.265   4.177   8.115  1.00  0.00    -0.246 OA
BRANCH  55  57
ATOM     57  C   UNL     1      -0.023   5.655   6.287  1.00  0.00     0.060 A 
ATOM     58  C   UNL     1      -0.038   6.745   7.158  1.00  0.00     0.016 A 
ATOM     59  C   UNL     1      -0.245   5.796   4.908  1.00  0.00     0.016 A 
ATOM     60  C   UNL     1      -0.533   7.937   6.691  1.00  0.00     0.010 A 
ATOM     61  C   UNL     1      -0.741   6.994   4.441  1.00  0.00     0.010 A 
ATOM     62  C   UNL     1      -0.979   8.005   5.366  1.00  0.00    -0.014 A 
BRANCH  62  63
ATOM     63  C   UNL     1      -1.830   9.127   5.045  1.00  0.00     0.031 A 
ATOM     64  C   UNL     1      -1.151  10.416   4.861  1.00  0.00     0.074 A 
ATOM     65  C   UNL     1      -3.167   9.002   4.964  1.00  0.00     0.049 A 
ATOM     66  N   UNL     1      -1.183  11.435   5.653  1.00  0.00    -0.248 NA
ATOM     67  C   UNL     1      -0.249  10.548   3.714  1.00  0.00     0.031 C 
ATOM     68  C   UNL     1      -3.951   7.770   4.841  1.00  0.00     0.029 A 
ATOM     69  N   UNL     1      -4.098   9.987   4.847  1.00  0.00    -0.354 N 
ATOM     70  C   UNL     1      -0.469  12.426   4.995  1.00  0.00     0.074 A 
ATOM     71  C   UNL     1       0.210  11.786   3.894  1.00  0.00     0.031 C 
ATOM     72  C   UNL     1      -5.193   8.090   4.414  1.00  0.00     0.029 A 
ATOM     73  C   UNL     1      -5.317   9.538   4.369  1.00  0.00     0.049 A 
ATOM     74  H   UNL     1      -3.922  10.928   5.079  1.00  0.00     0.167 HD
ATOM     75  C   UNL     1      -0.656  13.743   5.267  1.00  0.00     0.034 A 
ATOM     76  C   UNL     1      -6.312  10.311   3.880  1.00  0.00     0.034 A 
ATOM     77  C   UNL     1      -1.385  13.964   6.485  1.00  0.00     0.049 A 
ATOM     78  C   UNL     1      -6.116  11.688   4.393  1.00  0.00     0.074 A 
ATOM     79  C   UNL     1      -1.197  13.644   7.814  1.00  0.00     0.029 A 
ATOM     80  N   UNL     1      -2.695  14.358   6.368  1.00  0.00    -0.354 N 
ATOM     81  N   UNL     1      -6.290  12.038   5.637  1.00  0.00    -0.248 NA
ATOM     82  C   UNL     1      -5.372  12.636   3.579  1.00  0.00     0.031 C 
ATOM     83  C   UNL     1      -2.506  13.456   8.344  1.00  0.00     0.029 A 
ATOM     84  C   UNL     1      -3.417  13.671   7.308  1.00  0.00     0.049 A 
ATOM     85  H   UNL     1      -3.050  15.015   5.727  1.00  0.00     0.167 HD
ATOM     86  C   UNL     1      -5.331  13.017   5.866  1.00  0.00     0.074 A 
ATOM     87  C   UNL     1      -4.900  13.437   4.537  1.00  0.00     0.031 C 
ATOM     88  C   UNL     1      -4.767  13.186   7.100  1.00  0.00     0.034 A 
BRANCH  75  89
ATOM     89  C   UNL     1      -0.444  14.839   4.265  1.00  0.00     0.023 A 
ATOM     90  C   UNL     1      -0.325  16.159   4.744  1.00  0.00     0.012 A 
ATOM     91  C   UNL     1      -0.594  14.664   2.872  1.00  0.00     0.148 A 
ATOM     92  C   UNL     1      -0.362  17.254   3.875  1.00  0.00     0.002 A 
ATOM     93  C   UNL     1      -0.533  15.747   2.006  1.00  0.00     0.091 A 
ATOM     94  F   UNL     1      -0.929  13.464   2.380  1.00  0.00    -0.205 F 
ATOM     95  C   UNL     1      -0.445  17.048   2.503  1.00  0.00     0.022 A 
BRANCH  93  96
ATOM     96  S   UNL     1      -0.539  15.490   0.231  1.00  0.00     0.127 S 
ATOM     97  O   UNL     1      -1.958  15.616  -0.083  1.00  0.00    -0.237 OA
ATOM     98  O   UNL     1       0.302  16.589  -0.244  1.00  0.00    -0.237 OA
ATOM     99  O   UNL     1       0.056  14.170   0.054  1.00  0.00    -0.744 OA
ENDBRANCH  93  96
ENDBRANCH  75  89
BRANCH  76 100
ATOM    100  C   UNL     1      -7.300   9.984   2.830  1.00  0.00     0.023 A 
ATOM    101  C   UNL     1      -8.497  10.719   2.749  1.00  0.00     0.012 A 
ATOM    102  C   UNL     1      -6.976   9.117   1.761  1.00  0.00     0.148 A 
ATOM    103  C   UNL     1      -9.335  10.608   1.634  1.00  0.00     0.002 A 
ATOM    104  C   UNL     1      -7.823   8.992   0.665  1.00  0.00     0.091 A 
ATOM    105  F   UNL     1      -5.794   8.485   1.770  1.00  0.00    -0.205 F 
ATOM    106  C   UNL     1      -8.999   9.747   0.593  1.00  0.00     0.022 A 
BRANCH 104 107
ATOM    107  S   UNL     1      -7.444   7.886  -0.700  1.00  0.00     0.127 S 
ATOM    108  O   UNL     1      -8.755   7.309  -1.004  1.00  0.00    -0.237 OA
ATOM    109  O   UNL     1      -6.933   8.810  -1.708  1.00  0.00    -0.237 OA
ATOM    110  O   UNL     1      -6.484   6.925  -0.168  1.00  0.00    -0.744 OA
ENDBRANCH 104 107
ENDBRANCH  76 100
BRANCH  88 111
ATOM    111  C   UNL     1      -5.424  12.523   8.288  1.00  0.00     0.023 A 
ATOM    112  C   UNL     1      -5.577  11.123   8.360  1.00  0.00     0.012 A 
ATOM    113  C   UNL     1      -5.723  13.295   9.426  1.00  0.00     0.148 A 
ATOM    114  C   UNL     1      -6.049  10.510   9.522  1.00  0.00     0.002 A 
ATOM    115  C   UNL     1      -6.145  12.675  10.599  1.00  0.00     0.091 A 
ATOM    116  F   UNL     1      -5.565  14.626   9.356  1.00  0.00    -0.205 F 
ATOM    117  C   UNL     1      -6.321  11.284  10.647  1.00  0.00     0.022 A 
BRANCH 115 118
ATOM    118  S   UNL     1      -6.367  13.608  12.118  1.00  0.00     0.127 S 
ATOM    119  O   UNL     1      -7.805  13.865  12.116  1.00  0.00    -0.237 OA
ATOM    120  O   UNL     1      -5.918  12.665  13.145  1.00  0.00    -0.237 OA
ATOM    121  O   UNL     1      -5.511  14.781  11.983  1.00  0.00    -0.744 OA
ENDBRANCH 115 118
ENDBRANCH  88 111
ENDBRANCH  62  63
ENDBRANCH  55  57
ENDBRANCH  54  55
ENDBRANCH  53  54
ENDBRANCH  52  53
ENDBRANCH  51  52
ENDBRANCH  50  51
ENDBRANCH  49  50
ENDBRANCH  48  49
ENDBRANCH  47  48
ENDBRANCH  46  47
ENDBRANCH  45  46
ENDBRANCH  44  45
ENDBRANCH   1  44
TORSDOF 38
