REMARK SMILES Cc1ccc(OCCn2ccnc2)c(/C=C/C(=O)OCCOCCOCCOCCOC(=O)c2ccc(-c3c4nc(c(-c5cccc(S(=O)(=O)[O-])c5F)c5ccc([nH]5)c(-c5cccc(S(=O)(=O)[O-])c5F)c5nc(c(-c6cccc(S(=O)(=O)[O-])c6F)c6ccc3[nH]6)C=C5)C=C4)cc2)n1
REMARK SMILES IDX 24 1 23 2 22 3 21 4 20 5 19 6 17 7 18 8 16 9 15 10 14 11
REMARK SMILES IDX 1 12 2 13 3 14 97 15 4 16 5 17 6 18 7 19 8 20 9 21 10 22
REMARK SMILES IDX 13 23 11 24 12 25 25 26 26 27 27 28 28 29 29 30 30 31 31 32
REMARK SMILES IDX 32 33 33 34 34 35 35 36 96 37 36 38 95 39 37 40 38 41 39 42
REMARK SMILES IDX 89 43 40 44 94 45 88 46 90 47 41 48 93 49 87 50 86 51 42 53
REMARK SMILES IDX 74 54 54 55 73 56 55 57 58 58 72 59 91 60 56 61 57 62 71 64
REMARK SMILES IDX 92 65 59 66 43 67 44 68 52 69 45 70 47 71 53 72 46 73 48 74
REMARK SMILES IDX 49 75 50 76 51 77 75 78 76 79 84 80 77 81 79 82 85 83 78 84
REMARK SMILES IDX 80 85 81 86 82 87 83 88 60 89 61 90 69 91 62 92 64 93 70 94
REMARK SMILES IDX 63 95 65 96 66 97 67 98 68 99
REMARK H PARENT 90 52 58 63
REMARK Flexibility Score: inf
ROOT
ATOM      1  C   UNL     1      -1.782   5.139   2.032  1.00  0.00     0.188 C 
ENDROOT
BRANCH   1   2
ATOM      2  C   UNL     1      -0.876   6.086   1.215  1.00  0.00     0.188 C 
BRANCH   2   3
ATOM      3  O   UNL     1      -1.358   7.315   0.684  1.00  0.00    -0.376 OA
BRANCH   3   4
ATOM      4  C   UNL     1      -2.623   7.422   0.055  1.00  0.00     0.202 C 
BRANCH   4   5
ATOM      5  C   UNL     1      -3.176   6.372  -0.922  1.00  0.00     0.261 C 
BRANCH   5   6
ATOM      6  O   UNL     1      -2.681   5.041  -0.791  1.00  0.00    -0.460 OA
BRANCH   6   7
ATOM      7  C   UNL     1      -1.652   4.711  -1.601  1.00  0.00     0.330 C 
ATOM      8  O   UNL     1      -1.151   5.415  -2.464  1.00  0.00    -0.247 OA
BRANCH   7   9
ATOM      9  C   UNL     1      -1.078   3.408  -1.209  1.00  0.00     0.096 C 
ATOM     10  C   UNL     1      -1.750   2.439  -0.565  1.00  0.00     0.040 C 
BRANCH  10  11
ATOM     11  C   UNL     1      -1.101   1.208  -0.073  1.00  0.00     0.105 A 
ATOM     12  C   UNL     1       2.406   0.116   0.210  1.00  0.00     0.067 C 
ATOM     13  C   UNL     1       0.915   0.125   0.352  1.00  0.00     0.038 A 
ATOM     14  C   UNL     1       0.259  -0.938   0.952  1.00  0.00     0.027 A 
ATOM     15  N   UNL     1       0.259   1.211  -0.117  1.00  0.00    -0.250 NA
ATOM     16  C   UNL     1      -1.133  -0.934   0.989  1.00  0.00     0.050 A 
ATOM     17  C   UNL     1      -1.840   0.118   0.409  1.00  0.00     0.145 A 
BRANCH  17  18
ATOM     18  O   UNL     1      -3.200   0.124   0.245  1.00  0.00    -0.489 OA
BRANCH  18  19
ATOM     19  C   UNL     1      -3.848  -1.140   0.034  1.00  0.00     0.251 C 
BRANCH  19  20
ATOM     20  C   UNL     1      -3.699  -1.679  -1.397  1.00  0.00     0.164 C 
BRANCH  20  21
ATOM     21  N   UNL     1      -2.402  -2.253  -1.698  1.00  0.00    -0.334 N 
ATOM     22  C   UNL     1      -1.368  -1.626  -2.337  1.00  0.00     0.107 A 
ATOM     23  C   UNL     1      -1.994  -3.525  -1.411  1.00  0.00     0.199 A 
ATOM     24  C   UNL     1      -0.334  -2.532  -2.315  1.00  0.00     0.130 A 
ATOM     25  N   UNL     1      -0.740  -3.717  -1.757  1.00  0.00    -0.245 NA
ENDBRANCH  20  21
ENDBRANCH  19  20
ENDBRANCH  18  19
ENDBRANCH  17  18
ENDBRANCH  10  11
ENDBRANCH   7   9
ENDBRANCH   6   7
ENDBRANCH   5   6
ENDBRANCH   4   5
ENDBRANCH   3   4
ENDBRANCH   2   3
ENDBRANCH   1   2
BRANCH   1  26
ATOM     26  O   UNL     1      -3.166   5.434   1.935  1.00  0.00    -0.377 OA
BRANCH  26  27
ATOM     27  C   UNL     1      -3.726   6.180   3.015  1.00  0.00     0.188 C 
BRANCH  27  28
ATOM     28  C   UNL     1      -2.954   7.419   3.534  1.00  0.00     0.188 C 
BRANCH  28  29
ATOM     29  O   UNL     1      -1.545   7.248   3.630  1.00  0.00    -0.376 OA
BRANCH  29  30
ATOM     30  C   UNL     1      -0.911   7.089   4.888  1.00  0.00     0.202 C 
BRANCH  30  31
ATOM     31  C   UNL     1      -1.231   5.825   5.674  1.00  0.00     0.261 C 
BRANCH  31  32
ATOM     32  O   UNL     1      -2.611   5.524   5.733  1.00  0.00    -0.460 OA
BRANCH  32  33
ATOM     33  C   UNL     1      -3.337   6.377   6.480  1.00  0.00     0.338 C 
ATOM     34  O   UNL     1      -3.054   7.514   6.805  1.00  0.00    -0.246 OA
BRANCH  33  35
ATOM     35  C   UNL     1      -4.479   5.638   6.999  1.00  0.00     0.060 A 
ATOM     36  C   UNL     1      -5.499   6.386   7.585  1.00  0.00     0.016 A 
ATOM     37  C   UNL     1      -4.329   4.257   7.196  1.00  0.00     0.016 A 
ATOM     38  C   UNL     1      -6.267   5.774   8.544  1.00  0.00     0.010 A 
ATOM     39  C   UNL     1      -5.067   3.661   8.179  1.00  0.00     0.010 A 
ATOM     40  C   UNL     1      -5.977   4.448   8.881  1.00  0.00    -0.014 A 
BRANCH  40  41
ATOM     41  C   UNL     1      -6.793   3.811   9.886  1.00  0.00     0.031 A 
ATOM     42  C   UNL     1      -8.131   3.482   9.344  1.00  0.00     0.074 A 
ATOM     43  C   UNL     1      -6.277   3.471  11.083  1.00  0.00     0.049 A 
ATOM     44  N   UNL     1      -9.271   3.957   9.717  1.00  0.00    -0.248 NA
ATOM     45  C   UNL     1      -8.190   2.720   8.080  1.00  0.00     0.031 C 
ATOM     46  C   UNL     1      -4.865   3.562  11.481  1.00  0.00     0.029 A 
ATOM     47  N   UNL     1      -6.852   2.822  12.132  1.00  0.00    -0.354 N 
ATOM     48  C   UNL     1     -10.202   3.298   8.916  1.00  0.00     0.074 A 
ATOM     49  C   UNL     1      -9.485   2.803   7.780  1.00  0.00     0.031 C 
ATOM     50  C   UNL     1      -4.657   2.761  12.548  1.00  0.00     0.029 A 
ATOM     51  C   UNL     1      -5.926   2.193  12.964  1.00  0.00     0.049 A 
ATOM     52  H   UNL     1      -7.824   2.797  12.287  1.00  0.00     0.167 HD
ATOM     53  C   UNL     1     -11.371   2.870   9.460  1.00  0.00     0.034 A 
ATOM     54  C   UNL     1      -6.180   1.200  13.851  1.00  0.00     0.034 A 
ATOM     55  C   UNL     1     -11.650   3.593  10.676  1.00  0.00     0.049 A 
ATOM     56  C   UNL     1      -7.637   1.203  14.104  1.00  0.00     0.074 A 
ATOM     57  C   UNL     1     -11.895   4.906  11.014  1.00  0.00     0.029 A 
ATOM     58  N   UNL     1     -11.273   2.936  11.818  1.00  0.00    -0.354 N 
ATOM     59  N   UNL     1      -8.262   2.155  14.737  1.00  0.00    -0.248 NA
ATOM     60  C   UNL     1      -8.484   0.299  13.336  1.00  0.00     0.031 C 
ATOM     61  C   UNL     1     -11.403   5.057  12.343  1.00  0.00     0.029 A 
ATOM     62  C   UNL     1     -10.926   3.824  12.793  1.00  0.00     0.049 A 
ATOM     63  H   UNL     1     -11.255   1.957  11.921  1.00  0.00     0.167 HD
ATOM     64  C   UNL     1      -9.479   2.249  14.081  1.00  0.00     0.074 A 
ATOM     65  C   UNL     1      -9.629   0.985  13.372  1.00  0.00     0.031 C 
ATOM     66  C   UNL     1     -10.079   3.462  13.911  1.00  0.00     0.034 A 
BRANCH  53  67
ATOM     67  C   UNL     1     -11.959   1.480   9.233  1.00  0.00     0.023 A 
ATOM     68  C   UNL     1     -13.159   1.192   9.925  1.00  0.00     0.012 A 
ATOM     69  C   UNL     1     -11.279   0.372   8.668  1.00  0.00     0.148 A 
ATOM     70  C   UNL     1     -13.603  -0.120  10.122  1.00  0.00     0.002 A 
ATOM     71  C   UNL     1     -11.758  -0.925   8.809  1.00  0.00     0.091 A 
ATOM     72  F   UNL     1     -10.095   0.526   8.078  1.00  0.00    -0.205 F 
ATOM     73  C   UNL     1     -12.901  -1.181   9.566  1.00  0.00     0.022 A 
BRANCH  71  74
ATOM     74  S   UNL     1     -10.904  -2.334   8.082  1.00  0.00     0.127 S 
ATOM     75  O   UNL     1     -10.431  -3.035   9.272  1.00  0.00    -0.237 OA
ATOM     76  O   UNL     1     -11.991  -2.995   7.360  1.00  0.00    -0.237 OA
ATOM     77  O   UNL     1      -9.867  -1.777   7.222  1.00  0.00    -0.744 OA
ENDBRANCH  71  74
ENDBRANCH  53  67
BRANCH  54  78
ATOM     78  C   UNL     1      -5.321   0.088  14.330  1.00  0.00     0.023 A 
ATOM     79  C   UNL     1      -5.694  -0.617  15.494  1.00  0.00     0.012 A 
ATOM     80  C   UNL     1      -4.305  -0.466  13.521  1.00  0.00     0.148 A 
ATOM     81  C   UNL     1      -5.113  -1.850  15.814  1.00  0.00     0.002 A 
ATOM     82  C   UNL     1      -3.719  -1.685  13.850  1.00  0.00     0.091 A 
ATOM     83  F   UNL     1      -3.979   0.149  12.377  1.00  0.00    -0.205 F 
ATOM     84  C   UNL     1      -4.131  -2.388  14.988  1.00  0.00     0.022 A 
BRANCH  82  85
ATOM     85  S   UNL     1      -2.457  -2.448  12.820  1.00  0.00     0.127 S 
ATOM     86  O   UNL     1      -1.452  -2.840  13.809  1.00  0.00    -0.237 OA
ATOM     87  O   UNL     1      -3.189  -3.558  12.217  1.00  0.00    -0.237 OA
ATOM     88  O   UNL     1      -2.014  -1.407  11.900  1.00  0.00    -0.744 OA
ENDBRANCH  82  85
ENDBRANCH  54  78
BRANCH  66  89
ATOM     89  C   UNL     1      -9.698   4.572  14.848  1.00  0.00     0.023 A 
ATOM     90  C   UNL     1      -8.414   5.148  14.892  1.00  0.00     0.012 A 
ATOM     91  C   UNL     1     -10.733   5.144  15.606  1.00  0.00     0.148 A 
ATOM     92  C   UNL     1      -8.169   6.269  15.691  1.00  0.00     0.002 A 
ATOM     93  C   UNL     1     -10.502   6.290  16.349  1.00  0.00     0.091 A 
ATOM     94  F   UNL     1     -11.945   4.568  15.561  1.00  0.00    -0.205 F 
ATOM     95  C   UNL     1      -9.217   6.851  16.405  1.00  0.00     0.022 A 
BRANCH  93  96
ATOM     96  S   UNL     1     -11.847   7.151  17.163  1.00  0.00     0.127 S 
ATOM     97  O   UNL     1     -11.655   6.767  18.560  1.00  0.00    -0.237 OA
ATOM     98  O   UNL     1     -11.550   8.553  16.865  1.00  0.00    -0.237 OA
ATOM     99  O   UNL     1     -13.070   6.660  16.538  1.00  0.00    -0.744 OA
ENDBRANCH  93  96
ENDBRANCH  66  89
ENDBRANCH  40  41
ENDBRANCH  33  35
ENDBRANCH  32  33
ENDBRANCH  31  32
ENDBRANCH  30  31
ENDBRANCH  29  30
ENDBRANCH  28  29
ENDBRANCH  27  28
ENDBRANCH  26  27
ENDBRANCH   1  26
TORSDOF 28
