REMARK SMILES COc1ccc(-c2ccc(/C=C3\SC(=S)N([C@H](Cc4ccccc4)C(=O)OCCOCCOCCOCCOC(=O)c4ccc(-c5c6nc(c(-c7cccc(S(=O)(=O)[O-])c7F)c7ccc([nH]7)c(-c7cccc(S(=O)(=O)[O-])c7F)c7nc(c(-c8cccc(S(=O)(=O)[O-])c8F)c8ccc5[nH]8)C=C7)C=C6)cc4)C3=O)o2)cc1
REMARK SMILES IDX 32 1 31 2 30 3 29 4 28 5 27 6 25 7 26 8 17 9 16 10 11 11
REMARK SMILES IDX 12 12 13 13 105 14 14 15 106 16 15 17 10 18 7 19 8 20 107 21
REMARK SMILES IDX 9 22 6 23 3 24 4 25 109 26 5 27 108 28 2 29 1 30 18 31 19 32
REMARK SMILES IDX 20 33 24 34 21 35 23 36 22 37 33 38 34 39 35 40 36 41 37 42
REMARK SMILES IDX 38 43 39 44 40 45 41 46 42 47 43 48 104 49 44 50 103 51
REMARK SMILES IDX 45 52 46 53 47 54 97 55 48 56 102 57 96 58 98 59 49 60
REMARK SMILES IDX 101 61 95 62 94 63 50 65 82 66 62 67 81 68 63 69 66 70 80 71
REMARK SMILES IDX 99 72 64 73 65 74 79 76 100 77 67 78 51 79 52 80 60 81 53 82
REMARK SMILES IDX 55 83 61 84 54 85 56 86 57 87 58 88 59 89 83 90 84 91 92 92
REMARK SMILES IDX 85 93 87 94 93 95 86 96 88 97 89 98 90 99 91 100 68 101
REMARK SMILES IDX 69 102 77 103 70 104 72 105 78 106 71 107 73 108 74 109
REMARK SMILES IDX 75 110 76 111
REMARK H PARENT 98 64 66 75
REMARK Flexibility Score: inf
ROOT
ATOM      1  C   UNL     1       4.555  12.922  -4.696  1.00  0.00     0.188 C 
ENDROOT
BRANCH   1   2
ATOM      2  C   UNL     1       3.695  14.859  -4.197  1.00  0.00     0.188 C 
BRANCH   2   3
ATOM      3  O   UNL     1       4.284  16.248  -3.856  1.00  0.00    -0.376 OA
BRANCH   3   4
ATOM      4  C   UNL     1       4.223  16.669  -2.483  1.00  0.00     0.202 C 
BRANCH   4   5
ATOM      5  C   UNL     1       2.958  16.487  -1.583  1.00  0.00     0.261 C 
BRANCH   5   6
ATOM      6  O   UNL     1       1.891  15.617  -2.017  1.00  0.00    -0.462 OA
BRANCH   6   7
ATOM      7  C   UNL     1       1.192  15.958  -3.134  1.00  0.00     0.329 C 
ATOM      8  O   UNL     1       1.097  17.115  -3.530  1.00  0.00    -0.250 OA
BRANCH   7   9
ATOM      9  C   UNL     1       0.406  14.756  -3.793  1.00  0.00     0.206 C 
BRANCH   9  10
ATOM     10  N   UNL     1      -0.759  14.684  -2.928  1.00  0.00    -0.278 N 
ATOM     11  C   UNL     1      -1.539  14.485   0.532  1.00  0.00     0.068 C 
ATOM     12  C   UNL     1      -1.655  14.585  -0.794  1.00  0.00     0.084 C 
ATOM     13  S   UNL     1      -2.950  15.218  -1.741  1.00  0.00    -0.054 SA
ATOM     14  C   UNL     1      -0.550  14.179  -1.654  1.00  0.00     0.267 C 
ATOM     15  C   UNL     1      -1.994  15.216  -3.205  1.00  0.00     0.149 C 
ATOM     16  O   UNL     1       0.392  13.501  -1.274  1.00  0.00    -0.268 OA
ATOM     17  S   UNL     1      -2.578  15.765  -4.665  1.00  0.00    -0.052 S 
BRANCH  11  18
ATOM     18  C   UNL     1      -2.662  14.775   1.323  1.00  0.00     0.128 A 
ATOM     19  C   UNL     1      -4.021  15.857   2.645  1.00  0.00     0.134 A 
ATOM     20  C   UNL     1      -4.763  14.833   2.104  1.00  0.00     0.051 A 
ATOM     21  O   UNL     1      -2.752  15.842   2.171  1.00  0.00    -0.457 OA
ATOM     22  C   UNL     1      -3.877  14.106   1.303  1.00  0.00     0.051 A 
BRANCH  19  23
ATOM     23  C   UNL     1      -4.325  16.827   3.663  1.00  0.00     0.017 A 
ATOM     24  C   UNL     1      -5.095  18.596   5.674  1.00  0.00     0.118 A 
ATOM     25  C   UNL     1      -4.572  19.085   4.473  1.00  0.00     0.047 A 
ATOM     26  C   UNL     1      -5.235  17.223   5.866  1.00  0.00     0.047 A 
ATOM     27  C   UNL     1      -4.169  18.201   3.469  1.00  0.00     0.016 A 
ATOM     28  C   UNL     1      -4.846  16.345   4.865  1.00  0.00     0.016 A 
BRANCH  24  29
ATOM     29  O   UNL     1      -5.489  19.535   6.589  1.00  0.00    -0.497 OA
ATOM     30  C   UNL     1      -5.303  19.136   7.945  1.00  0.00     0.278 C 
ENDBRANCH  24  29
ENDBRANCH  19  23
ENDBRANCH  11  18
ENDBRANCH   9  10
BRANCH   9  31
ATOM     31  C   UNL     1       0.924  13.326  -4.176  1.00  0.00     0.073 C 
BRANCH  31  32
ATOM     32  C   UNL     1       2.409  13.206  -4.427  1.00  0.00    -0.045 A 
ATOM     33  C   UNL     1       3.398  13.136  -2.929  1.00  0.00     0.004 A 
ATOM     34  C   UNL     1       3.098  13.832  -5.973  1.00  0.00     0.004 A 
ATOM     35  C   UNL     1       5.006  13.936  -2.916  1.00  0.00     0.000 A 
ATOM     36  C   UNL     1       4.730  14.602  -5.980  1.00  0.00     0.000 A 
ATOM     37  C   UNL     1       5.714  14.614  -4.459  1.00  0.00     0.000 A 
ENDBRANCH  31  32
ENDBRANCH   9  31
ENDBRANCH   7   9
ENDBRANCH   6   7
ENDBRANCH   5   6
ENDBRANCH   4   5
ENDBRANCH   3   4
ENDBRANCH   2   3
ENDBRANCH   1   2
BRANCH   1  38
ATOM     38  O   UNL     1       5.429  11.941  -3.870  1.00  0.00    -0.377 OA
BRANCH  38  39
ATOM     39  C   UNL     1       6.831  12.162  -3.690  1.00  0.00     0.188 C 
BRANCH  39  40
ATOM     40  C   UNL     1       7.769  12.242  -4.897  1.00  0.00     0.188 C 
BRANCH  40  41
ATOM     41  O   UNL     1       7.128  12.243  -6.147  1.00  0.00    -0.376 OA
BRANCH  41  42
ATOM     42  C   UNL     1       6.832  11.003  -6.763  1.00  0.00     0.202 C 
BRANCH  42  43
ATOM     43  C   UNL     1       6.366   9.729  -6.022  1.00  0.00     0.261 C 
BRANCH  43  44
ATOM     44  O   UNL     1       6.720   9.505  -4.653  1.00  0.00    -0.460 OA
BRANCH  44  45
ATOM     45  C   UNL     1       7.980   9.133  -4.343  1.00  0.00     0.338 C 
ATOM     46  O   UNL     1       8.912   9.002  -5.114  1.00  0.00    -0.246 OA
BRANCH  45  47
ATOM     47  C   UNL     1       8.084   9.123  -2.859  1.00  0.00     0.060 A 
ATOM     48  C   UNL     1       8.951  10.036  -2.232  1.00  0.00     0.016 A 
ATOM     49  C   UNL     1       7.266   8.292  -2.088  1.00  0.00     0.016 A 
ATOM     50  C   UNL     1       9.014  10.106  -0.841  1.00  0.00     0.010 A 
ATOM     51  C   UNL     1       7.380   8.313  -0.694  1.00  0.00     0.010 A 
ATOM     52  C   UNL     1       8.289   9.189  -0.072  1.00  0.00    -0.014 A 
BRANCH  52  53
ATOM     53  C   UNL     1       8.765   8.916   1.305  1.00  0.00     0.031 A 
ATOM     54  C   UNL     1       9.814   7.845   1.456  1.00  0.00     0.074 A 
ATOM     55  C   UNL     1       8.342   9.611   2.374  1.00  0.00     0.049 A 
ATOM     56  N   UNL     1      10.435   7.430   2.526  1.00  0.00    -0.248 NA
ATOM     57  C   UNL     1      10.216   7.150   0.219  1.00  0.00     0.031 C 
ATOM     58  C   UNL     1       7.357  10.690   2.351  1.00  0.00     0.029 A 
ATOM     59  N   UNL     1       8.690   9.497   3.697  1.00  0.00    -0.354 N 
ATOM     60  C   UNL     1      11.280   6.413   2.096  1.00  0.00     0.074 A 
ATOM     61  C   UNL     1      11.079   6.259   0.675  1.00  0.00     0.031 C 
ATOM     62  C   UNL     1       7.164  11.127   3.609  1.00  0.00     0.029 A 
ATOM     63  C   UNL     1       7.993  10.344   4.525  1.00  0.00     0.049 A 
ATOM     64  H   UNL     1       9.374   8.868   4.022  1.00  0.00     0.167 HD
ATOM     65  C   UNL     1      12.156   5.676   2.816  1.00  0.00     0.034 A 
ATOM     66  C   UNL     1       8.014  10.455   5.869  1.00  0.00     0.034 A 
ATOM     67  C   UNL     1      12.338   5.820   4.232  1.00  0.00     0.049 A 
ATOM     68  C   UNL     1       8.952   9.581   6.664  1.00  0.00     0.074 A 
ATOM     69  C   UNL     1      13.213   5.143   5.060  1.00  0.00     0.029 A 
ATOM     70  N   UNL     1      11.608   6.683   5.036  1.00  0.00    -0.354 N 
ATOM     71  N   UNL     1       9.811   8.686   6.237  1.00  0.00    -0.248 NA
ATOM     72  C   UNL     1       8.949   9.756   8.124  1.00  0.00     0.031 C 
ATOM     73  C   UNL     1      12.970   5.553   6.374  1.00  0.00     0.029 A 
ATOM     74  C   UNL     1      11.995   6.540   6.356  1.00  0.00     0.049 A 
ATOM     75  H   UNL     1      10.916   7.305   4.715  1.00  0.00     0.167 HD
ATOM     76  C   UNL     1      10.482   8.227   7.367  1.00  0.00     0.074 A 
ATOM     77  C   UNL     1       9.934   8.950   8.496  1.00  0.00     0.031 C 
ATOM     78  C   UNL     1      11.463   7.295   7.462  1.00  0.00     0.034 A 
BRANCH  65  79
ATOM     79  C   UNL     1      12.954   4.635   2.076  1.00  0.00     0.023 A 
ATOM     80  C   UNL     1      13.931   5.023   1.134  1.00  0.00     0.012 A 
ATOM     81  C   UNL     1      12.734   3.265   2.315  1.00  0.00     0.148 A 
ATOM     82  C   UNL     1      14.636   4.066   0.406  1.00  0.00     0.002 A 
ATOM     83  C   UNL     1      13.481   2.317   1.627  1.00  0.00     0.091 A 
ATOM     84  F   UNL     1      11.785   2.914   3.193  1.00  0.00    -0.205 F 
ATOM     85  C   UNL     1      14.418   2.715   0.660  1.00  0.00     0.022 A 
BRANCH  83  86
ATOM     86  S   UNL     1      13.333   0.557   1.943  1.00  0.00     0.127 S 
ATOM     87  O   UNL     1      12.725   0.084   0.700  1.00  0.00    -0.237 OA
ATOM     88  O   UNL     1      14.730   0.162   2.128  1.00  0.00    -0.237 OA
ATOM     89  O   UNL     1      12.502   0.428   3.131  1.00  0.00    -0.744 OA
ENDBRANCH  83  86
ENDBRANCH  65  79
BRANCH  66  90
ATOM     90  C   UNL     1       7.140  11.453   6.549  1.00  0.00     0.023 A 
ATOM     91  C   UNL     1       7.714  12.567   7.191  1.00  0.00     0.012 A 
ATOM     92  C   UNL     1       5.739  11.307   6.549  1.00  0.00     0.148 A 
ATOM     93  C   UNL     1       6.911  13.505   7.843  1.00  0.00     0.002 A 
ATOM     94  C   UNL     1       4.942  12.273   7.152  1.00  0.00     0.091 A 
ATOM     95  F   UNL     1       5.214  10.233   5.944  1.00  0.00    -0.205 F 
ATOM     96  C   UNL     1       5.526  13.364   7.814  1.00  0.00     0.022 A 
BRANCH  94  97
ATOM     97  S   UNL     1       3.148  12.239   7.066  1.00  0.00     0.127 S 
ATOM     98  O   UNL     1       2.783  12.097   8.473  1.00  0.00    -0.237 OA
ATOM     99  O   UNL     1       2.856  13.547   6.481  1.00  0.00    -0.237 OA
ATOM    100  O   UNL     1       2.812  11.106   6.215  1.00  0.00    -0.744 OA
ENDBRANCH  94  97
ENDBRANCH  66  90
BRANCH  78 101
ATOM    101  C   UNL     1      12.065   7.042   8.822  1.00  0.00     0.023 A 
ATOM    102  C   UNL     1      11.322   6.390   9.825  1.00  0.00     0.012 A 
ATOM    103  C   UNL     1      13.409   7.389   9.072  1.00  0.00     0.148 A 
ATOM    104  C   UNL     1      11.894   6.126  11.070  1.00  0.00     0.002 A 
ATOM    105  C   UNL     1      13.989   7.069  10.292  1.00  0.00     0.091 A 
ATOM    106  F   UNL     1      14.096   8.019   8.108  1.00  0.00    -0.205 F 
ATOM    107  C   UNL     1      13.229   6.454  11.298  1.00  0.00     0.022 A 
BRANCH 105 108
ATOM    108  S   UNL     1      15.728   7.358  10.636  1.00  0.00     0.127 S 
ATOM    109  O   UNL     1      15.659   8.415  11.644  1.00  0.00    -0.237 OA
ATOM    110  O   UNL     1      16.161   6.057  11.146  1.00  0.00    -0.237 OA
ATOM    111  O   UNL     1      16.333   7.746   9.370  1.00  0.00    -0.744 OA
ENDBRANCH 105 108
ENDBRANCH  78 101
ENDBRANCH  52  53
ENDBRANCH  45  47
ENDBRANCH  44  45
ENDBRANCH  43  44
ENDBRANCH  42  43
ENDBRANCH  41  42
ENDBRANCH  40  41
ENDBRANCH  39  40
ENDBRANCH  38  39
ENDBRANCH   1  38
TORSDOF 29
