REMARK SMILES CC(C)[C@@H](NC(=O)c1ccc2[nH]nnc2c1)C(=O)OCCOCCOCCOCCOC(=O)c1ccc(-c2c3nc(c(-c4cccc(S(=O)(=O)[O-])c4F)c4ccc([nH]4)c(-c4cccc(S(=O)(=O)[O-])c4F)c4nc(c(-c5cccc(S(=O)(=O)[O-])c5F)c5ccc2[nH]5)C=C4)C=C3)cc1
REMARK SMILES IDX 26 1 25 2 24 3 23 4 22 5 21 6 20 7 19 8 17 9 18 10 4 11 2 12
REMARK SMILES IDX 1 13 3 14 5 15 6 16 7 18 8 19 9 20 16 21 10 22 15 23 11 24
REMARK SMILES IDX 14 25 12 26 13 27 27 29 28 30 29 31 30 32 31 33 32 34 33 35
REMARK SMILES IDX 34 36 35 37 96 38 36 39 95 40 37 41 38 42 39 43 89 44 40 45
REMARK SMILES IDX 94 46 88 47 90 48 41 49 93 50 87 51 86 52 42 54 74 55 54 56
REMARK SMILES IDX 73 57 55 58 58 59 72 60 91 61 56 62 57 63 71 65 92 66 59 67
REMARK SMILES IDX 43 68 44 69 52 70 45 71 47 72 53 73 46 74 48 75 49 76 50 77
REMARK SMILES IDX 51 78 75 79 76 80 84 81 77 82 79 83 85 84 78 85 80 86 81 87
REMARK SMILES IDX 82 88 83 89 60 90 61 91 69 92 62 93 64 94 70 95 63 96 65 97
REMARK SMILES IDX 66 98 67 99 68 100
REMARK H PARENT 5 17 12 28 90 53 58 64
REMARK Flexibility Score: inf
ROOT
ATOM      1  C   UNL     1       0.932  -0.225  -5.637  1.00  0.00     0.188 C 
ENDROOT
BRANCH   1   2
ATOM      2  O   UNL     1       0.232  -0.699  -4.489  1.00  0.00    -0.377 OA
BRANCH   2   3
ATOM      3  C   UNL     1      -0.796  -1.661  -4.629  1.00  0.00     0.188 C 
BRANCH   3   4
ATOM      4  C   UNL     1      -2.106  -1.199  -5.270  1.00  0.00     0.188 C 
BRANCH   4   5
ATOM      5  O   UNL     1      -1.949  -0.270  -6.320  1.00  0.00    -0.376 OA
BRANCH   5   6
ATOM      6  C   UNL     1      -1.875   1.116  -6.015  1.00  0.00     0.202 C 
BRANCH   6   7
ATOM      7  C   UNL     1      -1.884   1.698  -4.592  1.00  0.00     0.261 C 
BRANCH   7   8
ATOM      8  O   UNL     1      -0.990   1.358  -3.519  1.00  0.00    -0.462 OA
BRANCH   8   9
ATOM      9  C   UNL     1      -1.582   0.699  -2.482  1.00  0.00     0.328 C 
ATOM     10  O   UNL     1      -2.600   0.012  -2.585  1.00  0.00    -0.250 OA
BRANCH   9  11
ATOM     11  C   UNL     1      -1.068   1.038  -1.082  1.00  0.00     0.195 C 
BRANCH  11  12
ATOM     12  C   UNL     1       0.467   0.928  -0.841  1.00  0.00     0.017 C 
ATOM     13  C   UNL     1       0.777   0.734   0.657  1.00  0.00     0.010 C 
ATOM     14  C   UNL     1       1.148  -0.229  -1.579  1.00  0.00     0.010 C 
ENDBRANCH  11  12
BRANCH  11  15
ATOM     15  N   UNL     1      -1.617   2.310  -0.526  1.00  0.00    -0.338 N 
ATOM     16  C   UNL     1      -2.877   2.864  -0.601  1.00  0.00     0.252 C 
ATOM     17  H   UNL     1      -0.966   2.846  -0.019  1.00  0.00     0.164 HD
ATOM     18  O   UNL     1      -3.375   3.392   0.390  1.00  0.00    -0.269 OA
BRANCH  16  19
ATOM     19  C   UNL     1      -3.583   3.011  -1.890  1.00  0.00     0.042 A 
ATOM     20  C   UNL     1      -4.613   2.128  -2.244  1.00  0.00     0.016 A 
ATOM     21  C   UNL     1      -3.234   4.090  -2.722  1.00  0.00     0.046 A 
ATOM     22  C   UNL     1      -5.245   2.211  -3.498  1.00  0.00     0.031 A 
ATOM     23  C   UNL     1      -3.845   4.171  -3.985  1.00  0.00     0.113 A 
ATOM     24  C   UNL     1      -4.799   3.226  -4.351  1.00  0.00     0.086 A 
ATOM     25  N   UNL     1      -3.589   4.990  -5.053  1.00  0.00    -0.130 NA
ATOM     26  N   UNL     1      -5.022   3.509  -5.672  1.00  0.00    -0.258 N 
ATOM     27  N   UNL     1      -4.296   4.556  -6.089  1.00  0.00    -0.069 NA
ATOM     28  H   UNL     1      -5.641   3.003  -6.247  1.00  0.00     0.192 HD
ENDBRANCH  16  19
ENDBRANCH  11  15
ENDBRANCH   9  11
ENDBRANCH   8   9
ENDBRANCH   7   8
ENDBRANCH   6   7
ENDBRANCH   5   6
ENDBRANCH   4   5
ENDBRANCH   3   4
ENDBRANCH   2   3
ENDBRANCH   1   2
BRANCH   1  29
ATOM     29  C   UNL     1       0.956  -1.123  -6.877  1.00  0.00     0.188 C 
BRANCH  29  30
ATOM     30  O   UNL     1       1.485  -2.441  -6.727  1.00  0.00    -0.376 OA
BRANCH  30  31
ATOM     31  C   UNL     1       2.372  -2.687  -5.643  1.00  0.00     0.202 C 
BRANCH  31  32
ATOM     32  C   UNL     1       3.821  -2.240  -5.843  1.00  0.00     0.261 C 
BRANCH  32  33
ATOM     33  O   UNL     1       3.975  -0.828  -6.044  1.00  0.00    -0.460 OA
BRANCH  33  34
ATOM     34  C   UNL     1       4.010  -0.425  -7.339  1.00  0.00     0.338 C 
ATOM     35  O   UNL     1       3.930  -1.123  -8.330  1.00  0.00    -0.246 OA
BRANCH  34  36
ATOM     36  C   UNL     1       4.045   1.050  -7.388  1.00  0.00     0.060 A 
ATOM     37  C   UNL     1       3.140   1.729  -8.217  1.00  0.00     0.016 A 
ATOM     38  C   UNL     1       5.048   1.744  -6.710  1.00  0.00     0.016 A 
ATOM     39  C   UNL     1       3.283   3.100  -8.430  1.00  0.00     0.010 A 
ATOM     40  C   UNL     1       5.199   3.111  -6.934  1.00  0.00     0.010 A 
ATOM     41  C   UNL     1       4.354   3.779  -7.839  1.00  0.00    -0.014 A 
BRANCH  41  42
ATOM     42  C   UNL     1       4.769   5.109  -8.340  1.00  0.00     0.031 A 
ATOM     43  C   UNL     1       5.923   5.163  -9.306  1.00  0.00     0.074 A 
ATOM     44  C   UNL     1       4.179   6.236  -7.908  1.00  0.00     0.049 A 
ATOM     45  N   UNL     1       6.585   6.196  -9.752  1.00  0.00    -0.248 NA
ATOM     46  C   UNL     1       6.404   3.870  -9.826  1.00  0.00     0.031 C 
ATOM     47  C   UNL     1       3.037   6.301  -6.999  1.00  0.00     0.029 A 
ATOM     48  N   UNL     1       4.495   7.549  -8.151  1.00  0.00    -0.354 N 
ATOM     49  C   UNL     1       7.583   5.679 -10.570  1.00  0.00     0.074 A 
ATOM     50  C   UNL     1       7.448   4.240 -10.552  1.00  0.00     0.031 C 
ATOM     51  C   UNL     1       2.775   7.591  -6.723  1.00  0.00     0.029 A 
ATOM     52  C   UNL     1       3.754   8.434  -7.405  1.00  0.00     0.049 A 
ATOM     53  H   UNL     1       5.185   7.829  -8.795  1.00  0.00     0.167 HD
ATOM     54  C   UNL     1       8.523   6.344 -11.280  1.00  0.00     0.034 A 
ATOM     55  C   UNL     1       3.884   9.768  -7.263  1.00  0.00     0.034 A 
ATOM     56  C   UNL     1       8.641   7.776 -11.299  1.00  0.00     0.049 A 
ATOM     57  C   UNL     1       4.970  10.483  -8.030  1.00  0.00     0.074 A 
ATOM     58  C   UNL     1       9.541   8.556 -12.003  1.00  0.00     0.029 A 
ATOM     59  N   UNL     1       7.838   8.642 -10.575  1.00  0.00    -0.354 N 
ATOM     60  N   UNL     1       5.859   9.992  -8.860  1.00  0.00    -0.248 NA
ATOM     61  C   UNL     1       5.053  11.942  -7.862  1.00  0.00     0.031 C 
ATOM     62  C   UNL     1       9.301   9.894 -11.679  1.00  0.00     0.029 A 
ATOM     63  C   UNL     1       8.221   9.949 -10.811  1.00  0.00     0.049 A 
ATOM     64  H   UNL     1       7.103   8.367  -9.980  1.00  0.00     0.167 HD
ATOM     65  C   UNL     1       6.565  11.084  -9.355  1.00  0.00     0.074 A 
ATOM     66  C   UNL     1       5.997  12.263  -8.736  1.00  0.00     0.031 C 
ATOM     67  C   UNL     1       7.594  11.111 -10.238  1.00  0.00     0.034 A 
BRANCH  54  68
ATOM     68  C   UNL     1       9.486   5.534 -12.107  1.00  0.00     0.023 A 
ATOM     69  C   UNL     1       9.032   4.880 -13.270  1.00  0.00     0.012 A 
ATOM     70  C   UNL     1      10.852   5.467 -11.765  1.00  0.00     0.148 A 
ATOM     71  C   UNL     1       9.915   4.147 -14.063  1.00  0.00     0.002 A 
ATOM     72  C   UNL     1      11.734   4.776 -12.587  1.00  0.00     0.091 A 
ATOM     73  F   UNL     1      11.260   6.078 -10.644  1.00  0.00    -0.205 F 
ATOM     74  C   UNL     1      11.265   4.106 -13.728  1.00  0.00     0.022 A 
BRANCH  72  75
ATOM     75  S   UNL     1      13.504   4.728 -12.289  1.00  0.00     0.127 S 
ATOM     76  O   UNL     1      13.713   3.314 -11.978  1.00  0.00    -0.237 OA
ATOM     77  O   UNL     1      14.043   5.155 -13.580  1.00  0.00    -0.237 OA
ATOM     78  O   UNL     1      13.755   5.648 -11.188  1.00  0.00    -0.744 OA
ENDBRANCH  72  75
ENDBRANCH  54  68
BRANCH  55  79
ATOM     79  C   UNL     1       2.958  10.529  -6.377  1.00  0.00     0.023 A 
ATOM     80  C   UNL     1       2.054  11.448  -6.945  1.00  0.00     0.012 A 
ATOM     81  C   UNL     1       2.980  10.364  -4.978  1.00  0.00     0.148 A 
ATOM     82  C   UNL     1       1.222  12.222  -6.136  1.00  0.00     0.002 A 
ATOM     83  C   UNL     1       2.110  11.098  -4.181  1.00  0.00     0.091 A 
ATOM     84  F   UNL     1       3.856   9.495  -4.454  1.00  0.00    -0.205 F 
ATOM     85  C   UNL     1       1.244  12.042  -4.755  1.00  0.00     0.022 A 
BRANCH  83  86
ATOM     86  S   UNL     1       1.989  10.852  -2.406  1.00  0.00     0.127 S 
ATOM     87  O   UNL     1       2.566  12.092  -1.893  1.00  0.00    -0.237 OA
ATOM     88  O   UNL     1       0.544  10.720  -2.217  1.00  0.00    -0.237 OA
ATOM     89  O   UNL     1       2.745   9.639  -2.124  1.00  0.00    -0.744 OA
ENDBRANCH  83  86
ENDBRANCH  55  79
BRANCH  67  90
ATOM     90  C   UNL     1       8.124  12.456 -10.663  1.00  0.00     0.023 A 
ATOM     91  C   UNL     1       8.889  13.234  -9.774  1.00  0.00     0.012 A 
ATOM     92  C   UNL     1       7.935  12.901 -11.988  1.00  0.00     0.148 A 
ATOM     93  C   UNL     1       9.432  14.451 -10.188  1.00  0.00     0.002 A 
ATOM     94  C   UNL     1       8.525  14.085 -12.409  1.00  0.00     0.091 A 
ATOM     95  F   UNL     1       7.191  12.151 -12.813  1.00  0.00    -0.205 F 
ATOM     96  C   UNL     1       9.262  14.869 -11.506  1.00  0.00     0.022 A 
BRANCH  94  97
ATOM     97  S   UNL     1       8.449  14.648 -14.112  1.00  0.00     0.127 S 
ATOM     98  O   UNL     1       7.592  15.828 -13.998  1.00  0.00    -0.237 OA
ATOM     99  O   UNL     1       9.853  14.940 -14.403  1.00  0.00    -0.237 OA
ATOM    100  O   UNL     1       7.888  13.544 -14.879  1.00  0.00    -0.744 OA
ENDBRANCH  94  97
ENDBRANCH  67  90
ENDBRANCH  41  42
ENDBRANCH  34  36
ENDBRANCH  33  34
ENDBRANCH  32  33
ENDBRANCH  31  32
ENDBRANCH  30  31
ENDBRANCH  29  30
ENDBRANCH   1  29
TORSDOF 26
