REMARK SMILES Cc1nn(C)c2c1NC(=O)[C@@H](CCC(=O)OCCOCCOCCOCCOC(=O)c1ccc(-c3c4nc(c(-c5cccc(S(=O)(=O)[O-])c5F)c5ccc([nH]5)c(-c5cccc(S(=O)(=O)[O-])c5F)c5nc(c(-c6cccc(S(=O)(=O)[O-])c6F)c6ccc3[nH]6)C=C5)C=C4)cc1)N2
REMARK SMILES IDX 23 1 22 2 21 3 20 4 19 5 18 6 17 7 16 8 14 9 15 10 13 11
REMARK SMILES IDX 12 12 11 13 1 14 2 15 3 16 7 17 4 18 6 19 8 20 5 21 94 22
REMARK SMILES IDX 9 23 10 26 24 27 25 28 26 29 27 30 28 31 29 32 30 33 31 34
REMARK SMILES IDX 32 35 93 36 33 37 92 38 34 39 35 40 36 41 86 42 37 43 91 44
REMARK SMILES IDX 85 45 87 46 38 47 90 48 84 49 83 50 39 52 71 53 51 54 70 55
REMARK SMILES IDX 52 56 55 57 69 58 88 59 53 60 54 61 68 63 89 64 56 65 40 66
REMARK SMILES IDX 41 67 49 68 42 69 44 70 50 71 43 72 45 73 46 74 47 75 48 76
REMARK SMILES IDX 72 77 73 78 81 79 74 80 76 81 82 82 75 83 77 84 78 85 79 86
REMARK SMILES IDX 80 87 57 88 58 89 66 90 59 91 61 92 67 93 60 94 62 95 63 96
REMARK SMILES IDX 64 97 65 98
REMARK H PARENT 8 24 94 25 87 51 55 62
REMARK Flexibility Score: inf
ROOT
ATOM      1  C   UNL     1      -2.793   1.208  -7.638  1.00  0.00     0.188 C 
ENDROOT
BRANCH   1   2
ATOM      2  O   UNL     1      -2.064   0.004  -7.833  1.00  0.00    -0.377 OA
BRANCH   2   3
ATOM      3  C   UNL     1      -0.656   0.118  -7.726  1.00  0.00     0.188 C 
BRANCH   3   4
ATOM      4  C   UNL     1       0.129  -0.057  -9.035  1.00  0.00     0.188 C 
BRANCH   4   5
ATOM      5  O   UNL     1      -0.349  -0.863 -10.112  1.00  0.00    -0.376 OA
BRANCH   5   6
ATOM      6  C   UNL     1      -1.575  -1.560  -9.985  1.00  0.00     0.202 C 
BRANCH   6   7
ATOM      7  C   UNL     1      -1.509  -2.869  -9.186  1.00  0.00     0.261 C 
BRANCH   7   8
ATOM      8  O   UNL     1      -0.915  -2.807  -7.870  1.00  0.00    -0.463 OA
BRANCH   8   9
ATOM      9  C   UNL     1       0.353  -3.277  -7.762  1.00  0.00     0.305 C 
ATOM     10  O   UNL     1       1.030  -3.683  -8.702  1.00  0.00    -0.252 OA
BRANCH   9  11
ATOM     11  C   UNL     1       0.831  -3.418  -6.327  1.00  0.00     0.125 C 
BRANCH  11  12
ATOM     12  C   UNL     1       0.612  -2.276  -5.334  1.00  0.00     0.047 C 
BRANCH  12  13
ATOM     13  C   UNL     1      -0.781  -2.262  -4.660  1.00  0.00     0.171 C 
ATOM     14  C   UNL     1       0.839  -0.375   0.082  1.00  0.00     0.071 C 
ATOM     15  C   UNL     1       0.439  -1.535  -0.749  1.00  0.00     0.085 A 
ATOM     16  N   UNL     1       0.726  -2.790  -0.358  1.00  0.00    -0.174 NA
ATOM     17  C   UNL     1      -0.176  -1.529  -2.013  1.00  0.00     0.107 A 
ATOM     18  N   UNL     1       0.241  -3.568  -1.360  1.00  0.00    -0.251 N 
ATOM     19  C   UNL     1      -0.275  -2.841  -2.393  1.00  0.00     0.149 A 
ATOM     20  N   UNL     1      -0.635  -0.525  -2.829  1.00  0.00    -0.320 N 
ATOM     21  C   UNL     1       0.423  -4.994  -1.285  1.00  0.00     0.176 C 
ATOM     22  N   UNL     1      -0.754  -3.281  -3.580  1.00  0.00    -0.357 N 
ATOM     23  C   UNL     1      -1.071  -0.818  -4.103  1.00  0.00     0.247 C 
ATOM     24  H   UNL     1      -0.653   0.404  -2.503  1.00  0.00     0.170 HD
ATOM     25  H   UNL     1      -1.061  -4.206  -3.717  1.00  0.00     0.163 HD
ATOM     26  O   UNL     1      -1.548   0.079  -4.798  1.00  0.00    -0.272 OA
ENDBRANCH  12  13
ENDBRANCH  11  12
ENDBRANCH   9  11
ENDBRANCH   8   9
ENDBRANCH   7   8
ENDBRANCH   6   7
ENDBRANCH   5   6
ENDBRANCH   4   5
ENDBRANCH   3   4
ENDBRANCH   2   3
ENDBRANCH   1   2
BRANCH   1  27
ATOM     27  C   UNL     1      -2.414   2.288  -8.654  1.00  0.00     0.188 C 
BRANCH  27  28
ATOM     28  O   UNL     1      -1.086   2.770  -8.445  1.00  0.00    -0.376 OA
BRANCH  28  29
ATOM     29  C   UNL     1      -0.949   3.944  -7.646  1.00  0.00     0.202 C 
BRANCH  29  30
ATOM     30  C   UNL     1      -1.479   3.866  -6.204  1.00  0.00     0.261 C 
BRANCH  30  31
ATOM     31  O   UNL     1      -2.911   3.797  -6.073  1.00  0.00    -0.460 OA
BRANCH  31  32
ATOM     32  C   UNL     1      -3.626   4.787  -6.649  1.00  0.00     0.338 C 
ATOM     33  O   UNL     1      -3.212   5.710  -7.321  1.00  0.00    -0.246 OA
BRANCH  32  34
ATOM     34  C   UNL     1      -5.047   4.516  -6.426  1.00  0.00     0.060 A 
ATOM     35  C   UNL     1      -5.842   4.048  -7.478  1.00  0.00     0.016 A 
ATOM     36  C   UNL     1      -5.599   4.853  -5.197  1.00  0.00     0.016 A 
ATOM     37  C   UNL     1      -7.222   3.942  -7.303  1.00  0.00     0.010 A 
ATOM     38  C   UNL     1      -6.976   4.768  -5.037  1.00  0.00     0.010 A 
ATOM     39  C   UNL     1      -7.804   4.326  -6.087  1.00  0.00    -0.014 A 
BRANCH  39  40
ATOM     40  C   UNL     1      -9.286   4.339  -5.957  1.00  0.00     0.031 A 
ATOM     41  C   UNL     1      -9.806   3.935  -4.620  1.00  0.00     0.074 A 
ATOM     42  C   UNL     1     -10.003   5.316  -6.565  1.00  0.00     0.049 A 
ATOM     43  N   UNL     1      -9.783   4.792  -3.646  1.00  0.00    -0.248 NA
ATOM     44  C   UNL     1     -10.085   2.570  -4.187  1.00  0.00     0.031 C 
ATOM     45  C   UNL     1      -9.409   6.588  -7.014  1.00  0.00     0.029 A 
ATOM     46  N   UNL     1     -11.365   5.531  -6.654  1.00  0.00    -0.354 N 
ATOM     47  C   UNL     1      -9.868   4.090  -2.464  1.00  0.00     0.074 A 
ATOM     48  C   UNL     1     -10.138   2.721  -2.849  1.00  0.00     0.031 C 
ATOM     49  C   UNL     1     -10.389   7.501  -7.149  1.00  0.00     0.029 A 
ATOM     50  C   UNL     1     -11.677   6.849  -6.965  1.00  0.00     0.049 A 
ATOM     51  H   UNL     1     -12.039   4.828  -6.513  1.00  0.00     0.167 HD
ATOM     52  C   UNL     1      -9.656   4.698  -1.265  1.00  0.00     0.034 A 
ATOM     53  C   UNL     1     -12.844   7.494  -6.711  1.00  0.00     0.034 A 
ATOM     54  C   UNL     1      -9.350   6.122  -1.257  1.00  0.00     0.049 A 
ATOM     55  C   UNL     1     -12.690   7.909  -5.276  1.00  0.00     0.074 A 
ATOM     56  C   UNL     1      -8.699   7.021  -0.430  1.00  0.00     0.029 A 
ATOM     57  N   UNL     1      -9.769   6.884  -2.316  1.00  0.00    -0.354 N 
ATOM     58  N   UNL     1     -12.017   8.952  -4.856  1.00  0.00    -0.248 NA
ATOM     59  C   UNL     1     -13.059   6.954  -4.219  1.00  0.00     0.031 C 
ATOM     60  C   UNL     1      -8.965   8.341  -0.928  1.00  0.00     0.029 A 
ATOM     61  C   UNL     1      -9.810   8.219  -2.017  1.00  0.00     0.049 A 
ATOM     62  H   UNL     1     -10.014   6.512  -3.194  1.00  0.00     0.167 HD
ATOM     63  C   UNL     1     -11.624   8.611  -3.567  1.00  0.00     0.074 A 
ATOM     64  C   UNL     1     -12.415   7.464  -3.176  1.00  0.00     0.031 C 
ATOM     65  C   UNL     1     -10.492   9.070  -2.960  1.00  0.00     0.034 A 
BRANCH  52  66
ATOM     66  C   UNL     1      -9.931   4.029   0.035  1.00  0.00     0.023 A 
ATOM     67  C   UNL     1     -11.083   4.484   0.713  1.00  0.00     0.012 A 
ATOM     68  C   UNL     1      -9.070   3.124   0.675  1.00  0.00     0.148 A 
ATOM     69  C   UNL     1     -11.369   4.072   2.010  1.00  0.00     0.002 A 
ATOM     70  C   UNL     1      -9.362   2.714   1.978  1.00  0.00     0.091 A 
ATOM     71  F   UNL     1      -7.970   2.716   0.029  1.00  0.00    -0.205 F 
ATOM     72  C   UNL     1     -10.505   3.191   2.645  1.00  0.00     0.022 A 
BRANCH  70  73
ATOM     73  S   UNL     1      -8.318   1.589   2.915  1.00  0.00     0.127 S 
ATOM     74  O   UNL     1      -7.772   2.469   3.947  1.00  0.00    -0.237 OA
ATOM     75  O   UNL     1      -9.287   0.606   3.401  1.00  0.00    -0.237 OA
ATOM     76  O   UNL     1      -7.349   1.062   1.964  1.00  0.00    -0.744 OA
ENDBRANCH  70  73
ENDBRANCH  52  66
BRANCH  53  77
ATOM     77  C   UNL     1     -14.064   6.894  -7.328  1.00  0.00     0.023 A 
ATOM     78  C   UNL     1     -14.014   6.702  -8.733  1.00  0.00     0.012 A 
ATOM     79  C   UNL     1     -15.245   6.521  -6.669  1.00  0.00     0.148 A 
ATOM     80  C   UNL     1     -15.048   6.078  -9.434  1.00  0.00     0.002 A 
ATOM     81  C   UNL     1     -16.245   5.833  -7.356  1.00  0.00     0.091 A 
ATOM     82  F   UNL     1     -15.409   6.849  -5.384  1.00  0.00    -0.205 F 
ATOM     83  C   UNL     1     -16.152   5.612  -8.737  1.00  0.00     0.022 A 
BRANCH  81  84
ATOM     84  S   UNL     1     -17.655   5.098  -6.519  1.00  0.00     0.127 S 
ATOM     85  O   UNL     1     -18.780   5.707  -7.226  1.00  0.00    -0.237 OA
ATOM     86  O   UNL     1     -17.446   3.677  -6.797  1.00  0.00    -0.237 OA
ATOM     87  O   UNL     1     -17.524   5.473  -5.118  1.00  0.00    -0.744 OA
ENDBRANCH  81  84
ENDBRANCH  53  77
BRANCH  65  88
ATOM     88  C   UNL     1      -9.957  10.389  -3.391  1.00  0.00     0.023 A 
ATOM     89  C   UNL     1     -10.819  11.503  -3.310  1.00  0.00     0.012 A 
ATOM     90  C   UNL     1      -8.626  10.580  -3.801  1.00  0.00     0.148 A 
ATOM     91  C   UNL     1     -10.376  12.782  -3.635  1.00  0.00     0.002 A 
ATOM     92  C   UNL     1      -8.183  11.863  -4.111  1.00  0.00     0.091 A 
ATOM     93  F   UNL     1      -7.816   9.514  -3.884  1.00  0.00    -0.205 F 
ATOM     94  C   UNL     1      -9.056  12.962  -4.031  1.00  0.00     0.022 A 
BRANCH  92  95
ATOM     95  S   UNL     1      -6.494  12.225  -4.601  1.00  0.00     0.127 S 
ATOM     96  O   UNL     1      -6.688  12.914  -5.878  1.00  0.00    -0.237 OA
ATOM     97  O   UNL     1      -6.044  13.088  -3.509  1.00  0.00    -0.237 OA
ATOM     98  O   UNL     1      -5.811  10.943  -4.696  1.00  0.00    -0.744 OA
ENDBRANCH  92  95
ENDBRANCH  65  88
ENDBRANCH  39  40
ENDBRANCH  32  34
ENDBRANCH  31  32
ENDBRANCH  30  31
ENDBRANCH  29  30
ENDBRANCH  28  29
ENDBRANCH  27  28
ENDBRANCH   1  27
TORSDOF 25
