REMARK SMILES O=C(CSc1nnc(-c2cccc(C(F)(F)F)c2F)o1)OCCOCCOCCOCCOC(=O)c1ccc(-c2c3nc(c(-c4cccc(S(=O)(=O)[O-])c4F)c4ccc([nH]4)c(-c4cccc(S(=O)(=O)[O-])c4F)c4nc(c(-c5cccc(S(=O)(=O)[O-])c5F)c5ccc2[nH]5)C=C4)C=C3)cc1
REMARK SMILES IDX 26 1 25 2 24 3 23 4 22 5 21 6 2 7 1 8 3 9 4 10 5 11 6 12
REMARK SMILES IDX 20 13 7 14 8 15 9 16 10 17 18 18 11 19 13 20 19 21 12 22
REMARK SMILES IDX 14 23 15 24 16 25 17 26 27 27 28 28 29 29 30 30 31 31 32 32
REMARK SMILES IDX 33 33 34 34 35 35 36 36 37 37 98 38 38 39 97 40 39 41 40 42
REMARK SMILES IDX 41 43 91 44 42 45 96 46 90 47 92 48 43 49 95 50 89 51 88 52
REMARK SMILES IDX 44 54 76 55 56 56 75 57 57 58 60 59 74 60 93 61 58 62 59 63
REMARK SMILES IDX 73 65 94 66 61 67 45 68 46 69 54 70 47 71 49 72 55 73 48 74
REMARK SMILES IDX 50 75 51 76 52 77 53 78 77 79 78 80 86 81 79 82 81 83 87 84
REMARK SMILES IDX 80 85 82 86 83 87 84 88 85 89 62 90 63 91 71 92 64 93 66 94
REMARK SMILES IDX 72 95 65 96 67 97 68 98 69 99 70 100
REMARK H PARENT 92 53 60 64
REMARK Flexibility Score: inf
ROOT
ATOM      1  C   UNL     1       2.141   1.997  -1.366  1.00  0.00     0.188 C 
ENDROOT
BRANCH   1   2
ATOM      2  C   UNL     1       2.755   1.671   0.004  1.00  0.00     0.188 C 
BRANCH   2   3
ATOM      3  O   UNL     1       4.160   1.523   0.082  1.00  0.00    -0.376 OA
BRANCH   3   4
ATOM      4  C   UNL     1       4.905   0.322   0.036  1.00  0.00     0.202 C 
BRANCH   4   5
ATOM      5  C   UNL     1       4.342  -0.973  -0.532  1.00  0.00     0.261 C 
BRANCH   5   6
ATOM      6  O   UNL     1       3.016  -1.368  -0.140  1.00  0.00    -0.463 OA
BRANCH   6   7
ATOM      7  C   UNL     1       2.420  -1.295   1.062  1.00  0.00     0.316 C 
ATOM      8  O   UNL     1       1.211  -1.510   1.146  1.00  0.00    -0.251 OA
BRANCH   7   9
ATOM      9  C   UNL     1       3.194  -0.870   2.290  1.00  0.00     0.202 C 
BRANCH   9  10
ATOM     10  S   UNL     1       4.399  -2.118   2.808  1.00  0.00    -0.054 SA
BRANCH  10  11
ATOM     11  C   UNL     1       3.299  -3.454   2.849  1.00  0.00     0.277 A 
ATOM     12  N   UNL     1       3.565  -4.668   2.424  1.00  0.00    -0.101 NA
ATOM     13  O   UNL     1       1.994  -3.298   3.221  1.00  0.00    -0.411 OA
ATOM     14  N   UNL     1       2.369  -5.363   2.468  1.00  0.00    -0.107 NA
ATOM     15  C   UNL     1       1.462  -4.505   2.883  1.00  0.00     0.251 A 
BRANCH  15  16
ATOM     16  C   UNL     1       0.081  -4.688   3.254  1.00  0.00     0.075 A 
ATOM     17  C   UNL     1      -0.200  -5.347   4.455  1.00  0.00     0.017 A 
ATOM     18  C   UNL     1      -0.971  -4.194   2.474  1.00  0.00     0.148 A 
ATOM     19  C   UNL     1      -1.516  -5.517   4.870  1.00  0.00     0.002 A 
ATOM     20  C   UNL     1      -2.297  -4.355   2.876  1.00  0.00     0.092 A 
ATOM     21  F   UNL     1      -0.706  -3.568   1.321  1.00  0.00    -0.205 F 
ATOM     22  C   UNL     1      -2.559  -5.028   4.083  1.00  0.00     0.016 A 
BRANCH  20  23
ATOM     23  C   UNL     1      -3.442  -3.855   2.042  1.00  0.00     0.419 C 
ATOM     24  F   UNL     1      -4.176  -4.880   1.522  1.00  0.00    -0.166 F 
ATOM     25  F   UNL     1      -4.327  -3.128   2.790  1.00  0.00    -0.166 F 
ATOM     26  F   UNL     1      -3.111  -3.057   0.997  1.00  0.00    -0.166 F 
ENDBRANCH  20  23
ENDBRANCH  15  16
ENDBRANCH  10  11
ENDBRANCH   9  10
ENDBRANCH   7   9
ENDBRANCH   6   7
ENDBRANCH   5   6
ENDBRANCH   4   5
ENDBRANCH   3   4
ENDBRANCH   2   3
ENDBRANCH   1   2
BRANCH   1  27
ATOM     27  O   UNL     1       2.858   2.879  -2.213  1.00  0.00    -0.377 OA
BRANCH  27  28
ATOM     28  C   UNL     1       4.211   2.530  -2.436  1.00  0.00     0.188 C 
BRANCH  28  29
ATOM     29  C   UNL     1       5.212   3.425  -1.670  1.00  0.00     0.188 C 
BRANCH  29  30
ATOM     30  O   UNL     1       4.800   4.265  -0.601  1.00  0.00    -0.376 OA
BRANCH  30  31
ATOM     31  C   UNL     1       3.636   5.068  -0.707  1.00  0.00     0.202 C 
BRANCH  31  32
ATOM     32  C   UNL     1       3.263   5.871  -1.971  1.00  0.00     0.261 C 
BRANCH  32  33
ATOM     33  O   UNL     1       3.628   5.319  -3.236  1.00  0.00    -0.460 OA
BRANCH  33  34
ATOM     34  C   UNL     1       4.782   5.769  -3.776  1.00  0.00     0.338 C 
ATOM     35  O   UNL     1       5.535   6.612  -3.315  1.00  0.00    -0.246 OA
BRANCH  34  36
ATOM     36  C   UNL     1       5.110   4.897  -4.923  1.00  0.00     0.060 A 
ATOM     37  C   UNL     1       6.321   4.186  -4.904  1.00  0.00     0.016 A 
ATOM     38  C   UNL     1       4.209   4.733  -5.976  1.00  0.00     0.016 A 
ATOM     39  C   UNL     1       6.631   3.303  -5.934  1.00  0.00     0.010 A 
ATOM     40  C   UNL     1       4.543   3.887  -7.033  1.00  0.00     0.010 A 
ATOM     41  C   UNL     1       5.763   3.186  -7.024  1.00  0.00    -0.014 A 
BRANCH  41  42
ATOM     42  C   UNL     1       6.213   2.504  -8.254  1.00  0.00     0.031 A 
ATOM     43  C   UNL     1       6.819   3.345  -9.339  1.00  0.00     0.074 A 
ATOM     44  C   UNL     1       6.065   1.179  -8.415  1.00  0.00     0.049 A 
ATOM     45  N   UNL     1       7.178   3.007 -10.547  1.00  0.00    -0.248 NA
ATOM     46  C   UNL     1       7.048   4.764  -9.014  1.00  0.00     0.031 C 
ATOM     47  C   UNL     1       5.532   0.259  -7.412  1.00  0.00     0.029 A 
ATOM     48  N   UNL     1       6.327   0.384  -9.502  1.00  0.00    -0.354 N 
ATOM     49  C   UNL     1       7.648   4.172 -11.138  1.00  0.00     0.074 A 
ATOM     50  C   UNL     1       7.521   5.230 -10.160  1.00  0.00     0.031 C 
ATOM     51  C   UNL     1       5.478  -0.975  -7.943  1.00  0.00     0.029 A 
ATOM     52  C   UNL     1       5.934  -0.921  -9.332  1.00  0.00     0.049 A 
ATOM     53  H   UNL     1       6.755   0.717 -10.324  1.00  0.00     0.167 HD
ATOM     54  C   UNL     1       8.150   4.343 -12.382  1.00  0.00     0.034 A 
ATOM     55  C   UNL     1       5.919  -1.945 -10.209  1.00  0.00     0.034 A 
ATOM     56  C   UNL     1       8.263   3.288 -13.350  1.00  0.00     0.049 A 
ATOM     57  C   UNL     1       6.418  -1.717 -11.613  1.00  0.00     0.074 A 
ATOM     58  C   UNL     1       8.756   3.355 -14.640  1.00  0.00     0.029 A 
ATOM     59  N   UNL     1       7.869   1.974 -13.139  1.00  0.00    -0.354 N 
ATOM     60  N   UNL     1       6.908  -0.625 -12.149  1.00  0.00    -0.248 NA
ATOM     61  C   UNL     1       6.388  -2.870 -12.525  1.00  0.00     0.031 C 
ATOM     62  C   UNL     1       8.630   2.090 -15.220  1.00  0.00     0.029 A 
ATOM     63  C   UNL     1       8.105   1.222 -14.276  1.00  0.00     0.049 A 
ATOM     64  H   UNL     1       7.479   1.629 -12.304  1.00  0.00     0.167 HD
ATOM     65  C   UNL     1       7.285  -0.967 -13.444  1.00  0.00     0.074 A 
ATOM     66  C   UNL     1       6.974  -2.373 -13.607  1.00  0.00     0.031 C 
ATOM     67  C   UNL     1       7.835  -0.189 -14.409  1.00  0.00     0.034 A 
BRANCH  54  68
ATOM     68  C   UNL     1       8.626   5.721 -12.758  1.00  0.00     0.023 A 
ATOM     69  C   UNL     1       9.799   6.239 -12.171  1.00  0.00     0.012 A 
ATOM     70  C   UNL     1       7.944   6.482 -13.727  1.00  0.00     0.148 A 
ATOM     71  C   UNL     1      10.270   7.503 -12.522  1.00  0.00     0.002 A 
ATOM     72  C   UNL     1       8.449   7.719 -14.110  1.00  0.00     0.091 A 
ATOM     73  F   UNL     1       6.815   5.986 -14.252  1.00  0.00    -0.205 F 
ATOM     74  C   UNL     1       9.603   8.236 -13.500  1.00  0.00     0.022 A 
BRANCH  72  75
ATOM     75  S   UNL     1       7.714   8.703 -15.421  1.00  0.00     0.127 S 
ATOM     76  O   UNL     1       7.187   9.844 -14.674  1.00  0.00    -0.237 OA
ATOM     77  O   UNL     1       8.873   9.007 -16.261  1.00  0.00    -0.237 OA
ATOM     78  O   UNL     1       6.712   7.853 -16.049  1.00  0.00    -0.744 OA
ENDBRANCH  72  75
ENDBRANCH  54  68
BRANCH  55  79
ATOM     79  C   UNL     1       5.458  -3.290  -9.764  1.00  0.00     0.023 A 
ATOM     80  C   UNL     1       6.399  -4.328  -9.625  1.00  0.00     0.012 A 
ATOM     81  C   UNL     1       4.113  -3.531  -9.425  1.00  0.00     0.148 A 
ATOM     82  C   UNL     1       6.008  -5.586  -9.168  1.00  0.00     0.002 A 
ATOM     83  C   UNL     1       3.739  -4.770  -8.918  1.00  0.00     0.091 A 
ATOM     84  F   UNL     1       3.232  -2.531  -9.576  1.00  0.00    -0.205 F 
ATOM     85  C   UNL     1       4.682  -5.803  -8.803  1.00  0.00     0.022 A 
BRANCH  83  86
ATOM     86  S   UNL     1       2.087  -5.108  -8.300  1.00  0.00     0.127 S 
ATOM     87  O   UNL     1       1.646  -6.177  -9.193  1.00  0.00    -0.237 OA
ATOM     88  O   UNL     1       2.368  -5.527  -6.927  1.00  0.00    -0.237 OA
ATOM     89  O   UNL     1       1.355  -3.854  -8.416  1.00  0.00    -0.744 OA
ENDBRANCH  83  86
ENDBRANCH  55  79
BRANCH  67  90
ATOM     90  C   UNL     1       8.194  -0.836 -15.724  1.00  0.00     0.023 A 
ATOM     91  C   UNL     1       7.180  -1.234 -16.618  1.00  0.00     0.012 A 
ATOM     92  C   UNL     1       9.544  -0.956 -16.114  1.00  0.00     0.148 A 
ATOM     93  C   UNL     1       7.505  -1.770 -17.864  1.00  0.00     0.002 A 
ATOM     94  C   UNL     1       9.858  -1.438 -17.379  1.00  0.00     0.091 A 
ATOM     95  F   UNL     1      10.496  -0.588 -15.244  1.00  0.00    -0.205 F 
ATOM     96  C   UNL     1       8.841  -1.859 -18.250  1.00  0.00     0.022 A 
BRANCH  94  97
ATOM     97  S   UNL     1      11.543  -1.484 -18.002  1.00  0.00     0.127 S 
ATOM     98  O   UNL     1      11.821  -2.919 -18.003  1.00  0.00    -0.237 OA
ATOM     99  O   UNL     1      11.398  -0.890 -19.331  1.00  0.00    -0.237 OA
ATOM    100  O   UNL     1      12.338  -0.695 -17.071  1.00  0.00    -0.744 OA
ENDBRANCH  94  97
ENDBRANCH  67  90
ENDBRANCH  41  42
ENDBRANCH  34  36
ENDBRANCH  33  34
ENDBRANCH  32  33
ENDBRANCH  31  32
ENDBRANCH  30  31
ENDBRANCH  29  30
ENDBRANCH  28  29
ENDBRANCH  27  28
ENDBRANCH   1  27
TORSDOF 27
