REMARK SMILES Cc1sc(NC(=O)c2ccc(Br)nc2)c(C(=O)OCCOCCOCCOCCOC(=O)c2ccc(-c3c4nc(c(-c5cccc(S(=O)(=O)[O-])c5F)c5ccc([nH]5)c(-c5cccc(S(=O)(=O)[O-])c5F)c5nc(c(-c6cccc(S(=O)(=O)[O-])c6F)c6ccc3[nH]6)C=C5)C=C4)cc2)c1C
REMARK SMILES IDX 25 1 24 2 23 3 22 4 21 5 20 6 19 7 18 8 16 9 17 10 15 11
REMARK SMILES IDX 1 12 2 13 3 14 96 15 4 16 97 17 5 18 6 19 7 21 8 22 9 23
REMARK SMILES IDX 14 24 10 25 13 26 11 27 12 28 26 29 27 30 28 31 29 32 30 33
REMARK SMILES IDX 31 34 32 35 33 36 34 37 95 38 35 39 94 40 36 41 37 42 38 43
REMARK SMILES IDX 88 44 39 45 93 46 87 47 89 48 40 49 92 50 86 51 85 52 41 54
REMARK SMILES IDX 73 55 53 56 72 57 54 58 57 59 71 60 90 61 55 62 56 63 70 65
REMARK SMILES IDX 91 66 58 67 42 68 43 69 51 70 44 71 46 72 52 73 45 74 47 75
REMARK SMILES IDX 48 76 49 77 50 78 74 79 75 80 83 81 76 82 78 83 84 84 77 85
REMARK SMILES IDX 79 86 80 87 81 88 82 89 59 90 60 91 68 92 61 93 63 94 69 95
REMARK SMILES IDX 62 96 64 97 65 98 66 99 67 100
REMARK H PARENT 5 20 89 53 57 64
REMARK Flexibility Score: inf
ROOT
ATOM      1  C   UNL     1      -0.843  -5.041   3.628  1.00  0.00     0.188 C 
ENDROOT
BRANCH   1   2
ATOM      2  O   UNL     1      -0.928  -3.675   3.253  1.00  0.00    -0.377 OA
BRANCH   2   3
ATOM      3  C   UNL     1      -2.056  -3.220   2.508  1.00  0.00     0.188 C 
BRANCH   3   4
ATOM      4  C   UNL     1      -3.059  -4.242   1.925  1.00  0.00     0.188 C 
BRANCH   4   5
ATOM      5  O   UNL     1      -2.484  -5.500   1.587  1.00  0.00    -0.376 OA
BRANCH   5   6
ATOM      6  C   UNL     1      -2.033  -5.994   0.333  1.00  0.00     0.202 C 
BRANCH   6   7
ATOM      7  C   UNL     1      -0.955  -5.434  -0.852  1.00  0.00     0.261 C 
BRANCH   7   8
ATOM      8  O   UNL     1      -0.832  -3.596  -1.699  1.00  0.00    -0.460 OA
BRANCH   8   9
ATOM      9  C   UNL     1      -1.044  -2.199  -1.832  1.00  0.00     0.341 C 
ATOM     10  O   UNL     1      -1.891  -1.786  -2.631  1.00  0.00    -0.246 OA
BRANCH   9  11
ATOM     11  C   UNL     1      -0.210  -1.241  -1.087  1.00  0.00     0.098 A 
ATOM     12  C   UNL     1      -0.043   2.305   0.251  1.00  0.00     0.057 C 
ATOM     13  C   UNL     1       0.161   0.883  -0.155  1.00  0.00     0.007 A 
ATOM     14  S   UNL     1       1.732   0.240  -0.293  1.00  0.00    -0.122 S 
ATOM     15  C   UNL     1      -0.804  -0.057  -0.466  1.00  0.00    -0.021 A 
ATOM     16  C   UNL     1       1.165  -1.257  -0.891  1.00  0.00     0.110 A 
ATOM     17  C   UNL     1      -2.280   0.130  -0.258  1.00  0.00     0.046 C 
BRANCH  16  18
ATOM     18  N   UNL     1       2.220  -2.137  -1.072  1.00  0.00    -0.313 N 
ATOM     19  C   UNL     1       2.210  -3.483  -1.353  1.00  0.00     0.257 C 
ATOM     20  H   UNL     1       3.115  -1.736  -0.987  1.00  0.00     0.171 HD
ATOM     21  O   UNL     1       3.222  -4.105  -1.642  1.00  0.00    -0.269 OA
BRANCH  19  22
ATOM     22  C   UNL     1       0.948  -4.197  -1.282  1.00  0.00     0.058 A 
ATOM     23  C   UNL     1       0.219  -4.796  -2.802  1.00  0.00     0.018 A 
ATOM     24  C   UNL     1      -0.113  -3.720   0.057  1.00  0.00     0.126 A 
ATOM     25  C   UNL     1      -1.561  -4.824  -3.022  1.00  0.00     0.037 A 
ATOM     26  N   UNL     1      -1.883  -3.697  -0.172  1.00  0.00    -0.249 NA
ATOM     27  C   UNL     1      -2.596  -4.280  -1.690  1.00  0.00     0.106 A 
ATOM     28  Br  UNL     1      -4.471  -4.235  -1.895  1.00  0.00    -0.029 Br
ENDBRANCH  19  22
ENDBRANCH  16  18
ENDBRANCH   9  11
ENDBRANCH   8   9
ENDBRANCH   7   8
ENDBRANCH   6   7
ENDBRANCH   5   6
ENDBRANCH   4   5
ENDBRANCH   3   4
ENDBRANCH   2   3
ENDBRANCH   1   2
BRANCH   1  29
ATOM     29  C   UNL     1      -1.999  -5.630   4.463  1.00  0.00     0.188 C 
BRANCH  29  30
ATOM     30  O   UNL     1      -2.751  -4.829   5.368  1.00  0.00    -0.376 OA
BRANCH  30  31
ATOM     31  C   UNL     1      -2.222  -3.621   5.877  1.00  0.00     0.202 C 
BRANCH  31  32
ATOM     32  C   UNL     1      -1.019  -3.664   6.822  1.00  0.00     0.261 C 
BRANCH  32  33
ATOM     33  O   UNL     1       0.048  -4.529   6.429  1.00  0.00    -0.460 OA
BRANCH  33  34
ATOM     34  C   UNL     1      -0.026  -5.788   6.924  1.00  0.00     0.338 C 
ATOM     35  O   UNL     1      -0.883  -6.240   7.663  1.00  0.00    -0.246 OA
BRANCH  34  36
ATOM     36  C   UNL     1       1.028  -6.614   6.303  1.00  0.00     0.060 A 
ATOM     37  C   UNL     1       0.659  -7.805   5.661  1.00  0.00     0.016 A 
ATOM     38  C   UNL     1       2.372  -6.249   6.405  1.00  0.00     0.016 A 
ATOM     39  C   UNL     1       1.633  -8.660   5.158  1.00  0.00     0.010 A 
ATOM     40  C   UNL     1       3.351  -7.125   5.934  1.00  0.00     0.010 A 
ATOM     41  C   UNL     1       2.982  -8.352   5.355  1.00  0.00    -0.014 A 
BRANCH  41  42
ATOM     42  C   UNL     1       3.988  -9.426   5.208  1.00  0.00     0.031 A 
ATOM     43  C   UNL     1       4.391 -10.180   6.445  1.00  0.00     0.074 A 
ATOM     44  C   UNL     1       4.522  -9.728   4.014  1.00  0.00     0.049 A 
ATOM     45  N   UNL     1       5.295 -11.111   6.593  1.00  0.00    -0.248 NA
ATOM     46  C   UNL     1       3.681  -9.828   7.688  1.00  0.00     0.031 C 
ATOM     47  C   UNL     1       4.184  -9.084   2.748  1.00  0.00     0.029 A 
ATOM     48  N   UNL     1       5.492 -10.640   3.686  1.00  0.00    -0.354 N 
ATOM     49  C   UNL     1       5.290 -11.427   7.946  1.00  0.00     0.074 A 
ATOM     50  C   UNL     1       4.299 -10.586   8.578  1.00  0.00     0.031 C 
ATOM     51  C   UNL     1       4.966  -9.594   1.780  1.00  0.00     0.029 A 
ATOM     52  C   UNL     1       5.877 -10.575   2.369  1.00  0.00     0.049 A 
ATOM     53  H   UNL     1       5.875 -11.279   4.330  1.00  0.00     0.167 HD
ATOM     54  C   UNL     1       6.039 -12.342   8.603  1.00  0.00     0.034 A 
ATOM     55  C   UNL     1       6.875 -11.213   1.725  1.00  0.00     0.034 A 
ATOM     56  C   UNL     1       7.016 -13.180   7.964  1.00  0.00     0.049 A 
ATOM     57  C   UNL     1       7.723 -12.201   2.484  1.00  0.00     0.074 A 
ATOM     58  C   UNL     1       7.802 -14.168   8.527  1.00  0.00     0.029 A 
ATOM     59  N   UNL     1       7.355 -13.113   6.621  1.00  0.00    -0.354 N 
ATOM     60  N   UNL     1       7.644 -12.565   3.742  1.00  0.00    -0.248 NA
ATOM     61  C   UNL     1       8.779 -12.889   1.727  1.00  0.00     0.031 C 
ATOM     62  C   UNL     1       8.645 -14.673   7.532  1.00  0.00     0.029 A 
ATOM     63  C   UNL     1       8.351 -14.031   6.338  1.00  0.00     0.049 A 
ATOM     64  H   UNL     1       6.947 -12.503   5.965  1.00  0.00     0.167 HD
ATOM     65  C   UNL     1       8.611 -13.550   3.918  1.00  0.00     0.074 A 
ATOM     66  C   UNL     1       9.253 -13.735   2.632  1.00  0.00     0.031 C 
ATOM     67  C   UNL     1       8.945 -14.234   5.041  1.00  0.00     0.034 A 
BRANCH  54  68
ATOM     68  C   UNL     1       5.829 -12.475  10.088  1.00  0.00     0.023 A 
ATOM     69  C   UNL     1       4.635 -13.038  10.584  1.00  0.00     0.012 A 
ATOM     70  C   UNL     1       6.826 -12.062  10.993  1.00  0.00     0.148 A 
ATOM     71  C   UNL     1       4.420 -13.150  11.957  1.00  0.00     0.002 A 
ATOM     72  C   UNL     1       6.625 -12.222  12.358  1.00  0.00     0.091 A 
ATOM     73  F   UNL     1       7.942 -11.503  10.504  1.00  0.00    -0.205 F 
ATOM     74  C   UNL     1       5.417 -12.752  12.843  1.00  0.00     0.022 A 
BRANCH  72  75
ATOM     75  S   UNL     1       7.882 -11.815  13.574  1.00  0.00     0.127 S 
ATOM     76  O   UNL     1       7.307 -10.630  14.209  1.00  0.00    -0.237 OA
ATOM     77  O   UNL     1       7.893 -13.012  14.416  1.00  0.00    -0.237 OA
ATOM     78  O   UNL     1       9.109 -11.590  12.824  1.00  0.00    -0.744 OA
ENDBRANCH  72  75
ENDBRANCH  54  68
BRANCH  55  79
ATOM     79  C   UNL     1       7.112 -10.950   0.279  1.00  0.00     0.023 A 
ATOM     80  C   UNL     1       6.832 -11.956  -0.666  1.00  0.00     0.012 A 
ATOM     81  C   UNL     1       7.591  -9.702  -0.165  1.00  0.00     0.148 A 
ATOM     82  C   UNL     1       7.050 -11.732  -2.026  1.00  0.00     0.002 A 
ATOM     83  C   UNL     1       7.757  -9.469  -1.524  1.00  0.00     0.091 A 
ATOM     84  F   UNL     1       7.863  -8.765   0.754  1.00  0.00    -0.205 F 
ATOM     85  C   UNL     1       7.502 -10.487  -2.456  1.00  0.00     0.022 A 
BRANCH  83  86
ATOM     86  S   UNL     1       8.224  -7.864  -2.182  1.00  0.00     0.127 S 
ATOM     87  O   UNL     1       9.539  -8.147  -2.753  1.00  0.00    -0.237 OA
ATOM     88  O   UNL     1       7.165  -7.628  -3.164  1.00  0.00    -0.237 OA
ATOM     89  O   UNL     1       8.216  -6.954  -1.046  1.00  0.00    -0.744 OA
ENDBRANCH  83  86
ENDBRANCH  55  79
BRANCH  67  90
ATOM     90  C   UNL     1      10.020 -15.286   4.930  1.00  0.00     0.023 A 
ATOM     91  C   UNL     1      11.366 -14.907   4.761  1.00  0.00     0.012 A 
ATOM     92  C   UNL     1       9.699 -16.650   5.078  1.00  0.00     0.148 A 
ATOM     93  C   UNL     1      12.371 -15.871   4.706  1.00  0.00     0.002 A 
ATOM     94  C   UNL     1      10.711 -17.601   5.075  1.00  0.00     0.091 A 
ATOM     95  F   UNL     1       8.410 -16.992   5.223  1.00  0.00    -0.205 F 
ATOM     96  C   UNL     1      12.046 -17.216   4.875  1.00  0.00     0.022 A 
BRANCH  94  97
ATOM     97  S   UNL     1      10.399 -19.343   5.388  1.00  0.00     0.127 S 
ATOM     98  O   UNL     1      10.634 -19.928   4.069  1.00  0.00    -0.237 OA
ATOM     99  O   UNL     1      11.416 -19.665   6.389  1.00  0.00    -0.237 OA
ATOM    100  O   UNL     1       9.027 -19.426   5.871  1.00  0.00    -0.744 OA
ENDBRANCH  94  97
ENDBRANCH  67  90
ENDBRANCH  41  42
ENDBRANCH  34  36
ENDBRANCH  33  34
ENDBRANCH  32  33
ENDBRANCH  31  32
ENDBRANCH  30  31
ENDBRANCH  29  30
ENDBRANCH   1  29
TORSDOF 25
