REMARK SMILES C[C@H]1SC[C@H](C(=O)OCCOCCOCCOCCOC(=O)c2ccc(-c3c4nc(c(-c5cccc(S(=O)(=O)[O-])c5F)c5ccc([nH]5)c(-c5cccc(S(=O)(=O)[O-])c5F)c5nc(c(-c6cccc(S(=O)(=O)[O-])c6F)c6ccc3[nH]6)C=C5)C=C4)cc2)N1C(=O)[C@@H]1CSc2ccccc21
REMARK SMILES IDX 15 1 14 2 13 3 12 4 11 5 10 6 9 7 8 8 6 9 7 10 5 11 1 12
REMARK SMILES IDX 2 13 3 14 86 15 4 16 87 17 88 18 89 19 90 20 97 21 91 22
REMARK SMILES IDX 92 23 96 24 93 25 95 26 94 27 16 28 17 29 18 30 19 31 20 32
REMARK SMILES IDX 21 33 22 34 23 35 24 36 85 37 25 38 84 39 26 40 27 41 28 42
REMARK SMILES IDX 78 43 29 44 83 45 77 46 79 47 30 48 82 49 76 50 75 51 31 53
REMARK SMILES IDX 63 54 43 55 62 56 44 57 47 58 61 59 80 60 45 61 46 62 60 64
REMARK SMILES IDX 81 65 48 66 32 67 33 68 41 69 34 70 36 71 42 72 35 73 37 74
REMARK SMILES IDX 38 75 39 76 40 77 64 78 65 79 73 80 66 81 68 82 74 83 67 84
REMARK SMILES IDX 69 85 70 86 71 87 72 88 49 89 50 90 58 91 51 92 53 93 59 94
REMARK SMILES IDX 52 95 54 96 55 97 56 98 57 99
REMARK H PARENT 79 52 47 63
REMARK Flexibility Score: inf
ROOT
ATOM      1  C   UNL     1       4.424   0.406   6.914  1.00  0.00     0.188 C 
ENDROOT
BRANCH   1   2
ATOM      2  O   UNL     1       3.531  -0.132   5.949  1.00  0.00    -0.377 OA
BRANCH   2   3
ATOM      3  C   UNL     1       2.161  -0.070   6.271  1.00  0.00     0.188 C 
BRANCH   3   4
ATOM      4  C   UNL     1       1.542  -1.359   6.839  1.00  0.00     0.188 C 
BRANCH   4   5
ATOM      5  O   UNL     1       2.307  -2.534   7.077  1.00  0.00    -0.376 OA
BRANCH   5   6
ATOM      6  C   UNL     1       3.483  -2.831   6.339  1.00  0.00     0.202 C 
BRANCH   6   7
ATOM      7  C   UNL     1       3.451  -2.932   4.809  1.00  0.00     0.261 C 
BRANCH   7   8
ATOM      8  O   UNL     1       2.682  -1.934   4.128  1.00  0.00    -0.462 OA
BRANCH   8   9
ATOM      9  C   UNL     1       1.397  -2.279   3.866  1.00  0.00     0.329 C 
ATOM     10  O   UNL     1       0.839  -3.298   4.267  1.00  0.00    -0.250 OA
BRANCH   9  11
ATOM     11  C   UNL     1       0.714  -1.283   2.921  1.00  0.00     0.206 C 
ATOM     12  C   UNL     1      -1.658  -0.850   0.976  1.00  0.00     0.043 C 
ATOM     13  C   UNL     1      -0.157  -0.658   0.766  1.00  0.00     0.141 C 
ATOM     14  S   UNL     1       0.260   0.951   1.536  1.00  0.00    -0.135 SA
ATOM     15  N   UNL     1       0.634  -1.643   1.498  1.00  0.00    -0.316 N 
ATOM     16  C   UNL     1       1.121   0.189   2.957  1.00  0.00     0.109 C 
BRANCH  15  17
ATOM     17  C   UNL     1       1.586  -2.518   0.976  1.00  0.00     0.232 C 
ATOM     18  O   UNL     1       2.178  -3.315   1.708  1.00  0.00    -0.274 OA
BRANCH  17  19
ATOM     19  C   UNL     1       1.875  -2.543  -0.513  1.00  0.00     0.120 C 
ATOM     20  C   UNL     1       2.597  -3.860  -0.880  1.00  0.00     0.093 C 
ATOM     21  C   UNL     1       2.801  -1.460  -1.034  1.00  0.00    -0.021 A 
ATOM     22  S   UNL     1       3.328  -3.576  -2.520  1.00  0.00    -0.125 SA
ATOM     23  C   UNL     1       3.530  -1.852  -2.163  1.00  0.00     0.011 A 
ATOM     24  C   UNL     1       2.932  -0.155  -0.575  1.00  0.00     0.006 A 
ATOM     25  C   UNL     1       4.319  -0.954  -2.865  1.00  0.00     0.015 A 
ATOM     26  C   UNL     1       3.683   0.771  -1.296  1.00  0.00     0.000 A 
ATOM     27  C   UNL     1       4.368   0.376  -2.444  1.00  0.00     0.001 A 
ENDBRANCH  17  19
ENDBRANCH  15  17
ENDBRANCH   9  11
ENDBRANCH   8   9
ENDBRANCH   7   8
ENDBRANCH   6   7
ENDBRANCH   5   6
ENDBRANCH   4   5
ENDBRANCH   3   4
ENDBRANCH   2   3
ENDBRANCH   1   2
BRANCH   1  28
ATOM     28  C   UNL     1       4.108   0.095   8.391  1.00  0.00     0.188 C 
BRANCH  28  29
ATOM     29  O   UNL     1       2.776   0.416   8.776  1.00  0.00    -0.376 OA
BRANCH  29  30
ATOM     30  C   UNL     1       2.515   1.657   9.412  1.00  0.00     0.202 C 
BRANCH  30  31
ATOM     31  C   UNL     1       2.747   2.951   8.613  1.00  0.00     0.261 C 
BRANCH  31  32
ATOM     32  O   UNL     1       4.064   3.155   8.084  1.00  0.00    -0.460 OA
BRANCH  32  33
ATOM     33  C   UNL     1       5.099   3.149   8.948  1.00  0.00     0.338 C 
ATOM     34  O   UNL     1       5.035   3.060  10.164  1.00  0.00    -0.246 OA
BRANCH  33  35
ATOM     35  C   UNL     1       6.345   3.042   8.160  1.00  0.00     0.060 A 
ATOM     36  C   UNL     1       7.202   1.959   8.398  1.00  0.00     0.016 A 
ATOM     37  C   UNL     1       6.660   3.994   7.187  1.00  0.00     0.016 A 
ATOM     38  C   UNL     1       8.399   1.848   7.695  1.00  0.00     0.010 A 
ATOM     39  C   UNL     1       7.873   3.897   6.503  1.00  0.00     0.010 A 
ATOM     40  C   UNL     1       8.765   2.847   6.786  1.00  0.00    -0.014 A 
BRANCH  40  41
ATOM     41  C   UNL     1      10.165   2.912   6.307  1.00  0.00     0.031 A 
ATOM     42  C   UNL     1      11.107   3.861   6.996  1.00  0.00     0.074 A 
ATOM     43  C   UNL     1      10.598   2.148   5.291  1.00  0.00     0.049 A 
ATOM     44  N   UNL     1      12.358   4.128   6.733  1.00  0.00    -0.248 NA
ATOM     45  C   UNL     1      10.555   4.614   8.135  1.00  0.00     0.031 C 
ATOM     46  C   UNL     1       9.785   1.186   4.551  1.00  0.00     0.029 A 
ATOM     47  N   UNL     1      11.829   2.091   4.687  1.00  0.00    -0.354 N 
ATOM     48  C   UNL     1      12.735   5.102   7.649  1.00  0.00     0.074 A 
ATOM     49  C   UNL     1      11.575   5.391   8.463  1.00  0.00     0.031 C 
ATOM     50  C   UNL     1      10.528   0.664   3.561  1.00  0.00     0.029 A 
ATOM     51  C   UNL     1      11.857   1.276   3.582  1.00  0.00     0.049 A 
ATOM     52  H   UNL     1      12.615   2.586   5.014  1.00  0.00     0.167 HD
ATOM     53  C   UNL     1      13.941   5.696   7.809  1.00  0.00     0.034 A 
ATOM     54  C   UNL     1      12.830   1.076   2.672  1.00  0.00     0.034 A 
ATOM     55  C   UNL     1      15.090   5.409   6.995  1.00  0.00     0.049 A 
ATOM     56  C   UNL     1      14.155   1.772   2.840  1.00  0.00     0.074 A 
ATOM     57  C   UNL     1      16.369   5.923   7.100  1.00  0.00     0.029 A 
ATOM     58  N   UNL     1      15.094   4.547   5.909  1.00  0.00    -0.354 N 
ATOM     59  N   UNL     1      14.536   2.610   3.775  1.00  0.00    -0.248 NA
ATOM     60  C   UNL     1      15.197   1.469   1.849  1.00  0.00     0.031 C 
ATOM     61  C   UNL     1      17.134   5.407   6.049  1.00  0.00     0.029 A 
ATOM     62  C   UNL     1      16.346   4.530   5.320  1.00  0.00     0.049 A 
ATOM     63  H   UNL     1      14.319   4.024   5.601  1.00  0.00     0.167 HD
ATOM     64  C   UNL     1      15.867   2.910   3.505  1.00  0.00     0.074 A 
ATOM     65  C   UNL     1      16.232   2.149   2.326  1.00  0.00     0.031 C 
ATOM     66  C   UNL     1      16.709   3.743   4.167  1.00  0.00     0.034 A 
BRANCH  53  67
ATOM     67  C   UNL     1      14.062   6.722   8.906  1.00  0.00     0.023 A 
ATOM     68  C   UNL     1      13.997   6.322  10.258  1.00  0.00     0.012 A 
ATOM     69  C   UNL     1      14.243   8.085   8.600  1.00  0.00     0.148 A 
ATOM     70  C   UNL     1      14.055   7.265  11.283  1.00  0.00     0.002 A 
ATOM     71  C   UNL     1      14.353   9.013   9.628  1.00  0.00     0.091 A 
ATOM     72  F   UNL     1      14.278   8.452   7.311  1.00  0.00    -0.205 F 
ATOM     73  C   UNL     1      14.241   8.608  10.968  1.00  0.00     0.022 A 
BRANCH  71  74
ATOM     74  S   UNL     1      14.675  10.753   9.326  1.00  0.00     0.127 S 
ATOM     75  O   UNL     1      13.382  11.353   9.647  1.00  0.00    -0.237 OA
ATOM     76  O   UNL     1      15.737  11.041  10.291  1.00  0.00    -0.237 OA
ATOM     77  O   UNL     1      15.082  10.849   7.931  1.00  0.00    -0.744 OA
ENDBRANCH  71  74
ENDBRANCH  53  67
BRANCH  54  78
ATOM     78  C   UNL     1      12.577   0.169   1.518  1.00  0.00     0.023 A 
ATOM     79  C   UNL     1      13.223  -1.079   1.448  1.00  0.00     0.012 A 
ATOM     80  C   UNL     1      11.656   0.527   0.513  1.00  0.00     0.148 A 
ATOM     81  C   UNL     1      12.969  -1.949   0.386  1.00  0.00     0.002 A 
ATOM     82  C   UNL     1      11.366  -0.365  -0.510  1.00  0.00     0.091 A 
ATOM     83  F   UNL     1      11.063   1.727   0.596  1.00  0.00    -0.205 F 
ATOM     84  C   UNL     1      12.033  -1.599  -0.584  1.00  0.00     0.022 A 
BRANCH  82  85
ATOM     85  S   UNL     1      10.087  -0.053  -1.731  1.00  0.00     0.127 S 
ATOM     86  O   UNL     1      10.864   0.023  -2.966  1.00  0.00    -0.237 OA
ATOM     87  O   UNL     1       9.253  -1.247  -1.599  1.00  0.00    -0.237 OA
ATOM     88  O   UNL     1       9.440   1.186  -1.323  1.00  0.00    -0.744 OA
ENDBRANCH  82  85
ENDBRANCH  54  78
BRANCH  66  89
ATOM     89  C   UNL     1      18.127   3.854   3.667  1.00  0.00     0.023 A 
ATOM     90  C   UNL     1      18.402   4.522   2.457  1.00  0.00     0.012 A 
ATOM     91  C   UNL     1      19.198   3.362   4.441  1.00  0.00     0.148 A 
ATOM     92  C   UNL     1      19.716   4.667   2.009  1.00  0.00     0.002 A 
ATOM     93  C   UNL     1      20.506   3.557   4.016  1.00  0.00     0.091 A 
ATOM     94  F   UNL     1      18.916   2.716   5.582  1.00  0.00    -0.205 F 
ATOM     95  C   UNL     1      20.767   4.196   2.794  1.00  0.00     0.022 A 
BRANCH  93  96
ATOM     96  S   UNL     1      21.925   3.075   5.007  1.00  0.00     0.127 S 
ATOM     97  O   UNL     1      22.469   1.964   4.226  1.00  0.00    -0.237 OA
ATOM     98  O   UNL     1      22.740   4.290   4.990  1.00  0.00    -0.237 OA
ATOM     99  O   UNL     1      21.400   2.716   6.317  1.00  0.00    -0.744 OA
ENDBRANCH  93  96
ENDBRANCH  66  89
ENDBRANCH  40  41
ENDBRANCH  33  35
ENDBRANCH  32  33
ENDBRANCH  31  32
ENDBRANCH  30  31
ENDBRANCH  29  30
ENDBRANCH  28  29
ENDBRANCH   1  28
TORSDOF 25
