REMARK SMILES O=C(OCCOCCOCCOCCOC(=O)[C@@H]1CCCC[C@H]1C(=O)Nc1ccccc1C(=O)N1CCOCC1)c1ccc(-c2c3nc(c(-c4cccc(S(=O)(=O)[O-])c4F)c4ccc([nH]4)c(-c4cccc(S(=O)(=O)[O-])c4F)c4nc(c(-c5cccc(S(=O)(=O)[O-])c5F)c5ccc2[nH]5)C=C4)C=C3)cc1
REMARK SMILES IDX 9 1 8 2 7 3 6 4 5 5 4 6 3 7 2 8 1 9 41 10 42 11 103 12 43 13
REMARK SMILES IDX 102 14 44 15 45 16 46 17 96 18 47 19 101 20 95 21 97 22
REMARK SMILES IDX 48 23 100 24 94 25 93 26 49 28 81 29 61 30 80 31 62 32 65 33
REMARK SMILES IDX 79 34 98 35 63 36 64 37 78 39 99 40 66 41 50 42 51 43 59 44
REMARK SMILES IDX 52 45 54 46 60 47 53 48 55 49 56 50 57 51 58 52 82 53 83 54
REMARK SMILES IDX 91 55 84 56 86 57 92 58 85 59 87 60 88 61 89 62 90 63 67 64
REMARK SMILES IDX 68 65 76 66 69 67 71 68 77 69 70 70 72 71 73 72 74 73 75 74
REMARK SMILES IDX 10 75 11 76 12 77 13 78 14 79 15 80 16 81 17 82 18 83 19 84
REMARK SMILES IDX 23 85 20 86 22 87 21 88 24 89 25 90 26 91 27 93 28 94 32 95
REMARK SMILES IDX 29 96 31 97 30 98 33 99 34 100 35 101 36 102 40 103 37 104
REMARK SMILES IDX 39 105 38 106
REMARK H PARENT 97 27 65 38 26 92
REMARK Flexibility Score: inf
ROOT
ATOM      1  O   UNL     1       2.692  -3.166   1.464  1.00  0.00    -0.377 OA
ENDROOT
BRANCH   1   2
ATOM      2  C   UNL     1       1.905  -2.369   0.596  1.00  0.00     0.188 C 
BRANCH   2   3
ATOM      3  C   UNL     1       2.265  -0.872   0.678  1.00  0.00     0.188 C 
BRANCH   3   4
ATOM      4  O   UNL     1       3.628  -0.755   0.311  1.00  0.00    -0.376 OA
BRANCH   4   5
ATOM      5  C   UNL     1       4.289   0.419  -0.099  1.00  0.00     0.202 C 
BRANCH   5   6
ATOM      6  C   UNL     1       3.569   1.686  -0.549  1.00  0.00     0.261 C 
BRANCH   6   7
ATOM      7  O   UNL     1       2.166   1.589  -0.862  1.00  0.00    -0.460 OA
BRANCH   7   8
ATOM      8  C   UNL     1       1.624   1.344  -2.088  1.00  0.00     0.338 C 
ATOM      9  O   UNL     1       0.518   1.760  -2.384  1.00  0.00    -0.246 OA
BRANCH   8  10
ATOM     10  C   UNL     1       2.381   0.492  -3.032  1.00  0.00     0.060 A 
ATOM     11  C   UNL     1       3.040  -0.631  -2.570  1.00  0.00     0.016 A 
ATOM     12  C   UNL     1       2.385   0.734  -4.397  1.00  0.00     0.016 A 
ATOM     13  C   UNL     1       3.980  -1.290  -3.316  1.00  0.00     0.010 A 
ATOM     14  C   UNL     1       3.154  -0.090  -5.228  1.00  0.00     0.010 A 
ATOM     15  C   UNL     1       4.008  -1.066  -4.674  1.00  0.00    -0.014 A 
BRANCH  15  16
ATOM     16  C   UNL     1       4.984  -1.815  -5.482  1.00  0.00     0.031 A 
ATOM     17  C   UNL     1       5.936  -1.015  -6.305  1.00  0.00     0.074 A 
ATOM     18  C   UNL     1       5.035  -3.162  -5.436  1.00  0.00     0.049 A 
ATOM     19  N   UNL     1       6.623  -1.373  -7.347  1.00  0.00    -0.248 NA
ATOM     20  C   UNL     1       6.116   0.397  -5.913  1.00  0.00     0.031 C 
ATOM     21  C   UNL     1       4.263  -4.026  -4.532  1.00  0.00     0.029 A 
ATOM     22  N   UNL     1       5.762  -4.050  -6.184  1.00  0.00    -0.354 N 
ATOM     23  C   UNL     1       7.197  -0.203  -7.825  1.00  0.00     0.074 A 
ATOM     24  C   UNL     1       6.845   0.862  -6.916  1.00  0.00     0.031 C 
ATOM     25  C   UNL     1       4.558  -5.310  -4.775  1.00  0.00     0.029 A 
ATOM     26  C   UNL     1       5.407  -5.362  -5.950  1.00  0.00     0.049 A 
ATOM     27  H   UNL     1       6.463  -3.781  -6.820  1.00  0.00     0.167 HD
ATOM     28  C   UNL     1       7.907  -0.053  -8.962  1.00  0.00     0.034 A 
ATOM     29  C   UNL     1       5.643  -6.464  -6.684  1.00  0.00     0.034 A 
ATOM     30  C   UNL     1       8.249  -1.169  -9.797  1.00  0.00     0.049 A 
ATOM     31  C   UNL     1       6.407  -6.269  -7.964  1.00  0.00     0.074 A 
ATOM     32  C   UNL     1       8.950  -1.182 -10.985  1.00  0.00     0.029 A 
ATOM     33  N   UNL     1       7.897  -2.484  -9.515  1.00  0.00    -0.354 N 
ATOM     34  N   UNL     1       6.923  -5.165  -8.454  1.00  0.00    -0.248 NA
ATOM     35  C   UNL     1       6.611  -7.455  -8.801  1.00  0.00     0.031 C 
ATOM     36  C   UNL     1       8.989  -2.505 -11.438  1.00  0.00     0.029 A 
ATOM     37  C   UNL     1       8.350  -3.320 -10.512  1.00  0.00     0.049 A 
ATOM     38  H   UNL     1       7.397  -2.776  -8.719  1.00  0.00     0.167 HD
ATOM     39  C   UNL     1       7.530  -5.523  -9.647  1.00  0.00     0.074 A 
ATOM     40  C   UNL     1       7.339  -6.955  -9.790  1.00  0.00     0.031 C 
ATOM     41  C   UNL     1       8.168  -4.750 -10.560  1.00  0.00     0.034 A 
BRANCH  28  42
ATOM     42  C   UNL     1       8.250   1.346  -9.386  1.00  0.00     0.023 A 
ATOM     43  C   UNL     1       9.220   2.097  -8.695  1.00  0.00     0.012 A 
ATOM     44  C   UNL     1       7.565   1.930 -10.471  1.00  0.00     0.148 A 
ATOM     45  C   UNL     1       9.475   3.422  -9.053  1.00  0.00     0.002 A 
ATOM     46  C   UNL     1       7.857   3.234 -10.850  1.00  0.00     0.091 A 
ATOM     47  F   UNL     1       6.621   1.210 -11.092  1.00  0.00    -0.205 F 
ATOM     48  C   UNL     1       8.800   3.987 -10.133  1.00  0.00     0.022 A 
BRANCH  46  49
ATOM     49  S   UNL     1       7.081   4.025 -12.263  1.00  0.00     0.127 S 
ATOM     50  O   UNL     1       6.362   5.131 -11.621  1.00  0.00    -0.237 OA
ATOM     51  O   UNL     1       8.247   4.440 -13.051  1.00  0.00    -0.237 OA
ATOM     52  O   UNL     1       6.243   3.023 -12.885  1.00  0.00    -0.744 OA
ENDBRANCH  46  49
ENDBRANCH  28  42
BRANCH  29  53
ATOM     53  C   UNL     1       5.086  -7.791  -6.283  1.00  0.00     0.023 A 
ATOM     54  C   UNL     1       5.964  -8.840  -5.952  1.00  0.00     0.012 A 
ATOM     55  C   UNL     1       3.695  -8.023  -6.213  1.00  0.00     0.148 A 
ATOM     56  C   UNL     1       5.472 -10.098  -5.594  1.00  0.00     0.002 A 
ATOM     57  C   UNL     1       3.210  -9.260  -5.800  1.00  0.00     0.091 A 
ATOM     58  F   UNL     1       2.865  -7.024  -6.548  1.00  0.00    -0.205 F 
ATOM     59  C   UNL     1       4.098 -10.305  -5.508  1.00  0.00     0.022 A 
BRANCH  57  60
ATOM     60  S   UNL     1       1.458  -9.574  -5.549  1.00  0.00     0.127 S 
ATOM     61  O   UNL     1       1.135 -10.406  -6.704  1.00  0.00    -0.237 OA
ATOM     62  O   UNL     1       1.452 -10.276  -4.264  1.00  0.00    -0.237 OA
ATOM     63  O   UNL     1       0.827  -8.261  -5.514  1.00  0.00    -0.744 OA
ENDBRANCH  57  60
ENDBRANCH  29  53
BRANCH  41  64
ATOM     64  C   UNL     1       8.744  -5.448 -11.755  1.00  0.00     0.023 A 
ATOM     65  C   UNL     1       7.895  -5.874 -12.793  1.00  0.00     0.012 A 
ATOM     66  C   UNL     1      10.139  -5.561 -11.892  1.00  0.00     0.148 A 
ATOM     67  C   UNL     1       8.434  -6.422 -13.954  1.00  0.00     0.002 A 
ATOM     68  C   UNL     1      10.669  -6.052 -13.074  1.00  0.00     0.091 A 
ATOM     69  F   UNL     1      10.915  -5.163 -10.873  1.00  0.00    -0.205 F 
ATOM     70  C   UNL     1       9.819  -6.493 -14.101  1.00  0.00     0.022 A 
BRANCH  68  71
ATOM     71  S   UNL     1      12.433  -6.063 -13.397  1.00  0.00     0.127 S 
ATOM     72  O   UNL     1      12.727  -7.495 -13.394  1.00  0.00    -0.237 OA
ATOM     73  O   UNL     1      12.508  -5.425 -14.711  1.00  0.00    -0.237 OA
ATOM     74  O   UNL     1      13.047  -5.300 -12.318  1.00  0.00    -0.744 OA
ENDBRANCH  68  71
ENDBRANCH  41  64
ENDBRANCH  15  16
ENDBRANCH   8  10
ENDBRANCH   7   8
ENDBRANCH   6   7
ENDBRANCH   5   6
ENDBRANCH   4   5
ENDBRANCH   3   4
ENDBRANCH   2   3
ENDBRANCH   1   2
BRANCH   1  75
ATOM     75  C   UNL     1       4.022  -3.506   1.056  1.00  0.00     0.188 C 
BRANCH  75  76
ATOM     76  C   UNL     1       4.283  -4.795   0.307  1.00  0.00     0.188 C 
BRANCH  76  77
ATOM     77  O   UNL     1       3.744  -5.987   0.853  1.00  0.00    -0.376 OA
BRANCH  77  78
ATOM     78  C   UNL     1       2.611  -5.877   1.707  1.00  0.00     0.202 C 
BRANCH  78  79
ATOM     79  C   UNL     1       2.965  -5.878   3.226  1.00  0.00     0.261 C 
BRANCH  79  80
ATOM     80  O   UNL     1       3.418  -4.672   3.966  1.00  0.00    -0.463 OA
BRANCH  80  81
ATOM     81  C   UNL     1       4.513  -4.861   4.777  1.00  0.00     0.309 C 
ATOM     82  O   UNL     1       5.222  -5.872   4.690  1.00  0.00    -0.252 OA
BRANCH  81  83
ATOM     83  C   UNL     1       4.679  -4.002   6.102  1.00  0.00     0.111 C 
ATOM     84  C   UNL     1       3.605  -4.720   6.990  1.00  0.00     0.016 C 
ATOM     85  C   UNL     1       4.685  -2.461   6.505  1.00  0.00     0.093 C 
ATOM     86  C   UNL     1       3.849  -4.566   8.480  1.00  0.00     0.001 C 
ATOM     87  C   UNL     1       4.904  -2.394   8.063  1.00  0.00     0.014 C 
ATOM     88  C   UNL     1       3.837  -3.105   8.853  1.00  0.00     0.001 C 
BRANCH  85  89
ATOM     89  C   UNL     1       5.553  -1.181   6.212  1.00  0.00     0.228 C 
ATOM     90  O   UNL     1       5.026  -0.079   6.465  1.00  0.00    -0.274 OA
ATOM     91  N   UNL     1       6.888  -1.064   6.026  1.00  0.00    -0.325 N 
ATOM     92  H   UNL     1       7.241  -0.154   6.158  1.00  0.00     0.169 HD
BRANCH  91  93
ATOM     93  C   UNL     1       7.841  -2.006   5.683  1.00  0.00     0.054 A 
ATOM     94  C   UNL     1       9.095  -1.879   6.286  1.00  0.00     0.027 A 
ATOM     95  C   UNL     1       7.581  -3.064   4.828  1.00  0.00     0.063 A 
ATOM     96  C   UNL     1       9.948  -2.976   6.317  1.00  0.00     0.002 A 
ATOM     97  C   UNL     1       8.390  -4.202   4.934  1.00  0.00     0.016 A 
ATOM     98  C   UNL     1       9.546  -4.170   5.722  1.00  0.00     0.001 A 
BRANCH  95  99
ATOM     99  C   UNL     1       6.568  -2.948   3.725  1.00  0.00     0.256 C 
ATOM    100  O   UNL     1       6.389  -3.912   3.003  1.00  0.00    -0.269 OA
ATOM    101  N   UNL     1       5.973  -1.696   3.513  1.00  0.00    -0.334 N 
ATOM    102  C   UNL     1       6.708  -0.766   2.679  1.00  0.00     0.148 C 
ATOM    103  C   UNL     1       4.524  -1.471   3.403  1.00  0.00     0.148 C 
ATOM    104  C   UNL     1       6.300   0.673   3.010  1.00  0.00     0.181 C 
ATOM    105  C   UNL     1       4.097  -0.012   3.620  1.00  0.00     0.181 C 
ATOM    106  O   UNL     1       4.891   0.908   2.866  1.00  0.00    -0.378 OA
ENDBRANCH  95  99
ENDBRANCH  91  93
ENDBRANCH  85  89
ENDBRANCH  81  83
ENDBRANCH  80  81
ENDBRANCH  79  80
ENDBRANCH  78  79
ENDBRANCH  77  78
ENDBRANCH  76  77
ENDBRANCH  75  76
ENDBRANCH   1  75
TORSDOF 26
