REMARK SMILES CC1(C)CC(=O)C(/C=N/Cc2ccc(C(=O)OCCOCCOCCOCCOC(=O)c3ccc(-c4c5nc(c(-c6cccc(S(=O)(=O)[O-])c6F)c6ccc([nH]6)c(-c6cccc(S(=O)(=O)[O-])c6F)c6nc(c(-c7cccc(S(=O)(=O)[O-])c7F)c7ccc4[nH]7)C=C6)C=C5)cc3)cc2)=C([O-])C1
REMARK SMILES IDX 23 1 22 2 21 3 20 4 19 5 18 6 17 7 15 8 16 9 14 10 11 11
REMARK SMILES IDX 12 12 96 13 13 14 95 15 10 16 9 17 8 18 7 19 1 20 2 21 3 22
REMARK SMILES IDX 4 23 99 24 5 25 97 26 6 27 98 28 24 29 25 30 26 31 27 32
REMARK SMILES IDX 28 33 29 34 30 35 31 36 32 37 33 38 94 39 34 40 93 41 35 42
REMARK SMILES IDX 36 43 37 44 87 45 38 46 92 47 86 48 88 49 39 50 91 51 85 52
REMARK SMILES IDX 84 53 40 55 72 56 52 57 71 58 53 59 56 60 70 61 89 62 54 63
REMARK SMILES IDX 55 64 69 66 90 67 57 68 41 69 42 70 50 71 43 72 45 73 51 74
REMARK SMILES IDX 44 75 46 76 47 77 48 78 49 79 73 80 74 81 82 82 75 83 77 84
REMARK SMILES IDX 83 85 76 86 78 87 79 88 80 89 81 90 58 91 59 92 67 93 60 94
REMARK SMILES IDX 62 95 68 96 61 97 63 98 64 99 65 100 66 101
REMARK H PARENT 88 54 56 65
REMARK Flexibility Score: inf
ROOT
ATOM      1  O   UNL     1       6.410  -2.595  -6.694  1.00  0.00    -0.377 OA
ENDROOT
BRANCH   1   2
ATOM      2  C   UNL     1       5.577  -1.645  -6.055  1.00  0.00     0.188 C 
BRANCH   2   3
ATOM      3  C   UNL     1       5.960  -0.163  -6.232  1.00  0.00     0.188 C 
BRANCH   3   4
ATOM      4  O   UNL     1       6.853   0.074  -7.307  1.00  0.00    -0.376 OA
BRANCH   4   5
ATOM      5  C   UNL     1       8.225   0.302  -7.038  1.00  0.00     0.202 C 
BRANCH   5   6
ATOM      6  C   UNL     1       9.043  -0.688  -6.189  1.00  0.00     0.261 C 
BRANCH   6   7
ATOM      7  O   UNL     1       8.401  -1.206  -5.021  1.00  0.00    -0.460 OA
BRANCH   7   8
ATOM      8  C   UNL     1       8.286  -0.372  -3.968  1.00  0.00     0.338 C 
ATOM      9  O   UNL     1       8.695   0.773  -3.892  1.00  0.00    -0.246 OA
BRANCH   8  10
ATOM     10  C   UNL     1       7.351  -0.985  -2.998  1.00  0.00     0.060 A 
ATOM     11  C   UNL     1       5.479  -2.026  -1.182  1.00  0.00    -0.027 A 
ATOM     12  C   UNL     1       5.411  -0.688  -1.592  1.00  0.00     0.006 A 
ATOM     13  C   UNL     1       6.476  -2.850  -1.729  1.00  0.00     0.006 A 
ATOM     14  C   UNL     1       6.343  -0.166  -2.483  1.00  0.00     0.016 A 
ATOM     15  C   UNL     1       7.402  -2.337  -2.646  1.00  0.00     0.016 A 
BRANCH  11  16
ATOM     16  C   UNL     1       4.558  -2.547  -0.101  1.00  0.00     0.177 C 
BRANCH  16  17
ATOM     17  N   UNL     1       3.151  -2.183  -0.301  1.00  0.00    -0.288 NA
ATOM     18  C   UNL     1       2.752  -1.132   0.321  1.00  0.00     0.116 C 
BRANCH  18  19
ATOM     19  C   UNL     1       1.361  -0.617   0.285  1.00  0.00     0.024 C 
ATOM     20  C   UNL     1      -2.712   0.987   0.544  1.00  0.00     0.012 C 
ATOM     21  C   UNL     1      -1.387   0.410   0.013  1.00  0.00    -0.025 C 
ATOM     22  C   UNL     1      -1.489   0.296  -1.521  1.00  0.00     0.012 C 
ATOM     23  C   UNL     1      -1.168  -0.972   0.638  1.00  0.00     0.087 C 
ATOM     24  C   UNL     1      -0.228   1.342   0.416  1.00  0.00     0.026 C 
ATOM     25  C   UNL     1       0.193  -1.549   0.322  1.00  0.00     0.164 C 
ATOM     26  C   UNL     1       1.143   0.715   0.333  1.00  0.00    -0.120 C 
ATOM     27  O   UNL     1       0.324  -2.765   0.210  1.00  0.00    -0.294 OA
ATOM     28  O   UNL     1       2.147   1.667   0.297  1.00  0.00    -0.875 OA
ENDBRANCH  18  19
ENDBRANCH  16  17
ENDBRANCH  11  16
ENDBRANCH   8  10
ENDBRANCH   7   8
ENDBRANCH   6   7
ENDBRANCH   5   6
ENDBRANCH   4   5
ENDBRANCH   3   4
ENDBRANCH   2   3
ENDBRANCH   1   2
BRANCH   1  29
ATOM     29  C   UNL     1       6.538  -2.590  -8.115  1.00  0.00     0.188 C 
BRANCH  29  30
ATOM     30  C   UNL     1       5.673  -1.695  -9.039  1.00  0.00     0.188 C 
BRANCH  30  31
ATOM     31  O   UNL     1       4.473  -1.206  -8.460  1.00  0.00    -0.376 OA
BRANCH  31  32
ATOM     32  C   UNL     1       3.252  -1.763  -8.915  1.00  0.00     0.202 C 
BRANCH  32  33
ATOM     33  C   UNL     1       3.006  -3.233  -8.551  1.00  0.00     0.261 C 
BRANCH  33  34
ATOM     34  O   UNL     1       4.017  -4.157  -8.976  1.00  0.00    -0.460 OA
BRANCH  34  35
ATOM     35  C   UNL     1       4.192  -4.295 -10.311  1.00  0.00     0.338 C 
ATOM     36  O   UNL     1       3.576  -3.732 -11.192  1.00  0.00    -0.246 OA
BRANCH  35  37
ATOM     37  C   UNL     1       5.407  -5.111 -10.523  1.00  0.00     0.060 A 
ATOM     38  C   UNL     1       6.455  -4.574 -11.281  1.00  0.00     0.016 A 
ATOM     39  C   UNL     1       5.501  -6.397  -9.988  1.00  0.00     0.016 A 
ATOM     40  C   UNL     1       7.576  -5.352 -11.564  1.00  0.00     0.010 A 
ATOM     41  C   UNL     1       6.618  -7.181 -10.286  1.00  0.00     0.010 A 
ATOM     42  C   UNL     1       7.632  -6.679 -11.120  1.00  0.00    -0.014 A 
BRANCH  42  43
ATOM     43  C   UNL     1       8.612  -7.603 -11.740  1.00  0.00     0.031 A 
ATOM     44  C   UNL     1       8.137  -8.483 -12.867  1.00  0.00     0.074 A 
ATOM     45  C   UNL     1       9.896  -7.641 -11.344  1.00  0.00     0.049 A 
ATOM     46  N   UNL     1       8.801  -9.358 -13.574  1.00  0.00    -0.248 NA
ATOM     47  C   UNL     1       6.718  -8.358 -13.244  1.00  0.00     0.031 C 
ATOM     48  C   UNL     1      10.478  -6.834 -10.274  1.00  0.00     0.029 A 
ATOM     49  N   UNL     1      10.940  -8.410 -11.795  1.00  0.00    -0.354 N 
ATOM     50  C   UNL     1       7.878  -9.908 -14.457  1.00  0.00     0.074 A 
ATOM     51  C   UNL     1       6.604  -9.282 -14.185  1.00  0.00     0.031 C 
ATOM     52  C   UNL     1      11.774  -7.168 -10.134  1.00  0.00     0.029 A 
ATOM     53  C   UNL     1      12.105  -8.223 -11.090  1.00  0.00     0.049 A 
ATOM     54  H   UNL     1      10.861  -9.035 -12.551  1.00  0.00     0.167 HD
ATOM     55  C   UNL     1       8.073 -10.837 -15.421  1.00  0.00     0.034 A 
ATOM     56  C   UNL     1      13.295  -8.848 -11.197  1.00  0.00     0.034 A 
ATOM     57  C   UNL     1       9.343 -11.450 -15.699  1.00  0.00     0.049 A 
ATOM     58  C   UNL     1      13.483  -9.895 -12.267  1.00  0.00     0.074 A 
ATOM     59  C   UNL     1       9.655 -12.377 -16.677  1.00  0.00     0.029 A 
ATOM     60  N   UNL     1      10.508 -11.210 -14.989  1.00  0.00    -0.354 N 
ATOM     61  N   UNL     1      12.629 -10.328 -13.164  1.00  0.00    -0.248 NA
ATOM     62  C   UNL     1      14.815 -10.510 -12.365  1.00  0.00     0.031 C 
ATOM     63  C   UNL     1      11.003 -12.725 -16.534  1.00  0.00     0.029 A 
ATOM     64  C   UNL     1      11.541 -11.976 -15.500  1.00  0.00     0.049 A 
ATOM     65  H   UNL     1      10.590 -10.586 -14.232  1.00  0.00     0.167 HD
ATOM     66  C   UNL     1      13.332 -11.227 -13.960  1.00  0.00     0.074 A 
ATOM     67  C   UNL     1      14.687 -11.262 -13.449  1.00  0.00     0.031 C 
ATOM     68  C   UNL     1      12.897 -11.963 -15.014  1.00  0.00     0.034 A 
BRANCH  55  69
ATOM     69  C   UNL     1       6.882 -11.241 -16.250  1.00  0.00     0.023 A 
ATOM     70  C   UNL     1       6.331 -10.336 -17.180  1.00  0.00     0.012 A 
ATOM     71  C   UNL     1       6.330 -12.531 -16.132  1.00  0.00     0.148 A 
ATOM     72  C   UNL     1       5.227 -10.694 -17.952  1.00  0.00     0.002 A 
ATOM     73  C   UNL     1       5.262 -12.899 -16.941  1.00  0.00     0.091 A 
ATOM     74  F   UNL     1       6.851 -13.369 -15.225  1.00  0.00    -0.205 F 
ATOM     75  C   UNL     1       4.700 -11.978 -17.841  1.00  0.00     0.022 A 
BRANCH  73  76
ATOM     76  S   UNL     1       4.567 -14.555 -16.933  1.00  0.00     0.127 S 
ATOM     77  O   UNL     1       3.248 -14.318 -16.347  1.00  0.00    -0.237 OA
ATOM     78  O   UNL     1       4.551 -14.886 -18.358  1.00  0.00    -0.237 OA
ATOM     79  O   UNL     1       5.468 -15.367 -16.129  1.00  0.00    -0.744 OA
ENDBRANCH  73  76
ENDBRANCH  55  69
BRANCH  56  80
ATOM     80  C   UNL     1      14.419  -8.480 -10.291  1.00  0.00     0.023 A 
ATOM     81  C   UNL     1      15.558  -7.837 -10.814  1.00  0.00     0.012 A 
ATOM     82  C   UNL     1      14.367  -8.770  -8.914  1.00  0.00     0.148 A 
ATOM     83  C   UNL     1      16.641  -7.526  -9.990  1.00  0.00     0.002 A 
ATOM     84  C   UNL     1      15.424  -8.406  -8.088  1.00  0.00     0.091 A 
ATOM     85  F   UNL     1      13.281  -9.395  -8.438  1.00  0.00    -0.205 F 
ATOM     86  C   UNL     1      16.571  -7.802  -8.627  1.00  0.00     0.022 A 
BRANCH  84  87
ATOM     87  S   UNL     1      15.372  -8.610  -6.305  1.00  0.00     0.127 S 
ATOM     88  O   UNL     1      16.400  -9.626  -6.090  1.00  0.00    -0.237 OA
ATOM     89  O   UNL     1      15.724  -7.268  -5.841  1.00  0.00    -0.237 OA
ATOM     90  O   UNL     1      14.009  -9.018  -5.993  1.00  0.00    -0.744 OA
ENDBRANCH  84  87
ENDBRANCH  56  80
BRANCH  68  91
ATOM     91  C   UNL     1      13.908 -12.821 -15.733  1.00  0.00     0.023 A 
ATOM     92  C   UNL     1      14.447 -13.964 -15.109  1.00  0.00     0.012 A 
ATOM     93  C   UNL     1      14.287 -12.516 -17.056  1.00  0.00     0.148 A 
ATOM     94  C   UNL     1      15.385 -14.757 -15.769  1.00  0.00     0.002 A 
ATOM     95  C   UNL     1      15.179 -13.343 -17.729  1.00  0.00     0.091 A 
ATOM     96  F   UNL     1      13.778 -11.417 -17.632  1.00  0.00    -0.205 F 
ATOM     97  C   UNL     1      15.743 -14.453 -17.081  1.00  0.00     0.022 A 
BRANCH  95  98
ATOM     98  S   UNL     1      15.613 -13.085 -19.452  1.00  0.00     0.127 S 
ATOM     99  O   UNL     1      16.968 -12.548 -19.341  1.00  0.00    -0.237 OA
ATOM    100  O   UNL     1      15.537 -14.440 -19.999  1.00  0.00    -0.237 OA
ATOM    101  O   UNL     1      14.616 -12.166 -19.983  1.00  0.00    -0.744 OA
ENDBRANCH  95  98
ENDBRANCH  68  91
ENDBRANCH  42  43
ENDBRANCH  35  37
ENDBRANCH  34  35
ENDBRANCH  33  34
ENDBRANCH  32  33
ENDBRANCH  31  32
ENDBRANCH  30  31
ENDBRANCH  29  30
ENDBRANCH   1  29
TORSDOF 26
