REMARK SMILES COc1cc(C)cc2c1[C@@H](C)[C@@H](CC(=O)N[C@@H](Cc1c[nH]c3ccccc13)C(=O)OCCOCCOCCOCCOC(=O)c1ccc(-c3c4nc(c(-c5cccc(S(=O)(=O)[O-])c5F)c5ccc([nH]5)c(-c5cccc(S(=O)(=O)[O-])c5F)c5nc(c(-c6cccc(S(=O)(=O)[O-])c6F)c6ccc3[nH]6)C=C5)C=C4)cc1)C(=O)O2
REMARK SMILES IDX 35 1 34 2 33 3 32 4 31 5 30 6 28 7 29 8 17 9 16 10 14 11
REMARK SMILES IDX 15 12 13 14 12 15 3 16 4 17 9 18 5 19 8 20 10 21 6 22 7 23
REMARK SMILES IDX 110 24 11 25 108 26 109 27 2 28 1 29 18 30 19 31 20 32 27 33
REMARK SMILES IDX 21 34 22 35 26 36 23 38 25 39 24 40 36 41 37 42 38 43 39 44
REMARK SMILES IDX 40 45 41 46 42 47 43 48 44 49 45 50 46 51 107 52 47 53
REMARK SMILES IDX 106 54 48 55 49 56 50 57 100 58 51 59 105 60 99 61 101 62
REMARK SMILES IDX 52 63 104 64 98 65 97 66 53 68 85 69 65 70 84 71 66 72 69 73
REMARK SMILES IDX 83 74 102 75 67 76 68 77 82 79 103 80 70 81 54 82 55 83
REMARK SMILES IDX 63 84 56 85 58 86 64 87 57 88 59 89 60 90 61 91 62 92 86 93
REMARK SMILES IDX 87 94 95 95 88 96 90 97 96 98 89 99 91 100 92 101 93 102
REMARK SMILES IDX 94 103 71 104 72 105 80 106 73 107 75 108 81 109 74 110
REMARK SMILES IDX 76 111 77 112 78 113 79 114
REMARK H PARENT 16 13 21 37 101 67 69 78
REMARK Flexibility Score: inf
ROOT
ATOM      1  C   UNL     1      -1.189  -7.179   3.423  1.00  0.00     0.188 C 
ENDROOT
BRANCH   1   2
ATOM      2  C   UNL     1       0.177  -6.970   4.083  1.00  0.00     0.188 C 
BRANCH   2   3
ATOM      3  O   UNL     1       0.791  -8.034   4.787  1.00  0.00    -0.376 OA
BRANCH   3   4
ATOM      4  C   UNL     1       0.216  -8.510   6.003  1.00  0.00     0.202 C 
BRANCH   4   5
ATOM      5  C   UNL     1      -0.489  -7.550   6.970  1.00  0.00     0.261 C 
BRANCH   5   6
ATOM      6  O   UNL     1      -1.598  -6.855   6.367  1.00  0.00    -0.462 OA
BRANCH   6   7
ATOM      7  C   UNL     1      -1.643  -5.529   6.603  1.00  0.00     0.329 C 
ATOM      8  O   UNL     1      -0.907  -4.956   7.406  1.00  0.00    -0.250 OA
BRANCH   7   9
ATOM      9  C   UNL     1      -2.661  -4.733   5.771  1.00  0.00     0.196 C 
BRANCH   9  10
ATOM     10  N   UNL     1      -3.240  -5.074   4.480  1.00  0.00    -0.342 N 
ATOM     11  C   UNL     1      -3.405  -4.251   3.393  1.00  0.00     0.221 C 
ATOM     12  O   UNL     1      -4.385  -4.391   2.660  1.00  0.00    -0.275 OA
ATOM     13  H   UNL     1      -3.548  -6.003   4.373  1.00  0.00     0.164 HD
BRANCH  11  14
ATOM     14  C   UNL     1      -2.259  -3.331   2.971  1.00  0.00     0.116 C 
BRANCH  14  15
ATOM     15  C   UNL     1      -2.226  -1.877   3.491  1.00  0.00     0.116 C 
ATOM     16  C   UNL     1       1.130  -1.039   1.853  1.00  0.00     0.126 A 
ATOM     17  C   UNL     1       2.378  -1.682   1.920  1.00  0.00     0.050 A 
ATOM     18  C   UNL     1       0.123  -1.362   2.769  1.00  0.00     0.041 A 
ATOM     19  C   UNL     1       2.649  -2.638   2.912  1.00  0.00    -0.044 A 
ATOM     20  C   UNL     1       0.488  -2.167   3.854  1.00  0.00     0.138 A 
ATOM     21  C   UNL     1      -1.326  -0.900   2.678  1.00  0.00     0.038 C 
ATOM     22  C   UNL     1       3.969  -3.350   2.944  1.00  0.00     0.044 C 
ATOM     23  C   UNL     1       1.707  -2.839   3.920  1.00  0.00     0.051 A 
ATOM     24  O   UNL     1      -0.350  -2.274   4.979  1.00  0.00    -0.426 OA
ATOM     25  C   UNL     1      -1.881  -0.735   1.257  1.00  0.00     0.014 C 
ATOM     26  C   UNL     1      -1.648  -1.793   4.877  1.00  0.00     0.315 C 
ATOM     27  O   UNL     1      -2.293  -1.431   5.854  1.00  0.00    -0.251 OA
BRANCH  16  28
ATOM     28  O   UNL     1       0.880   0.010   1.013  1.00  0.00    -0.496 OA
ATOM     29  C   UNL     1       1.415  -0.101  -0.298  1.00  0.00     0.278 C 
ENDBRANCH  16  28
ENDBRANCH  14  15
ENDBRANCH  11  14
ENDBRANCH   9  10
BRANCH   9  30
ATOM     30  C   UNL     1      -3.740  -4.177   6.686  1.00  0.00     0.074 C 
BRANCH  30  31
ATOM     31  C   UNL     1      -4.936  -5.007   7.084  1.00  0.00    -0.020 A 
ATOM     32  C   UNL     1      -5.430  -4.936   8.386  1.00  0.00     0.087 A 
ATOM     33  C   UNL     1      -6.047  -5.575   6.345  1.00  0.00     0.003 A 
ATOM     34  N   UNL     1      -6.713  -4.465   8.148  1.00  0.00    -0.361 N 
ATOM     35  C   UNL     1      -7.186  -5.176   7.064  1.00  0.00     0.046 A 
ATOM     36  C   UNL     1      -6.288  -6.271   5.138  1.00  0.00     0.010 A 
ATOM     37  H   UNL     1      -7.191  -3.766   8.651  1.00  0.00     0.166 HD
ATOM     38  C   UNL     1      -8.502  -5.388   6.646  1.00  0.00     0.026 A 
ATOM     39  C   UNL     1      -7.605  -6.574   4.745  1.00  0.00     0.001 A 
ATOM     40  C   UNL     1      -8.694  -6.131   5.485  1.00  0.00     0.002 A 
ENDBRANCH  30  31
ENDBRANCH   9  30
ENDBRANCH   7   9
ENDBRANCH   6   7
ENDBRANCH   5   6
ENDBRANCH   4   5
ENDBRANCH   3   4
ENDBRANCH   2   3
ENDBRANCH   1   2
BRANCH   1  41
ATOM     41  O   UNL     1      -2.146  -7.923   4.143  1.00  0.00    -0.377 OA
BRANCH  41  42
ATOM     42  C   UNL     1      -2.242  -9.329   3.950  1.00  0.00     0.188 C 
BRANCH  42  43
ATOM     43  C   UNL     1      -1.186 -10.081   3.116  1.00  0.00     0.188 C 
BRANCH  43  44
ATOM     44  O   UNL     1      -0.734  -9.408   1.952  1.00  0.00    -0.376 OA
BRANCH  44  45
ATOM     45  C   UNL     1      -1.432  -9.580   0.728  1.00  0.00     0.202 C 
BRANCH  45  46
ATOM     46  C   UNL     1      -2.924  -9.211   0.666  1.00  0.00     0.261 C 
BRANCH  46  47
ATOM     47  O   UNL     1      -3.820  -9.970   1.493  1.00  0.00    -0.460 OA
BRANCH  47  48
ATOM     48  C   UNL     1      -3.754 -11.319   1.471  1.00  0.00     0.338 C 
ATOM     49  O   UNL     1      -3.066 -12.009   0.740  1.00  0.00    -0.246 OA
BRANCH  48  50
ATOM     50  C   UNL     1      -4.504 -11.813   2.647  1.00  0.00     0.060 A 
ATOM     51  C   UNL     1      -5.812 -11.383   2.885  1.00  0.00     0.016 A 
ATOM     52  C   UNL     1      -3.875 -12.691   3.539  1.00  0.00     0.016 A 
ATOM     53  C   UNL     1      -6.506 -11.873   3.992  1.00  0.00     0.010 A 
ATOM     54  C   UNL     1      -4.570 -13.175   4.652  1.00  0.00     0.010 A 
ATOM     55  C   UNL     1      -5.902 -12.795   4.867  1.00  0.00    -0.014 A 
BRANCH  55  56
ATOM     56  C   UNL     1      -6.739 -13.512   5.861  1.00  0.00     0.031 A 
ATOM     57  C   UNL     1      -6.707 -13.192   7.325  1.00  0.00     0.074 A 
ATOM     58  C   UNL     1      -7.548 -14.488   5.398  1.00  0.00     0.049 A 
ATOM     59  N   UNL     1      -7.474 -13.664   8.274  1.00  0.00    -0.248 NA
ATOM     60  C   UNL     1      -5.694 -12.233   7.791  1.00  0.00     0.031 C 
ATOM     61  C   UNL     1      -7.614 -14.929   4.001  1.00  0.00     0.029 A 
ATOM     62  N   UNL     1      -8.469 -15.275   6.038  1.00  0.00    -0.354 N 
ATOM     63  C   UNL     1      -7.045 -13.062   9.450  1.00  0.00     0.074 A 
ATOM     64  C   UNL     1      -5.932 -12.205   9.100  1.00  0.00     0.031 C 
ATOM     65  C   UNL     1      -8.552 -15.881   3.885  1.00  0.00     0.029 A 
ATOM     66  C   UNL     1      -9.141 -16.130   5.195  1.00  0.00     0.049 A 
ATOM     67  H   UNL     1      -8.634 -15.233   7.008  1.00  0.00     0.167 HD
ATOM     68  C   UNL     1      -7.558 -13.194  10.696  1.00  0.00     0.034 A 
ATOM     69  C   UNL     1     -10.136 -17.003   5.443  1.00  0.00     0.034 A 
ATOM     70  C   UNL     1      -8.682 -14.030  11.030  1.00  0.00     0.049 A 
ATOM     71  C   UNL     1     -10.682 -17.119   6.836  1.00  0.00     0.074 A 
ATOM     72  C   UNL     1      -9.307 -14.168  12.259  1.00  0.00     0.029 A 
ATOM     73  N   UNL     1      -9.343 -14.868  10.149  1.00  0.00    -0.354 N 
ATOM     74  N   UNL     1     -10.362 -16.429   7.902  1.00  0.00    -0.248 NA
ATOM     75  C   UNL     1     -11.743 -18.114   7.057  1.00  0.00     0.031 C 
ATOM     76  C   UNL     1     -10.337 -15.101  12.124  1.00  0.00     0.029 A 
ATOM     77  C   UNL     1     -10.361 -15.534  10.809  1.00  0.00     0.049 A 
ATOM     78  H   UNL     1      -9.121 -14.975   9.196  1.00  0.00     0.167 HD
ATOM     79  C   UNL     1     -11.197 -16.886   8.913  1.00  0.00     0.074 A 
ATOM     80  C   UNL     1     -12.048 -17.902   8.332  1.00  0.00     0.031 C 
ATOM     81  C   UNL     1     -11.239 -16.504  10.211  1.00  0.00     0.034 A 
BRANCH  68  82
ATOM     82  C   UNL     1      -6.985 -12.362  11.810  1.00  0.00     0.023 A 
ATOM     83  C   UNL     1      -7.418 -11.028  11.944  1.00  0.00     0.012 A 
ATOM     84  C   UNL     1      -6.194 -12.942  12.821  1.00  0.00     0.148 A 
ATOM     85  C   UNL     1      -7.081 -10.284  13.073  1.00  0.00     0.002 A 
ATOM     86  C   UNL     1      -5.881 -12.201  13.956  1.00  0.00     0.091 A 
ATOM     87  F   UNL     1      -5.802 -14.215  12.671  1.00  0.00    -0.205 F 
ATOM     88  C   UNL     1      -6.324 -10.874  14.083  1.00  0.00     0.022 A 
BRANCH  86  89
ATOM     89  S   UNL     1      -4.959 -12.878  15.342  1.00  0.00     0.127 S 
ATOM     90  O   UNL     1      -3.796 -11.991  15.383  1.00  0.00    -0.237 OA
ATOM     91  O   UNL     1      -5.898 -12.703  16.449  1.00  0.00    -0.237 OA
ATOM     92  O   UNL     1      -4.661 -14.260  14.995  1.00  0.00    -0.744 OA
ENDBRANCH  86  89
ENDBRANCH  68  82
BRANCH  69  93
ATOM     93  C   UNL     1     -10.738 -17.774   4.323  1.00  0.00     0.023 A 
ATOM     94  C   UNL     1     -12.022 -17.425   3.864  1.00  0.00     0.012 A 
ATOM     95  C   UNL     1     -10.039 -18.822   3.694  1.00  0.00     0.148 A 
ATOM     96  C   UNL     1     -12.612 -18.122   2.810  1.00  0.00     0.002 A 
ATOM     97  C   UNL     1     -10.618 -19.489   2.622  1.00  0.00     0.091 A 
ATOM     98  F   UNL     1      -8.819 -19.134   4.152  1.00  0.00    -0.205 F 
ATOM     99  C   UNL     1     -11.908 -19.149   2.186  1.00  0.00     0.022 A 
BRANCH  97 100
ATOM    100  S   UNL     1      -9.758 -20.768   1.700  1.00  0.00     0.127 S 
ATOM    101  O   UNL     1     -10.540 -21.954   2.036  1.00  0.00    -0.237 OA
ATOM    102  O   UNL     1      -9.910 -20.298   0.322  1.00  0.00    -0.237 OA
ATOM    103  O   UNL     1      -8.387 -20.758   2.193  1.00  0.00    -0.744 OA
ENDBRANCH  97 100
ENDBRANCH  69  93
BRANCH  81 104
ATOM    104  C   UNL     1     -12.239 -17.167  11.117  1.00  0.00     0.023 A 
ATOM    105  C   UNL     1     -11.957 -18.447  11.631  1.00  0.00     0.012 A 
ATOM    106  C   UNL     1     -13.372 -16.465  11.573  1.00  0.00     0.148 A 
ATOM    107  C   UNL     1     -12.790 -19.020  12.590  1.00  0.00     0.002 A 
ATOM    108  C   UNL     1     -14.179 -17.029  12.553  1.00  0.00     0.091 A 
ATOM    109  F   UNL     1     -13.616 -15.249  11.063  1.00  0.00    -0.205 F 
ATOM    110  C   UNL     1     -13.890 -18.307  13.061  1.00  0.00     0.022 A 
BRANCH 108 111
ATOM    111  S   UNL     1     -15.577 -16.165  13.277  1.00  0.00     0.127 S 
ATOM    112  O   UNL     1     -16.694 -17.025  12.886  1.00  0.00    -0.237 OA
ATOM    113  O   UNL     1     -15.253 -16.195  14.703  1.00  0.00    -0.237 OA
ATOM    114  O   UNL     1     -15.588 -14.836  12.680  1.00  0.00    -0.744 OA
ENDBRANCH 108 111
ENDBRANCH  81 104
ENDBRANCH  55  56
ENDBRANCH  48  50
ENDBRANCH  47  48
ENDBRANCH  46  47
ENDBRANCH  45  46
ENDBRANCH  44  45
ENDBRANCH  43  44
ENDBRANCH  42  43
ENDBRANCH  41  42
ENDBRANCH   1  41
TORSDOF 29
