REMARK SMILES O=C(OCCOCCOCCOCCOC(=O)[C@@H](NC(=O)c1ccncc1Cl)C1CC1)c1ccc(-c2c3nc(c(-c4cccc(S(=O)(=O)[O-])c4F)c4ccc([nH]4)c(-c4cccc(S(=O)(=O)[O-])c4F)c4nc(c(-c5cccc(S(=O)(=O)[O-])c5F)c5ccc2[nH]5)C=C4)C=C3)cc1
REMARK SMILES IDX 8 1 7 2 6 3 5 4 4 5 3 6 2 7 1 8 32 9 33 10 94 11 34 12 93 13
REMARK SMILES IDX 35 14 36 15 37 16 87 17 38 18 92 19 86 20 88 21 39 22 91 23
REMARK SMILES IDX 85 24 84 25 40 27 72 28 52 29 71 30 53 31 56 32 70 33 89 34
REMARK SMILES IDX 54 35 55 36 69 38 90 39 57 40 41 41 42 42 50 43 43 44 45 45
REMARK SMILES IDX 51 46 44 47 46 48 47 49 48 50 49 51 73 52 74 53 82 54 75 55
REMARK SMILES IDX 77 56 83 57 76 58 78 59 79 60 80 61 81 62 58 63 59 64 67 65
REMARK SMILES IDX 60 66 62 67 68 68 61 69 63 70 64 71 65 72 66 73 9 74 10 75
REMARK SMILES IDX 11 76 12 77 13 78 14 79 15 80 16 81 17 82 18 83 19 84 20 85
REMARK SMILES IDX 21 87 22 88 23 89 27 90 24 91 26 92 28 93 25 94 29 95 30 96
REMARK SMILES IDX 31 97
REMARK H PARENT 88 26 56 37 19 86
REMARK Flexibility Score: inf
ROOT
ATOM      1  C   UNL     1       2.547   2.779  -0.795  1.00  0.00     0.188 C 
ENDROOT
BRANCH   1   2
ATOM      2  C   UNL     1       2.591   1.266  -0.962  1.00  0.00     0.188 C 
BRANCH   2   3
ATOM      3  O   UNL     1       3.859   0.754  -0.575  1.00  0.00    -0.376 OA
BRANCH   3   4
ATOM      4  C   UNL     1       4.504  -0.032  -1.573  1.00  0.00     0.202 C 
BRANCH   4   5
ATOM      5  C   UNL     1       4.131  -1.513  -1.477  1.00  0.00     0.261 C 
BRANCH   5   6
ATOM      6  O   UNL     1       2.747  -1.698  -1.134  1.00  0.00    -0.460 OA
BRANCH   6   7
ATOM      7  C   UNL     1       2.215  -1.913   0.097  1.00  0.00     0.338 C 
ATOM      8  O   UNL     1       1.012  -2.170   0.166  1.00  0.00    -0.246 OA
BRANCH   7   9
ATOM      9  C   UNL     1       2.994  -1.873   1.379  1.00  0.00     0.060 A 
ATOM     10  C   UNL     1       4.187  -1.178   1.580  1.00  0.00     0.016 A 
ATOM     11  C   UNL     1       2.441  -2.538   2.489  1.00  0.00     0.016 A 
ATOM     12  C   UNL     1       4.838  -1.164   2.804  1.00  0.00     0.010 A 
ATOM     13  C   UNL     1       3.086  -2.531   3.733  1.00  0.00     0.010 A 
ATOM     14  C   UNL     1       4.305  -1.862   3.880  1.00  0.00    -0.014 A 
BRANCH  14  15
ATOM     15  C   UNL     1       5.174  -2.035   5.056  1.00  0.00     0.031 A 
ATOM     16  C   UNL     1       5.925  -3.327   5.174  1.00  0.00     0.074 A 
ATOM     17  C   UNL     1       5.413  -0.997   5.878  1.00  0.00     0.049 A 
ATOM     18  N   UNL     1       6.755  -3.721   6.099  1.00  0.00    -0.248 NA
ATOM     19  C   UNL     1       5.734  -4.300   4.081  1.00  0.00     0.031 C 
ATOM     20  C   UNL     1       4.820   0.336   5.748  1.00  0.00     0.029 A 
ATOM     21  N   UNL     1       6.232  -0.894   6.969  1.00  0.00    -0.354 N 
ATOM     22  C   UNL     1       7.151  -4.998   5.724  1.00  0.00     0.074 A 
ATOM     23  C   UNL     1       6.483  -5.314   4.483  1.00  0.00     0.031 C 
ATOM     24  C   UNL     1       5.290   1.121   6.731  1.00  0.00     0.029 A 
ATOM     25  C   UNL     1       6.173   0.334   7.585  1.00  0.00     0.049 A 
ATOM     26  H   UNL     1       6.809  -1.628   7.283  1.00  0.00     0.167 HD
ATOM     27  C   UNL     1       8.002  -5.831   6.362  1.00  0.00     0.034 A 
ATOM     28  C   UNL     1       6.745   0.749   8.732  1.00  0.00     0.034 A 
ATOM     29  C   UNL     1       8.653  -5.488   7.593  1.00  0.00     0.049 A 
ATOM     30  C   UNL     1       7.629  -0.227   9.466  1.00  0.00     0.074 A 
ATOM     31  C   UNL     1       9.467  -6.268   8.390  1.00  0.00     0.029 A 
ATOM     32  N   UNL     1       8.557  -4.244   8.204  1.00  0.00    -0.354 N 
ATOM     33  N   UNL     1       7.985  -1.442   9.116  1.00  0.00    -0.248 NA
ATOM     34  C   UNL     1       8.201   0.222  10.741  1.00  0.00     0.031 C 
ATOM     35  C   UNL     1       9.853  -5.497   9.493  1.00  0.00     0.029 A 
ATOM     36  C   UNL     1       9.299  -4.230   9.368  1.00  0.00     0.049 A 
ATOM     37  H   UNL     1       8.035  -3.484   7.858  1.00  0.00     0.167 HD
ATOM     38  C   UNL     1       8.838  -1.895  10.114  1.00  0.00     0.074 A 
ATOM     39  C   UNL     1       8.970  -0.809  11.067  1.00  0.00     0.031 C 
ATOM     40  C   UNL     1       9.440  -3.102  10.253  1.00  0.00     0.034 A 
BRANCH  27  41
ATOM     41  C   UNL     1       8.232  -7.181   5.741  1.00  0.00     0.023 A 
ATOM     42  C   UNL     1       9.033  -7.295   4.586  1.00  0.00     0.012 A 
ATOM     43  C   UNL     1       7.623  -8.331   6.278  1.00  0.00     0.148 A 
ATOM     44  C   UNL     1       9.193  -8.528   3.953  1.00  0.00     0.002 A 
ATOM     45  C   UNL     1       7.817  -9.562   5.663  1.00  0.00     0.091 A 
ATOM     46  F   UNL     1       6.842  -8.194   7.358  1.00  0.00    -0.205 F 
ATOM     47  C   UNL     1       8.591  -9.661   4.494  1.00  0.00     0.022 A 
BRANCH  45  48
ATOM     48  S   UNL     1       7.119 -11.088   6.303  1.00  0.00     0.127 S 
ATOM     49  O   UNL     1       6.156 -11.433   5.257  1.00  0.00    -0.237 OA
ATOM     50  O   UNL     1       8.293 -11.958   6.362  1.00  0.00    -0.237 OA
ATOM     51  O   UNL     1       6.539 -10.755   7.596  1.00  0.00    -0.744 OA
ENDBRANCH  45  48
ENDBRANCH  27  41
BRANCH  28  52
ATOM     52  C   UNL     1       6.490   2.123   9.258  1.00  0.00     0.023 A 
ATOM     53  C   UNL     1       7.549   3.044   9.372  1.00  0.00     0.012 A 
ATOM     54  C   UNL     1       5.196   2.525   9.650  1.00  0.00     0.148 A 
ATOM     55  C   UNL     1       7.331   4.323   9.893  1.00  0.00     0.002 A 
ATOM     56  C   UNL     1       4.975   3.818  10.111  1.00  0.00     0.091 A 
ATOM     57  F   UNL     1       4.200   1.631   9.569  1.00  0.00    -0.205 F 
ATOM     58  C   UNL     1       6.044   4.713  10.252  1.00  0.00     0.022 A 
BRANCH  56  59
ATOM     59  S   UNL     1       3.323   4.432  10.461  1.00  0.00     0.127 S 
ATOM     60  O   UNL     1       3.280   4.366  11.918  1.00  0.00    -0.237 OA
ATOM     61  O   UNL     1       3.373   5.786   9.906  1.00  0.00    -0.237 OA
ATOM     62  O   UNL     1       2.421   3.535   9.751  1.00  0.00    -0.744 OA
ENDBRANCH  56  59
ENDBRANCH  28  52
BRANCH  40  63
ATOM     63  C   UNL     1      10.317  -3.295  11.458  1.00  0.00     0.023 A 
ATOM     64  C   UNL     1       9.731  -3.477  12.726  1.00  0.00     0.012 A 
ATOM     65  C   UNL     1      11.714  -3.386  11.315  1.00  0.00     0.148 A 
ATOM     66  C   UNL     1      10.529  -3.721  13.841  1.00  0.00     0.002 A 
ATOM     67  C   UNL     1      12.498  -3.679  12.422  1.00  0.00     0.091 A 
ATOM     68  F   UNL     1      12.248  -3.186  10.101  1.00  0.00    -0.205 F 
ATOM     69  C   UNL     1      11.909  -3.836  13.687  1.00  0.00     0.022 A 
BRANCH  67  70
ATOM     70  S   UNL     1      14.268  -3.950  12.290  1.00  0.00     0.127 S 
ATOM     71  O   UNL     1      14.801  -2.703  12.833  1.00  0.00    -0.237 OA
ATOM     72  O   UNL     1      14.468  -5.123  13.142  1.00  0.00    -0.237 OA
ATOM     73  O   UNL     1      14.530  -4.183  10.876  1.00  0.00    -0.744 OA
ENDBRANCH  67  70
ENDBRANCH  40  63
ENDBRANCH  14  15
ENDBRANCH   7   9
ENDBRANCH   6   7
ENDBRANCH   5   6
ENDBRANCH   4   5
ENDBRANCH   3   4
ENDBRANCH   2   3
ENDBRANCH   1   2
BRANCH   1  74
ATOM     74  O   UNL     1       3.723   3.494  -1.175  1.00  0.00    -0.377 OA
BRANCH  74  75
ATOM     75  C   UNL     1       4.951   3.239  -0.491  1.00  0.00     0.188 C 
BRANCH  75  76
ATOM     76  C   UNL     1       5.012   3.144   1.043  1.00  0.00     0.188 C 
BRANCH  76  77
ATOM     77  O   UNL     1       3.789   3.324   1.740  1.00  0.00    -0.376 OA
BRANCH  77  78
ATOM     78  C   UNL     1       3.646   4.583   2.392  1.00  0.00     0.202 C 
BRANCH  78  79
ATOM     79  C   UNL     1       2.800   5.570   1.585  1.00  0.00     0.261 C 
BRANCH  79  80
ATOM     80  O   UNL     1       3.244   5.808   0.238  1.00  0.00    -0.462 OA
BRANCH  80  81
ATOM     81  C   UNL     1       4.431   6.448   0.074  1.00  0.00     0.329 C 
ATOM     82  O   UNL     1       5.162   6.793   0.995  1.00  0.00    -0.250 OA
BRANCH  81  83
ATOM     83  C   UNL     1       4.636   6.883  -1.407  1.00  0.00     0.195 C 
BRANCH  83  84
ATOM     84  N   UNL     1       4.066   5.892  -2.345  1.00  0.00    -0.338 N 
ATOM     85  C   UNL     1       3.717   5.888  -3.659  1.00  0.00     0.253 C 
ATOM     86  H   UNL     1       3.900   5.023  -1.913  1.00  0.00     0.164 HD
ATOM     87  O   UNL     1       3.620   4.846  -4.302  1.00  0.00    -0.269 OA
BRANCH  85  88
ATOM     88  C   UNL     1       3.224   7.109  -4.279  1.00  0.00     0.061 A 
ATOM     89  C   UNL     1       1.847   7.335  -4.172  1.00  0.00     0.035 A 
ATOM     90  C   UNL     1       4.042   7.979  -4.979  1.00  0.00     0.072 A 
ATOM     91  C   UNL     1       1.343   8.491  -4.729  1.00  0.00     0.112 A 
ATOM     92  C   UNL     1       3.434   9.113  -5.491  1.00  0.00     0.132 A 
ATOM     93  Cl  UNL     1       5.726   7.724  -5.201  1.00  0.00    -0.082 Cl
ATOM     94  N   UNL     1       2.109   9.396  -5.375  1.00  0.00    -0.263 NA
ENDBRANCH  85  88
ENDBRANCH  83  84
BRANCH  83  95
ATOM     95  C   UNL     1       4.069   8.268  -1.575  1.00  0.00     0.023 C 
ATOM     96  C   UNL     1       4.522   9.393  -0.668  1.00  0.00     0.007 C 
ATOM     97  C   UNL     1       4.916   9.401  -2.111  1.00  0.00     0.007 C 
ENDBRANCH  83  95
ENDBRANCH  81  83
ENDBRANCH  80  81
ENDBRANCH  79  80
ENDBRANCH  78  79
ENDBRANCH  77  78
ENDBRANCH  76  77
ENDBRANCH  75  76
ENDBRANCH  74  75
ENDBRANCH   1  74
TORSDOF 26
