REMARK SMILES C[C@@H]1[C@@H](C(=O)OCCOCCOCCOCCOC(=O)c2ccc(-c3c4nc(c(-c5cccc(S(=O)(=O)[O-])c5F)c5ccc([nH]5)c(-c5cccc(S(=O)(=O)[O-])c5F)c5nc(c(-c6cccc(S(=O)(=O)[O-])c6F)c6ccc3[nH]6)C=C5)C=C4)cc2)CCN1C(=O)N1CCC[C@H]2CCC[C@@H]21
REMARK SMILES IDX 13 1 12 2 11 3 10 4 9 5 8 6 7 7 6 8 4 9 5 10 3 11 1 12 2 13
REMARK SMILES IDX 86 14 84 15 85 16 87 17 88 18 89 19 90 20 97 21 91 22 93 23
REMARK SMILES IDX 96 24 92 25 94 26 95 27 14 28 15 29 16 30 17 31 18 32 19 33
REMARK SMILES IDX 20 34 21 35 22 36 83 37 23 38 82 39 24 40 25 41 26 42 76 43
REMARK SMILES IDX 27 44 81 45 75 46 77 47 28 48 80 49 74 50 73 51 29 53 61 54
REMARK SMILES IDX 41 55 60 56 42 57 45 58 59 59 78 60 43 61 44 62 58 64 79 65
REMARK SMILES IDX 46 66 30 67 31 68 39 69 32 70 34 71 40 72 33 73 35 74 36 75
REMARK SMILES IDX 37 76 38 77 62 78 63 79 71 80 64 81 66 82 72 83 65 84 67 85
REMARK SMILES IDX 68 86 69 87 70 88 47 89 48 90 56 91 49 92 51 93 57 94 50 95
REMARK SMILES IDX 52 96 53 97 54 98 55 99
REMARK H PARENT 77 52 45 63
REMARK Flexibility Score: inf
ROOT
ATOM      1  C   UNL     1      -1.235   4.885  -3.376  1.00  0.00     0.188 C 
ENDROOT
BRANCH   1   2
ATOM      2  O   UNL     1      -1.105   3.748  -2.533  1.00  0.00    -0.377 OA
BRANCH   2   3
ATOM      3  C   UNL     1       0.209   3.321  -2.258  1.00  0.00     0.188 C 
BRANCH   3   4
ATOM      4  C   UNL     1       0.664   2.155  -3.151  1.00  0.00     0.188 C 
BRANCH   4   5
ATOM      5  O   UNL     1      -0.002   1.839  -4.364  1.00  0.00    -0.376 OA
BRANCH   5   6
ATOM      6  C   UNL     1      -1.412   1.721  -4.504  1.00  0.00     0.202 C 
BRANCH   6   7
ATOM      7  C   UNL     1      -2.400   1.226  -3.431  1.00  0.00     0.261 C 
BRANCH   7   8
ATOM      8  O   UNL     1      -1.960   1.254  -2.081  1.00  0.00    -0.463 OA
BRANCH   8   9
ATOM      9  C   UNL     1      -1.261   0.161  -1.702  1.00  0.00     0.311 C 
ATOM     10  O   UNL     1      -1.067  -0.815  -2.410  1.00  0.00    -0.252 OA
BRANCH   9  11
ATOM     11  C   UNL     1      -0.663   0.395  -0.330  1.00  0.00     0.123 C 
ATOM     12  C   UNL     1       1.548   0.181   0.842  1.00  0.00     0.032 C 
ATOM     13  C   UNL     1       0.586  -0.471  -0.157  1.00  0.00     0.098 C 
ATOM     14  N   UNL     1       0.027  -1.750   0.301  1.00  0.00    -0.321 N 
ATOM     15  C   UNL     1      -1.583  -0.062   0.786  1.00  0.00     0.039 C 
ATOM     16  C   UNL     1      -1.321  -1.560   0.836  1.00  0.00     0.122 C 
BRANCH  14  17
ATOM     17  C   UNL     1       0.317  -2.983  -0.284  1.00  0.00     0.320 C 
ATOM     18  O   UNL     1      -0.458  -3.936  -0.240  1.00  0.00    -0.248 OA
BRANCH  17  19
ATOM     19  N   UNL     1       1.493  -3.032  -1.001  1.00  0.00    -0.321 N 
ATOM     20  C   UNL     1       2.776  -2.890  -0.327  1.00  0.00     0.121 C 
ATOM     21  C   UNL     1       1.584  -3.697  -2.290  1.00  0.00     0.090 C 
ATOM     22  C   UNL     1       3.780  -2.118  -1.188  1.00  0.00     0.022 C 
ATOM     23  C   UNL     1       2.449  -2.811  -3.194  1.00  0.00     0.012 C 
ATOM     24  C   UNL     1       0.341  -3.895  -3.150  1.00  0.00     0.025 C 
ATOM     25  C   UNL     1       3.857  -2.669  -2.622  1.00  0.00     0.007 C 
ATOM     26  C   UNL     1       2.323  -3.474  -4.554  1.00  0.00     0.006 C 
ATOM     27  C   UNL     1       0.877  -3.986  -4.588  1.00  0.00     0.002 C 
ENDBRANCH  17  19
ENDBRANCH  14  17
ENDBRANCH   9  11
ENDBRANCH   8   9
ENDBRANCH   7   8
ENDBRANCH   6   7
ENDBRANCH   5   6
ENDBRANCH   4   5
ENDBRANCH   3   4
ENDBRANCH   2   3
ENDBRANCH   1   2
BRANCH   1  28
ATOM     28  C   UNL     1      -0.272   5.032  -4.578  1.00  0.00     0.188 C 
BRANCH  28  29
ATOM     29  O   UNL     1       1.100   4.810  -4.269  1.00  0.00    -0.376 OA
BRANCH  29  30
ATOM     30  C   UNL     1       1.952   5.936  -4.129  1.00  0.00     0.202 C 
BRANCH  30  31
ATOM     31  C   UNL     1       1.719   6.840  -2.908  1.00  0.00     0.261 C 
BRANCH  31  32
ATOM     32  O   UNL     1       0.400   7.386  -2.774  1.00  0.00    -0.460 OA
BRANCH  32  33
ATOM     33  C   UNL     1      -0.036   8.198  -3.760  1.00  0.00     0.338 C 
ATOM     34  O   UNL     1       0.595   8.559  -4.741  1.00  0.00    -0.246 OA
BRANCH  33  35
ATOM     35  C   UNL     1      -1.484   8.411  -3.567  1.00  0.00     0.060 A 
ATOM     36  C   UNL     1      -2.365   8.038  -4.592  1.00  0.00     0.016 A 
ATOM     37  C   UNL     1      -1.973   8.962  -2.380  1.00  0.00     0.016 A 
ATOM     38  C   UNL     1      -3.734   8.257  -4.450  1.00  0.00     0.010 A 
ATOM     39  C   UNL     1      -3.343   9.202  -2.249  1.00  0.00     0.010 A 
ATOM     40  C   UNL     1      -4.223   8.887  -3.299  1.00  0.00    -0.014 A 
BRANCH  40  41
ATOM     41  C   UNL     1      -5.612   9.406  -3.284  1.00  0.00     0.031 A 
ATOM     42  C   UNL     1      -5.828  10.866  -3.580  1.00  0.00     0.074 A 
ATOM     43  C   UNL     1      -6.659   8.606  -3.020  1.00  0.00     0.049 A 
ATOM     44  N   UNL     1      -6.936  11.557  -3.586  1.00  0.00    -0.248 NA
ATOM     45  C   UNL     1      -4.627  11.652  -3.914  1.00  0.00     0.031 C 
ATOM     46  C   UNL     1      -6.581   7.175  -2.734  1.00  0.00     0.029 A 
ATOM     47  N   UNL     1      -7.998   8.898  -2.925  1.00  0.00    -0.354 N 
ATOM     48  C   UNL     1      -6.567  12.862  -3.888  1.00  0.00     0.074 A 
ATOM     49  C   UNL     1      -5.130  12.870  -4.049  1.00  0.00     0.031 C 
ATOM     50  C   UNL     1      -7.817   6.718  -2.464  1.00  0.00     0.029 A 
ATOM     51  C   UNL     1      -8.766   7.829  -2.529  1.00  0.00     0.049 A 
ATOM     52  H   UNL     1      -8.371   9.787  -3.121  1.00  0.00     0.167 HD
ATOM     53  C   UNL     1      -7.352  13.954  -4.030  1.00  0.00     0.034 A 
ATOM     54  C   UNL     1     -10.078   7.764  -2.226  1.00  0.00     0.034 A 
ATOM     55  C   UNL     1      -8.781  13.942  -3.878  1.00  0.00     0.049 A 
ATOM     56  C   UNL     1     -10.927   9.005  -2.353  1.00  0.00     0.074 A 
ATOM     57  C   UNL     1      -9.671  14.988  -4.044  1.00  0.00     0.029 A 
ATOM     58  N   UNL     1      -9.528  12.835  -3.507  1.00  0.00    -0.354 N 
ATOM     59  N   UNL     1     -10.581  10.208  -2.744  1.00  0.00    -0.248 NA
ATOM     60  C   UNL     1     -12.355   8.871  -2.027  1.00  0.00     0.031 C 
ATOM     61  C   UNL     1     -10.952  14.523  -3.730  1.00  0.00     0.029 A 
ATOM     62  C   UNL     1     -10.866  13.175  -3.420  1.00  0.00     0.049 A 
ATOM     63  H   UNL     1      -9.160  11.939  -3.331  1.00  0.00     0.167 HD
ATOM     64  C   UNL     1     -11.752  10.960  -2.751  1.00  0.00     0.074 A 
ATOM     65  C   UNL     1     -12.819  10.072  -2.342  1.00  0.00     0.031 C 
ATOM     66  C   UNL     1     -11.927  12.270  -3.060  1.00  0.00     0.034 A 
BRANCH  53  67
ATOM     67  C   UNL     1      -6.681  15.258  -4.371  1.00  0.00     0.023 A 
ATOM     68  C   UNL     1      -6.132  15.454  -5.655  1.00  0.00     0.012 A 
ATOM     69  C   UNL     1      -6.636  16.308  -3.434  1.00  0.00     0.148 A 
ATOM     70  C   UNL     1      -5.520  16.661  -5.989  1.00  0.00     0.002 A 
ATOM     71  C   UNL     1      -6.069  17.525  -3.790  1.00  0.00     0.091 A 
ATOM     72  F   UNL     1      -7.142  16.095  -2.211  1.00  0.00    -0.205 F 
ATOM     73  C   UNL     1      -5.499  17.699  -5.062  1.00  0.00     0.022 A 
BRANCH  71  74
ATOM     74  S   UNL     1      -6.065  18.949  -2.696  1.00  0.00     0.127 S 
ATOM     75  O   UNL     1      -4.641  19.080  -2.389  1.00  0.00    -0.237 OA
ATOM     76  O   UNL     1      -6.602  20.000  -3.560  1.00  0.00    -0.237 OA
ATOM     77  O   UNL     1      -6.914  18.594  -1.568  1.00  0.00    -0.744 OA
ENDBRANCH  71  74
ENDBRANCH  53  67
BRANCH  54  78
ATOM     78  C   UNL     1     -10.683   6.475  -1.785  1.00  0.00     0.023 A 
ATOM     79  C   UNL     1     -11.620   5.823  -2.610  1.00  0.00     0.012 A 
ATOM     80  C   UNL     1     -10.337   5.895  -0.549  1.00  0.00     0.148 A 
ATOM     81  C   UNL     1     -12.229   4.637  -2.197  1.00  0.00     0.002 A 
ATOM     82  C   UNL     1     -10.902   4.684  -0.169  1.00  0.00     0.091 A 
ATOM     83  F   UNL     1      -9.455   6.539   0.229  1.00  0.00    -0.205 F 
ATOM     84  C   UNL     1     -11.863   4.063  -0.982  1.00  0.00     0.022 A 
BRANCH  82  85
ATOM     85  S   UNL     1     -10.403   3.810   1.318  1.00  0.00     0.127 S 
ATOM     86  O   UNL     1     -11.611   3.894   2.134  1.00  0.00    -0.237 OA
ATOM     87  O   UNL     1     -10.102   2.478   0.794  1.00  0.00    -0.237 OA
ATOM     88  O   UNL     1      -9.245   4.531   1.830  1.00  0.00    -0.744 OA
ENDBRANCH  82  85
ENDBRANCH  54  78
BRANCH  66  89
ATOM     89  C   UNL     1     -13.331  12.820  -3.026  1.00  0.00     0.023 A 
ATOM     90  C   UNL     1     -13.989  13.010  -1.795  1.00  0.00     0.012 A 
ATOM     91  C   UNL     1     -13.967  13.221  -4.218  1.00  0.00     0.148 A 
ATOM     92  C   UNL     1     -15.273  13.554  -1.755  1.00  0.00     0.002 A 
ATOM     93  C   UNL     1     -15.223  13.813  -4.166  1.00  0.00     0.091 A 
ATOM     94  F   UNL     1     -13.330  13.020  -5.381  1.00  0.00    -0.205 F 
ATOM     95  C   UNL     1     -15.884  13.966  -2.937  1.00  0.00     0.022 A 
BRANCH  93  96
ATOM     96  S   UNL     1     -16.043  14.466  -5.624  1.00  0.00     0.127 S 
ATOM     97  O   UNL     1     -17.147  13.523  -5.793  1.00  0.00    -0.237 OA
ATOM     98  O   UNL     1     -16.445  15.802  -5.181  1.00  0.00    -0.237 OA
ATOM     99  O   UNL     1     -15.047  14.456  -6.687  1.00  0.00    -0.744 OA
ENDBRANCH  93  96
ENDBRANCH  66  89
ENDBRANCH  40  41
ENDBRANCH  33  35
ENDBRANCH  32  33
ENDBRANCH  31  32
ENDBRANCH  30  31
ENDBRANCH  29  30
ENDBRANCH  28  29
ENDBRANCH   1  28
TORSDOF 25
