REMARK SMILES CC(C)(C[N@@H+]1C[C@@H]2C[NH2+]C[C@H]2C1(C)C)C(=O)OCCOCCOCCOCCOC(=O)c1ccc(-c2c3nc(c(-c4cccc(S(=O)(=O)[O-])c4F)c4ccc([nH]4)c(-c4cccc(S(=O)(=O)[O-])c4F)c4nc(c(-c5cccc(S(=O)(=O)[O-])c5F)c5ccc2[nH]5)C=C4)C=C3)cc1
REMARK SMILES IDX 24 1 23 2 22 3 21 4 20 5 19 6 18 7 17 8 15 9 16 10 2 11 1 12
REMARK SMILES IDX 3 13 4 14 5 15 6 16 12 17 7 19 11 20 13 21 14 22 8 23 10 24
REMARK SMILES IDX 9 25 25 28 26 29 27 30 28 31 29 32 30 33 31 34 32 35 33 36
REMARK SMILES IDX 94 37 34 38 93 39 35 40 36 41 37 42 87 43 38 44 92 45 86 46
REMARK SMILES IDX 88 47 39 48 91 49 85 50 84 51 40 53 72 54 52 55 71 56 53 57
REMARK SMILES IDX 56 58 70 59 89 60 54 61 55 62 69 64 90 65 57 66 41 67 42 68
REMARK SMILES IDX 50 69 43 70 45 71 51 72 44 73 46 74 47 75 48 76 49 77 73 78
REMARK SMILES IDX 74 79 82 80 75 81 77 82 83 83 76 84 78 85 79 86 80 87 81 88
REMARK SMILES IDX 58 89 59 90 67 91 60 92 62 93 68 94 61 95 63 96 64 97 65 98
REMARK SMILES IDX 66 99
REMARK H PARENT 5 18 9 26 9 27 88 52 56 63
REMARK Flexibility Score: inf
ROOT
ATOM      1  C   UNL     1      -0.757  -1.638   4.972  1.00  0.00     0.188 C 
ENDROOT
BRANCH   1   2
ATOM      2  O   UNL     1       0.092  -1.212   3.913  1.00  0.00    -0.377 OA
BRANCH   2   3
ATOM      3  C   UNL     1       1.194  -1.717   3.185  1.00  0.00     0.188 C 
BRANCH   3   4
ATOM      4  C   UNL     1       2.623  -1.946   3.613  1.00  0.00     0.188 C 
BRANCH   4   5
ATOM      5  O   UNL     1       2.998  -1.663   4.925  1.00  0.00    -0.376 OA
BRANCH   5   6
ATOM      6  C   UNL     1       2.441  -0.492   5.502  1.00  0.00     0.202 C 
BRANCH   6   7
ATOM      7  C   UNL     1       2.430   0.836   4.694  1.00  0.00     0.261 C 
BRANCH   7   8
ATOM      8  O   UNL     1       1.412   0.966   3.637  1.00  0.00    -0.463 OA
BRANCH   8   9
ATOM      9  C   UNL     1       1.842   1.223   2.367  1.00  0.00     0.317 C 
ATOM     10  O   UNL     1       3.020   1.506   2.138  1.00  0.00    -0.251 OA
BRANCH   9  11
ATOM     11  C   UNL     1       0.768   1.172   1.188  1.00  0.00     0.111 C 
ATOM     12  C   UNL     1       1.535   0.745  -0.080  1.00  0.00     0.029 C 
ATOM     13  C   UNL     1       0.405   2.674   1.037  1.00  0.00     0.029 C 
BRANCH  11  14
ATOM     14  C   UNL     1      -0.607   0.304   1.269  1.00  0.00     0.280 C 
BRANCH  14  15
ATOM     15  N   UNL     1      -0.746  -1.089   0.638  1.00  0.00    -0.329 N 
ATOM     16  C   UNL     1      -1.212  -1.076  -0.791  1.00  0.00     0.272 C 
ATOM     17  C   UNL     1      -1.664  -2.153   1.279  1.00  0.00     0.101 C 
ATOM     18  H   UNL     1       0.226  -1.361   0.786  1.00  0.00     0.348 HD
ATOM     19  C   UNL     1      -1.334  -2.569  -1.027  1.00  0.00     0.114 C 
ATOM     20  C   UNL     1      -2.263  -2.952   0.090  1.00  0.00     0.119 C 
ATOM     21  C   UNL     1      -0.856  -3.290   1.926  1.00  0.00     0.079 C 
ATOM     22  C   UNL     1      -2.828  -1.490   2.070  1.00  0.00     0.079 C 
ATOM     23  C   UNL     1      -1.996  -3.325  -2.156  1.00  0.00     0.270 C 
ATOM     24  C   UNL     1      -2.245  -4.478  -0.092  1.00  0.00     0.271 C 
ATOM     25  N   UNL     1      -2.314  -4.652  -1.552  1.00  0.00    -0.345 N 
ATOM     26  H   UNL     1      -1.635  -5.349  -1.856  1.00  0.00     0.346 HD
ATOM     27  H   UNL     1      -3.238  -4.975  -1.840  1.00  0.00     0.346 HD
ENDBRANCH  14  15
ENDBRANCH  11  14
ENDBRANCH   9  11
ENDBRANCH   8   9
ENDBRANCH   7   8
ENDBRANCH   6   7
ENDBRANCH   5   6
ENDBRANCH   4   5
ENDBRANCH   3   4
ENDBRANCH   2   3
ENDBRANCH   1   2
BRANCH   1  28
ATOM     28  C   UNL     1      -0.943  -3.095   5.443  1.00  0.00     0.188 C 
BRANCH  28  29
ATOM     29  O   UNL     1      -2.319  -3.575   5.358  1.00  0.00    -0.376 OA
BRANCH  29  30
ATOM     30  C   UNL     1      -2.607  -4.313   4.176  1.00  0.00     0.202 C 
BRANCH  30  31
ATOM     31  C   UNL     1      -4.053  -4.641   3.741  1.00  0.00     0.261 C 
BRANCH  31  32
ATOM     32  O   UNL     1      -5.012  -4.033   4.572  1.00  0.00    -0.460 OA
BRANCH  32  33
ATOM     33  C   UNL     1      -4.955  -4.630   5.787  1.00  0.00     0.338 C 
ATOM     34  O   UNL     1      -4.709  -5.791   6.014  1.00  0.00    -0.246 OA
BRANCH  33  35
ATOM     35  C   UNL     1      -4.888  -3.542   6.768  1.00  0.00     0.060 A 
ATOM     36  C   UNL     1      -3.968  -3.720   7.805  1.00  0.00     0.016 A 
ATOM     37  C   UNL     1      -5.663  -2.384   6.646  1.00  0.00     0.016 A 
ATOM     38  C   UNL     1      -3.930  -2.802   8.826  1.00  0.00     0.010 A 
ATOM     39  C   UNL     1      -5.639  -1.465   7.681  1.00  0.00     0.010 A 
ATOM     40  C   UNL     1      -4.851  -1.750   8.805  1.00  0.00    -0.014 A 
BRANCH  40  41
ATOM     41  C   UNL     1      -5.254  -1.231  10.114  1.00  0.00     0.031 A 
ATOM     42  C   UNL     1      -6.425  -1.900  10.776  1.00  0.00     0.074 A 
ATOM     43  C   UNL     1      -4.509  -0.292  10.707  1.00  0.00     0.049 A 
ATOM     44  N   UNL     1      -6.925  -1.702  11.963  1.00  0.00    -0.248 NA
ATOM     45  C   UNL     1      -7.127  -2.944  10.001  1.00  0.00     0.031 C 
ATOM     46  C   UNL     1      -3.337   0.353  10.117  1.00  0.00     0.029 A 
ATOM     47  N   UNL     1      -4.635   0.273  11.940  1.00  0.00    -0.354 N 
ATOM     48  C   UNL     1      -8.004  -2.573  12.063  1.00  0.00     0.074 A 
ATOM     49  C   UNL     1      -8.105  -3.291  10.818  1.00  0.00     0.031 C 
ATOM     50  C   UNL     1      -2.858   1.253  10.992  1.00  0.00     0.029 A 
ATOM     51  C   UNL     1      -3.705   1.250  12.180  1.00  0.00     0.049 A 
ATOM     52  H   UNL     1      -5.322   0.006  12.592  1.00  0.00     0.167 HD
ATOM     53  C   UNL     1      -8.828  -2.761  13.116  1.00  0.00     0.034 A 
ATOM     54  C   UNL     1      -3.586   2.059  13.246  1.00  0.00     0.034 A 
ATOM     55  C   UNL     1      -8.694  -2.026  14.340  1.00  0.00     0.049 A 
ATOM     56  C   UNL     1      -4.539   1.853  14.391  1.00  0.00     0.074 A 
ATOM     57  C   UNL     1      -9.449  -2.121  15.491  1.00  0.00     0.029 A 
ATOM     58  N   UNL     1      -7.739  -1.042  14.558  1.00  0.00    -0.354 N 
ATOM     59  N   UNL     1      -5.510   0.977  14.512  1.00  0.00    -0.248 NA
ATOM     60  C   UNL     1      -4.355   2.716  15.561  1.00  0.00     0.031 C 
ATOM     61  C   UNL     1      -8.976  -1.160  16.392  1.00  0.00     0.029 A 
ATOM     62  C   UNL     1      -7.893  -0.506  15.821  1.00  0.00     0.049 A 
ATOM     63  H   UNL     1      -7.053  -0.767  13.908  1.00  0.00     0.167 HD
ATOM     64  C   UNL     1      -6.032   1.158  15.785  1.00  0.00     0.074 A 
ATOM     65  C   UNL     1      -5.249   2.213  16.401  1.00  0.00     0.031 C 
ATOM     66  C   UNL     1      -7.067   0.525  16.396  1.00  0.00     0.034 A 
BRANCH  53  67
ATOM     67  C   UNL     1      -9.934  -3.772  12.971  1.00  0.00     0.023 A 
ATOM     68  C   UNL     1      -9.638  -5.150  12.914  1.00  0.00     0.012 A 
ATOM     69  C   UNL     1     -11.277  -3.353  12.907  1.00  0.00     0.148 A 
ATOM     70  C   UNL     1     -10.658  -6.091  12.768  1.00  0.00     0.002 A 
ATOM     71  C   UNL     1     -12.291  -4.299  12.811  1.00  0.00     0.091 A 
ATOM     72  F   UNL     1     -11.537  -2.038  12.924  1.00  0.00    -0.205 F 
ATOM     73  C   UNL     1     -11.983  -5.667  12.729  1.00  0.00     0.022 A 
BRANCH  71  74
ATOM     74  S   UNL     1     -14.031  -3.858  12.829  1.00  0.00     0.127 S 
ATOM     75  O   UNL     1     -14.445  -4.232  11.476  1.00  0.00    -0.237 OA
ATOM     76  O   UNL     1     -14.553  -4.722  13.887  1.00  0.00    -0.237 OA
ATOM     77  O   UNL     1     -14.085  -2.433  13.122  1.00  0.00    -0.744 OA
ENDBRANCH  71  74
ENDBRANCH  53  67
BRANCH  54  78
ATOM     78  C   UNL     1      -2.522   3.094  13.271  1.00  0.00     0.023 A 
ATOM     79  C   UNL     1      -1.448   2.979  14.173  1.00  0.00     0.012 A 
ATOM     80  C   UNL     1      -2.548   4.172  12.365  1.00  0.00     0.148 A 
ATOM     81  C   UNL     1      -0.435   3.938  14.194  1.00  0.00     0.002 A 
ATOM     82  C   UNL     1      -1.508   5.091  12.351  1.00  0.00     0.091 A 
ATOM     83  F   UNL     1      -3.584   4.265  11.519  1.00  0.00    -0.205 F 
ATOM     84  C   UNL     1      -0.459   4.987  13.277  1.00  0.00     0.022 A 
BRANCH  82  85
ATOM     85  S   UNL     1      -1.390   6.390  11.116  1.00  0.00     0.127 S 
ATOM     86  O   UNL     1      -1.633   7.586  11.918  1.00  0.00    -0.237 OA
ATOM     87  O   UNL     1      -0.014   6.231  10.644  1.00  0.00    -0.237 OA
ATOM     88  O   UNL     1      -2.406   6.080  10.119  1.00  0.00    -0.744 OA
ENDBRANCH  82  85
ENDBRANCH  54  78
BRANCH  66  89
ATOM     89  C   UNL     1      -7.374   0.938  17.809  1.00  0.00     0.023 A 
ATOM     90  C   UNL     1      -7.938   2.202  18.069  1.00  0.00     0.012 A 
ATOM     91  C   UNL     1      -7.144   0.044  18.873  1.00  0.00     0.148 A 
ATOM     92  C   UNL     1      -8.219   2.592  19.376  1.00  0.00     0.002 A 
ATOM     93  C   UNL     1      -7.484   0.417  20.165  1.00  0.00     0.091 A 
ATOM     94  F   UNL     1      -6.595  -1.149  18.602  1.00  0.00    -0.205 F 
ATOM     95  C   UNL     1      -8.002   1.696  20.422  1.00  0.00     0.022 A 
BRANCH  93  96
ATOM     96  S   UNL     1      -7.343  -0.711  21.554  1.00  0.00     0.127 S 
ATOM     97  O   UNL     1      -6.195  -0.157  22.270  1.00  0.00    -0.237 OA
ATOM     98  O   UNL     1      -8.629  -0.532  22.229  1.00  0.00    -0.237 OA
ATOM     99  O   UNL     1      -7.142  -2.034  20.979  1.00  0.00    -0.744 OA
ENDBRANCH  93  96
ENDBRANCH  66  89
ENDBRANCH  40  41
ENDBRANCH  33  35
ENDBRANCH  32  33
ENDBRANCH  31  32
ENDBRANCH  30  31
ENDBRANCH  29  30
ENDBRANCH  28  29
ENDBRANCH   1  28
TORSDOF 25
