REMARK SMILES O=C(OCCOCCOCCOCCOC(=O)[C@H]1CCCCN1c1cc(-c2ccccc2)nc(-c2cccc(Cl)c2)n1)c1ccc(-c2c3nc(c(-c4cccc(S(=O)(=O)[O-])c4F)c4ccc([nH]4)c(-c4cccc(S(=O)(=O)[O-])c4F)c4nc(c(-c5cccc(S(=O)(=O)[O-])c5F)c5ccc2[nH]5)C=C4)C=C3)cc1
REMARK SMILES IDX 8 1 7 2 6 3 5 4 4 5 3 6 2 7 1 8 43 9 44 10 105 11 45 12
REMARK SMILES IDX 104 13 46 14 47 15 48 16 98 17 49 18 103 19 97 20 99 21
REMARK SMILES IDX 50 22 102 23 96 24 95 25 51 27 83 28 63 29 82 30 64 31 67 32
REMARK SMILES IDX 81 33 100 34 65 35 66 36 80 38 101 39 68 40 52 41 53 42
REMARK SMILES IDX 61 43 54 44 56 45 62 46 55 47 57 48 58 49 59 50 60 51 84 52
REMARK SMILES IDX 85 53 93 54 86 55 88 56 94 57 87 58 89 59 90 60 91 61 92 62
REMARK SMILES IDX 69 63 70 64 78 65 71 66 73 67 79 68 72 69 74 70 75 71 76 72
REMARK SMILES IDX 77 73 9 74 10 75 11 76 12 77 13 78 14 79 15 80 16 81 17 82
REMARK SMILES IDX 18 83 19 84 23 85 20 86 22 87 21 88 24 89 25 90 42 91 26 92
REMARK SMILES IDX 34 93 33 94 27 95 28 96 32 97 29 98 31 99 30 100 35 101
REMARK SMILES IDX 36 102 41 103 37 104 39 105 38 106 40 107
REMARK H PARENT 99 26 67 37
REMARK Flexibility Score: inf
ROOT
ATOM      1  C   UNL     1       7.466  -6.458   3.687  1.00  0.00     0.188 C 
ENDROOT
BRANCH   1   2
ATOM      2  C   UNL     1       7.571  -6.727   2.178  1.00  0.00     0.188 C 
BRANCH   2   3
ATOM      3  O   UNL     1       7.762  -5.511   1.473  1.00  0.00    -0.376 OA
BRANCH   3   4
ATOM      4  C   UNL     1       7.141  -5.264   0.221  1.00  0.00     0.202 C 
BRANCH   4   5
ATOM      5  C   UNL     1       7.489  -6.221  -0.903  1.00  0.00     0.261 C 
BRANCH   5   6
ATOM      6  O   UNL     1       8.276  -7.354  -0.511  1.00  0.00    -0.460 OA
BRANCH   6   7
ATOM      7  C   UNL     1       9.591  -7.442  -0.204  1.00  0.00     0.338 C 
ATOM      8  O   UNL     1      10.038  -8.544   0.113  1.00  0.00    -0.246 OA
BRANCH   7   9
ATOM      9  C   UNL     1      10.542  -6.300  -0.259  1.00  0.00     0.060 A 
ATOM     10  C   UNL     1      10.266  -5.001   0.160  1.00  0.00     0.016 A 
ATOM     11  C   UNL     1      11.860  -6.593  -0.630  1.00  0.00     0.016 A 
ATOM     12  C   UNL     1      11.196  -3.988   0.104  1.00  0.00     0.010 A 
ATOM     13  C   UNL     1      12.840  -5.597  -0.617  1.00  0.00     0.010 A 
ATOM     14  C   UNL     1      12.490  -4.286  -0.273  1.00  0.00    -0.014 A 
BRANCH  14  15
ATOM     15  C   UNL     1      13.404  -3.153  -0.426  1.00  0.00     0.031 A 
ATOM     16  C   UNL     1      13.753  -2.750  -1.818  1.00  0.00     0.074 A 
ATOM     17  C   UNL     1      13.778  -2.448   0.655  1.00  0.00     0.049 A 
ATOM     18  N   UNL     1      14.627  -1.879  -2.223  1.00  0.00    -0.248 NA
ATOM     19  C   UNL     1      13.007  -3.414  -2.905  1.00  0.00     0.031 C 
ATOM     20  C   UNL     1      13.325  -2.697   2.030  1.00  0.00     0.029 A 
ATOM     21  N   UNL     1      14.620  -1.378   0.773  1.00  0.00    -0.354 N 
ATOM     22  C   UNL     1      14.609  -1.961  -3.607  1.00  0.00     0.074 A 
ATOM     23  C   UNL     1      13.600  -2.921  -3.980  1.00  0.00     0.031 C 
ATOM     24  C   UNL     1      13.919  -1.821   2.854  1.00  0.00     0.029 A 
ATOM     25  C   UNL     1      14.858  -1.023   2.080  1.00  0.00     0.049 A 
ATOM     26  H   UNL     1      15.014  -0.910   0.002  1.00  0.00     0.167 HD
ATOM     27  C   UNL     1      15.407  -1.304  -4.474  1.00  0.00     0.034 A 
ATOM     28  C   UNL     1      15.800  -0.205   2.583  1.00  0.00     0.034 A 
ATOM     29  C   UNL     1      16.385  -0.349  -4.044  1.00  0.00     0.049 A 
ATOM     30  C   UNL     1      16.724   0.458   1.596  1.00  0.00     0.074 A 
ATOM     31  C   UNL     1      17.270   0.382  -4.808  1.00  0.00     0.029 A 
ATOM     32  N   UNL     1      16.616  -0.015  -2.715  1.00  0.00    -0.354 N 
ATOM     33  N   UNL     1      16.705   0.397   0.284  1.00  0.00    -0.248 NA
ATOM     34  C   UNL     1      17.793   1.296   2.147  1.00  0.00     0.031 C 
ATOM     35  C   UNL     1      18.070   1.124  -3.934  1.00  0.00     0.029 A 
ATOM     36  C   UNL     1      17.651   0.891  -2.631  1.00  0.00     0.049 A 
ATOM     37  H   UNL     1      16.114  -0.373  -1.948  1.00  0.00     0.167 HD
ATOM     38  C   UNL     1      17.746   1.204  -0.151  1.00  0.00     0.074 A 
ATOM     39  C   UNL     1      18.356   1.765   1.041  1.00  0.00     0.031 C 
ATOM     40  C   UNL     1      18.180   1.449  -1.411  1.00  0.00     0.034 A 
BRANCH  27  41
ATOM     41  C   UNL     1      15.309  -1.675  -5.923  1.00  0.00     0.023 A 
ATOM     42  C   UNL     1      14.203  -1.279  -6.700  1.00  0.00     0.012 A 
ATOM     43  C   UNL     1      16.334  -2.439  -6.513  1.00  0.00     0.148 A 
ATOM     44  C   UNL     1      14.108  -1.662  -8.038  1.00  0.00     0.002 A 
ATOM     45  C   UNL     1      16.257  -2.776  -7.856  1.00  0.00     0.091 A 
ATOM     46  F   UNL     1      17.355  -2.839  -5.740  1.00  0.00    -0.205 F 
ATOM     47  C   UNL     1      15.139  -2.399  -8.618  1.00  0.00     0.022 A 
BRANCH  45  48
ATOM     48  S   UNL     1      17.562  -3.666  -8.707  1.00  0.00     0.127 S 
ATOM     49  O   UNL     1      16.877  -4.899  -9.092  1.00  0.00    -0.237 OA
ATOM     50  O   UNL     1      17.868  -2.765  -9.816  1.00  0.00    -0.237 OA
ATOM     51  O   UNL     1      18.637  -3.835  -7.738  1.00  0.00    -0.744 OA
ENDBRANCH  45  48
ENDBRANCH  27  41
BRANCH  28  52
ATOM     52  C   UNL     1      15.963  -0.038   4.056  1.00  0.00     0.023 A 
ATOM     53  C   UNL     1      15.769   1.224   4.645  1.00  0.00     0.012 A 
ATOM     54  C   UNL     1      16.316  -1.129   4.880  1.00  0.00     0.148 A 
ATOM     55  C   UNL     1      15.961   1.407   6.017  1.00  0.00     0.002 A 
ATOM     56  C   UNL     1      16.446  -0.953   6.252  1.00  0.00     0.091 A 
ATOM     57  F   UNL     1      16.517  -2.323   4.305  1.00  0.00    -0.205 F 
ATOM     58  C   UNL     1      16.291   0.319   6.821  1.00  0.00     0.022 A 
BRANCH  56  59
ATOM     59  S   UNL     1      16.743  -2.325   7.374  1.00  0.00     0.127 S 
ATOM     60  O   UNL     1      18.133  -2.102   7.759  1.00  0.00    -0.237 OA
ATOM     61  O   UNL     1      15.762  -2.072   8.430  1.00  0.00    -0.237 OA
ATOM     62  O   UNL     1      16.483  -3.530   6.596  1.00  0.00    -0.744 OA
ENDBRANCH  56  59
ENDBRANCH  28  52
BRANCH  40  63
ATOM     63  C   UNL     1      19.340   2.389  -1.562  1.00  0.00     0.023 A 
ATOM     64  C   UNL     1      20.639   1.956  -1.237  1.00  0.00     0.012 A 
ATOM     65  C   UNL     1      19.145   3.656  -2.143  1.00  0.00     0.148 A 
ATOM     66  C   UNL     1      21.732   2.785  -1.472  1.00  0.00     0.002 A 
ATOM     67  C   UNL     1      20.244   4.450  -2.429  1.00  0.00     0.091 A 
ATOM     68  F   UNL     1      17.893   4.043  -2.427  1.00  0.00    -0.205 F 
ATOM     69  C   UNL     1      21.537   4.023  -2.082  1.00  0.00     0.022 A 
BRANCH  67  70
ATOM     70  S   UNL     1      20.098   6.001  -3.320  1.00  0.00     0.127 S 
ATOM     71  O   UNL     1      20.472   6.970  -2.291  1.00  0.00    -0.237 OA
ATOM     72  O   UNL     1      21.082   5.833  -4.389  1.00  0.00    -0.237 OA
ATOM     73  O   UNL     1      18.716   6.080  -3.773  1.00  0.00    -0.744 OA
ENDBRANCH  67  70
ENDBRANCH  40  63
ENDBRANCH  14  15
ENDBRANCH   7   9
ENDBRANCH   6   7
ENDBRANCH   5   6
ENDBRANCH   4   5
ENDBRANCH   3   4
ENDBRANCH   2   3
ENDBRANCH   1   2
BRANCH   1  74
ATOM     74  O   UNL     1       6.338  -5.679   4.103  1.00  0.00    -0.377 OA
BRANCH  74  75
ATOM     75  C   UNL     1       6.014  -4.583   3.255  1.00  0.00     0.188 C 
BRANCH  75  76
ATOM     76  C   UNL     1       7.023  -3.401   3.152  1.00  0.00     0.188 C 
BRANCH  76  77
ATOM     77  O   UNL     1       8.370  -3.767   3.409  1.00  0.00    -0.376 OA
BRANCH  77  78
ATOM     78  C   UNL     1       8.991  -3.383   4.631  1.00  0.00     0.202 C 
BRANCH  78  79
ATOM     79  C   UNL     1       8.310  -3.675   5.982  1.00  0.00     0.261 C 
BRANCH  79  80
ATOM     80  O   UNL     1       6.880  -3.608   5.983  1.00  0.00    -0.462 OA
BRANCH  80  81
ATOM     81  C   UNL     1       6.309  -2.371   6.014  1.00  0.00     0.328 C 
ATOM     82  O   UNL     1       6.923  -1.334   6.170  1.00  0.00    -0.250 OA
BRANCH  81  83
ATOM     83  C   UNL     1       4.802  -2.500   5.659  1.00  0.00     0.193 C 
ATOM     84  C   UNL     1       4.062  -3.444   6.595  1.00  0.00     0.037 C 
ATOM     85  N   UNL     1       4.125  -1.209   5.620  1.00  0.00    -0.343 N 
ATOM     86  C   UNL     1       4.009  -2.828   7.986  1.00  0.00     0.005 C 
ATOM     87  C   UNL     1       3.986  -0.485   6.863  1.00  0.00     0.119 C 
ATOM     88  C   UNL     1       3.416  -1.412   7.951  1.00  0.00     0.022 C 
BRANCH  85  89
ATOM     89  C   UNL     1       3.564  -0.792   4.435  1.00  0.00     0.134 A 
ATOM     90  C   UNL     1       4.171   0.190   3.679  1.00  0.00     0.076 A 
ATOM     91  N   UNL     1       2.437  -1.396   4.016  1.00  0.00    -0.211 NA
ATOM     92  C   UNL     1       3.557   0.552   2.493  1.00  0.00     0.076 A 
ATOM     93  C   UNL     1       1.907  -0.987   2.844  1.00  0.00     0.162 A 
ATOM     94  N   UNL     1       2.425  -0.033   2.056  1.00  0.00    -0.228 NA
BRANCH  92  95
ATOM     95  C   UNL     1       4.037   1.673   1.679  1.00  0.00     0.000 A 
ATOM     96  C   UNL     1       3.339   2.893   1.692  1.00  0.00     0.010 A 
ATOM     97  C   UNL     1       5.188   1.575   0.882  1.00  0.00     0.010 A 
ATOM     98  C   UNL     1       3.790   3.991   0.956  1.00  0.00     0.001 A 
ATOM     99  C   UNL     1       5.634   2.672   0.136  1.00  0.00     0.001 A 
ATOM    100  C   UNL     1       4.940   3.880   0.180  1.00  0.00     0.000 A 
ENDBRANCH  92  95
BRANCH  93 101
ATOM    101  C   UNL     1       0.613  -1.556   2.434  1.00  0.00     0.021 A 
ATOM    102  C   UNL     1      -0.396  -1.803   3.385  1.00  0.00     0.012 A 
ATOM    103  C   UNL     1       0.320  -1.835   1.085  1.00  0.00     0.032 A 
ATOM    104  C   UNL     1      -1.648  -2.301   3.011  1.00  0.00     0.002 A 
ATOM    105  C   UNL     1      -0.925  -2.351   0.716  1.00  0.00     0.041 A 
ATOM    106  C   UNL     1      -1.911  -2.580   1.673  1.00  0.00     0.020 A 
ATOM    107  Cl  UNL     1      -1.252  -2.709  -0.936  1.00  0.00    -0.084 Cl
ENDBRANCH  93 101
ENDBRANCH  85  89
ENDBRANCH  81  83
ENDBRANCH  80  81
ENDBRANCH  79  80
ENDBRANCH  78  79
ENDBRANCH  77  78
ENDBRANCH  76  77
ENDBRANCH  75  76
ENDBRANCH  74  75
ENDBRANCH   1  74
TORSDOF 26
