REMARK SMILES O=C(OCCOCCOCCOCCOC(=O)c1ccc(-c2ccc(OCc3ccccc3)cc2)nc1)c1ccc(-c2c3nc(c(-c4cccc(S(=O)(=O)[O-])c4F)c4ccc([nH]4)c(-c4cccc(S(=O)(=O)[O-])c4F)c4nc(c(-c5cccc(S(=O)(=O)[O-])c5F)c5ccc2[nH]5)C=C4)C=C3)cc1
REMARK SMILES IDX 10 1 9 2 8 3 7 4 6 5 5 6 4 7 3 8 2 9 1 10 38 11 39 12 100 13
REMARK SMILES IDX 40 14 99 15 41 16 42 17 43 18 93 19 44 20 98 21 92 22 94 23
REMARK SMILES IDX 45 24 97 25 91 26 90 27 46 29 78 30 58 31 77 32 59 33 62 34
REMARK SMILES IDX 76 35 95 36 60 37 61 38 75 40 96 41 63 42 47 43 48 44 56 45
REMARK SMILES IDX 49 46 51 47 57 48 50 49 52 50 53 51 54 52 55 53 79 54 80 55
REMARK SMILES IDX 88 56 81 57 83 58 89 59 82 60 84 61 85 62 86 63 87 64 64 65
REMARK SMILES IDX 65 66 73 67 66 68 68 69 74 70 67 71 69 72 70 73 71 74 72 75
REMARK SMILES IDX 11 76 12 77 13 78 14 79 15 80 16 81 17 82 18 83 19 84 37 85
REMARK SMILES IDX 20 86 36 87 21 88 22 89 23 90 35 91 24 92 34 93 25 94 26 95
REMARK SMILES IDX 27 96 28 97 29 98 33 99 30 100 32 101 31 102
REMARK H PARENT 94 28 62 39
REMARK Flexibility Score: inf
ROOT
ATOM      1  C   UNL     1       4.035   1.824  -3.397  1.00  0.00     0.188 C 
ENDROOT
BRANCH   1   2
ATOM      2  O   UNL     1       2.618   1.880  -3.554  1.00  0.00    -0.377 OA
BRANCH   2   3
ATOM      3  C   UNL     1       1.853   1.572  -2.386  1.00  0.00     0.188 C 
BRANCH   3   4
ATOM      4  C   UNL     1       2.294   0.313  -1.637  1.00  0.00     0.188 C 
BRANCH   4   5
ATOM      5  O   UNL     1       3.588   0.495  -1.075  1.00  0.00    -0.376 OA
BRANCH   5   6
ATOM      6  C   UNL     1       4.434  -0.636  -0.924  1.00  0.00     0.202 C 
BRANCH   6   7
ATOM      7  C   UNL     1       3.909  -1.790  -0.068  1.00  0.00     0.261 C 
BRANCH   7   8
ATOM      8  O   UNL     1       2.516  -1.708   0.280  1.00  0.00    -0.460 OA
BRANCH   8   9
ATOM      9  C   UNL     1       1.936  -1.102   1.345  1.00  0.00     0.338 C 
ATOM     10  O   UNL     1       0.739  -1.287   1.555  1.00  0.00    -0.246 OA
BRANCH   9  11
ATOM     11  C   UNL     1       2.694  -0.243   2.293  1.00  0.00     0.060 A 
ATOM     12  C   UNL     1       3.700   0.638   1.912  1.00  0.00     0.016 A 
ATOM     13  C   UNL     1       2.307  -0.252   3.638  1.00  0.00     0.016 A 
ATOM     14  C   UNL     1       4.460   1.324   2.840  1.00  0.00     0.010 A 
ATOM     15  C   UNL     1       2.994   0.526   4.575  1.00  0.00     0.010 A 
ATOM     16  C   UNL     1       4.126   1.256   4.184  1.00  0.00    -0.014 A 
BRANCH  16  17
ATOM     17  C   UNL     1       5.084   1.805   5.162  1.00  0.00     0.031 A 
ATOM     18  C   UNL     1       5.798   0.832   6.054  1.00  0.00     0.074 A 
ATOM     19  C   UNL     1       5.398   3.114   5.149  1.00  0.00     0.049 A 
ATOM     20  N   UNL     1       6.615   1.060   7.043  1.00  0.00    -0.248 NA
ATOM     21  C   UNL     1       5.555  -0.601   5.798  1.00  0.00     0.031 C 
ATOM     22  C   UNL     1       4.842   4.111   4.229  1.00  0.00     0.029 A 
ATOM     23  N   UNL     1       6.282   3.828   5.912  1.00  0.00    -0.354 N 
ATOM     24  C   UNL     1       6.902  -0.187   7.585  1.00  0.00     0.074 A 
ATOM     25  C   UNL     1       6.195  -1.173   6.803  1.00  0.00     0.031 C 
ATOM     26  C   UNL     1       5.423   5.298   4.460  1.00  0.00     0.029 A 
ATOM     27  C   UNL     1       6.321   5.167   5.600  1.00  0.00     0.049 A 
ATOM     28  H   UNL     1       6.837   3.422   6.617  1.00  0.00     0.167 HD
ATOM     29  C   UNL     1       7.683  -0.475   8.649  1.00  0.00     0.034 A 
ATOM     30  C   UNL     1       6.981   6.174   6.201  1.00  0.00     0.034 A 
ATOM     31  C   UNL     1       8.415   0.528   9.367  1.00  0.00     0.049 A 
ATOM     32  C   UNL     1       7.825   5.830   7.399  1.00  0.00     0.074 A 
ATOM     33  C   UNL     1       9.226   0.382  10.475  1.00  0.00     0.029 A 
ATOM     34  N   UNL     1       8.421   1.877   9.033  1.00  0.00    -0.354 N 
ATOM     35  N   UNL     1       8.077   4.651   7.919  1.00  0.00    -0.248 NA
ATOM     36  C   UNL     1       8.478   6.947   8.091  1.00  0.00     0.031 C 
ATOM     37  C   UNL     1       9.702   1.649  10.826  1.00  0.00     0.029 A 
ATOM     38  C   UNL     1       9.217   2.579   9.916  1.00  0.00     0.049 A 
ATOM     39  H   UNL     1       7.930   2.273   8.278  1.00  0.00     0.167 HD
ATOM     40  C   UNL     1       8.938   4.878   8.984  1.00  0.00     0.074 A 
ATOM     41  C   UNL     1       9.183   6.309   9.016  1.00  0.00     0.031 C 
ATOM     42  C   UNL     1       9.467   3.998   9.870  1.00  0.00     0.034 A 
BRANCH  29  43
ATOM     43  C   UNL     1       7.722  -1.908   9.106  1.00  0.00     0.023 A 
ATOM     44  C   UNL     1       8.393  -2.887   8.346  1.00  0.00     0.012 A 
ATOM     45  C   UNL     1       7.044  -2.290  10.280  1.00  0.00     0.148 A 
ATOM     46  C   UNL     1       8.348  -4.231   8.722  1.00  0.00     0.002 A 
ATOM     47  C   UNL     1       7.043  -3.622  10.674  1.00  0.00     0.091 A 
ATOM     48  F   UNL     1       6.384  -1.350  10.971  1.00  0.00    -0.205 F 
ATOM     49  C   UNL     1       7.679  -4.596   9.888  1.00  0.00     0.022 A 
BRANCH  47  50
ATOM     50  S   UNL     1       6.260  -4.181  12.190  1.00  0.00     0.127 S 
ATOM     51  O   UNL     1       5.121  -4.938  11.674  1.00  0.00    -0.237 OA
ATOM     52  O   UNL     1       7.313  -4.999  12.793  1.00  0.00    -0.237 OA
ATOM     53  O   UNL     1       5.924  -2.977  12.937  1.00  0.00    -0.744 OA
ENDBRANCH  47  50
ENDBRANCH  29  43
BRANCH  30  54
ATOM     54  C   UNL     1       6.869   7.572   5.692  1.00  0.00     0.023 A 
ATOM     55  C   UNL     1       8.006   8.217   5.167  1.00  0.00     0.012 A 
ATOM     56  C   UNL     1       5.639   8.263   5.702  1.00  0.00     0.148 A 
ATOM     57  C   UNL     1       7.926   9.526   4.686  1.00  0.00     0.002 A 
ATOM     58  C   UNL     1       5.554   9.544   5.168  1.00  0.00     0.091 A 
ATOM     59  F   UNL     1       4.569   7.648   6.226  1.00  0.00    -0.205 F 
ATOM     60  C   UNL     1       6.700  10.185   4.676  1.00  0.00     0.022 A 
BRANCH  58  61
ATOM     61  S   UNL     1       3.990  10.412   4.995  1.00  0.00     0.127 S 
ATOM     62  O   UNL     1       4.110  11.451   6.015  1.00  0.00    -0.237 OA
ATOM     63  O   UNL     1       4.060  10.893   3.615  1.00  0.00    -0.237 OA
ATOM     64  O   UNL     1       2.958   9.411   5.228  1.00  0.00    -0.744 OA
ENDBRANCH  58  61
ENDBRANCH  30  54
BRANCH  42  65
ATOM     65  C   UNL     1      10.396   4.553  10.911  1.00  0.00     0.023 A 
ATOM     66  C   UNL     1       9.880   5.294  11.991  1.00  0.00     0.012 A 
ATOM     67  C   UNL     1      11.772   4.262  10.855  1.00  0.00     0.148 A 
ATOM     68  C   UNL     1      10.730   5.766  12.989  1.00  0.00     0.002 A 
ATOM     69  C   UNL     1      12.603   4.687  11.882  1.00  0.00     0.091 A 
ATOM     70  F   UNL     1      12.240   3.574   9.804  1.00  0.00    -0.205 F 
ATOM     71  C   UNL     1      12.087   5.450  12.942  1.00  0.00     0.022 A 
BRANCH  69  72
ATOM     72  S   UNL     1      14.336   4.225  11.955  1.00  0.00     0.127 S 
ATOM     73  O   UNL     1      14.992   5.471  11.564  1.00  0.00    -0.237 OA
ATOM     74  O   UNL     1      14.502   3.863  13.363  1.00  0.00    -0.237 OA
ATOM     75  O   UNL     1      14.492   3.114  11.026  1.00  0.00    -0.744 OA
ENDBRANCH  69  72
ENDBRANCH  42  65
ENDBRANCH  16  17
ENDBRANCH   9  11
ENDBRANCH   8   9
ENDBRANCH   7   8
ENDBRANCH   6   7
ENDBRANCH   5   6
ENDBRANCH   4   5
ENDBRANCH   3   4
ENDBRANCH   2   3
ENDBRANCH   1   2
BRANCH   1  76
ATOM     76  C   UNL     1       4.709   2.791  -2.395  1.00  0.00     0.188 C 
BRANCH  76  77
ATOM     77  O   UNL     1       3.803   3.450  -1.522  1.00  0.00    -0.376 OA
BRANCH  77  78
ATOM     78  C   UNL     1       3.720   4.864  -1.672  1.00  0.00     0.202 C 
BRANCH  78  79
ATOM     79  C   UNL     1       2.997   5.362  -2.936  1.00  0.00     0.261 C 
BRANCH  79  80
ATOM     80  O   UNL     1       3.414   4.747  -4.168  1.00  0.00    -0.460 OA
BRANCH  80  81
ATOM     81  C   UNL     1       4.584   5.135  -4.716  1.00  0.00     0.339 C 
ATOM     82  O   UNL     1       5.328   6.018  -4.326  1.00  0.00    -0.246 OA
BRANCH  81  83
ATOM     83  C   UNL     1       4.941   4.136  -5.742  1.00  0.00     0.078 A 
ATOM     84  C   UNL     1       4.015   3.609  -6.644  1.00  0.00     0.019 A 
ATOM     85  C   UNL     1       6.206   3.567  -5.694  1.00  0.00     0.127 A 
ATOM     86  C   UNL     1       4.389   2.530  -7.449  1.00  0.00     0.030 A 
ATOM     87  N   UNL     1       6.590   2.519  -6.463  1.00  0.00    -0.255 NA
ATOM     88  C   UNL     1       5.677   2.007  -7.328  1.00  0.00     0.070 A 
BRANCH  88  89
ATOM     89  C   UNL     1       6.188   0.999  -8.260  1.00  0.00     0.000 A 
ATOM     90  C   UNL     1       5.699  -0.314  -8.335  1.00  0.00     0.014 A 
ATOM     91  C   UNL     1       7.185   1.385  -9.165  1.00  0.00     0.014 A 
ATOM     92  C   UNL     1       6.130  -1.173  -9.358  1.00  0.00     0.047 A 
ATOM     93  C   UNL     1       7.623   0.526 -10.169  1.00  0.00     0.047 A 
ATOM     94  C   UNL     1       7.044  -0.730 -10.317  1.00  0.00     0.119 A 
BRANCH  94  95
ATOM     95  O   UNL     1       7.274  -1.578 -11.369  1.00  0.00    -0.489 OA
BRANCH  95  96
ATOM     96  C   UNL     1       7.771  -0.993 -12.587  1.00  0.00     0.265 C 
BRANCH  96  97
ATOM     97  C   UNL     1       6.848   0.044 -13.199  1.00  0.00    -0.011 A 
ATOM     98  C   UNL     1       7.289   1.362 -13.406  1.00  0.00     0.007 A 
ATOM     99  C   UNL     1       5.521  -0.280 -13.512  1.00  0.00     0.007 A 
ATOM    100  C   UNL     1       6.408   2.345 -13.858  1.00  0.00     0.000 A 
ATOM    101  C   UNL     1       4.646   0.702 -13.982  1.00  0.00     0.000 A 
ATOM    102  C   UNL     1       5.085   2.015 -14.142  1.00  0.00     0.000 A 
ENDBRANCH  96  97
ENDBRANCH  95  96
ENDBRANCH  94  95
ENDBRANCH  88  89
ENDBRANCH  81  83
ENDBRANCH  80  81
ENDBRANCH  79  80
ENDBRANCH  78  79
ENDBRANCH  77  78
ENDBRANCH  76  77
ENDBRANCH   1  76
TORSDOF 27
