REMARK SMILES O=C(OCCOCCOCCOCCOC(=O)c1ccc([C@@H]2CC(O)=Nc3c2ncn3-c2cccc(Cl)c2)cc1)c1ccc(-c2c3nc(c(-c4cccc(S(=O)(=O)[O-])c4F)c4ccc([nH]4)c(-c4cccc(S(=O)(=O)[O-])c4F)c4nc(c(-c5cccc(S(=O)(=O)[O-])c5F)c5ccc2[nH]5)C=C4)C=C3)cc1
REMARK SMILES IDX 8 1 7 2 6 3 5 4 4 5 3 6 2 7 1 8 41 9 42 10 103 11 43 12
REMARK SMILES IDX 102 13 44 14 45 15 46 16 96 17 47 18 101 19 95 20 97 21
REMARK SMILES IDX 48 22 100 23 94 24 93 25 49 27 81 28 61 29 80 30 62 31 65 32
REMARK SMILES IDX 79 33 98 34 63 35 64 36 78 38 99 39 66 40 50 41 51 42 59 43
REMARK SMILES IDX 52 44 54 45 60 46 53 47 55 48 56 49 57 50 58 51 82 52 83 53
REMARK SMILES IDX 91 54 84 55 86 56 92 57 85 58 87 59 88 60 89 61 90 62 67 63
REMARK SMILES IDX 68 64 76 65 69 66 71 67 77 68 70 69 72 70 73 71 74 72 75 73
REMARK SMILES IDX 9 74 10 75 11 76 12 77 13 78 14 79 15 80 16 81 17 82 18 83
REMARK SMILES IDX 19 84 40 85 20 86 39 87 21 88 22 89 23 90 28 91 24 92 27 93
REMARK SMILES IDX 29 94 26 95 31 96 30 97 25 98 32 100 33 101 38 102 34 103
REMARK SMILES IDX 36 104 35 105 37 106
REMARK H PARENT 97 26 65 37 25 99
REMARK Flexibility Score: inf
ROOT
ATOM      1  C   UNL     1       2.220   1.738  -0.977  1.00  0.00     0.188 C 
ENDROOT
BRANCH   1   2
ATOM      2  C   UNL     1       2.956   1.499   0.349  1.00  0.00     0.188 C 
BRANCH   2   3
ATOM      3  O   UNL     1       4.165   0.768   0.524  1.00  0.00    -0.376 OA
BRANCH   3   4
ATOM      4  C   UNL     1       4.989   0.164  -0.442  1.00  0.00     0.202 C 
BRANCH   4   5
ATOM      5  C   UNL     1       4.534  -1.052  -1.253  1.00  0.00     0.261 C 
BRANCH   5   6
ATOM      6  O   UNL     1       3.174  -1.087  -1.668  1.00  0.00    -0.460 OA
BRANCH   6   7
ATOM      7  C   UNL     1       2.091  -1.498  -0.972  1.00  0.00     0.338 C 
ATOM      8  O   UNL     1       1.025  -1.625  -1.573  1.00  0.00    -0.246 OA
BRANCH   7   9
ATOM      9  C   UNL     1       2.091  -1.659   0.505  1.00  0.00     0.060 A 
ATOM     10  C   UNL     1       3.200  -2.018   1.275  1.00  0.00     0.016 A 
ATOM     11  C   UNL     1       0.846  -1.479   1.140  1.00  0.00     0.016 A 
ATOM     12  C   UNL     1       3.063  -2.309   2.614  1.00  0.00     0.010 A 
ATOM     13  C   UNL     1       0.696  -1.774   2.486  1.00  0.00     0.010 A 
ATOM     14  C   UNL     1       1.794  -2.287   3.173  1.00  0.00    -0.014 A 
BRANCH  14  15
ATOM     15  C   UNL     1       1.644  -3.093   4.370  1.00  0.00     0.031 A 
ATOM     16  C   UNL     1       2.236  -2.582   5.627  1.00  0.00     0.074 A 
ATOM     17  C   UNL     1       1.012  -4.278   4.255  1.00  0.00     0.049 A 
ATOM     18  N   UNL     1       3.091  -3.170   6.404  1.00  0.00    -0.248 NA
ATOM     19  C   UNL     1       1.891  -1.212   6.028  1.00  0.00     0.031 C 
ATOM     20  C   UNL     1       0.242  -4.765   3.101  1.00  0.00     0.029 A 
ATOM     21  N   UNL     1       0.779  -5.221   5.206  1.00  0.00    -0.354 N 
ATOM     22  C   UNL     1       3.217  -2.333   7.510  1.00  0.00     0.074 A 
ATOM     23  C   UNL     1       2.572  -1.091   7.167  1.00  0.00     0.031 C 
ATOM     24  C   UNL     1      -0.610  -5.719   3.519  1.00  0.00     0.029 A 
ATOM     25  C   UNL     1      -0.339  -5.992   4.916  1.00  0.00     0.049 A 
ATOM     26  H   UNL     1       1.337  -5.344   6.008  1.00  0.00     0.167 HD
ATOM     27  C   UNL     1       3.632  -2.785   8.723  1.00  0.00     0.034 A 
ATOM     28  C   UNL     1      -1.082  -6.687   5.803  1.00  0.00     0.034 A 
ATOM     29  C   UNL     1       4.353  -4.023   8.651  1.00  0.00     0.049 A 
ATOM     30  C   UNL     1      -0.247  -6.930   6.999  1.00  0.00     0.074 A 
ATOM     31  C   UNL     1       5.519  -4.447   8.049  1.00  0.00     0.029 A 
ATOM     32  N   UNL     1       3.702  -5.162   9.051  1.00  0.00    -0.354 N 
ATOM     33  N   UNL     1       0.818  -7.686   6.997  1.00  0.00    -0.248 NA
ATOM     34  C   UNL     1      -0.357  -6.013   8.120  1.00  0.00     0.031 C 
ATOM     35  C   UNL     1       5.292  -5.814   7.716  1.00  0.00     0.029 A 
ATOM     36  C   UNL     1       4.002  -6.140   8.140  1.00  0.00     0.049 A 
ATOM     37  H   UNL     1       3.128  -5.259   9.845  1.00  0.00     0.167 HD
ATOM     38  C   UNL     1       1.702  -7.052   7.860  1.00  0.00     0.074 A 
ATOM     39  C   UNL     1       0.878  -6.115   8.618  1.00  0.00     0.031 C 
ATOM     40  C   UNL     1       3.056  -7.134   7.678  1.00  0.00     0.034 A 
BRANCH  27  41
ATOM     41  C   UNL     1       3.094  -2.251  10.023  1.00  0.00     0.023 A 
ATOM     42  C   UNL     1       3.793  -2.535  11.214  1.00  0.00     0.012 A 
ATOM     43  C   UNL     1       1.799  -1.698  10.151  1.00  0.00     0.148 A 
ATOM     44  C   UNL     1       3.226  -2.284  12.469  1.00  0.00     0.002 A 
ATOM     45  C   UNL     1       1.278  -1.368  11.395  1.00  0.00     0.091 A 
ATOM     46  F   UNL     1       1.001  -1.609   9.079  1.00  0.00    -0.205 F 
ATOM     47  C   UNL     1       1.975  -1.682  12.561  1.00  0.00     0.022 A 
BRANCH  45  48
ATOM     48  S   UNL     1      -0.295  -0.514  11.519  1.00  0.00     0.127 S 
ATOM     49  O   UNL     1      -1.227  -1.628  11.662  1.00  0.00    -0.237 OA
ATOM     50  O   UNL     1      -0.114   0.301  12.721  1.00  0.00    -0.237 OA
ATOM     51  O   UNL     1      -0.385   0.262  10.287  1.00  0.00    -0.744 OA
ENDBRANCH  45  48
ENDBRANCH  27  41
BRANCH  28  52
ATOM     52  C   UNL     1      -2.552  -6.846   5.770  1.00  0.00     0.023 A 
ATOM     53  C   UNL     1      -3.153  -7.935   6.418  1.00  0.00     0.012 A 
ATOM     54  C   UNL     1      -3.389  -5.820   5.264  1.00  0.00     0.148 A 
ATOM     55  C   UNL     1      -4.545  -8.005   6.558  1.00  0.00     0.002 A 
ATOM     56  C   UNL     1      -4.771  -5.909   5.376  1.00  0.00     0.091 A 
ATOM     57  F   UNL     1      -2.830  -4.715   4.751  1.00  0.00    -0.205 F 
ATOM     58  C   UNL     1      -5.353  -6.997   6.033  1.00  0.00     0.022 A 
BRANCH  56  59
ATOM     59  S   UNL     1      -5.862  -4.654   4.691  1.00  0.00     0.127 S 
ATOM     60  O   UNL     1      -6.915  -5.465   4.078  1.00  0.00    -0.237 OA
ATOM     61  O   UNL     1      -6.272  -3.921   5.885  1.00  0.00    -0.237 OA
ATOM     62  O   UNL     1      -5.053  -3.911   3.732  1.00  0.00    -0.744 OA
ENDBRANCH  56  59
ENDBRANCH  28  52
BRANCH  40  63
ATOM     63  C   UNL     1       3.577  -8.111   6.647  1.00  0.00     0.023 A 
ATOM     64  C   UNL     1       3.277  -7.951   5.278  1.00  0.00     0.012 A 
ATOM     65  C   UNL     1       4.536  -9.070   7.019  1.00  0.00     0.148 A 
ATOM     66  C   UNL     1       3.889  -8.743   4.305  1.00  0.00     0.002 A 
ATOM     67  C   UNL     1       5.177  -9.829   6.043  1.00  0.00     0.091 A 
ATOM     68  F   UNL     1       4.834  -9.201   8.320  1.00  0.00    -0.205 F 
ATOM     69  C   UNL     1       4.849  -9.675   4.686  1.00  0.00     0.022 A 
BRANCH  67  70
ATOM     70  S   UNL     1       6.521 -10.952   6.445  1.00  0.00     0.127 S 
ATOM     71  O   UNL     1       5.868 -12.256   6.362  1.00  0.00    -0.237 OA
ATOM     72  O   UNL     1       7.487 -10.684   5.377  1.00  0.00    -0.237 OA
ATOM     73  O   UNL     1       6.982 -10.561   7.771  1.00  0.00    -0.744 OA
ENDBRANCH  67  70
ENDBRANCH  40  63
ENDBRANCH  14  15
ENDBRANCH   7   9
ENDBRANCH   6   7
ENDBRANCH   5   6
ENDBRANCH   4   5
ENDBRANCH   3   4
ENDBRANCH   2   3
ENDBRANCH   1   2
BRANCH   1  74
ATOM     74  O   UNL     1       2.644   2.859  -1.734  1.00  0.00    -0.377 OA
BRANCH  74  75
ATOM     75  C   UNL     1       3.962   2.773  -2.219  1.00  0.00     0.188 C 
BRANCH  75  76
ATOM     76  C   UNL     1       4.997   3.563  -1.390  1.00  0.00     0.188 C 
BRANCH  76  77
ATOM     77  O   UNL     1       4.617   4.489  -0.383  1.00  0.00    -0.376 OA
BRANCH  77  78
ATOM     78  C   UNL     1       3.388   5.188  -0.468  1.00  0.00     0.202 C 
BRANCH  78  79
ATOM     79  C   UNL     1       3.142   6.109  -1.672  1.00  0.00     0.261 C 
BRANCH  79  80
ATOM     80  O   UNL     1       3.475   5.560  -2.955  1.00  0.00    -0.460 OA
BRANCH  80  81
ATOM     81  C   UNL     1       4.627   6.014  -3.517  1.00  0.00     0.338 C 
ATOM     82  O   UNL     1       5.378   6.861  -3.090  1.00  0.00    -0.246 OA
BRANCH  81  83
ATOM     83  C   UNL     1       4.947   5.170  -4.690  1.00  0.00     0.060 A 
ATOM     84  C   UNL     1       6.152   4.461  -4.679  1.00  0.00     0.016 A 
ATOM     85  C   UNL     1       4.080   5.061  -5.777  1.00  0.00     0.016 A 
ATOM     86  C   UNL     1       6.477   3.620  -5.740  1.00  0.00     0.005 A 
ATOM     87  C   UNL     1       4.441   4.266  -6.872  1.00  0.00     0.005 A 
ATOM     88  C   UNL     1       5.641   3.530  -6.867  1.00  0.00    -0.038 A 
BRANCH  88  89
ATOM     89  C   UNL     1       6.187   2.762  -8.064  1.00  0.00     0.081 C 
ATOM     90  C   UNL     1       6.991   3.719  -8.970  1.00  0.00     0.111 C 
ATOM     91  C   UNL     1       5.075   2.137  -8.814  1.00  0.00     0.093 A 
ATOM     92  C   UNL     1       6.226   4.209 -10.188  1.00  0.00     0.188 C 
ATOM     93  C   UNL     1       4.728   2.571 -10.075  1.00  0.00     0.164 A 
ATOM     94  N   UNL     1       4.267   1.125  -8.383  1.00  0.00    -0.238 NA
ATOM     95  N   UNL     1       5.215   3.636 -10.759  1.00  0.00    -0.198 NA
ATOM     96  N   UNL     1       3.641   1.798 -10.437  1.00  0.00    -0.283 N 
ATOM     97  C   UNL     1       3.388   0.976  -9.356  1.00  0.00     0.206 A 
BRANCH  92  98
ATOM     98  O   UNL     1       6.727   5.327 -10.746  1.00  0.00    -0.496 OA
ATOM     99  H   UNL     1       7.458   5.761 -10.352  1.00  0.00     0.294 HD
ENDBRANCH  92  98
BRANCH  96 100
ATOM    100  C   UNL     1       2.917   1.856 -11.650  1.00  0.00     0.050 A 
ATOM    101  C   UNL     1       1.526   1.694 -11.646  1.00  0.00     0.027 A 
ATOM    102  C   UNL     1       3.596   2.096 -12.852  1.00  0.00     0.047 A 
ATOM    103  C   UNL     1       0.815   1.820 -12.841  1.00  0.00     0.004 A 
ATOM    104  C   UNL     1       2.880   2.171 -14.043  1.00  0.00     0.043 A 
ATOM    105  C   UNL     1       1.491   2.051 -14.041  1.00  0.00     0.020 A 
ATOM    106  Cl  UNL     1       3.715   2.401 -15.531  1.00  0.00    -0.084 Cl
ENDBRANCH  96 100
ENDBRANCH  88  89
ENDBRANCH  81  83
ENDBRANCH  80  81
ENDBRANCH  79  80
ENDBRANCH  78  79
ENDBRANCH  77  78
ENDBRANCH  76  77
ENDBRANCH  75  76
ENDBRANCH  74  75
ENDBRANCH   1  74
TORSDOF 26
