REMARK SMILES Cc1cnccc1N[C@@H]1C=C[C@@H](C(=O)OCCOCCOCCOCCOC(=O)c2ccc(-c3c4nc(c(-c5cccc(S(=O)(=O)[O-])c5F)c5ccc([nH]5)c(-c5cccc(S(=O)(=O)[O-])c5F)c5nc(c(-c6cccc(S(=O)(=O)[O-])c6F)c6ccc3[nH]6)C=C5)C=C4)cc2)C1
REMARK SMILES IDX 22 1 21 2 20 3 19 4 18 5 17 6 16 7 15 8 13 9 14 10 12 11
REMARK SMILES IDX 9 12 10 13 93 14 11 15 8 16 7 18 1 19 2 20 3 21 4 22 6 23
REMARK SMILES IDX 5 24 23 25 24 26 25 27 26 28 27 29 28 30 29 31 30 32 31 33
REMARK SMILES IDX 92 34 32 35 91 36 33 37 34 38 35 39 85 40 36 41 90 42 84 43
REMARK SMILES IDX 86 44 37 45 89 46 83 47 82 48 38 50 70 51 50 52 69 53 51 54
REMARK SMILES IDX 54 55 68 56 87 57 52 58 53 59 67 61 88 62 55 63 39 64 40 65
REMARK SMILES IDX 48 66 41 67 43 68 49 69 42 70 44 71 45 72 46 73 47 74 71 75
REMARK SMILES IDX 72 76 80 77 73 78 75 79 81 80 74 81 76 82 77 83 78 84 79 85
REMARK SMILES IDX 56 86 57 87 65 88 58 89 60 90 66 91 59 92 61 93 62 94 63 95
REMARK SMILES IDX 64 96
REMARK H PARENT 8 17 86 49 54 60
REMARK Flexibility Score: inf
ROOT
ATOM      1  C   UNL     1      -3.807   3.535   3.870  1.00  0.00     0.188 C 
ENDROOT
BRANCH   1   2
ATOM      2  O   UNL     1      -3.113   4.041   2.736  1.00  0.00    -0.377 OA
BRANCH   2   3
ATOM      3  C   UNL     1      -2.730   5.398   2.719  1.00  0.00     0.188 C 
BRANCH   3   4
ATOM      4  C   UNL     1      -3.733   6.365   2.076  1.00  0.00     0.188 C 
BRANCH   4   5
ATOM      5  O   UNL     1      -5.125   6.111   2.144  1.00  0.00    -0.376 OA
BRANCH   5   6
ATOM      6  C   UNL     1      -5.689   4.937   1.567  1.00  0.00     0.202 C 
BRANCH   6   7
ATOM      7  C   UNL     1      -5.138   4.268   0.296  1.00  0.00     0.261 C 
BRANCH   7   8
ATOM      8  O   UNL     1      -3.710   4.143   0.242  1.00  0.00    -0.463 OA
BRANCH   8   9
ATOM      9  C   UNL     1      -3.109   4.661  -0.853  1.00  0.00     0.312 C 
ATOM     10  O   UNL     1      -3.719   5.136  -1.809  1.00  0.00    -0.252 OA
BRANCH   9  11
ATOM     11  C   UNL     1      -1.602   4.840  -0.689  1.00  0.00     0.124 C 
ATOM     12  C   UNL     1       0.590   3.747  -0.514  1.00  0.00     0.103 C 
ATOM     13  C   UNL     1       0.269   4.091  -1.922  1.00  0.00    -0.006 C 
ATOM     14  C   UNL     1      -0.748   3.935   0.215  1.00  0.00     0.048 C 
ATOM     15  C   UNL     1      -0.934   4.666  -2.029  1.00  0.00    -0.014 C 
BRANCH  12  16
ATOM     16  N   UNL     1       1.727   4.524  -0.005  1.00  0.00    -0.379 N 
ATOM     17  H   UNL     1       2.519   3.971   0.187  1.00  0.00     0.161 HD
BRANCH  16  18
ATOM     18  C   UNL     1       1.923   5.866   0.263  1.00  0.00     0.040 A 
ATOM     19  C   UNL     1       4.156   5.443   1.490  1.00  0.00     0.048 C 
ATOM     20  C   UNL     1       3.014   6.310   1.041  1.00  0.00    -0.010 A 
ATOM     21  C   UNL     1       3.108   7.674   1.361  1.00  0.00     0.116 A 
ATOM     22  N   UNL     1       2.227   8.621   0.990  1.00  0.00    -0.264 NA
ATOM     23  C   UNL     1       1.057   6.868  -0.175  1.00  0.00     0.046 A 
ATOM     24  C   UNL     1       1.222   8.191   0.215  1.00  0.00     0.113 A 
ENDBRANCH  16  18
ENDBRANCH  12  16
ENDBRANCH   9  11
ENDBRANCH   8   9
ENDBRANCH   7   8
ENDBRANCH   6   7
ENDBRANCH   5   6
ENDBRANCH   4   5
ENDBRANCH   3   4
ENDBRANCH   2   3
ENDBRANCH   1   2
BRANCH   1  25
ATOM     25  C   UNL     1      -4.494   4.504   4.857  1.00  0.00     0.188 C 
BRANCH  25  26
ATOM     26  O   UNL     1      -3.735   5.653   5.196  1.00  0.00    -0.376 OA
BRANCH  26  27
ATOM     27  C   UNL     1      -2.929   5.619   6.364  1.00  0.00     0.202 C 
BRANCH  27  28
ATOM     28  C   UNL     1      -1.800   4.577   6.443  1.00  0.00     0.261 C 
BRANCH  28  29
ATOM     29  O   UNL     1      -2.189   3.196   6.367  1.00  0.00    -0.460 OA
BRANCH  29  30
ATOM     30  C   UNL     1      -3.089   2.732   7.258  1.00  0.00     0.338 C 
ATOM     31  O   UNL     1      -3.576   3.345   8.195  1.00  0.00    -0.246 OA
BRANCH  30  32
ATOM     32  C   UNL     1      -3.553   1.410   6.785  1.00  0.00     0.060 A 
ATOM     33  C   UNL     1      -4.913   1.234   6.497  1.00  0.00     0.016 A 
ATOM     34  C   UNL     1      -2.655   0.353   6.623  1.00  0.00     0.016 A 
ATOM     35  C   UNL     1      -5.386  -0.013   6.085  1.00  0.00     0.010 A 
ATOM     36  C   UNL     1      -3.133  -0.901   6.231  1.00  0.00     0.010 A 
ATOM     37  C   UNL     1      -4.506  -1.099   5.998  1.00  0.00    -0.014 A 
BRANCH  37  38
ATOM     38  C   UNL     1      -5.049  -2.473   5.864  1.00  0.00     0.031 A 
ATOM     39  C   UNL     1      -5.172  -3.316   7.104  1.00  0.00     0.074 A 
ATOM     40  C   UNL     1      -5.431  -2.967   4.673  1.00  0.00     0.049 A 
ATOM     41  N   UNL     1      -5.578  -4.552   7.232  1.00  0.00    -0.248 NA
ATOM     42  C   UNL     1      -4.781  -2.677   8.372  1.00  0.00     0.031 C 
ATOM     43  C   UNL     1      -5.380  -2.248   3.402  1.00  0.00     0.029 A 
ATOM     44  N   UNL     1      -5.917  -4.208   4.340  1.00  0.00    -0.354 N 
ATOM     45  C   UNL     1      -5.459  -4.851   8.584  1.00  0.00     0.074 A 
ATOM     46  C   UNL     1      -4.933  -3.671   9.234  1.00  0.00     0.031 C 
ATOM     47  C   UNL     1      -5.788  -3.071   2.420  1.00  0.00     0.029 A 
ATOM     48  C   UNL     1      -6.100  -4.381   2.988  1.00  0.00     0.049 A 
ATOM     49  H   UNL     1      -6.114  -4.906   5.005  1.00  0.00     0.167 HD
ATOM     50  C   UNL     1      -5.768  -5.999   9.230  1.00  0.00     0.034 A 
ATOM     51  C   UNL     1      -6.451  -5.481   2.290  1.00  0.00     0.034 A 
ATOM     52  C   UNL     1      -6.298  -7.169   8.585  1.00  0.00     0.049 A 
ATOM     53  C   UNL     1      -6.748  -6.763   3.027  1.00  0.00     0.074 A 
ATOM     54  C   UNL     1      -6.686  -8.366   9.160  1.00  0.00     0.029 A 
ATOM     55  N   UNL     1      -6.493  -7.300   7.219  1.00  0.00    -0.354 N 
ATOM     56  N   UNL     1      -6.737  -6.997   4.317  1.00  0.00    -0.248 NA
ATOM     57  C   UNL     1      -7.136  -7.924   2.212  1.00  0.00     0.031 C 
ATOM     58  C   UNL     1      -7.074  -9.236   8.136  1.00  0.00     0.029 A 
ATOM     59  C   UNL     1      -6.975  -8.565   6.929  1.00  0.00     0.049 A 
ATOM     60  H   UNL     1      -6.315  -6.597   6.553  1.00  0.00     0.167 HD
ATOM     61  C   UNL     1      -7.152  -8.317   4.470  1.00  0.00     0.074 A 
ATOM     62  C   UNL     1      -7.425  -8.825   3.142  1.00  0.00     0.031 C 
ATOM     63  C   UNL     1      -7.286  -9.046   5.607  1.00  0.00     0.034 A 
BRANCH  50  64
ATOM     64  C   UNL     1      -5.537  -6.045  10.718  1.00  0.00     0.023 A 
ATOM     65  C   UNL     1      -6.362  -5.297  11.584  1.00  0.00     0.012 A 
ATOM     66  C   UNL     1      -4.527  -6.863  11.262  1.00  0.00     0.148 A 
ATOM     67  C   UNL     1      -6.159  -5.332  12.963  1.00  0.00     0.002 A 
ATOM     68  C   UNL     1      -4.364  -6.931  12.639  1.00  0.00     0.091 A 
ATOM     69  F   UNL     1      -3.739  -7.548  10.421  1.00  0.00    -0.205 F 
ATOM     70  C   UNL     1      -5.169  -6.157  13.491  1.00  0.00     0.022 A 
BRANCH  68  71
ATOM     71  S   UNL     1      -3.171  -8.024  13.420  1.00  0.00     0.127 S 
ATOM     72  O   UNL     1      -2.205  -7.068  13.959  1.00  0.00    -0.237 OA
ATOM     73  O   UNL     1      -3.989  -8.699  14.428  1.00  0.00    -0.237 OA
ATOM     74  O   UNL     1      -2.667  -8.890  12.364  1.00  0.00    -0.744 OA
ENDBRANCH  68  71
ENDBRANCH  50  64
BRANCH  51  75
ATOM     75  C   UNL     1      -6.555  -5.419   0.804  1.00  0.00     0.023 A 
ATOM     76  C   UNL     1      -7.814  -5.545   0.185  1.00  0.00     0.012 A 
ATOM     77  C   UNL     1      -5.412  -5.233   0.002  1.00  0.00     0.148 A 
ATOM     78  C   UNL     1      -7.929  -5.519  -1.205  1.00  0.00     0.002 A 
ATOM     79  C   UNL     1      -5.541  -5.150  -1.379  1.00  0.00     0.091 A 
ATOM     80  F   UNL     1      -4.222  -5.131   0.609  1.00  0.00    -0.205 F 
ATOM     81  C   UNL     1      -6.796  -5.312  -1.986  1.00  0.00     0.022 A 
BRANCH  79  82
ATOM     82  S   UNL     1      -4.157  -4.761  -2.457  1.00  0.00     0.127 S 
ATOM     83  O   UNL     1      -4.011  -6.001  -3.215  1.00  0.00    -0.237 OA
ATOM     84  O   UNL     1      -4.683  -3.629  -3.220  1.00  0.00    -0.237 OA
ATOM     85  O   UNL     1      -3.048  -4.430  -1.573  1.00  0.00    -0.744 OA
ENDBRANCH  79  82
ENDBRANCH  51  75
BRANCH  63  86
ATOM     86  C   UNL     1      -7.793 -10.461   5.481  1.00  0.00     0.023 A 
ATOM     87  C   UNL     1      -6.974 -11.460   4.918  1.00  0.00     0.012 A 
ATOM     88  C   UNL     1      -9.058 -10.815   5.993  1.00  0.00     0.148 A 
ATOM     89  C   UNL     1      -7.421 -12.779   4.832  1.00  0.00     0.002 A 
ATOM     90  C   UNL     1      -9.475 -12.140   5.954  1.00  0.00     0.091 A 
ATOM     91  F   UNL     1      -9.830  -9.849   6.513  1.00  0.00    -0.205 F 
ATOM     92  C   UNL     1      -8.664 -13.121   5.361  1.00  0.00     0.022 A 
BRANCH  90  93
ATOM     93  S   UNL     1     -11.014 -12.691   6.698  1.00  0.00     0.127 S 
ATOM     94  O   UNL     1     -11.808 -13.034   5.519  1.00  0.00    -0.237 OA
ATOM     95  O   UNL     1     -10.579 -13.839   7.494  1.00  0.00    -0.237 OA
ATOM     96  O   UNL     1     -11.512 -11.566   7.478  1.00  0.00    -0.744 OA
ENDBRANCH  90  93
ENDBRANCH  63  86
ENDBRANCH  37  38
ENDBRANCH  30  32
ENDBRANCH  29  30
ENDBRANCH  28  29
ENDBRANCH  27  28
ENDBRANCH  26  27
ENDBRANCH  25  26
ENDBRANCH   1  25
TORSDOF 25
