REMARK SMILES CC[C@H](C(=O)OCCOCCOCCOCCOC(=O)c1ccc(-c2c3nc(c(-c4cccc(S(=O)(=O)[O-])c4F)c4ccc([nH]4)c(-c4cccc(S(=O)(=O)[O-])c4F)c4nc(c(-c5cccc(S(=O)(=O)[O-])c5F)c5ccc2[nH]5)C=C4)C=C3)cc1)C1=CCCc2c(C)ccc(C)c21
REMARK SMILES IDX 13 1 12 2 11 3 10 4 9 5 8 6 7 7 6 8 4 9 5 10 3 11 2 12 1 13
REMARK SMILES IDX 84 14 85 15 95 16 86 17 88 18 93 19 87 20 89 21 92 22 94 23
REMARK SMILES IDX 90 24 91 25 14 26 15 27 16 28 17 29 18 30 19 31 20 32 21 33
REMARK SMILES IDX 22 34 83 35 23 36 82 37 24 38 25 39 26 40 76 41 27 42 81 43
REMARK SMILES IDX 75 44 77 45 28 46 80 47 74 48 73 49 29 51 61 52 41 53 60 54
REMARK SMILES IDX 42 55 45 56 59 57 78 58 43 59 44 60 58 62 79 63 46 64 30 65
REMARK SMILES IDX 31 66 39 67 32 68 34 69 40 70 33 71 35 72 36 73 37 74 38 75
REMARK SMILES IDX 62 76 63 77 71 78 64 79 66 80 72 81 65 82 67 83 68 84 69 85
REMARK SMILES IDX 70 86 47 87 48 88 56 89 49 90 51 91 57 92 50 93 52 94 53 95
REMARK SMILES IDX 54 96 55 97
REMARK H PARENT 77 50 45 61
REMARK Flexibility Score: inf
ROOT
ATOM      1  C   UNL     1      -0.649   0.266   1.866  1.00  0.00     0.188 C 
ENDROOT
BRANCH   1   2
ATOM      2  O   UNL     1       0.210   0.099   0.740  1.00  0.00    -0.377 OA
BRANCH   2   3
ATOM      3  C   UNL     1       1.192   1.069   0.420  1.00  0.00     0.188 C 
BRANCH   3   4
ATOM      4  C   UNL     1       0.908   1.797  -0.890  1.00  0.00     0.188 C 
BRANCH   4   5
ATOM      5  O   UNL     1      -0.305   2.538  -0.910  1.00  0.00    -0.376 OA
BRANCH   5   6
ATOM      6  C   UNL     1      -1.505   1.782  -1.058  1.00  0.00     0.202 C 
BRANCH   6   7
ATOM      7  C   UNL     1      -1.484   0.647  -2.084  1.00  0.00     0.261 C 
BRANCH   7   8
ATOM      8  O   UNL     1      -0.958  -0.612  -1.589  1.00  0.00    -0.463 OA
BRANCH   8   9
ATOM      9  C   UNL     1      -0.286  -1.391  -2.486  1.00  0.00     0.313 C 
ATOM     10  O   UNL     1       0.178  -0.952  -3.536  1.00  0.00    -0.252 OA
BRANCH   9  11
ATOM     11  C   UNL     1      -0.229  -2.901  -2.116  1.00  0.00     0.129 C 
BRANCH  11  12
ATOM     12  C   UNL     1       0.158  -3.188  -0.635  1.00  0.00     0.017 C 
ATOM     13  C   UNL     1       1.560  -2.799  -0.192  1.00  0.00     0.005 C 
ENDBRANCH  11  12
BRANCH  11  14
ATOM     14  C   UNL     1      -1.464  -3.766  -2.531  1.00  0.00    -0.030 C 
ATOM     15  C   UNL     1      -2.244  -4.330  -1.583  1.00  0.00    -0.022 C 
ATOM     16  C   UNL     1      -2.346  -3.350  -3.657  1.00  0.00    -0.015 A 
ATOM     17  C   UNL     1      -3.415  -3.471  -1.107  1.00  0.00     0.032 C 
ATOM     18  C   UNL     1      -3.212  -2.277  -3.369  1.00  0.00    -0.037 A 
ATOM     19  C   UNL     1      -2.688  -4.149  -4.760  1.00  0.00    -0.043 A 
ATOM     20  C   UNL     1      -3.610  -2.142  -1.897  1.00  0.00     0.040 C 
ATOM     21  C   UNL     1      -3.918  -1.641  -4.400  1.00  0.00    -0.047 A 
ATOM     22  C   UNL     1      -3.597  -3.646  -5.708  1.00  0.00     0.004 A 
ATOM     23  C   UNL     1      -2.372  -5.620  -4.820  1.00  0.00     0.045 C 
ATOM     24  C   UNL     1      -4.539  -0.285  -4.273  1.00  0.00     0.044 C 
ATOM     25  C   UNL     1      -4.126  -2.364  -5.575  1.00  0.00     0.004 A 
ENDBRANCH  11  14
ENDBRANCH   9  11
ENDBRANCH   8   9
ENDBRANCH   7   8
ENDBRANCH   6   7
ENDBRANCH   5   6
ENDBRANCH   4   5
ENDBRANCH   3   4
ENDBRANCH   2   3
ENDBRANCH   1   2
BRANCH   1  26
ATOM     26  C   UNL     1      -0.790   1.653   2.509  1.00  0.00     0.188 C 
BRANCH  26  27
ATOM     27  O   UNL     1       0.357   2.226   3.141  1.00  0.00    -0.376 OA
BRANCH  27  28
ATOM     28  C   UNL     1       1.313   1.356   3.740  1.00  0.00     0.202 C 
BRANCH  28  29
ATOM     29  C   UNL     1       1.007   0.989   5.184  1.00  0.00     0.261 C 
BRANCH  29  30
ATOM     30  O   UNL     1      -0.097   0.076   5.251  1.00  0.00    -0.460 OA
BRANCH  30  31
ATOM     31  C   UNL     1      -1.275   0.642   5.583  1.00  0.00     0.338 C 
ATOM     32  O   UNL     1      -1.481   1.819   5.862  1.00  0.00    -0.246 OA
BRANCH  31  33
ATOM     33  C   UNL     1      -2.357  -0.341   5.444  1.00  0.00     0.060 A 
ATOM     34  C   UNL     1      -3.557   0.092   4.867  1.00  0.00     0.016 A 
ATOM     35  C   UNL     1      -2.240  -1.624   5.984  1.00  0.00     0.016 A 
ATOM     36  C   UNL     1      -4.682  -0.718   4.931  1.00  0.00     0.010 A 
ATOM     37  C   UNL     1      -3.371  -2.438   6.046  1.00  0.00     0.010 A 
ATOM     38  C   UNL     1      -4.607  -1.952   5.588  1.00  0.00    -0.014 A 
BRANCH  38  39
ATOM     39  C   UNL     1      -5.865  -2.603   6.012  1.00  0.00     0.031 A 
ATOM     40  C   UNL     1      -6.309  -2.436   7.442  1.00  0.00     0.074 A 
ATOM     41  C   UNL     1      -6.615  -3.283   5.132  1.00  0.00     0.049 A 
ATOM     42  N   UNL     1      -7.375  -2.898   8.037  1.00  0.00    -0.248 NA
ATOM     43  C   UNL     1      -5.429  -1.643   8.320  1.00  0.00     0.031 C 
ATOM     44  C   UNL     1      -6.283  -3.493   3.723  1.00  0.00     0.029 A 
ATOM     45  N   UNL     1      -7.806  -3.936   5.303  1.00  0.00    -0.354 N 
ATOM     46  C   UNL     1      -7.279  -2.484   9.361  1.00  0.00     0.074 A 
ATOM     47  C   UNL     1      -6.041  -1.749   9.488  1.00  0.00     0.031 C 
ATOM     48  C   UNL     1      -7.242  -4.247   3.160  1.00  0.00     0.029 A 
ATOM     49  C   UNL     1      -8.237  -4.590   4.175  1.00  0.00     0.049 A 
ATOM     50  H   UNL     1      -8.305  -3.937   6.151  1.00  0.00     0.167 HD
ATOM     51  C   UNL     1      -8.151  -2.684  10.376  1.00  0.00     0.034 A 
ATOM     52  C   UNL     1      -9.305  -5.391   3.994  1.00  0.00     0.034 A 
ATOM     53  C   UNL     1      -9.389  -3.401  10.233  1.00  0.00     0.049 A 
ATOM     54  C   UNL     1     -10.252  -5.611   5.144  1.00  0.00     0.074 A 
ATOM     55  C   UNL     1     -10.368  -3.626  11.184  1.00  0.00     0.029 A 
ATOM     56  N   UNL     1      -9.810  -4.022   9.068  1.00  0.00    -0.354 N 
ATOM     57  N   UNL     1     -10.203  -5.127   6.363  1.00  0.00    -0.248 NA
ATOM     58  C   UNL     1     -11.424  -6.456   4.882  1.00  0.00     0.031 C 
ATOM     59  C   UNL     1     -11.364  -4.419  10.602  1.00  0.00     0.029 A 
ATOM     60  C   UNL     1     -11.029  -4.644   9.276  1.00  0.00     0.049 A 
ATOM     61  H   UNL     1      -9.316  -4.021   8.217  1.00  0.00     0.167 HD
ATOM     62  C   UNL     1     -11.355  -5.575   6.999  1.00  0.00     0.074 A 
ATOM     63  C   UNL     1     -12.093  -6.349   6.021  1.00  0.00     0.031 C 
ATOM     64  C   UNL     1     -11.765  -5.376   8.277  1.00  0.00     0.034 A 
BRANCH  51  65
ATOM     65  C   UNL     1      -7.798  -2.115  11.726  1.00  0.00     0.023 A 
ATOM     66  C   UNL     1      -7.820  -0.720  11.933  1.00  0.00     0.012 A 
ATOM     67  C   UNL     1      -7.482  -2.967  12.802  1.00  0.00     0.148 A 
ATOM     68  C   UNL     1      -7.499  -0.181  13.179  1.00  0.00     0.002 A 
ATOM     69  C   UNL     1      -7.213  -2.425  14.053  1.00  0.00     0.091 A 
ATOM     70  F   UNL     1      -7.441  -4.288  12.581  1.00  0.00    -0.205 F 
ATOM     71  C   UNL     1      -7.207  -1.033  14.241  1.00  0.00     0.022 A 
BRANCH  69  72
ATOM     72  S   UNL     1      -6.904  -3.440  15.503  1.00  0.00     0.127 S 
ATOM     73  O   UNL     1      -5.494  -3.158  15.766  1.00  0.00    -0.237 OA
ATOM     74  O   UNL     1      -7.833  -2.869  16.478  1.00  0.00    -0.237 OA
ATOM     75  O   UNL     1      -7.202  -4.810  15.107  1.00  0.00    -0.744 OA
ENDBRANCH  69  72
ENDBRANCH  51  65
BRANCH  52  76
ATOM     76  C   UNL     1      -9.549  -6.017   2.666  1.00  0.00     0.023 A 
ATOM     77  C   UNL     1     -10.658  -5.617   1.897  1.00  0.00     0.012 A 
ATOM     78  C   UNL     1      -8.677  -6.999   2.157  1.00  0.00     0.148 A 
ATOM     79  C   UNL     1     -10.917  -6.211   0.661  1.00  0.00     0.002 A 
ATOM     80  C   UNL     1      -8.906  -7.544   0.900  1.00  0.00     0.091 A 
ATOM     81  F   UNL     1      -7.633  -7.372   2.910  1.00  0.00    -0.205 F 
ATOM     82  C   UNL     1     -10.037  -7.167   0.159  1.00  0.00     0.022 A 
BRANCH  80  83
ATOM     83  S   UNL     1      -7.757  -8.680   0.119  1.00  0.00     0.127 S 
ATOM     84  O   UNL     1      -8.530  -9.919   0.095  1.00  0.00    -0.237 OA
ATOM     85  O   UNL     1      -7.557  -8.051  -1.188  1.00  0.00    -0.237 OA
ATOM     86  O   UNL     1      -6.573  -8.691   0.967  1.00  0.00    -0.744 OA
ENDBRANCH  80  83
ENDBRANCH  52  76
BRANCH  64  87
ATOM     87  C   UNL     1     -13.094  -5.964   8.678  1.00  0.00     0.023 A 
ATOM     88  C   UNL     1     -13.245  -7.361   8.796  1.00  0.00     0.012 A 
ATOM     89  C   UNL     1     -14.185  -5.124   8.980  1.00  0.00     0.148 A 
ATOM     90  C   UNL     1     -14.475  -7.913   9.155  1.00  0.00     0.002 A 
ATOM     91  C   UNL     1     -15.389  -5.679   9.394  1.00  0.00     0.091 A 
ATOM     92  F   UNL     1     -14.028  -3.799   8.849  1.00  0.00    -0.205 F 
ATOM     93  C   UNL     1     -15.542  -7.073   9.463  1.00  0.00     0.022 A 
BRANCH  91  94
ATOM     94  S   UNL     1     -16.783  -4.671   9.910  1.00  0.00     0.127 S 
ATOM     95  O   UNL     1     -17.697  -4.827   8.780  1.00  0.00    -0.237 OA
ATOM     96  O   UNL     1     -17.212  -5.341  11.139  1.00  0.00    -0.237 OA
ATOM     97  O   UNL     1     -16.255  -3.328  10.109  1.00  0.00    -0.744 OA
ENDBRANCH  91  94
ENDBRANCH  64  87
ENDBRANCH  38  39
ENDBRANCH  31  33
ENDBRANCH  30  31
ENDBRANCH  29  30
ENDBRANCH  28  29
ENDBRANCH  27  28
ENDBRANCH  26  27
ENDBRANCH   1  26
TORSDOF 25
