REMARK SMILES CC(C)CSc1cc2c(cc1Cl)C=C(C(=O)OCCOCCOCCOCCOC(=O)c1ccc(-c3c4nc(c(-c5cccc(S(=O)(=O)[O-])c5F)c5ccc([nH]5)c(-c5cccc(S(=O)(=O)[O-])c5F)c5nc(c(-c6cccc(S(=O)(=O)[O-])c6F)c6ccc3[nH]6)C=C5)C=C4)cc1)[C@H](C(F)(F)F)O2
REMARK SMILES IDX 23 1 22 2 21 3 20 4 19 5 18 6 17 7 15 8 16 9 14 10 6 11 7 12
REMARK SMILES IDX 11 13 8 14 10 15 12 16 9 17 100 18 13 19 95 20 5 21 4 22
REMARK SMILES IDX 2 23 1 24 3 25 96 26 97 27 98 28 99 29 24 30 25 31 26 32
REMARK SMILES IDX 27 33 28 34 29 35 30 36 31 37 32 38 33 39 94 40 34 41 93 42
REMARK SMILES IDX 35 43 36 44 37 45 87 46 38 47 92 48 86 49 88 50 39 51 91 52
REMARK SMILES IDX 85 53 84 54 40 56 72 57 52 58 71 59 53 60 56 61 70 62 89 63
REMARK SMILES IDX 54 64 55 65 69 67 90 68 57 69 41 70 42 71 50 72 43 73 45 74
REMARK SMILES IDX 51 75 44 76 46 77 47 78 48 79 49 80 73 81 74 82 82 83 75 84
REMARK SMILES IDX 77 85 83 86 76 87 78 88 79 89 80 90 81 91 58 92 59 93 67 94
REMARK SMILES IDX 60 95 62 96 68 97 61 98 63 99 64 100 65 101 66 102
REMARK H PARENT 88 55 56 66
REMARK Flexibility Score: inf
ROOT
ATOM      1  O   UNL     1       1.468   7.096  -2.396  1.00  0.00    -0.377 OA
ENDROOT
BRANCH   1   2
ATOM      2  C   UNL     1       2.008   6.374  -3.488  1.00  0.00     0.188 C 
BRANCH   2   3
ATOM      3  C   UNL     1       1.658   6.852  -4.902  1.00  0.00     0.188 C 
BRANCH   3   4
ATOM      4  O   UNL     1       1.642   8.253  -5.035  1.00  0.00    -0.376 OA
BRANCH   4   5
ATOM      5  C   UNL     1       0.417   8.968  -5.081  1.00  0.00     0.202 C 
BRANCH   5   6
ATOM      6  C   UNL     1      -0.959   8.412  -4.660  1.00  0.00     0.261 C 
BRANCH   6   7
ATOM      7  O   UNL     1      -0.970   7.285  -3.775  1.00  0.00    -0.460 OA
BRANCH   7   8
ATOM      8  C   UNL     1      -1.517   6.160  -4.281  1.00  0.00     0.338 C 
ATOM      9  O   UNL     1      -1.977   6.017  -5.405  1.00  0.00    -0.246 OA
BRANCH   8  10
ATOM     10  C   UNL     1      -1.361   5.025  -3.358  1.00  0.00     0.087 C 
ATOM     11  C   UNL     1      -1.174   0.227  -1.871  1.00  0.00     0.030 A 
ATOM     12  C   UNL     1      -1.823   1.379  -1.394  1.00  0.00     0.063 A 
ATOM     13  C   UNL     1      -0.333   0.341  -2.993  1.00  0.00     0.055 A 
ATOM     14  C   UNL     1      -1.641   2.614  -2.025  1.00  0.00     0.129 A 
ATOM     15  C   UNL     1      -0.140   1.579  -3.611  1.00  0.00     0.033 A 
ATOM     16  Cl  UNL     1       0.500  -1.015  -3.680  1.00  0.00    -0.083 Cl
ATOM     17  C   UNL     1      -0.808   2.711  -3.139  1.00  0.00     0.019 A 
ATOM     18  O   UNL     1      -2.381   3.665  -1.550  1.00  0.00    -0.475 OA
ATOM     19  C   UNL     1      -0.751   3.954  -3.883  1.00  0.00     0.027 C 
ATOM     20  C   UNL     1      -2.072   5.013  -2.035  1.00  0.00     0.316 C 
BRANCH  11  21
ATOM     21  S   UNL     1      -1.527  -1.359  -1.114  1.00  0.00    -0.124 SA
BRANCH  21  22
ATOM     22  C   UNL     1      -0.891  -1.126   0.584  1.00  0.00     0.078 C 
BRANCH  22  23
ATOM     23  C   UNL     1       0.636  -1.278   0.723  1.00  0.00    -0.007 C 
ATOM     24  C   UNL     1       1.406  -0.044   0.250  1.00  0.00     0.008 C 
ATOM     25  C   UNL     1       0.984  -1.546   2.192  1.00  0.00     0.008 C 
ENDBRANCH  22  23
ENDBRANCH  21  22
ENDBRANCH  11  21
BRANCH  20  26
ATOM     26  C   UNL     1      -1.378   5.794  -0.906  1.00  0.00     0.430 C 
ATOM     27  F   UNL     1      -2.130   5.742   0.226  1.00  0.00    -0.167 F 
ATOM     28  F   UNL     1      -0.167   5.277  -0.596  1.00  0.00    -0.167 F 
ATOM     29  F   UNL     1      -1.225   7.103  -1.193  1.00  0.00    -0.167 F 
ENDBRANCH  20  26
ENDBRANCH   8  10
ENDBRANCH   7   8
ENDBRANCH   6   7
ENDBRANCH   5   6
ENDBRANCH   4   5
ENDBRANCH   3   4
ENDBRANCH   2   3
ENDBRANCH   1   2
BRANCH   1  30
ATOM     30  C   UNL     1       1.988   8.392  -2.090  1.00  0.00     0.188 C 
BRANCH  30  31
ATOM     31  C   UNL     1       3.374   8.825  -2.609  1.00  0.00     0.188 C 
BRANCH  31  32
ATOM     32  O   UNL     1       4.469   7.919  -2.497  1.00  0.00    -0.376 OA
BRANCH  32  33
ATOM     33  C   UNL     1       4.557   7.098  -1.339  1.00  0.00     0.202 C 
BRANCH  33  34
ATOM     34  C   UNL     1       5.113   7.781  -0.096  1.00  0.00     0.261 C 
BRANCH  34  35
ATOM     35  O   UNL     1       4.160   8.704   0.448  1.00  0.00    -0.460 OA
BRANCH  35  36
ATOM     36  C   UNL     1       4.444  10.012   0.253  1.00  0.00     0.338 C 
ATOM     37  O   UNL     1       5.440  10.479  -0.275  1.00  0.00    -0.246 OA
BRANCH  36  38
ATOM     38  C   UNL     1       3.265  10.817   0.629  1.00  0.00     0.060 A 
ATOM     39  C   UNL     1       2.544  10.542   1.794  1.00  0.00     0.016 A 
ATOM     40  C   UNL     1       2.913  11.898  -0.190  1.00  0.00     0.016 A 
ATOM     41  C   UNL     1       1.507  11.394   2.171  1.00  0.00     0.010 A 
ATOM     42  C   UNL     1       1.878  12.750   0.191  1.00  0.00     0.010 A 
ATOM     43  C   UNL     1       1.199  12.527   1.395  1.00  0.00    -0.014 A 
BRANCH  43  44
ATOM     44  C   UNL     1       0.345  13.591   1.969  1.00  0.00     0.031 A 
ATOM     45  C   UNL     1      -1.053  13.836   1.499  1.00  0.00     0.074 A 
ATOM     46  C   UNL     1       0.892  14.371   2.922  1.00  0.00     0.049 A 
ATOM     47  N   UNL     1      -1.936  14.669   1.984  1.00  0.00    -0.248 NA
ATOM     48  C   UNL     1      -1.523  13.065   0.339  1.00  0.00     0.031 C 
ATOM     49  C   UNL     1       2.277  14.270   3.392  1.00  0.00     0.029 A 
ATOM     50  N   UNL     1       0.363  15.395   3.664  1.00  0.00    -0.354 N 
ATOM     51  C   UNL     1      -3.068  14.528   1.194  1.00  0.00     0.074 A 
ATOM     52  C   UNL     1      -2.753  13.543   0.180  1.00  0.00     0.031 C 
ATOM     53  C   UNL     1       2.479  15.172   4.362  1.00  0.00     0.029 A 
ATOM     54  C   UNL     1       1.249  15.928   4.570  1.00  0.00     0.049 A 
ATOM     55  H   UNL     1      -0.561  15.717   3.558  1.00  0.00     0.167 HD
ATOM     56  C   UNL     1      -4.262  15.150   1.325  1.00  0.00     0.034 A 
ATOM     57  C   UNL     1       1.089  16.907   5.480  1.00  0.00     0.034 A 
ATOM     58  C   UNL     1      -4.561  16.122   2.344  1.00  0.00     0.049 A 
ATOM     59  C   UNL     1      -0.252  17.562   5.619  1.00  0.00     0.074 A 
ATOM     60  C   UNL     1      -5.766  16.753   2.595  1.00  0.00     0.029 A 
ATOM     61  N   UNL     1      -3.650  16.616   3.264  1.00  0.00    -0.354 N 
ATOM     62  N   UNL     1      -1.355  17.311   4.958  1.00  0.00    -0.248 NA
ATOM     63  C   UNL     1      -0.384  18.610   6.640  1.00  0.00     0.031 C 
ATOM     64  C   UNL     1      -5.579  17.645   3.655  1.00  0.00     0.029 A 
ATOM     65  C   UNL     1      -4.264  17.550   4.079  1.00  0.00     0.049 A 
ATOM     66  H   UNL     1      -2.706  16.342   3.329  1.00  0.00     0.167 HD
ATOM     67  C   UNL     1      -2.320  18.150   5.498  1.00  0.00     0.074 A 
ATOM     68  C   UNL     1      -1.674  18.914   6.545  1.00  0.00     0.031 C 
ATOM     69  C   UNL     1      -3.622  18.274   5.147  1.00  0.00     0.034 A 
BRANCH  56  70
ATOM     70  C   UNL     1      -5.376  14.762   0.393  1.00  0.00     0.023 A 
ATOM     71  C   UNL     1      -6.070  13.558   0.625  1.00  0.00     0.012 A 
ATOM     72  C   UNL     1      -5.822  15.640  -0.614  1.00  0.00     0.148 A 
ATOM     73  C   UNL     1      -7.191  13.229  -0.135  1.00  0.00     0.002 A 
ATOM     74  C   UNL     1      -6.956  15.317  -1.351  1.00  0.00     0.091 A 
ATOM     75  F   UNL     1      -5.141  16.776  -0.818  1.00  0.00    -0.205 F 
ATOM     76  C   UNL     1      -7.640  14.113  -1.114  1.00  0.00     0.022 A 
BRANCH  74  77
ATOM     77  S   UNL     1      -7.648  16.404  -2.602  1.00  0.00     0.127 S 
ATOM     78  O   UNL     1      -7.460  15.610  -3.816  1.00  0.00    -0.237 OA
ATOM     79  O   UNL     1      -9.038  16.530  -2.165  1.00  0.00    -0.237 OA
ATOM     80  O   UNL     1      -6.872  17.635  -2.544  1.00  0.00    -0.744 OA
ENDBRANCH  74  77
ENDBRANCH  56  70
BRANCH  57  81
ATOM     81  C   UNL     1       2.224  17.244   6.379  1.00  0.00     0.023 A 
ATOM     82  C   UNL     1       2.215  16.771   7.704  1.00  0.00     0.012 A 
ATOM     83  C   UNL     1       3.353  17.933   5.895  1.00  0.00     0.148 A 
ATOM     84  C   UNL     1       3.313  16.981   8.537  1.00  0.00     0.002 A 
ATOM     85  C   UNL     1       4.457  18.108   6.719  1.00  0.00     0.091 A 
ATOM     86  F   UNL     1       3.335  18.363   4.626  1.00  0.00    -0.205 F 
ATOM     87  C   UNL     1       4.437  17.640   8.043  1.00  0.00     0.022 A 
BRANCH  85  88
ATOM     88  S   UNL     1       5.986  18.854   6.146  1.00  0.00     0.127 S 
ATOM     89  O   UNL     1       6.077  20.038   6.998  1.00  0.00    -0.237 OA
ATOM     90  O   UNL     1       6.960  17.804   6.443  1.00  0.00    -0.237 OA
ATOM     91  O   UNL     1       5.792  19.121   4.727  1.00  0.00    -0.744 OA
ENDBRANCH  85  88
ENDBRANCH  57  81
BRANCH  69  92
ATOM     92  C   UNL     1      -4.472  19.257   5.900  1.00  0.00     0.023 A 
ATOM     93  C   UNL     1      -4.405  20.624   5.574  1.00  0.00     0.012 A 
ATOM     94  C   UNL     1      -5.450  18.802   6.807  1.00  0.00     0.148 A 
ATOM     95  C   UNL     1      -5.305  21.527   6.137  1.00  0.00     0.002 A 
ATOM     96  C   UNL     1      -6.365  19.701   7.337  1.00  0.00     0.091 A 
ATOM     97  F   UNL     1      -5.486  17.494   7.100  1.00  0.00    -0.205 F 
ATOM     98  C   UNL     1      -6.293  21.065   7.005  1.00  0.00     0.022 A 
BRANCH  96  99
ATOM     99  S   UNL     1      -7.719  19.193   8.403  1.00  0.00     0.127 S 
ATOM    100  O   UNL     1      -7.408  19.909   9.640  1.00  0.00    -0.237 OA
ATOM    101  O   UNL     1      -8.885  19.700   7.680  1.00  0.00    -0.237 OA
ATOM    102  O   UNL     1      -7.639  17.742   8.497  1.00  0.00    -0.744 OA
ENDBRANCH  96  99
ENDBRANCH  69  92
ENDBRANCH  43  44
ENDBRANCH  36  38
ENDBRANCH  35  36
ENDBRANCH  34  35
ENDBRANCH  33  34
ENDBRANCH  32  33
ENDBRANCH  31  32
ENDBRANCH  30  31
ENDBRANCH   1  30
TORSDOF 27
