REMARK SMILES O=C(OCCOCCOCCOCCOC(=O)C1(C/C=C/c2ccccc2)Cc2ccccc2C1)c1ccc(-c2c3nc(c(-c4cccc(S(=O)(=O)[O-])c4F)c4ccc([nH]4)c(-c4cccc(S(=O)(=O)[O-])c4F)c4nc(c(-c5cccc(S(=O)(=O)[O-])c5F)c5ccc2[nH]5)C=C4)C=C3)cc1
REMARK SMILES IDX 9 1 8 2 7 3 6 4 5 5 4 6 3 7 2 8 1 9 36 10 37 11 98 12 38 13
REMARK SMILES IDX 97 14 39 15 40 16 41 17 91 18 42 19 96 20 90 21 92 22 43 23
REMARK SMILES IDX 95 24 89 25 88 26 44 28 76 29 56 30 75 31 57 32 60 33 74 34
REMARK SMILES IDX 93 35 58 36 59 37 73 39 94 40 61 41 45 42 46 43 54 44 47 45
REMARK SMILES IDX 49 46 55 47 48 48 50 49 51 50 52 51 53 52 77 53 78 54 86 55
REMARK SMILES IDX 79 56 81 57 87 58 80 59 82 60 83 61 84 62 85 63 62 64 63 65
REMARK SMILES IDX 71 66 64 67 66 68 72 69 65 70 67 71 68 72 69 73 70 74 10 75
REMARK SMILES IDX 11 76 12 77 13 78 14 79 15 80 16 81 17 82 18 83 28 84 35 85
REMARK SMILES IDX 29 86 34 87 30 88 33 89 31 90 32 91 19 92 20 93 21 94 22 95
REMARK SMILES IDX 23 96 27 97 24 98 26 99 25 100
REMARK H PARENT 92 27 60 38
REMARK Flexibility Score: inf
ROOT
ATOM      1  O   UNL     1       3.036   1.012   3.506  1.00  0.00    -0.377 OA
ENDROOT
BRANCH   1   2
ATOM      2  C   UNL     1       2.056   0.480   2.625  1.00  0.00     0.188 C 
BRANCH   2   3
ATOM      3  C   UNL     1       2.379   0.730   1.165  1.00  0.00     0.188 C 
BRANCH   3   4
ATOM      4  O   UNL     1       3.689   0.265   0.889  1.00  0.00    -0.376 OA
BRANCH   4   5
ATOM      5  C   UNL     1       4.543   1.084   0.105  1.00  0.00     0.202 C 
BRANCH   5   6
ATOM      6  C   UNL     1       4.115   1.254  -1.347  1.00  0.00     0.261 C 
BRANCH   6   7
ATOM      7  O   UNL     1       2.754   0.882  -1.624  1.00  0.00    -0.460 OA
BRANCH   7   8
ATOM      8  C   UNL     1       2.202  -0.334  -1.852  1.00  0.00     0.338 C 
ATOM      9  O   UNL     1       1.008  -0.375  -2.151  1.00  0.00    -0.246 OA
BRANCH   8  10
ATOM     10  C   UNL     1       2.935  -1.632  -1.762  1.00  0.00     0.060 A 
ATOM     11  C   UNL     1       4.008  -1.890  -0.915  1.00  0.00     0.016 A 
ATOM     12  C   UNL     1       2.436  -2.708  -2.511  1.00  0.00     0.016 A 
ATOM     13  C   UNL     1       4.622  -3.119  -0.839  1.00  0.00     0.010 A 
ATOM     14  C   UNL     1       3.031  -3.972  -2.432  1.00  0.00     0.010 A 
ATOM     15  C   UNL     1       4.147  -4.162  -1.610  1.00  0.00    -0.014 A 
BRANCH  15  16
ATOM     16  C   UNL     1       5.002  -5.349  -1.666  1.00  0.00     0.031 A 
ATOM     17  C   UNL     1       5.840  -5.522  -2.891  1.00  0.00     0.074 A 
ATOM     18  C   UNL     1       5.156  -6.111  -0.568  1.00  0.00     0.049 A 
ATOM     19  N   UNL     1       6.626  -6.504  -3.218  1.00  0.00    -0.248 NA
ATOM     20  C   UNL     1       5.804  -4.423  -3.878  1.00  0.00     0.031 C 
ATOM     21  C   UNL     1       4.506  -5.874   0.727  1.00  0.00     0.029 A 
ATOM     22  N   UNL     1       5.921  -7.223  -0.357  1.00  0.00    -0.354 N 
ATOM     23  C   UNL     1       7.109  -6.185  -4.479  1.00  0.00     0.074 A 
ATOM     24  C   UNL     1       6.569  -4.899  -4.846  1.00  0.00     0.031 C 
ATOM     25  C   UNL     1       4.888  -6.828   1.591  1.00  0.00     0.029 A 
ATOM     26  C   UNL     1       5.733  -7.780   0.886  1.00  0.00     0.049 A 
ATOM     27  H   UNL     1       6.543  -7.588  -1.026  1.00  0.00     0.167 HD
ATOM     28  C   UNL     1       7.915  -6.931  -5.262  1.00  0.00     0.034 A 
ATOM     29  C   UNL     1       6.151  -8.969   1.358  1.00  0.00     0.034 A 
ATOM     30  C   UNL     1       8.434  -8.199  -4.843  1.00  0.00     0.049 A 
ATOM     31  C   UNL     1       6.976  -9.818   0.429  1.00  0.00     0.074 A 
ATOM     32  C   UNL     1       9.217  -9.089  -5.549  1.00  0.00     0.029 A 
ATOM     33  N   UNL     1       8.202  -8.759  -3.593  1.00  0.00    -0.354 N 
ATOM     34  N   UNL     1       7.414  -9.535  -0.777  1.00  0.00    -0.248 NA
ATOM     35  C   UNL     1       7.372 -11.143   0.917  1.00  0.00     0.031 C 
ATOM     36  C   UNL     1       9.426 -10.207  -4.736  1.00  0.00     0.029 A 
ATOM     37  C   UNL     1       8.815  -9.992  -3.508  1.00  0.00     0.049 A 
ATOM     38  H   UNL     1       7.678  -8.338  -2.874  1.00  0.00     0.167 HD
ATOM     39  C   UNL     1       8.161 -10.631  -1.181  1.00  0.00     0.074 A 
ATOM     40  C   UNL     1       8.137 -11.573  -0.077  1.00  0.00     0.031 C 
ATOM     41  C   UNL     1       8.797 -10.859  -2.357  1.00  0.00     0.034 A 
BRANCH  28  42
ATOM     42  C   UNL     1       8.194  -6.426  -6.647  1.00  0.00     0.023 A 
ATOM     43  C   UNL     1       9.064  -5.339  -6.858  1.00  0.00     0.012 A 
ATOM     44  C   UNL     1       7.566  -7.037  -7.750  1.00  0.00     0.148 A 
ATOM     45  C   UNL     1       9.286  -4.851  -8.146  1.00  0.00     0.002 A 
ATOM     46  C   UNL     1       7.827  -6.577  -9.033  1.00  0.00     0.091 A 
ATOM     47  F   UNL     1       6.712  -8.044  -7.519  1.00  0.00    -0.205 F 
ATOM     48  C   UNL     1       8.676  -5.476  -9.233  1.00  0.00     0.022 A 
BRANCH  46  49
ATOM     49  S   UNL     1       7.140  -7.349 -10.500  1.00  0.00     0.127 S 
ATOM     50  O   UNL     1       6.335  -6.265 -11.057  1.00  0.00    -0.237 OA
ATOM     51  O   UNL     1       8.342  -7.675 -11.261  1.00  0.00    -0.237 OA
ATOM     52  O   UNL     1       6.378  -8.503 -10.030  1.00  0.00    -0.744 OA
ENDBRANCH  46  49
ENDBRANCH  28  42
BRANCH  29  53
ATOM     53  C   UNL     1       5.755  -9.441   2.716  1.00  0.00     0.023 A 
ATOM     54  C   UNL     1       6.740  -9.684   3.691  1.00  0.00     0.012 A 
ATOM     55  C   UNL     1       4.402  -9.670   3.044  1.00  0.00     0.148 A 
ATOM     56  C   UNL     1       6.392 -10.188   4.947  1.00  0.00     0.002 A 
ATOM     57  C   UNL     1       4.056 -10.115   4.315  1.00  0.00     0.091 A 
ATOM     58  F   UNL     1       3.472  -9.454   2.102  1.00  0.00    -0.205 F 
ATOM     59  C   UNL     1       5.052 -10.396   5.261  1.00  0.00     0.022 A 
BRANCH  57  60
ATOM     60  S   UNL     1       2.347 -10.293   4.839  1.00  0.00     0.127 S 
ATOM     61  O   UNL     1       2.190 -11.745   4.857  1.00  0.00    -0.237 OA
ATOM     62  O   UNL     1       2.366  -9.659   6.157  1.00  0.00    -0.237 OA
ATOM     63  O   UNL     1       1.556  -9.581   3.844  1.00  0.00    -0.744 OA
ENDBRANCH  57  60
ENDBRANCH  29  53
BRANCH  41  64
ATOM     64  C   UNL     1       9.558 -12.146  -2.479  1.00  0.00     0.023 A 
ATOM     65  C   UNL     1       8.866 -13.361  -2.636  1.00  0.00     0.012 A 
ATOM     66  C   UNL     1      10.964 -12.125  -2.538  1.00  0.00     0.148 A 
ATOM     67  C   UNL     1       9.570 -14.549  -2.818  1.00  0.00     0.002 A 
ATOM     68  C   UNL     1      11.654 -13.302  -2.781  1.00  0.00     0.091 A 
ATOM     69  F   UNL     1      11.594 -10.954  -2.367  1.00  0.00    -0.205 F 
ATOM     70  C   UNL     1      10.961 -14.517  -2.907  1.00  0.00     0.022 A 
BRANCH  68  71
ATOM     71  S   UNL     1      13.431 -13.331  -3.029  1.00  0.00     0.127 S 
ATOM     72  O   UNL     1      13.891 -13.980  -1.802  1.00  0.00    -0.237 OA
ATOM     73  O   UNL     1      13.559 -14.146  -4.237  1.00  0.00    -0.237 OA
ATOM     74  O   UNL     1      13.839 -11.942  -3.191  1.00  0.00    -0.744 OA
ENDBRANCH  68  71
ENDBRANCH  41  64
ENDBRANCH  15  16
ENDBRANCH   8  10
ENDBRANCH   7   8
ENDBRANCH   6   7
ENDBRANCH   5   6
ENDBRANCH   4   5
ENDBRANCH   3   4
ENDBRANCH   2   3
ENDBRANCH   1   2
BRANCH   1  75
ATOM     75  C   UNL     1       4.372   0.520   3.379  1.00  0.00     0.188 C 
BRANCH  75  76
ATOM     76  C   UNL     1       4.705  -0.976   3.439  1.00  0.00     0.188 C 
BRANCH  76  77
ATOM     77  O   UNL     1       3.585  -1.839   3.496  1.00  0.00    -0.376 OA
BRANCH  77  78
ATOM     78  C   UNL     1       3.329  -2.369   4.796  1.00  0.00     0.202 C 
BRANCH  78  79
ATOM     79  C   UNL     1       2.739  -1.373   5.813  1.00  0.00     0.261 C 
BRANCH  79  80
ATOM     80  O   UNL     1       3.421  -0.096   5.833  1.00  0.00    -0.463 OA
BRANCH  80  81
ATOM     81  C   UNL     1       4.072   0.336   6.930  1.00  0.00     0.313 C 
ATOM     82  O   UNL     1       4.146  -0.317   7.967  1.00  0.00    -0.252 OA
BRANCH  81  83
ATOM     83  C   UNL     1       4.748   1.723   6.754  1.00  0.00     0.079 C 
ATOM     84  C   UNL     1       4.063   2.710   5.749  1.00  0.00     0.055 C 
ATOM     85  C   UNL     1       4.559   2.453   8.121  1.00  0.00     0.055 C 
ATOM     86  C   UNL     1       4.286   4.048   6.380  1.00  0.00    -0.044 A 
ATOM     87  C   UNL     1       4.550   3.900   7.737  1.00  0.00    -0.044 A 
ATOM     88  C   UNL     1       4.262   5.293   5.772  1.00  0.00     0.004 A 
ATOM     89  C   UNL     1       4.747   5.006   8.540  1.00  0.00     0.004 A 
ATOM     90  C   UNL     1       4.495   6.414   6.567  1.00  0.00     0.000 A 
ATOM     91  C   UNL     1       4.723   6.271   7.945  1.00  0.00     0.000 A 
BRANCH  83  92
ATOM     92  C   UNL     1       6.272   1.585   6.392  1.00  0.00     0.047 C 
BRANCH  92  93
ATOM     93  C   UNL     1       6.970   0.440   7.066  1.00  0.00    -0.025 C 
ATOM     94  C   UNL     1       7.524  -0.600   6.420  1.00  0.00     0.004 C 
BRANCH  94  95
ATOM     95  C   UNL     1       7.957  -1.812   7.129  1.00  0.00    -0.026 A 
ATOM     96  C   UNL     1       9.104  -2.506   6.731  1.00  0.00     0.008 A 
ATOM     97  C   UNL     1       7.159  -2.353   8.149  1.00  0.00     0.008 A 
ATOM     98  C   UNL     1       9.462  -3.699   7.368  1.00  0.00     0.001 A 
ATOM     99  C   UNL     1       7.516  -3.542   8.783  1.00  0.00     0.001 A 
ATOM    100  C   UNL     1       8.671  -4.213   8.395  1.00  0.00     0.000 A 
ENDBRANCH  94  95
ENDBRANCH  92  93
ENDBRANCH  83  92
ENDBRANCH  81  83
ENDBRANCH  80  81
ENDBRANCH  79  80
ENDBRANCH  78  79
ENDBRANCH  77  78
ENDBRANCH  76  77
ENDBRANCH  75  76
ENDBRANCH   1  75
TORSDOF 26
