REMARK SMILES CC(C)C(=O)Nc1ccc2c([C@H](C(=O)OCCOCCOCCOCCOC(=O)c3ccc(-c4c5nc(c(-c6cccc(S(=O)(=O)[O-])c6F)c6ccc([nH]6)c(-c6cccc(S(=O)(=O)[O-])c6F)c6nc(c(-c7cccc(S(=O)(=O)[O-])c7F)c7ccc4[nH]7)C=C6)C=C5)cc3)[NH+]3CC[NH+](CC(=O)N(C)C)CC3)c[nH]c2c1
REMARK SMILES IDX 21 1 20 2 19 3 18 4 17 5 16 6 15 7 13 8 14 9 12 10 11 11
REMARK SMILES IDX 7 12 8 13 108 14 9 15 107 16 10 17 106 18 105 19 6 21 4 22
REMARK SMILES IDX 5 23 2 25 1 26 3 27 93 28 94 29 104 30 95 32 103 33 96 34
REMARK SMILES IDX 97 36 98 37 99 38 100 39 101 40 102 41 22 42 23 43 24 44
REMARK SMILES IDX 25 45 26 46 27 47 28 48 29 49 30 50 31 51 92 52 32 53 91 54
REMARK SMILES IDX 33 55 34 56 35 57 85 58 36 59 90 60 84 61 86 62 37 63 89 64
REMARK SMILES IDX 83 65 82 66 38 68 70 69 50 70 69 71 51 72 54 73 68 74 87 75
REMARK SMILES IDX 52 76 53 77 67 79 88 80 55 81 39 82 40 83 48 84 41 85 43 86
REMARK SMILES IDX 49 87 42 88 44 89 45 90 46 91 47 92 71 93 72 94 80 95 73 96
REMARK SMILES IDX 75 97 81 98 74 99 76 100 77 101 78 102 79 103 56 104 57 105
REMARK SMILES IDX 65 106 58 107 60 108 66 109 59 110 61 111 62 112 63 113
REMARK SMILES IDX 64 114
REMARK H PARENT 106 20 6 24 93 31 96 35 86 67 54 78
REMARK Flexibility Score: inf
ROOT
ATOM      1  O   UNL     1      -0.354  -2.409   7.005  1.00  0.00    -0.377 OA
ENDROOT
BRANCH   1   2
ATOM      2  C   UNL     1      -0.898  -1.141   7.284  1.00  0.00     0.188 C 
BRANCH   2   3
ATOM      3  C   UNL     1      -1.929  -0.585   6.298  1.00  0.00     0.188 C 
BRANCH   3   4
ATOM      4  O   UNL     1      -2.518  -1.478   5.369  1.00  0.00    -0.376 OA
BRANCH   4   5
ATOM      5  C   UNL     1      -1.640  -2.087   4.418  1.00  0.00     0.202 C 
BRANCH   5   6
ATOM      6  C   UNL     1      -0.528  -1.224   3.791  1.00  0.00     0.261 C 
BRANCH   6   7
ATOM      7  O   UNL     1       0.474  -0.869   4.760  1.00  0.00    -0.459 OA
BRANCH   7   8
ATOM      8  C   UNL     1       1.006   0.392   4.861  1.00  0.00     0.370 C 
ATOM      9  O   UNL     1       0.616   1.348   4.200  1.00  0.00    -0.245 OA
BRANCH   8  10
ATOM     10  C   UNL     1       2.187   0.440   5.938  1.00  0.00     0.328 C 
BRANCH  10  11
ATOM     11  C   UNL     1       1.811   1.315   7.139  1.00  0.00     0.046 A 
ATOM     12  C   UNL     1       3.872   3.623   9.985  1.00  0.00     0.043 A 
ATOM     13  C   UNL     1       4.677   2.843   9.162  1.00  0.00     0.027 A 
ATOM     14  C   UNL     1       2.494   3.420  10.039  1.00  0.00     0.052 A 
ATOM     15  C   UNL     1       4.113   1.982   8.215  1.00  0.00     0.013 A 
ATOM     16  C   UNL     1       1.948   2.629   9.024  1.00  0.00     0.048 A 
ATOM     17  C   UNL     1       2.712   1.932   8.084  1.00  0.00     0.009 A 
ATOM     18  N   UNL     1       0.634   2.426   8.700  1.00  0.00    -0.361 N 
ATOM     19  C   UNL     1       0.560   1.810   7.484  1.00  0.00     0.094 A 
ATOM     20  H   UNL     1      -0.137   2.684   9.256  1.00  0.00     0.166 HD
BRANCH  12  21
ATOM     21  N   UNL     1       4.400   4.672  10.738  1.00  0.00    -0.326 N 
ATOM     22  C   UNL     1       5.056   5.788  10.293  1.00  0.00     0.226 C 
ATOM     23  O   UNL     1       5.431   6.600  11.149  1.00  0.00    -0.274 OA
ATOM     24  H   UNL     1       4.287   4.601  11.713  1.00  0.00     0.169 HD
BRANCH  22  25
ATOM     25  C   UNL     1       5.239   6.131   8.805  1.00  0.00     0.072 C 
ATOM     26  C   UNL     1       6.272   5.296   8.061  1.00  0.00     0.018 C 
ATOM     27  C   UNL     1       3.923   6.250   8.036  1.00  0.00     0.018 C 
ENDBRANCH  22  25
ENDBRANCH  12  21
ENDBRANCH  10  11
BRANCH  10  28
ATOM     28  N   UNL     1       2.518  -0.959   6.299  1.00  0.00    -0.310 N 
ATOM     29  C   UNL     1       3.289  -1.315   7.491  1.00  0.00     0.325 C 
ATOM     30  C   UNL     1       3.100  -1.677   5.151  1.00  0.00     0.325 C 
ATOM     31  H   UNL     1       1.580  -1.246   6.578  1.00  0.00     0.349 HD
ATOM     32  C   UNL     1       3.334  -2.871   7.708  1.00  0.00     0.325 C 
ATOM     33  C   UNL     1       2.897  -3.187   5.332  1.00  0.00     0.325 C 
ATOM     34  N   UNL     1       3.534  -3.736   6.527  1.00  0.00    -0.318 N 
ATOM     35  H   UNL     1       3.042  -4.599   6.758  1.00  0.00     0.348 HD
BRANCH  34  36
ATOM     36  C   UNL     1       4.909  -4.224   6.306  1.00  0.00     0.364 C 
BRANCH  36  37
ATOM     37  C   UNL     1       5.959  -3.109   6.286  1.00  0.00     0.277 C 
ATOM     38  O   UNL     1       6.441  -2.713   7.356  1.00  0.00    -0.268 OA
ATOM     39  N   UNL     1       6.286  -2.483   5.088  1.00  0.00    -0.344 N 
ATOM     40  C   UNL     1       5.983  -2.966   3.744  1.00  0.00     0.146 C 
ATOM     41  C   UNL     1       7.037  -1.245   5.172  1.00  0.00     0.146 C 
ENDBRANCH  36  37
ENDBRANCH  34  36
ENDBRANCH  10  28
ENDBRANCH   8  10
ENDBRANCH   7   8
ENDBRANCH   6   7
ENDBRANCH   5   6
ENDBRANCH   4   5
ENDBRANCH   3   4
ENDBRANCH   2   3
ENDBRANCH   1   2
BRANCH   1  42
ATOM     42  C   UNL     1      -0.888  -3.542   7.661  1.00  0.00     0.188 C 
BRANCH  42  43
ATOM     43  C   UNL     1      -2.034  -3.310   8.648  1.00  0.00     0.188 C 
BRANCH  43  44
ATOM     44  O   UNL     1      -1.794  -2.530   9.828  1.00  0.00    -0.376 OA
BRANCH  44  45
ATOM     45  C   UNL     1      -0.464  -2.400  10.332  1.00  0.00     0.202 C 
BRANCH  45  46
ATOM     46  C   UNL     1      -0.063  -3.481  11.328  1.00  0.00     0.261 C 
BRANCH  46  47
ATOM     47  O   UNL     1       0.235  -4.706  10.650  1.00  0.00    -0.460 OA
BRANCH  47  48
ATOM     48  C   UNL     1      -0.787  -5.584  10.572  1.00  0.00     0.338 C 
ATOM     49  O   UNL     1      -1.893  -5.489  11.085  1.00  0.00    -0.246 OA
BRANCH  48  50
ATOM     50  C   UNL     1      -0.427  -6.636   9.612  1.00  0.00     0.060 A 
ATOM     51  C   UNL     1      -1.352  -6.977   8.617  1.00  0.00     0.016 A 
ATOM     52  C   UNL     1       0.791  -7.309   9.726  1.00  0.00     0.016 A 
ATOM     53  C   UNL     1      -1.085  -8.037   7.762  1.00  0.00     0.010 A 
ATOM     54  C   UNL     1       1.049  -8.383   8.880  1.00  0.00     0.010 A 
ATOM     55  C   UNL     1       0.091  -8.775   7.930  1.00  0.00    -0.014 A 
BRANCH  55  56
ATOM     56  C   UNL     1       0.234 -10.072   7.244  1.00  0.00     0.031 A 
ATOM     57  C   UNL     1      -0.053 -11.323   8.022  1.00  0.00     0.074 A 
ATOM     58  C   UNL     1       0.624 -10.122   5.961  1.00  0.00     0.049 A 
ATOM     59  N   UNL     1       0.066 -12.569   7.655  1.00  0.00    -0.248 NA
ATOM     60  C   UNL     1      -0.531 -11.143   9.405  1.00  0.00     0.031 C 
ATOM     61  C   UNL     1       0.916  -8.960   5.124  1.00  0.00     0.029 A 
ATOM     62  N   UNL     1       0.874 -11.199   5.153  1.00  0.00    -0.354 N 
ATOM     63  C   UNL     1      -0.279 -13.323   8.769  1.00  0.00     0.074 A 
ATOM     64  C   UNL     1      -0.610 -12.396   9.828  1.00  0.00     0.031 C 
ATOM     65  C   UNL     1       1.347  -9.388   3.926  1.00  0.00     0.029 A 
ATOM     66  C   UNL     1       1.393 -10.849   3.931  1.00  0.00     0.049 A 
ATOM     67  H   UNL     1       0.700 -12.130   5.421  1.00  0.00     0.167 HD
ATOM     68  C   UNL     1      -0.318 -14.670   8.894  1.00  0.00     0.034 A 
ATOM     69  C   UNL     1       1.886 -11.625   2.947  1.00  0.00     0.034 A 
ATOM     70  C   UNL     1       0.008 -15.576   7.828  1.00  0.00     0.049 A 
ATOM     71  C   UNL     1       1.852 -13.121   3.117  1.00  0.00     0.074 A 
ATOM     72  C   UNL     1      -0.057 -16.957   7.822  1.00  0.00     0.029 A 
ATOM     73  N   UNL     1       0.486 -15.191   6.584  1.00  0.00    -0.354 N 
ATOM     74  N   UNL     1       1.409 -13.827   4.130  1.00  0.00    -0.248 NA
ATOM     75  C   UNL     1       2.354 -13.928   1.997  1.00  0.00     0.031 C 
ATOM     76  C   UNL     1       0.430 -17.409   6.592  1.00  0.00     0.029 A 
ATOM     77  C   UNL     1       0.748 -16.308   5.811  1.00  0.00     0.049 A 
ATOM     78  H   UNL     1       0.619 -14.260   6.294  1.00  0.00     0.167 HD
ATOM     79  C   UNL     1       1.551 -15.160   3.760  1.00  0.00     0.074 A 
ATOM     80  C   UNL     1       2.100 -15.159   2.418  1.00  0.00     0.031 C 
ATOM     81  C   UNL     1       1.263 -16.283   4.465  1.00  0.00     0.034 A 
BRANCH  68  82
ATOM     82  C   UNL     1      -0.714 -15.238  10.232  1.00  0.00     0.023 A 
ATOM     83  C   UNL     1      -2.043 -15.120  10.688  1.00  0.00     0.012 A 
ATOM     84  C   UNL     1       0.230 -15.922  11.022  1.00  0.00     0.148 A 
ATOM     85  C   UNL     1      -2.417 -15.642  11.926  1.00  0.00     0.002 A 
ATOM     86  C   UNL     1      -0.163 -16.484  12.231  1.00  0.00     0.091 A 
ATOM     87  F   UNL     1       1.494 -16.000  10.585  1.00  0.00    -0.205 F 
ATOM     88  C   UNL     1      -1.481 -16.333  12.691  1.00  0.00     0.022 A 
BRANCH  86  89
ATOM     89  S   UNL     1       0.948 -17.461  13.249  1.00  0.00     0.127 S 
ATOM     90  O   UNL     1       1.132 -16.588  14.407  1.00  0.00    -0.237 OA
ATOM     91  O   UNL     1       0.149 -18.659  13.509  1.00  0.00    -0.237 OA
ATOM     92  O   UNL     1       2.139 -17.688  12.443  1.00  0.00    -0.744 OA
ENDBRANCH  86  89
ENDBRANCH  68  82
BRANCH  69  93
ATOM     93  C   UNL     1       2.440 -10.993   1.718  1.00  0.00     0.023 A 
ATOM     94  C   UNL     1       1.760 -11.133   0.494  1.00  0.00     0.012 A 
ATOM     95  C   UNL     1       3.614 -10.216   1.769  1.00  0.00     0.148 A 
ATOM     96  C   UNL     1       2.257 -10.535  -0.665  1.00  0.00     0.002 A 
ATOM     97  C   UNL     1       4.069  -9.571   0.626  1.00  0.00     0.091 A 
ATOM     98  F   UNL     1       4.251 -10.103   2.943  1.00  0.00    -0.205 F 
ATOM     99  C   UNL     1       3.403  -9.746  -0.597  1.00  0.00     0.022 A 
BRANCH  97 100
ATOM    100  S   UNL     1       5.448  -8.420   0.650  1.00  0.00     0.127 S 
ATOM    101  O   UNL     1       6.439  -9.122  -0.161  1.00  0.00    -0.237 OA
ATOM    102  O   UNL     1       4.863  -7.235   0.021  1.00  0.00    -0.237 OA
ATOM    103  O   UNL     1       5.795  -8.239   2.053  1.00  0.00    -0.744 OA
ENDBRANCH  97 100
ENDBRANCH  69  93
BRANCH  81 104
ATOM    104  C   UNL     1       1.502 -17.610   3.790  1.00  0.00     0.023 A 
ATOM    105  C   UNL     1       2.818 -18.063   3.570  1.00  0.00     0.012 A 
ATOM    106  C   UNL     1       0.417 -18.439   3.443  1.00  0.00     0.148 A 
ATOM    107  C   UNL     1       3.049 -19.304   2.979  1.00  0.00     0.002 A 
ATOM    108  C   UNL     1       0.656 -19.698   2.906  1.00  0.00     0.091 A 
ATOM    109  F   UNL     1      -0.827 -17.984   3.648  1.00  0.00    -0.205 F 
ATOM    110  C   UNL     1       1.970 -20.126   2.659  1.00  0.00     0.022 A 
BRANCH 108 111
ATOM    111  S   UNL     1      -0.665 -20.863   2.557  1.00  0.00     0.127 S 
ATOM    112  O   UNL     1      -0.653 -20.897   1.095  1.00  0.00    -0.237 OA
ATOM    113  O   UNL     1      -0.176 -22.084   3.199  1.00  0.00    -0.237 OA
ATOM    114  O   UNL     1      -1.868 -20.303   3.156  1.00  0.00    -0.744 OA
ENDBRANCH 108 111
ENDBRANCH  81 104
ENDBRANCH  55  56
ENDBRANCH  48  50
ENDBRANCH  47  48
ENDBRANCH  46  47
ENDBRANCH  45  46
ENDBRANCH  44  45
ENDBRANCH  43  44
ENDBRANCH  42  43
ENDBRANCH   1  42
TORSDOF 29
