REMARK SMILES Cc1ccc(Cl)cc1NC(=O)N[C@@](C)(C(=O)OCCOCCOCCOCCOC(=O)c1ccc(-c2c3nc(c(-c4cccc(S(=O)(=O)[O-])c4F)c4ccc([nH]4)c(-c4cccc(S(=O)(=O)[O-])c4F)c4nc(c(-c5cccc(S(=O)(=O)[O-])c5F)c5ccc2[nH]5)C=C4)C=C3)cc1)C(F)(F)F
REMARK SMILES IDX 24 1 23 2 22 3 21 4 20 5 19 6 18 7 17 8 15 9 16 10 13 11
REMARK SMILES IDX 14 12 12 13 9 14 10 15 11 17 8 19 1 20 2 21 3 22 4 23 7 24
REMARK SMILES IDX 5 25 6 26 95 27 96 28 97 29 98 30 25 31 26 32 27 33 28 34
REMARK SMILES IDX 29 35 30 36 31 37 32 38 33 39 94 40 34 41 93 42 35 43 36 44
REMARK SMILES IDX 37 45 87 46 38 47 92 48 86 49 88 50 39 51 91 52 85 53 84 54
REMARK SMILES IDX 40 56 72 57 52 58 71 59 53 60 56 61 70 62 89 63 54 64 55 65
REMARK SMILES IDX 69 67 90 68 57 69 41 70 42 71 50 72 43 73 45 74 51 75 44 76
REMARK SMILES IDX 46 77 47 78 48 79 49 80 73 81 74 82 82 83 75 84 77 85 83 86
REMARK SMILES IDX 76 87 78 88 79 89 80 90 81 91 58 92 59 93 67 94 60 95 62 96
REMARK SMILES IDX 68 97 61 98 63 99 64 100 65 101 66 102
REMARK H PARENT 9 16 12 18 88 55 56 66
REMARK Flexibility Score: inf
ROOT
ATOM      1  C   UNL     1      -1.582   5.263  -4.168  1.00  0.00     0.188 C 
ENDROOT
BRANCH   1   2
ATOM      2  O   UNL     1      -1.081   4.793  -2.921  1.00  0.00    -0.377 OA
BRANCH   2   3
ATOM      3  C   UNL     1      -0.371   3.567  -2.875  1.00  0.00     0.188 C 
BRANCH   3   4
ATOM      4  C   UNL     1      -1.045   2.296  -3.423  1.00  0.00     0.188 C 
BRANCH   4   5
ATOM      5  O   UNL     1      -2.126   2.530  -4.302  1.00  0.00    -0.376 OA
BRANCH   5   6
ATOM      6  C   UNL     1      -3.451   2.532  -3.801  1.00  0.00     0.202 C 
BRANCH   6   7
ATOM      7  C   UNL     1      -3.818   3.024  -2.383  1.00  0.00     0.261 C 
BRANCH   7   8
ATOM      8  O   UNL     1      -2.713   3.203  -1.478  1.00  0.00    -0.461 OA
BRANCH   8   9
ATOM      9  C   UNL     1      -2.964   2.879  -0.183  1.00  0.00     0.341 C 
ATOM     10  O   UNL     1      -4.104   2.727   0.251  1.00  0.00    -0.249 OA
BRANCH   9  11
ATOM     11  C   UNL     1      -1.708   2.357   0.565  1.00  0.00     0.232 C 
ATOM     12  C   UNL     1      -2.110   2.433   2.048  1.00  0.00     0.058 C 
BRANCH  11  13
ATOM     13  N   UNL     1      -0.421   3.146   0.476  1.00  0.00    -0.314 N 
ATOM     14  N   UNL     1       1.621   1.954   1.064  1.00  0.00    -0.308 N 
ATOM     15  C   UNL     1       0.869   3.043   0.828  1.00  0.00     0.320 C 
ATOM     16  H   UNL     1       2.549   2.207   1.275  1.00  0.00     0.171 HD
ATOM     17  O   UNL     1       1.501   4.110   0.834  1.00  0.00    -0.248 OA
ATOM     18  H   UNL     1      -0.579   4.002   0.015  1.00  0.00     0.166 HD
BRANCH  14  19
ATOM     19  C   UNL     1       1.462   0.561   1.095  1.00  0.00     0.047 A 
ATOM     20  C   UNL     1       3.689   0.173  -0.158  1.00  0.00     0.046 C 
ATOM     21  C   UNL     1       2.344  -0.265   0.360  1.00  0.00    -0.027 A 
ATOM     22  C   UNL     1       2.002  -1.615   0.151  1.00  0.00     0.007 A 
ATOM     23  C   UNL     1       0.903  -2.175   0.789  1.00  0.00     0.021 A 
ATOM     24  C   UNL     1       0.485  -0.049   1.873  1.00  0.00     0.047 A 
ATOM     25  C   UNL     1       0.212  -1.415   1.723  1.00  0.00     0.043 A 
ATOM     26  Cl  UNL     1      -1.032  -2.160   2.655  1.00  0.00    -0.084 Cl
ENDBRANCH  14  19
ENDBRANCH  11  13
BRANCH  11  27
ATOM     27  C   UNL     1      -1.688   0.939  -0.053  1.00  0.00     0.422 C 
ATOM     28  F   UNL     1      -0.514   0.679  -0.676  1.00  0.00    -0.168 F 
ATOM     29  F   UNL     1      -1.904  -0.005   0.882  1.00  0.00    -0.168 F 
ATOM     30  F   UNL     1      -2.628   0.691  -1.000  1.00  0.00    -0.168 F 
ENDBRANCH  11  27
ENDBRANCH   9  11
ENDBRANCH   8   9
ENDBRANCH   7   8
ENDBRANCH   6   7
ENDBRANCH   5   6
ENDBRANCH   4   5
ENDBRANCH   3   4
ENDBRANCH   2   3
ENDBRANCH   1   2
BRANCH   1  31
ATOM     31  C   UNL     1      -0.991   4.764  -5.508  1.00  0.00     0.188 C 
BRANCH  31  32
ATOM     32  O   UNL     1       0.216   4.029  -5.406  1.00  0.00    -0.376 OA
BRANCH  32  33
ATOM     33  C   UNL     1       1.436   4.709  -5.652  1.00  0.00     0.202 C 
BRANCH  33  34
ATOM     34  C   UNL     1       1.794   5.924  -4.780  1.00  0.00     0.261 C 
BRANCH  34  35
ATOM     35  O   UNL     1       0.814   6.968  -4.694  1.00  0.00    -0.460 OA
BRANCH  35  36
ATOM     36  C   UNL     1       0.471   7.609  -5.831  1.00  0.00     0.338 C 
ATOM     37  O   UNL     1       0.927   7.419  -6.947  1.00  0.00    -0.246 OA
BRANCH  36  38
ATOM     38  C   UNL     1      -0.724   8.427  -5.529  1.00  0.00     0.060 A 
ATOM     39  C   UNL     1      -1.922   8.156  -6.208  1.00  0.00     0.016 A 
ATOM     40  C   UNL     1      -0.680   9.410  -4.538  1.00  0.00     0.016 A 
ATOM     41  C   UNL     1      -3.072   8.886  -5.915  1.00  0.00     0.010 A 
ATOM     42  C   UNL     1      -1.823  10.168  -4.274  1.00  0.00     0.010 A 
ATOM     43  C   UNL     1      -3.013   9.931  -4.986  1.00  0.00    -0.014 A 
BRANCH  43  44
ATOM     44  C   UNL     1      -4.106  10.930  -4.953  1.00  0.00     0.031 A 
ATOM     45  C   UNL     1      -3.936  12.173  -5.784  1.00  0.00     0.074 A 
ATOM     46  C   UNL     1      -5.216  10.747  -4.217  1.00  0.00     0.049 A 
ATOM     47  N   UNL     1      -4.719  13.211  -5.891  1.00  0.00    -0.248 NA
ATOM     48  C   UNL     1      -2.712  12.254  -6.603  1.00  0.00     0.031 C 
ATOM     49  C   UNL     1      -5.502   9.580  -3.385  1.00  0.00     0.029 A 
ATOM     50  N   UNL     1      -6.301  11.569  -4.030  1.00  0.00    -0.354 N 
ATOM     51  C   UNL     1      -4.068  14.084  -6.754  1.00  0.00     0.074 A 
ATOM     52  C   UNL     1      -2.828  13.455  -7.147  1.00  0.00     0.031 C 
ATOM     53  C   UNL     1      -6.666   9.780  -2.741  1.00  0.00     0.029 A 
ATOM     54  C   UNL     1      -7.191  11.099  -3.093  1.00  0.00     0.049 A 
ATOM     55  H   UNL     1      -6.428  12.414  -4.519  1.00  0.00     0.167 HD
ATOM     56  C   UNL     1      -4.469  15.302  -7.184  1.00  0.00     0.034 A 
ATOM     57  C   UNL     1      -8.281  11.686  -2.557  1.00  0.00     0.034 A 
ATOM     58  C   UNL     1      -5.708  15.919  -6.805  1.00  0.00     0.049 A 
ATOM     59  C   UNL     1      -8.693  13.056  -3.040  1.00  0.00     0.074 A 
ATOM     60  C   UNL     1      -6.230  17.126  -7.234  1.00  0.00     0.029 A 
ATOM     61  N   UNL     1      -6.607  15.392  -5.893  1.00  0.00    -0.354 N 
ATOM     62  N   UNL     1      -8.133  13.815  -3.951  1.00  0.00    -0.248 NA
ATOM     63  C   UNL     1      -9.906  13.637  -2.444  1.00  0.00     0.031 C 
ATOM     64  C   UNL     1      -7.425  17.351  -6.546  1.00  0.00     0.029 A 
ATOM     65  C   UNL     1      -7.672  16.259  -5.729  1.00  0.00     0.049 A 
ATOM     66  H   UNL     1      -6.503  14.530  -5.430  1.00  0.00     0.167 HD
ATOM     67  C   UNL     1      -8.946  14.939  -4.066  1.00  0.00     0.074 A 
ATOM     68  C   UNL     1     -10.048  14.753  -3.146  1.00  0.00     0.031 C 
ATOM     69  C   UNL     1      -8.791  16.032  -4.853  1.00  0.00     0.034 A 
BRANCH  56  70
ATOM     70  C   UNL     1      -3.559  16.056  -8.113  1.00  0.00     0.023 A 
ATOM     71  C   UNL     1      -3.427  15.651  -9.456  1.00  0.00     0.012 A 
ATOM     72  C   UNL     1      -2.900  17.219  -7.670  1.00  0.00     0.148 A 
ATOM     73  C   UNL     1      -2.637  16.384 -10.340  1.00  0.00     0.002 A 
ATOM     74  C   UNL     1      -2.155  17.970  -8.568  1.00  0.00     0.091 A 
ATOM     75  F   UNL     1      -3.020  17.568  -6.381  1.00  0.00    -0.205 F 
ATOM     76  C   UNL     1      -2.013  17.549  -9.900  1.00  0.00     0.022 A 
BRANCH  74  77
ATOM     77  S   UNL     1      -1.385  19.529  -8.120  1.00  0.00     0.127 S 
ATOM     78  O   UNL     1       0.035  19.204  -8.249  1.00  0.00    -0.237 OA
ATOM     79  O   UNL     1      -1.900  20.430  -9.152  1.00  0.00    -0.237 OA
ATOM     80  O   UNL     1      -1.832  19.829  -6.768  1.00  0.00    -0.744 OA
ENDBRANCH  74  77
ENDBRANCH  56  70
BRANCH  57  81
ATOM     81  C   UNL     1      -9.067  10.993  -1.495  1.00  0.00     0.023 A 
ATOM     82  C   UNL     1     -10.391  10.585  -1.751  1.00  0.00     0.012 A 
ATOM     83  C   UNL     1      -8.514  10.763  -0.220  1.00  0.00     0.148 A 
ATOM     84  C   UNL     1     -11.164  10.004  -0.744  1.00  0.00     0.002 A 
ATOM     85  C   UNL     1      -9.269  10.129   0.759  1.00  0.00     0.091 A 
ATOM     86  F   UNL     1      -7.261  11.177   0.013  1.00  0.00    -0.205 F 
ATOM     87  C   UNL     1     -10.601   9.768   0.507  1.00  0.00     0.022 A 
BRANCH  85  88
ATOM     88  S   UNL     1      -8.583   9.673   2.355  1.00  0.00     0.127 S 
ATOM     89  O   UNL     1      -9.261  10.607   3.250  1.00  0.00    -0.237 OA
ATOM     90  O   UNL     1      -9.011   8.279   2.479  1.00  0.00    -0.237 OA
ATOM     91  O   UNL     1      -7.143   9.849   2.228  1.00  0.00    -0.744 OA
ENDBRANCH  85  88
ENDBRANCH  57  81
BRANCH  69  92
ATOM     92  C   UNL     1      -9.863  17.091  -4.813  1.00  0.00     0.023 A 
ATOM     93  C   UNL     1      -9.998  17.922  -3.683  1.00  0.00     0.012 A 
ATOM     94  C   UNL     1     -10.681  17.316  -5.939  1.00  0.00     0.148 A 
ATOM     95  C   UNL     1     -10.956  18.936  -3.662  1.00  0.00     0.002 A 
ATOM     96  C   UNL     1     -11.594  18.363  -5.931  1.00  0.00     0.091 A 
ATOM     97  F   UNL     1     -10.545  16.506  -6.999  1.00  0.00    -0.205 F 
ATOM     98  C   UNL     1     -11.743  19.164  -4.788  1.00  0.00     0.022 A 
BRANCH  96  99
ATOM     99  S   UNL     1     -12.576  18.796  -7.371  1.00  0.00     0.127 S 
ATOM    100  O   UNL     1     -13.917  18.395  -6.948  1.00  0.00    -0.237 OA
ATOM    101  O   UNL     1     -12.371  20.242  -7.462  1.00  0.00    -0.237 OA
ATOM    102  O   UNL     1     -12.020  18.035  -8.482  1.00  0.00    -0.744 OA
ENDBRANCH  96  99
ENDBRANCH  69  92
ENDBRANCH  43  44
ENDBRANCH  36  38
ENDBRANCH  35  36
ENDBRANCH  34  35
ENDBRANCH  33  34
ENDBRANCH  32  33
ENDBRANCH  31  32
ENDBRANCH   1  31
TORSDOF 26
