REMARK SMILES CC1=C(C)C[C@@H](C(=O)N[C@H](C)C(C)(C)C)[C@@H](C(=O)OCCOCCOCCOCCOC(=O)c2ccc(-c3c4nc(c(-c5cccc(S(=O)(=O)[O-])c5F)c5ccc([nH]5)c(-c5cccc(S(=O)(=O)[O-])c5F)c5nc(c(-c6cccc(S(=O)(=O)[O-])c6F)c6ccc3[nH]6)C=C5)C=C4)cc2)C1
REMARK SMILES IDX 25 1 24 2 23 3 22 4 21 5 20 6 19 7 17 8 18 9 16 10 1 11 2 12
REMARK SMILES IDX 3 13 97 14 4 15 5 16 6 17 7 18 8 19 9 20 10 22 11 23 12 24
REMARK SMILES IDX 13 25 14 26 15 27 26 28 27 29 28 30 29 31 30 32 31 33 32 34
REMARK SMILES IDX 33 35 34 36 35 37 96 38 36 39 95 40 37 41 38 42 39 43 89 44
REMARK SMILES IDX 40 45 94 46 88 47 90 48 41 49 93 50 87 51 86 52 42 54 74 55
REMARK SMILES IDX 54 56 73 57 55 58 58 59 72 60 91 61 56 62 57 63 71 65 92 66
REMARK SMILES IDX 59 67 43 68 44 69 52 70 45 71 47 72 53 73 46 74 48 75 49 76
REMARK SMILES IDX 50 77 51 78 75 79 76 80 84 81 77 82 79 83 85 84 78 85 80 86
REMARK SMILES IDX 81 87 82 88 83 89 60 90 61 91 69 92 62 93 64 94 70 95 63 96
REMARK SMILES IDX 65 97 66 98 67 99 68 100
REMARK H PARENT 9 21 90 53 58 64
REMARK Flexibility Score: inf
ROOT
ATOM      1  O   UNL     1      -2.717   2.854   2.257  1.00  0.00    -0.377 OA
ENDROOT
BRANCH   1   2
ATOM      2  C   UNL     1      -1.998   1.640   2.153  1.00  0.00     0.188 C 
BRANCH   2   3
ATOM      3  C   UNL     1      -0.984   1.295   3.264  1.00  0.00     0.188 C 
BRANCH   3   4
ATOM      4  O   UNL     1       0.083   2.241   3.362  1.00  0.00    -0.376 OA
BRANCH   4   5
ATOM      5  C   UNL     1       1.337   1.869   2.804  1.00  0.00     0.202 C 
BRANCH   5   6
ATOM      6  C   UNL     1       1.368   1.619   1.295  1.00  0.00     0.261 C 
BRANCH   6   7
ATOM      7  O   UNL     1       0.329   0.723   0.862  1.00  0.00    -0.463 OA
BRANCH   7   8
ATOM      8  C   UNL     1       0.585  -0.559   0.527  1.00  0.00     0.310 C 
ATOM      9  O   UNL     1       1.677  -1.098   0.615  1.00  0.00    -0.252 OA
BRANCH   8  10
ATOM     10  C   UNL     1      -0.654  -1.171  -0.114  1.00  0.00     0.116 C 
ATOM     11  C   UNL     1       0.574  -4.547  -1.391  1.00  0.00     0.039 C 
ATOM     12  C   UNL     1      -0.496  -3.615  -0.905  1.00  0.00    -0.073 C 
ATOM     13  C   UNL     1      -1.663  -3.961  -0.324  1.00  0.00    -0.074 C 
ATOM     14  C   UNL     1      -0.219  -2.161  -1.203  1.00  0.00     0.046 C 
ATOM     15  C   UNL     1      -2.198  -5.357  -0.163  1.00  0.00     0.039 C 
ATOM     16  C   UNL     1      -2.574  -2.878   0.194  1.00  0.00     0.045 C 
ATOM     17  C   UNL     1      -1.817  -1.668   0.770  1.00  0.00     0.097 C 
BRANCH  17  18
ATOM     18  C   UNL     1      -1.751  -1.769   2.299  1.00  0.00     0.224 C 
ATOM     19  O   UNL     1      -2.733  -1.393   2.957  1.00  0.00    -0.275 OA
ATOM     20  N   UNL     1      -0.740  -2.257   3.047  1.00  0.00    -0.353 N 
ATOM     21  H   UNL     1      -0.736  -1.927   3.975  1.00  0.00     0.163 HD
BRANCH  20  22
ATOM     22  C   UNL     1       0.347  -3.179   2.745  1.00  0.00     0.084 C 
ATOM     23  C   UNL     1      -0.207  -4.598   2.911  1.00  0.00     0.031 C 
BRANCH  22  24
ATOM     24  C   UNL     1       1.625  -2.935   3.639  1.00  0.00    -0.018 C 
ATOM     25  C   UNL     1       2.817  -3.681   3.010  1.00  0.00     0.013 C 
ATOM     26  C   UNL     1       2.012  -1.453   3.735  1.00  0.00     0.013 C 
ATOM     27  C   UNL     1       1.445  -3.405   5.097  1.00  0.00     0.013 C 
ENDBRANCH  22  24
ENDBRANCH  20  22
ENDBRANCH  17  18
ENDBRANCH   8  10
ENDBRANCH   7   8
ENDBRANCH   6   7
ENDBRANCH   5   6
ENDBRANCH   4   5
ENDBRANCH   3   4
ENDBRANCH   2   3
ENDBRANCH   1   2
BRANCH   1  28
ATOM     28  C   UNL     1      -2.030   3.920   2.870  1.00  0.00     0.188 C 
BRANCH  28  29
ATOM     29  C   UNL     1      -2.208   3.970   4.401  1.00  0.00     0.188 C 
BRANCH  29  30
ATOM     30  O   UNL     1      -3.201   3.215   5.094  1.00  0.00    -0.376 OA
BRANCH  30  31
ATOM     31  C   UNL     1      -4.344   2.686   4.443  1.00  0.00     0.202 C 
BRANCH  31  32
ATOM     32  C   UNL     1      -5.343   3.614   3.729  1.00  0.00     0.261 C 
BRANCH  32  33
ATOM     33  O   UNL     1      -4.790   4.731   3.030  1.00  0.00    -0.460 OA
BRANCH  33  34
ATOM     34  C   UNL     1      -4.693   5.888   3.727  1.00  0.00     0.338 C 
ATOM     35  O   UNL     1      -5.083   6.100   4.863  1.00  0.00    -0.246 OA
BRANCH  34  36
ATOM     36  C   UNL     1      -3.828   6.812   2.956  1.00  0.00     0.060 A 
ATOM     37  C   UNL     1      -2.718   7.372   3.605  1.00  0.00     0.016 A 
ATOM     38  C   UNL     1      -4.035   7.035   1.590  1.00  0.00     0.016 A 
ATOM     39  C   UNL     1      -1.814   8.158   2.895  1.00  0.00     0.010 A 
ATOM     40  C   UNL     1      -3.157   7.866   0.890  1.00  0.00     0.010 A 
ATOM     41  C   UNL     1      -2.063   8.453   1.549  1.00  0.00    -0.014 A 
BRANCH  41  42
ATOM     42  C   UNL     1      -1.372   9.610   0.940  1.00  0.00     0.031 A 
ATOM     43  C   UNL     1      -1.999  10.960   1.151  1.00  0.00     0.074 A 
ATOM     44  C   UNL     1      -0.238   9.480   0.230  1.00  0.00     0.049 A 
ATOM     45  N   UNL     1      -1.607  12.133   0.732  1.00  0.00    -0.248 NA
ATOM     46  C   UNL     1      -3.240  10.989   1.949  1.00  0.00     0.031 C 
ATOM     47  C   UNL     1       0.463   8.225  -0.033  1.00  0.00     0.029 A 
ATOM     48  N   UNL     1       0.510  10.428  -0.421  1.00  0.00    -0.354 N 
ATOM     49  C   UNL     1      -2.555  13.032   1.204  1.00  0.00     0.074 A 
ATOM     50  C   UNL     1      -3.548  12.274   1.929  1.00  0.00     0.031 C 
ATOM     51  C   UNL     1       1.521   8.477  -0.826  1.00  0.00     0.029 A 
ATOM     52  C   UNL     1       1.563   9.906  -1.135  1.00  0.00     0.049 A 
ATOM     53  H   UNL     1       0.312  11.392  -0.381  1.00  0.00     0.167 HD
ATOM     54  C   UNL     1      -2.591  14.375   1.061  1.00  0.00     0.034 A 
ATOM     55  C   UNL     1       2.440  10.518  -1.956  1.00  0.00     0.034 A 
ATOM     56  C   UNL     1      -1.613  15.126   0.330  1.00  0.00     0.049 A 
ATOM     57  C   UNL     1       2.355  12.014  -2.136  1.00  0.00     0.074 A 
ATOM     58  C   UNL     1      -1.546  16.493   0.137  1.00  0.00     0.029 A 
ATOM     59  N   UNL     1      -0.539  14.568  -0.345  1.00  0.00    -0.354 N 
ATOM     60  N   UNL     1       1.529  12.869  -1.581  1.00  0.00    -0.248 NA
ATOM     61  C   UNL     1       3.343  12.636  -3.032  1.00  0.00     0.031 C 
ATOM     62  C   UNL     1      -0.440  16.760  -0.676  1.00  0.00     0.029 A 
ATOM     63  C   UNL     1       0.194  15.561  -0.966  1.00  0.00     0.049 A 
ATOM     64  H   UNL     1      -0.330  13.607  -0.377  1.00  0.00     0.167 HD
ATOM     65  C   UNL     1       1.919  14.128  -2.028  1.00  0.00     0.074 A 
ATOM     66  C   UNL     1       3.068  13.926  -2.887  1.00  0.00     0.031 C 
ATOM     67  C   UNL     1       1.371  15.341  -1.766  1.00  0.00     0.034 A 
BRANCH  54  68
ATOM     68  C   UNL     1      -3.720  15.107   1.730  1.00  0.00     0.023 A 
ATOM     69  C   UNL     1      -3.715  15.257   3.132  1.00  0.00     0.012 A 
ATOM     70  C   UNL     1      -4.773  15.658   0.977  1.00  0.00     0.148 A 
ATOM     71  C   UNL     1      -4.756  15.922   3.777  1.00  0.00     0.002 A 
ATOM     72  C   UNL     1      -5.786  16.355   1.623  1.00  0.00     0.091 A 
ATOM     73  F   UNL     1      -4.776  15.472  -0.351  1.00  0.00    -0.205 F 
ATOM     74  C   UNL     1      -5.785  16.479   3.023  1.00  0.00     0.022 A 
BRANCH  72  75
ATOM     75  S   UNL     1      -7.118  17.167   0.734  1.00  0.00     0.127 S 
ATOM     76  O   UNL     1      -8.258  16.313   1.066  1.00  0.00    -0.237 OA
ATOM     77  O   UNL     1      -7.144  18.489   1.360  1.00  0.00    -0.237 OA
ATOM     78  O   UNL     1      -6.723  17.167  -0.667  1.00  0.00    -0.744 OA
ENDBRANCH  72  75
ENDBRANCH  54  68
BRANCH  55  79
ATOM     79  C   UNL     1       3.497   9.726  -2.651  1.00  0.00     0.023 A 
ATOM     80  C   UNL     1       4.848   9.903  -2.296  1.00  0.00     0.012 A 
ATOM     81  C   UNL     1       3.170   8.800  -3.662  1.00  0.00     0.148 A 
ATOM     82  C   UNL     1       5.857   9.198  -2.955  1.00  0.00     0.002 A 
ATOM     83  C   UNL     1       4.175   8.061  -4.277  1.00  0.00     0.091 A 
ATOM     84  F   UNL     1       1.882   8.661  -4.004  1.00  0.00    -0.205 F 
ATOM     85  C   UNL     1       5.520   8.271  -3.938  1.00  0.00     0.022 A 
BRANCH  83  86
ATOM     86  S   UNL     1       3.822   6.757  -5.461  1.00  0.00     0.127 S 
ATOM     87  O   UNL     1       4.264   7.362  -6.715  1.00  0.00    -0.237 OA
ATOM     88  O   UNL     1       4.667   5.667  -4.972  1.00  0.00    -0.237 OA
ATOM     89  O   UNL     1       2.393   6.502  -5.348  1.00  0.00    -0.744 OA
ENDBRANCH  83  86
ENDBRANCH  55  79
BRANCH  67  90
ATOM     90  C   UNL     1       2.018  16.555  -2.379  1.00  0.00     0.023 A 
ATOM     91  C   UNL     1       1.856  16.815  -3.754  1.00  0.00     0.012 A 
ATOM     92  C   UNL     1       2.699  17.488  -1.572  1.00  0.00     0.148 A 
ATOM     93  C   UNL     1       2.385  17.973  -4.321  1.00  0.00     0.002 A 
ATOM     94  C   UNL     1       3.182  18.663  -2.135  1.00  0.00     0.091 A 
ATOM     95  F   UNL     1       2.856  17.213  -0.269  1.00  0.00    -0.205 F 
ATOM     96  C   UNL     1       3.035  18.902  -3.511  1.00  0.00     0.022 A 
BRANCH  94  97
ATOM     97  S   UNL     1       3.943  19.959  -1.151  1.00  0.00     0.127 S 
ATOM     98  O   UNL     1       5.353  19.814  -1.508  1.00  0.00    -0.237 OA
ATOM     99  O   UNL     1       3.301  21.165  -1.674  1.00  0.00    -0.237 OA
ATOM    100  O   UNL     1       3.614  19.654   0.235  1.00  0.00    -0.744 OA
ENDBRANCH  94  97
ENDBRANCH  67  90
ENDBRANCH  41  42
ENDBRANCH  34  36
ENDBRANCH  33  34
ENDBRANCH  32  33
ENDBRANCH  31  32
ENDBRANCH  30  31
ENDBRANCH  29  30
ENDBRANCH  28  29
ENDBRANCH   1  28
TORSDOF 26
