REMARK SMILES CC(C)CCOc1ccc(/C=C2\SC(=S)N(CC(=O)OCCOCCOCCOCCOC(=O)c3ccc(-c4c5nc(c(-c6cccc(S(=O)(=O)[O-])c6F)c6ccc([nH]6)c(-c6cccc(S(=O)(=O)[O-])c6F)c6nc(c(-c7cccc(S(=O)(=O)[O-])c7F)c7ccc4[nH]7)C=C6)C=C5)cc3)C2=O)cc1
REMARK SMILES IDX 24 1 23 2 22 3 21 4 20 5 18 6 19 7 17 8 16 9 11 10 12 11
REMARK SMILES IDX 13 12 98 13 14 14 99 15 15 16 10 17 7 18 8 19 101 20 9 21
REMARK SMILES IDX 100 22 6 23 5 24 4 25 2 26 1 27 3 28 25 29 26 30 27 31 28 32
REMARK SMILES IDX 29 33 30 34 31 35 32 36 33 37 34 38 35 39 36 40 97 41 37 42
REMARK SMILES IDX 96 43 38 44 39 45 40 46 90 47 41 48 95 49 89 50 91 51 42 52
REMARK SMILES IDX 94 53 88 54 87 55 43 57 75 58 55 59 74 60 56 61 59 62 73 63
REMARK SMILES IDX 92 64 57 65 58 66 72 68 93 69 60 70 44 71 45 72 53 73 46 74
REMARK SMILES IDX 48 75 54 76 47 77 49 78 50 79 51 80 52 81 76 82 77 83 85 84
REMARK SMILES IDX 78 85 80 86 86 87 79 88 81 89 82 90 83 91 84 92 61 93 62 94
REMARK SMILES IDX 70 95 63 96 65 97 71 98 64 99 66 100 67 101 68 102 69 103
REMARK H PARENT 91 56 59 67
REMARK Flexibility Score: inf
ROOT
ATOM      1  C   UNL     1       9.286   2.297   5.746  1.00  0.00     0.188 C 
ENDROOT
BRANCH   1   2
ATOM      2  O   UNL     1      10.152   2.771   6.773  1.00  0.00    -0.376 OA
BRANCH   2   3
ATOM      3  C   UNL     1       9.776   3.893   7.559  1.00  0.00     0.202 C 
BRANCH   3   4
ATOM      4  C   UNL     1       9.415   5.228   6.873  1.00  0.00     0.261 C 
BRANCH   4   5
ATOM      5  O   UNL     1       8.665   5.150   5.641  1.00  0.00    -0.462 OA
BRANCH   5   6
ATOM      6  C   UNL     1       9.339   5.392   4.489  1.00  0.00     0.326 C 
ATOM      7  O   UNL     1      10.528   5.692   4.435  1.00  0.00    -0.250 OA
BRANCH   6   8
ATOM      8  C   UNL     1       8.509   5.181   3.210  1.00  0.00     0.250 C 
BRANCH   8   9
ATOM      9  N   UNL     1       7.071   4.884   3.297  1.00  0.00    -0.282 N 
ATOM     10  C   UNL     1       4.444   2.370   3.153  1.00  0.00     0.029 C 
ATOM     11  C   UNL     1       5.127   3.525   3.237  1.00  0.00     0.081 C 
ATOM     12  S   UNL     1       4.524   5.093   3.601  1.00  0.00    -0.054 SA
ATOM     13  C   UNL     1       6.602   3.606   3.024  1.00  0.00     0.266 C 
ATOM     14  C   UNL     1       6.111   5.839   3.551  1.00  0.00     0.148 C 
ATOM     15  O   UNL     1       7.280   2.655   2.652  1.00  0.00    -0.268 OA
ATOM     16  S   UNL     1       6.335   7.478   3.742  1.00  0.00    -0.052 S 
BRANCH  10  17
ATOM     17  C   UNL     1       2.979   2.188   3.207  1.00  0.00    -0.024 A 
ATOM     18  C   UNL     1       0.236   1.664   2.960  1.00  0.00     0.119 A 
ATOM     19  C   UNL     1       1.026   0.826   3.742  1.00  0.00     0.047 A 
ATOM     20  C   UNL     1       0.772   2.819   2.407  1.00  0.00     0.047 A 
ATOM     21  C   UNL     1       2.400   1.091   3.865  1.00  0.00     0.012 A 
ATOM     22  C   UNL     1       2.143   3.042   2.476  1.00  0.00     0.012 A 
BRANCH  18  23
ATOM     23  O   UNL     1      -1.073   1.377   2.698  1.00  0.00    -0.494 OA
BRANCH  23  24
ATOM     24  C   UNL     1      -1.228   0.513   1.554  1.00  0.00     0.230 C 
BRANCH  24  25
ATOM     25  C   UNL     1      -0.928   1.182   0.195  1.00  0.00     0.044 C 
BRANCH  25  26
ATOM     26  C   UNL     1       0.527   1.019  -0.307  1.00  0.00    -0.014 C 
ATOM     27  C   UNL     1       0.828  -0.401  -0.783  1.00  0.00     0.007 C 
ATOM     28  C   UNL     1       0.829   2.026  -1.421  1.00  0.00     0.007 C 
ENDBRANCH  25  26
ENDBRANCH  24  25
ENDBRANCH  23  24
ENDBRANCH  18  23
ENDBRANCH  10  17
ENDBRANCH   8   9
ENDBRANCH   6   8
ENDBRANCH   5   6
ENDBRANCH   4   5
ENDBRANCH   3   4
ENDBRANCH   2   3
ENDBRANCH   1   2
BRANCH   1  29
ATOM     29  C   UNL     1       7.765   2.505   5.842  1.00  0.00     0.188 C 
BRANCH  29  30
ATOM     30  O   UNL     1       7.295   3.025   7.064  1.00  0.00    -0.377 OA
BRANCH  30  31
ATOM     31  C   UNL     1       6.760   2.112   8.000  1.00  0.00     0.188 C 
BRANCH  31  32
ATOM     32  C   UNL     1       7.441   0.741   8.140  1.00  0.00     0.188 C 
BRANCH  32  33
ATOM     33  O   UNL     1       7.709   0.099   6.898  1.00  0.00    -0.376 OA
BRANCH  33  34
ATOM     34  C   UNL     1       6.856  -0.948   6.468  1.00  0.00     0.202 C 
BRANCH  34  35
ATOM     35  C   UNL     1       5.433  -0.580   6.017  1.00  0.00     0.261 C 
BRANCH  35  36
ATOM     36  O   UNL     1       4.661   0.224   6.915  1.00  0.00    -0.460 OA
BRANCH  36  37
ATOM     37  C   UNL     1       4.271  -0.345   8.076  1.00  0.00     0.338 C 
ATOM     38  O   UNL     1       4.501  -1.488   8.438  1.00  0.00    -0.246 OA
BRANCH  37  39
ATOM     39  C   UNL     1       3.684   0.713   8.928  1.00  0.00     0.060 A 
ATOM     40  C   UNL     1       4.307   1.014  10.146  1.00  0.00     0.016 A 
ATOM     41  C   UNL     1       2.555   1.427   8.516  1.00  0.00     0.016 A 
ATOM     42  C   UNL     1       3.787   2.013  10.969  1.00  0.00     0.010 A 
ATOM     43  C   UNL     1       2.018   2.408   9.356  1.00  0.00     0.010 A 
ATOM     44  C   UNL     1       2.614   2.684  10.599  1.00  0.00    -0.014 A 
BRANCH  44  45
ATOM     45  C   UNL     1       1.908   3.524  11.597  1.00  0.00     0.031 A 
ATOM     46  C   UNL     1       0.795   2.896  12.391  1.00  0.00     0.074 A 
ATOM     47  C   UNL     1       2.243   4.810  11.800  1.00  0.00     0.049 A 
ATOM     48  N   UNL     1       0.018   3.428  13.297  1.00  0.00    -0.248 NA
ATOM     49  C   UNL     1       0.525   1.472  12.127  1.00  0.00     0.031 C 
ATOM     50  C   UNL     1       3.310   5.527  11.104  1.00  0.00     0.029 A 
ATOM     51  N   UNL     1       1.696   5.750  12.638  1.00  0.00    -0.354 N 
ATOM     52  C   UNL     1      -0.850   2.417  13.690  1.00  0.00     0.074 A 
ATOM     53  C   UNL     1      -0.509   1.241  12.921  1.00  0.00     0.031 C 
ATOM     54  C   UNL     1       3.318   6.806  11.521  1.00  0.00     0.029 A 
ATOM     55  C   UNL     1       2.241   7.004  12.490  1.00  0.00     0.049 A 
ATOM     56  H   UNL     1       0.981   5.546  13.284  1.00  0.00     0.167 HD
ATOM     57  C   UNL     1      -1.838   2.460  14.613  1.00  0.00     0.034 A 
ATOM     58  C   UNL     1       1.890   8.178  13.052  1.00  0.00     0.034 A 
ATOM     59  C   UNL     1      -2.175   3.630  15.377  1.00  0.00     0.049 A 
ATOM     60  C   UNL     1       0.755   8.210  14.046  1.00  0.00     0.074 A 
ATOM     61  C   UNL     1      -3.131   3.764  16.366  1.00  0.00     0.029 A 
ATOM     62  N   UNL     1      -1.583   4.873  15.219  1.00  0.00    -0.354 N 
ATOM     63  N   UNL     1       0.021   7.221  14.495  1.00  0.00    -0.248 NA
ATOM     64  C   UNL     1       0.420   9.517  14.633  1.00  0.00     0.031 C 
ATOM     65  C   UNL     1      -3.146   5.100  16.779  1.00  0.00     0.029 A 
ATOM     66  C   UNL     1      -2.167   5.787  16.079  1.00  0.00     0.049 A 
ATOM     67  H   UNL     1      -0.855   5.077  14.588  1.00  0.00     0.167 HD
ATOM     68  C   UNL     1      -0.834   7.777  15.443  1.00  0.00     0.074 A 
ATOM     69  C   UNL     1      -0.513   9.187  15.516  1.00  0.00     0.031 C 
ATOM     70  C   UNL     1      -1.803   7.177  16.178  1.00  0.00     0.034 A 
BRANCH  57  71
ATOM     71  C   UNL     1      -2.626   1.199  14.851  1.00  0.00     0.023 A 
ATOM     72  C   UNL     1      -2.027   0.111  15.517  1.00  0.00     0.012 A 
ATOM     73  C   UNL     1      -3.975   1.110  14.455  1.00  0.00     0.148 A 
ATOM     74  C   UNL     1      -2.747  -1.059  15.755  1.00  0.00     0.002 A 
ATOM     75  C   UNL     1      -4.700  -0.040  14.738  1.00  0.00     0.091 A 
ATOM     76  F   UNL     1      -4.519   2.147  13.801  1.00  0.00    -0.205 F 
ATOM     77  C   UNL     1      -4.085  -1.130  15.375  1.00  0.00     0.022 A 
BRANCH  75  78
ATOM     78  S   UNL     1      -6.448  -0.201  14.361  1.00  0.00     0.127 S 
ATOM     79  O   UNL     1      -6.430  -1.206  13.299  1.00  0.00    -0.237 OA
ATOM     80  O   UNL     1      -6.994  -0.669  15.635  1.00  0.00    -0.237 OA
ATOM     81  O   UNL     1      -6.897   1.124  13.957  1.00  0.00    -0.744 OA
ENDBRANCH  75  78
ENDBRANCH  57  71
BRANCH  58  82
ATOM     82  C   UNL     1       2.627   9.427  12.703  1.00  0.00     0.023 A 
ATOM     83  C   UNL     1       3.420  10.066  13.676  1.00  0.00     0.012 A 
ATOM     84  C   UNL     1       2.542   9.986  11.413  1.00  0.00     0.148 A 
ATOM     85  C   UNL     1       4.088  11.256  13.381  1.00  0.00     0.002 A 
ATOM     86  C   UNL     1       3.254  11.141  11.109  1.00  0.00     0.091 A 
ATOM     87  F   UNL     1       1.767   9.374  10.506  1.00  0.00    -0.205 F 
ATOM     88  C   UNL     1       4.013  11.787  12.097  1.00  0.00     0.022 A 
BRANCH  86  89
ATOM     89  S   UNL     1       3.313  11.832   9.453  1.00  0.00     0.127 S 
ATOM     90  O   UNL     1       2.597  13.093   9.630  1.00  0.00    -0.237 OA
ATOM     91  O   UNL     1       4.754  11.966   9.238  1.00  0.00    -0.237 OA
ATOM     92  O   UNL     1       2.663  10.853   8.593  1.00  0.00    -0.744 OA
ENDBRANCH  86  89
ENDBRANCH  58  82
BRANCH  70  93
ATOM     93  C   UNL     1      -2.563   8.024  17.168  1.00  0.00     0.023 A 
ATOM     94  C   UNL     1      -3.497   8.976  16.714  1.00  0.00     0.012 A 
ATOM     95  C   UNL     1      -2.412   7.811  18.553  1.00  0.00     0.148 A 
ATOM     96  C   UNL     1      -4.243   9.726  17.623  1.00  0.00     0.002 A 
ATOM     97  C   UNL     1      -3.197   8.523  19.451  1.00  0.00     0.091 A 
ATOM     98  F   UNL     1      -1.508   6.910  18.966  1.00  0.00    -0.205 F 
ATOM     99  C   UNL     1      -4.103   9.491  18.989  1.00  0.00     0.022 A 
BRANCH  97 100
ATOM    100  S   UNL     1      -3.159   8.217  21.221  1.00  0.00     0.127 S 
ATOM    101  O   UNL     1      -2.530   9.438  21.721  1.00  0.00    -0.237 OA
ATOM    102  O   UNL     1      -4.581   8.087  21.543  1.00  0.00    -0.237 OA
ATOM    103  O   UNL     1      -2.383   6.998  21.404  1.00  0.00    -0.744 OA
ENDBRANCH  97 100
ENDBRANCH  70  93
ENDBRANCH  44  45
ENDBRANCH  37  39
ENDBRANCH  36  37
ENDBRANCH  35  36
ENDBRANCH  34  35
ENDBRANCH  33  34
ENDBRANCH  32  33
ENDBRANCH  31  32
ENDBRANCH  30  31
ENDBRANCH  29  30
ENDBRANCH   1  29
TORSDOF 29
