REMARK SMILES O=C(OCCOCCOCCOCCOC(=O)c1ccc(NC(=O)[C@@H]2COCCO2)cc1O)c1ccc(-c2c3nc(c(-c4cccc(S(=O)(=O)[O-])c4F)c4ccc([nH]4)c(-c4cccc(S(=O)(=O)[O-])c4F)c4nc(c(-c5cccc(S(=O)(=O)[O-])c5F)c5ccc2[nH]5)C=C4)C=C3)cc1
REMARK SMILES IDX 8 1 7 2 6 3 5 4 4 5 3 6 2 7 1 8 34 9 35 10 96 11 36 12 95 13
REMARK SMILES IDX 37 14 38 15 39 16 89 17 40 18 94 19 88 20 90 21 41 22 93 23
REMARK SMILES IDX 87 24 86 25 42 27 74 28 54 29 73 30 55 31 58 32 72 33 91 34
REMARK SMILES IDX 56 35 57 36 71 38 92 39 59 40 43 41 44 42 52 43 45 44 47 45
REMARK SMILES IDX 53 46 46 47 48 48 49 49 50 50 51 51 75 52 76 53 84 54 77 55
REMARK SMILES IDX 79 56 85 57 78 58 80 59 81 60 82 61 83 62 60 63 61 64 69 65
REMARK SMILES IDX 62 66 64 67 70 68 63 69 65 70 66 71 67 72 68 73 9 74 10 75
REMARK SMILES IDX 11 76 12 77 13 78 14 79 15 80 16 81 17 82 18 83 19 84 32 85
REMARK SMILES IDX 20 86 31 87 21 88 33 89 22 91 23 92 24 94 25 95 26 96 30 97
REMARK SMILES IDX 27 98 29 99 28 100
REMARK H PARENT 90 26 58 37 33 90 22 93
REMARK Flexibility Score: inf
ROOT
ATOM      1  C   UNL     1       1.759   0.626  -2.571  1.00  0.00     0.188 C 
ENDROOT
BRANCH   1   2
ATOM      2  C   UNL     1       2.299  -0.312  -1.499  1.00  0.00     0.188 C 
BRANCH   2   3
ATOM      3  O   UNL     1       3.657  -0.017  -1.186  1.00  0.00    -0.376 OA
BRANCH   3   4
ATOM      4  C   UNL     1       4.465  -1.089  -0.712  1.00  0.00     0.202 C 
BRANCH   4   5
ATOM      5  C   UNL     1       4.027  -1.772   0.592  1.00  0.00     0.261 C 
BRANCH   5   6
ATOM      6  O   UNL     1       2.644  -1.590   0.939  1.00  0.00    -0.460 OA
BRANCH   6   7
ATOM      7  C   UNL     1       2.085  -0.649   1.743  1.00  0.00     0.338 C 
ATOM      8  O   UNL     1       0.906  -0.783   2.066  1.00  0.00    -0.246 OA
BRANCH   7   9
ATOM      9  C   UNL     1       2.823   0.545   2.250  1.00  0.00     0.060 A 
ATOM     10  C   UNL     1       3.892   1.157   1.599  1.00  0.00     0.016 A 
ATOM     11  C   UNL     1       2.362   1.133   3.437  1.00  0.00     0.016 A 
ATOM     12  C   UNL     1       4.606   2.194   2.177  1.00  0.00     0.010 A 
ATOM     13  C   UNL     1       3.035   2.222   4.002  1.00  0.00     0.010 A 
ATOM     14  C   UNL     1       4.211   2.699   3.409  1.00  0.00    -0.014 A 
BRANCH  14  15
ATOM     15  C   UNL     1       5.179   3.525   4.156  1.00  0.00     0.031 A 
ATOM     16  C   UNL     1       5.844   2.896   5.348  1.00  0.00     0.074 A 
ATOM     17  C   UNL     1       5.554   4.733   3.698  1.00  0.00     0.049 A 
ATOM     18  N   UNL     1       6.672   3.418   6.208  1.00  0.00    -0.248 NA
ATOM     19  C   UNL     1       5.531   1.476   5.607  1.00  0.00     0.031 C 
ATOM     20  C   UNL     1       5.050   5.371   2.479  1.00  0.00     0.029 A 
ATOM     21  N   UNL     1       6.466   5.628   4.189  1.00  0.00    -0.354 N 
ATOM     22  C   UNL     1       6.903   2.426   7.154  1.00  0.00     0.074 A 
ATOM     23  C   UNL     1       6.149   1.262   6.755  1.00  0.00     0.031 C 
ATOM     24  C   UNL     1       5.676   6.546   2.308  1.00  0.00     0.029 A 
ATOM     25  C   UNL     1       6.571   6.775   3.437  1.00  0.00     0.049 A 
ATOM     26  H   UNL     1       6.996   5.467   5.003  1.00  0.00     0.167 HD
ATOM     27  C   UNL     1       7.676   2.486   8.260  1.00  0.00     0.034 A 
ATOM     28  C   UNL     1       7.291   7.890   3.663  1.00  0.00     0.034 A 
ATOM     29  C   UNL     1       8.462   3.637   8.598  1.00  0.00     0.049 A 
ATOM     30  C   UNL     1       8.141   7.936   4.906  1.00  0.00     0.074 A 
ATOM     31  C   UNL     1       9.262   3.844   9.704  1.00  0.00     0.029 A 
ATOM     32  N   UNL     1       8.549   4.777   7.812  1.00  0.00    -0.354 N 
ATOM     33  N   UNL     1       8.337   7.000   5.806  1.00  0.00    -0.248 NA
ATOM     34  C   UNL     1       8.876   9.181   5.163  1.00  0.00     0.031 C 
ATOM     35  C   UNL     1       9.825   5.121   9.591  1.00  0.00     0.029 A 
ATOM     36  C   UNL     1       9.394   5.694   8.402  1.00  0.00     0.049 A 
ATOM     37  H   UNL     1       8.077   4.912   6.958  1.00  0.00     0.167 HD
ATOM     38  C   UNL     1       9.238   7.531   6.721  1.00  0.00     0.074 A 
ATOM     39  C   UNL     1       9.566   8.863   6.250  1.00  0.00     0.031 C 
ATOM     40  C   UNL     1       9.736   6.984   7.858  1.00  0.00     0.034 A 
BRANCH  27  41
ATOM     41  C   UNL     1       7.661   1.292   9.174  1.00  0.00     0.023 A 
ATOM     42  C   UNL     1       8.318   0.101   8.805  1.00  0.00     0.012 A 
ATOM     43  C   UNL     1       6.953   1.343  10.391  1.00  0.00     0.148 A 
ATOM     44  C   UNL     1       8.234  -1.034   9.612  1.00  0.00     0.002 A 
ATOM     45  C   UNL     1       6.909   0.221  11.210  1.00  0.00     0.091 A 
ATOM     46  F   UNL     1       6.307   2.474  10.707  1.00  0.00    -0.205 F 
ATOM     47  C   UNL     1       7.536  -0.972  10.816  1.00  0.00     0.022 A 
BRANCH  45  48
ATOM     48  S   UNL     1       6.082   0.219  12.803  1.00  0.00     0.127 S 
ATOM     49  O   UNL     1       4.926  -0.636  12.535  1.00  0.00    -0.237 OA
ATOM     50  O   UNL     1       7.095  -0.379  13.673  1.00  0.00    -0.237 OA
ATOM     51  O   UNL     1       5.774   1.612  13.098  1.00  0.00    -0.744 OA
ENDBRANCH  45  48
ENDBRANCH  27  41
BRANCH  28  52
ATOM     52  C   UNL     1       7.249   9.030   2.700  1.00  0.00     0.023 A 
ATOM     53  C   UNL     1       8.410   9.382   1.983  1.00  0.00     0.012 A 
ATOM     54  C   UNL     1       6.062   9.754   2.469  1.00  0.00     0.148 A 
ATOM     55  C   UNL     1       8.396  10.445   1.077  1.00  0.00     0.002 A 
ATOM     56  C   UNL     1       6.039  10.773   1.523  1.00  0.00     0.091 A 
ATOM     57  F   UNL     1       4.971   9.429   3.177  1.00  0.00    -0.205 F 
ATOM     58  C   UNL     1       7.208  11.132   0.838  1.00  0.00     0.022 A 
BRANCH  56  59
ATOM     59  S   UNL     1       4.520  11.615   1.060  1.00  0.00     0.127 S 
ATOM     60  O   UNL     1       4.681  12.907   1.720  1.00  0.00    -0.237 OA
ATOM     61  O   UNL     1       4.623  11.651  -0.400  1.00  0.00    -0.237 OA
ATOM     62  O   UNL     1       3.442  10.773   1.561  1.00  0.00    -0.744 OA
ENDBRANCH  56  59
ENDBRANCH  28  52
BRANCH  40  63
ATOM     63  C   UNL     1      10.721   7.805   8.640  1.00  0.00     0.023 A 
ATOM     64  C   UNL     1      10.271   8.893   9.412  1.00  0.00     0.012 A 
ATOM     65  C   UNL     1      12.078   7.433   8.680  1.00  0.00     0.148 A 
ATOM     66  C   UNL     1      11.167   9.618  10.194  1.00  0.00     0.002 A 
ATOM     67  C   UNL     1      12.954   8.128   9.501  1.00  0.00     0.091 A 
ATOM     68  F   UNL     1      12.485   6.407   7.917  1.00  0.00    -0.205 F 
ATOM     69  C   UNL     1      12.504   9.227  10.250  1.00  0.00     0.022 A 
BRANCH  67  70
ATOM     70  S   UNL     1      14.662   7.616   9.710  1.00  0.00     0.127 S 
ATOM     71  O   UNL     1      15.367   8.569   8.854  1.00  0.00    -0.237 OA
ATOM     72  O   UNL     1      14.875   7.809  11.145  1.00  0.00    -0.237 OA
ATOM     73  O   UNL     1      14.713   6.224   9.280  1.00  0.00    -0.744 OA
ENDBRANCH  67  70
ENDBRANCH  40  63
ENDBRANCH  14  15
ENDBRANCH   7   9
ENDBRANCH   6   7
ENDBRANCH   5   6
ENDBRANCH   4   5
ENDBRANCH   3   4
ENDBRANCH   2   3
ENDBRANCH   1   2
BRANCH   1  74
ATOM     74  O   UNL     1       2.357   0.464  -3.849  1.00  0.00    -0.377 OA
BRANCH  74  75
ATOM     75  C   UNL     1       3.777   0.548  -3.897  1.00  0.00     0.188 C 
BRANCH  75  76
ATOM     76  C   UNL     1       4.485   1.785  -3.296  1.00  0.00     0.188 C 
BRANCH  76  77
ATOM     77  O   UNL     1       3.616   2.839  -2.911  1.00  0.00    -0.376 OA
BRANCH  77  78
ATOM     78  C   UNL     1       3.713   4.020  -3.703  1.00  0.00     0.202 C 
BRANCH  78  79
ATOM     79  C   UNL     1       3.010   3.902  -5.061  1.00  0.00     0.261 C 
BRANCH  79  80
ATOM     80  O   UNL     1       3.500   2.832  -5.882  1.00  0.00    -0.460 OA
BRANCH  80  81
ATOM     81  C   UNL     1       4.670   3.029  -6.558  1.00  0.00     0.341 C 
ATOM     82  O   UNL     1       5.340   4.028  -6.581  1.00  0.00    -0.246 OA
BRANCH  81  83
ATOM     83  C   UNL     1       5.124   1.691  -6.998  1.00  0.00     0.101 A 
ATOM     84  C   UNL     1       6.183   1.126  -6.285  1.00  0.00     0.022 A 
ATOM     85  C   UNL     1       4.446   0.912  -7.931  1.00  0.00     0.132 A 
ATOM     86  C   UNL     1       6.499  -0.228  -6.439  1.00  0.00     0.027 A 
ATOM     87  C   UNL     1       4.844  -0.416  -8.163  1.00  0.00     0.073 A 
ATOM     88  C   UNL     1       5.885  -1.004  -7.418  1.00  0.00     0.044 A 
BRANCH  85  89
ATOM     89  O   UNL     1       3.399   1.443  -8.629  1.00  0.00    -0.507 OA
ATOM     90  H   UNL     1       3.134   2.329  -8.474  1.00  0.00     0.293 HD
ENDBRANCH  85  89
BRANCH  88  91
ATOM     91  N   UNL     1       6.255  -2.320  -7.772  1.00  0.00    -0.324 N 
ATOM     92  C   UNL     1       7.196  -3.222  -7.340  1.00  0.00     0.255 C 
ATOM     93  H   UNL     1       5.706  -2.676  -8.507  1.00  0.00     0.170 HD
ATOM     94  O   UNL     1       7.309  -4.255  -8.011  1.00  0.00    -0.272 OA
BRANCH  92  95
ATOM     95  C   UNL     1       8.021  -3.005  -6.068  1.00  0.00     0.233 C 
ATOM     96  C   UNL     1       9.177  -2.035  -6.305  1.00  0.00     0.202 C 
ATOM     97  O   UNL     1       8.614  -4.198  -5.521  1.00  0.00    -0.364 OA
ATOM     98  O   UNL     1       9.632  -1.591  -5.013  1.00  0.00    -0.376 OA
ATOM     99  C   UNL     1       9.209  -3.906  -4.243  1.00  0.00     0.189 C 
ATOM    100  C   UNL     1      10.170  -2.707  -4.287  1.00  0.00     0.188 C 
ENDBRANCH  92  95
ENDBRANCH  88  91
ENDBRANCH  81  83
ENDBRANCH  80  81
ENDBRANCH  79  80
ENDBRANCH  78  79
ENDBRANCH  77  78
ENDBRANCH  76  77
ENDBRANCH  75  76
ENDBRANCH  74  75
ENDBRANCH   1  74
TORSDOF 26
