REMARK SMILES COc1ccc(C)cc1[C@@H](C)NC(=O)CC1(C(=O)OCCOCCOCCOCCOC(=O)c2ccc(-c3c4nc(c(-c5cccc(S(=O)(=O)[O-])c5F)c5ccc([nH]5)c(-c5cccc(S(=O)(=O)[O-])c5F)c5nc(c(-c6cccc(S(=O)(=O)[O-])c6F)c6ccc3[nH]6)C=C5)C=C4)cc2)CCCC1
REMARK SMILES IDX 24 1 23 2 22 3 21 4 20 5 19 6 17 7 18 8 16 9 97 10 100 11
REMARK SMILES IDX 98 12 99 13 15 14 13 15 12 16 14 18 10 19 11 20 9 21 3 22
REMARK SMILES IDX 4 23 5 24 8 25 6 26 7 27 2 28 1 29 25 30 26 31 27 32 28 33
REMARK SMILES IDX 29 34 30 35 31 36 32 37 33 38 34 39 35 40 96 41 36 42 95 43
REMARK SMILES IDX 37 44 38 45 39 46 89 47 40 48 94 49 88 50 90 51 41 52 93 53
REMARK SMILES IDX 87 54 86 55 42 57 74 58 54 59 73 60 55 61 58 62 72 63 91 64
REMARK SMILES IDX 56 65 57 66 71 68 92 69 59 70 43 71 44 72 52 73 45 74 47 75
REMARK SMILES IDX 53 76 46 77 48 78 49 79 50 80 51 81 75 82 76 83 84 84 77 85
REMARK SMILES IDX 79 86 85 87 78 88 80 89 81 90 82 91 83 92 60 93 61 94 69 95
REMARK SMILES IDX 62 96 64 97 70 98 63 99 65 100 66 101 67 102 68 103
REMARK H PARENT 12 17 90 56 58 67
REMARK Flexibility Score: inf
ROOT
ATOM      1  C   UNL     1      -2.386   1.171  -0.963  1.00  0.00     0.188 C 
ENDROOT
BRANCH   1   2
ATOM      2  C   UNL     1      -3.426   0.563  -1.867  1.00  0.00     0.188 C 
BRANCH   2   3
ATOM      3  O   UNL     1      -4.018  -0.602  -1.365  1.00  0.00    -0.376 OA
BRANCH   3   4
ATOM      4  C   UNL     1      -3.127  -1.418  -0.650  1.00  0.00     0.202 C 
BRANCH   4   5
ATOM      5  C   UNL     1      -2.641  -2.647  -1.364  1.00  0.00     0.261 C 
BRANCH   5   6
ATOM      6  O   UNL     1      -1.828  -2.384  -2.501  1.00  0.00    -0.463 OA
BRANCH   6   7
ATOM      7  C   UNL     1      -2.506  -2.353  -3.645  1.00  0.00     0.312 C 
ATOM      8  O   UNL     1      -3.666  -2.721  -3.797  1.00  0.00    -0.252 OA
BRANCH   7   9
ATOM      9  C   UNL     1      -1.678  -1.760  -4.773  1.00  0.00     0.077 C 
ATOM     10  C   UNL     1      -1.147  -2.995  -5.524  1.00  0.00     0.019 C 
ATOM     11  C   UNL     1      -0.396  -1.008  -4.421  1.00  0.00     0.019 C 
ATOM     12  C   UNL     1       0.292  -3.215  -5.018  1.00  0.00     0.001 C 
ATOM     13  C   UNL     1       0.828  -1.839  -4.734  1.00  0.00     0.001 C 
BRANCH   9  14
ATOM     14  C   UNL     1      -2.743  -0.817  -5.395  1.00  0.00     0.118 C 
BRANCH  14  15
ATOM     15  C   UNL     1      -2.358   0.441  -6.155  1.00  0.00     0.221 C 
ATOM     16  N   UNL     1      -1.765   1.540  -5.600  1.00  0.00    -0.349 N 
ATOM     17  H   UNL     1      -1.422   2.172  -6.272  1.00  0.00     0.164 HD
ATOM     18  O   UNL     1      -2.638   0.515  -7.358  1.00  0.00    -0.275 OA
BRANCH  16  19
ATOM     19  C   UNL     1      -1.525   1.991  -4.203  1.00  0.00     0.113 C 
ATOM     20  C   UNL     1      -2.728   2.928  -3.905  1.00  0.00     0.036 C 
BRANCH  19  21
ATOM     21  C   UNL     1      -0.089   2.538  -4.009  1.00  0.00     0.016 A 
ATOM     22  C   UNL     1       0.963   1.826  -3.367  1.00  0.00     0.124 A 
ATOM     23  C   UNL     1       2.309   2.171  -3.535  1.00  0.00     0.047 A 
ATOM     24  C   UNL     1       2.612   3.453  -3.919  1.00  0.00     0.007 A 
ATOM     25  C   UNL     1       0.261   3.821  -4.442  1.00  0.00     0.013 A 
ATOM     26  C   UNL     1       1.576   4.313  -4.278  1.00  0.00    -0.051 A 
ATOM     27  C   UNL     1       1.872   5.772  -4.409  1.00  0.00     0.044 C 
BRANCH  22  28
ATOM     28  O   UNL     1       0.694   0.909  -2.373  1.00  0.00    -0.496 OA
ATOM     29  C   UNL     1       1.536   1.100  -1.209  1.00  0.00     0.278 C 
ENDBRANCH  22  28
ENDBRANCH  19  21
ENDBRANCH  16  19
ENDBRANCH  14  15
ENDBRANCH   9  14
ENDBRANCH   7   9
ENDBRANCH   6   7
ENDBRANCH   5   6
ENDBRANCH   4   5
ENDBRANCH   3   4
ENDBRANCH   2   3
ENDBRANCH   1   2
BRANCH   1  30
ATOM     30  O   UNL     1      -1.777   2.325  -1.446  1.00  0.00    -0.377 OA
BRANCH  30  31
ATOM     31  C   UNL     1      -1.069   2.918  -0.389  1.00  0.00     0.188 C 
BRANCH  31  32
ATOM     32  C   UNL     1      -1.998   4.029   0.162  1.00  0.00     0.188 C 
BRANCH  32  33
ATOM     33  O   UNL     1      -2.126   5.137  -0.713  1.00  0.00    -0.376 OA
BRANCH  33  34
ATOM     34  C   UNL     1      -0.872   5.363  -1.323  1.00  0.00     0.202 C 
BRANCH  34  35
ATOM     35  C   UNL     1       0.364   5.487  -0.319  1.00  0.00     0.261 C 
BRANCH  35  36
ATOM     36  O   UNL     1       0.616   4.499   0.913  1.00  0.00    -0.460 OA
BRANCH  36  37
ATOM     37  C   UNL     1       0.608   4.161   2.281  1.00  0.00     0.338 C 
ATOM     38  O   UNL     1       1.514   4.504   2.986  1.00  0.00    -0.246 OA
BRANCH  37  39
ATOM     39  C   UNL     1      -0.142   2.843   2.771  1.00  0.00     0.060 A 
ATOM     40  C   UNL     1       0.448   1.944   3.664  1.00  0.00     0.016 A 
ATOM     41  C   UNL     1      -1.415   2.421   2.481  1.00  0.00     0.016 A 
ATOM     42  C   UNL     1       0.090   0.557   3.661  1.00  0.00     0.010 A 
ATOM     43  C   UNL     1      -1.633   1.054   2.260  1.00  0.00     0.010 A 
ATOM     44  C   UNL     1      -0.727   0.086   2.663  1.00  0.00    -0.014 A 
BRANCH  44  45
ATOM     45  C   UNL     1      -0.825  -1.290   2.042  1.00  0.00     0.031 A 
ATOM     46  C   UNL     1      -2.246  -1.955   2.216  1.00  0.00     0.074 A 
ATOM     47  C   UNL     1       0.064  -1.464   0.989  1.00  0.00     0.049 A 
ATOM     48  N   UNL     1      -2.725  -3.059   1.717  1.00  0.00    -0.248 NA
ATOM     49  C   UNL     1      -3.297  -1.292   3.022  1.00  0.00     0.031 C 
ATOM     50  C   UNL     1      -0.124  -1.806  -0.416  1.00  0.00     0.029 A 
ATOM     51  N   UNL     1       1.460  -1.494   1.005  1.00  0.00    -0.354 N 
ATOM     52  C   UNL     1      -4.159  -3.055   1.830  1.00  0.00     0.074 A 
ATOM     53  C   UNL     1      -4.428  -1.924   2.680  1.00  0.00     0.031 C 
ATOM     54  C   UNL     1       0.925  -2.374  -1.007  1.00  0.00     0.029 A 
ATOM     55  C   UNL     1       1.961  -2.294  -0.049  1.00  0.00     0.049 A 
ATOM     56  H   UNL     1       2.021  -1.023   1.663  1.00  0.00     0.167 HD
ATOM     57  C   UNL     1      -4.973  -3.846   1.024  1.00  0.00     0.034 A 
ATOM     58  C   UNL     1       2.850  -3.298   0.072  1.00  0.00     0.034 A 
ATOM     59  C   UNL     1      -4.140  -4.770   0.193  1.00  0.00     0.049 A 
ATOM     60  C   UNL     1       2.058  -4.631   0.139  1.00  0.00     0.074 A 
ATOM     61  C   UNL     1      -4.079  -5.171  -1.142  1.00  0.00     0.029 A 
ATOM     62  N   UNL     1      -2.999  -5.324   0.764  1.00  0.00    -0.354 N 
ATOM     63  N   UNL     1       0.731  -4.723   0.133  1.00  0.00    -0.248 NA
ATOM     64  C   UNL     1       2.669  -5.958   0.051  1.00  0.00     0.031 C 
ATOM     65  C   UNL     1      -2.779  -5.714  -1.395  1.00  0.00     0.029 A 
ATOM     66  C   UNL     1      -2.105  -5.778  -0.186  1.00  0.00     0.049 A 
ATOM     67  H   UNL     1      -2.846  -5.386   1.735  1.00  0.00     0.167 HD
ATOM     68  C   UNL     1       0.328  -6.041   0.141  1.00  0.00     0.074 A 
ATOM     69  C   UNL     1       1.588  -6.760   0.022  1.00  0.00     0.031 C 
ATOM     70  C   UNL     1      -0.954  -6.536   0.246  1.00  0.00     0.034 A 
BRANCH  57  71
ATOM     71  C   UNL     1      -6.551  -3.761   0.764  1.00  0.00     0.023 A 
ATOM     72  C   UNL     1      -7.059  -4.534  -0.321  1.00  0.00     0.012 A 
ATOM     73  C   UNL     1      -7.578  -3.064   1.467  1.00  0.00     0.148 A 
ATOM     74  C   UNL     1      -8.404  -4.623  -0.715  1.00  0.00     0.002 A 
ATOM     75  C   UNL     1      -8.955  -3.186   1.101  1.00  0.00     0.091 A 
ATOM     76  F   UNL     1      -7.263  -2.297   2.514  1.00  0.00    -0.205 F 
ATOM     77  C   UNL     1      -9.361  -3.960   0.010  1.00  0.00     0.022 A 
BRANCH  75  78
ATOM     78  S   UNL     1     -10.341  -2.421   1.987  1.00  0.00     0.127 S 
ATOM     79  O   UNL     1     -11.085  -1.764   0.909  1.00  0.00    -0.237 OA
ATOM     80  O   UNL     1     -11.027  -3.581   2.558  1.00  0.00    -0.237 OA
ATOM     81  O   UNL     1      -9.750  -1.506   2.953  1.00  0.00    -0.744 OA
ENDBRANCH  75  78
ENDBRANCH  57  71
BRANCH  58  82
ATOM     82  C   UNL     1       4.146  -2.665   0.547  1.00  0.00     0.023 A 
ATOM     83  C   UNL     1       4.768  -1.812  -0.439  1.00  0.00     0.012 A 
ATOM     84  C   UNL     1       4.145  -2.192   1.868  1.00  0.00     0.148 A 
ATOM     85  C   UNL     1       5.101  -0.467  -0.174  1.00  0.00     0.002 A 
ATOM     86  C   UNL     1       4.360  -0.820   2.088  1.00  0.00     0.091 A 
ATOM     87  F   UNL     1       3.610  -2.983   2.807  1.00  0.00    -0.205 F 
ATOM     88  C   UNL     1       4.840   0.043   1.081  1.00  0.00     0.022 A 
BRANCH  86  89
ATOM     89  S   UNL     1       3.280   0.039   3.243  1.00  0.00     0.127 S 
ATOM     90  O   UNL     1       4.190   0.812   4.075  1.00  0.00    -0.237 OA
ATOM     91  O   UNL     1       2.519   0.812   2.254  1.00  0.00    -0.237 OA
ATOM     92  O   UNL     1       2.550  -1.012   3.933  1.00  0.00    -0.744 OA
ENDBRANCH  86  89
ENDBRANCH  58  82
BRANCH  70  93
ATOM     93  C   UNL     1      -1.308  -7.889   0.869  1.00  0.00     0.023 A 
ATOM     94  C   UNL     1      -0.359  -8.600   1.612  1.00  0.00     0.012 A 
ATOM     95  C   UNL     1      -2.658  -8.365   0.943  1.00  0.00     0.148 A 
ATOM     96  C   UNL     1      -0.691  -9.760   2.309  1.00  0.00     0.002 A 
ATOM     97  C   UNL     1      -3.007  -9.419   1.771  1.00  0.00     0.091 A 
ATOM     98  F   UNL     1      -3.630  -7.817   0.203  1.00  0.00    -0.205 F 
ATOM     99  C   UNL     1      -2.017 -10.153   2.414  1.00  0.00     0.022 A 
BRANCH  97 100
ATOM    100  S   UNL     1      -4.722  -9.786   2.182  1.00  0.00     0.127 S 
ATOM    101  O   UNL     1      -4.958 -10.997   1.398  1.00  0.00    -0.237 OA
ATOM    102  O   UNL     1      -4.643 -10.001   3.628  1.00  0.00    -0.237 OA
ATOM    103  O   UNL     1      -5.492  -8.615   1.792  1.00  0.00    -0.744 OA
ENDBRANCH  97 100
ENDBRANCH  70  93
ENDBRANCH  44  45
ENDBRANCH  37  39
ENDBRANCH  36  37
ENDBRANCH  35  36
ENDBRANCH  34  35
ENDBRANCH  33  34
ENDBRANCH  32  33
ENDBRANCH  31  32
ENDBRANCH  30  31
ENDBRANCH   1  30
TORSDOF 28
