REMARK SMILES C[C@@H](Nc1ncnc2c1CCCCC2)C(=O)OCCOCCOCCOCCOC(=O)c1ccc(-c2c3nc(c(-c4cccc(S(=O)(=O)[O-])c4F)c4ccc([nH]4)c(-c4cccc(S(=O)(=O)[O-])c4F)c4nc(c(-c5cccc(S(=O)(=O)[O-])c5F)c5ccc2[nH]5)C=C4)C=C3)cc1
REMARK SMILES IDX 22 1 21 2 20 3 19 4 18 5 17 6 15 7 16 8 2 9 1 10 3 11 4 13
REMARK SMILES IDX 5 14 9 15 6 16 8 17 7 18 10 19 11 20 12 21 14 23 13 24 23 26
REMARK SMILES IDX 24 27 25 28 26 29 27 30 28 31 29 32 30 33 31 34 32 35 33 36
REMARK SMILES IDX 94 37 34 38 93 39 35 40 36 41 37 42 87 43 38 44 92 45 86 46
REMARK SMILES IDX 88 47 39 48 91 49 85 50 84 51 40 53 72 54 52 55 71 56 53 57
REMARK SMILES IDX 56 58 70 59 89 60 54 61 55 62 69 64 90 65 57 66 41 67 42 68
REMARK SMILES IDX 50 69 43 70 45 71 51 72 44 73 46 74 47 75 48 76 49 77 73 78
REMARK SMILES IDX 74 79 82 80 75 81 77 82 83 83 76 84 78 85 79 86 80 87 81 88
REMARK SMILES IDX 58 89 59 90 67 91 60 92 62 93 68 94 61 95 63 96 64 97 65 98
REMARK SMILES IDX 66 99
REMARK H PARENT 3 12 88 52 56 63
REMARK Flexibility Score: 90.00
ROOT
ATOM      1  C   UNL     1      -1.363  -1.141  -1.466  1.00  0.00     0.188 C 
ENDROOT
BRANCH   1   2
ATOM      2  C   UNL     1      -2.368  -2.082  -0.779  1.00  0.00     0.188 C 
BRANCH   2   3
ATOM      3  O   UNL     1      -3.564  -1.457  -0.378  1.00  0.00    -0.376 OA
BRANCH   3   4
ATOM      4  C   UNL     1      -3.732  -0.892   0.896  1.00  0.00     0.202 C 
BRANCH   4   5
ATOM      5  C   UNL     1      -2.709  -0.036   1.657  1.00  0.00     0.261 C 
BRANCH   5   6
ATOM      6  O   UNL     1      -1.355   0.138   1.243  1.00  0.00    -0.462 OA
BRANCH   6   7
ATOM      7  C   UNL     1      -0.489  -0.867   1.507  1.00  0.00     0.328 C 
ATOM      8  O   UNL     1      -0.808  -2.047   1.601  1.00  0.00    -0.250 OA
BRANCH   7   9
ATOM      9  C   UNL     1       0.938  -0.408   1.771  1.00  0.00     0.188 C 
ATOM     10  C   UNL     1       1.381   0.684   0.800  1.00  0.00     0.043 C 
BRANCH   9  11
ATOM     11  N   UNL     1       1.227  -0.046   3.183  1.00  0.00    -0.357 N 
ATOM     12  H   UNL     1       2.161  -0.025   3.493  1.00  0.00     0.162 HD
BRANCH  11  13
ATOM     13  C   UNL     1       0.210   0.262   4.072  1.00  0.00     0.133 A 
ATOM     14  N   UNL     1       0.191   1.569   4.367  1.00  0.00    -0.219 NA
ATOM     15  C   UNL     1      -0.731  -0.641   4.579  1.00  0.00     0.016 A 
ATOM     16  C   UNL     1      -0.844   2.013   5.083  1.00  0.00     0.224 A 
ATOM     17  C   UNL     1      -1.795  -0.060   5.267  1.00  0.00     0.049 A 
ATOM     18  N   UNL     1      -1.855   1.262   5.531  1.00  0.00    -0.241 NA
BRANCH  15  19
ATOM     19  C   UNL     1      -0.689  -2.123   4.312  1.00  0.00     0.041 C 
BRANCH  19  20
ATOM     20  C   UNL     1      -0.846  -3.078   5.489  1.00  0.00     0.005 C 
BRANCH  20  21
ATOM     21  C   UNL     1      -2.296  -3.231   5.938  1.00  0.00     0.001 CG0
ATOM     22  G   UNL     1      -2.854  -1.975   6.594  1.00  0.00     0.000 G0
ENDBRANCH  20  21
ENDBRANCH  19  20
ENDBRANCH  15  19
BRANCH  17  23
ATOM     23  C   UNL     1      -3.049  -0.822   5.618  1.00  0.00     0.057 C 
BRANCH  23  24
ATOM     24  C   UNL     1      -2.854  -1.975   6.594  1.00  0.00     0.006 CG0
ATOM     25  G   UNL     1      -2.296  -3.231   5.938  1.00  0.00     0.000 G0
ENDBRANCH  23  24
ENDBRANCH  17  23
ENDBRANCH  11  13
ENDBRANCH   9  11
ENDBRANCH   7   9
ENDBRANCH   6   7
ENDBRANCH   5   6
ENDBRANCH   4   5
ENDBRANCH   3   4
ENDBRANCH   2   3
ENDBRANCH   1   2
BRANCH   1  26
ATOM     26  O   UNL     1      -1.677   0.241  -1.541  1.00  0.00    -0.377 OA
BRANCH  26  27
ATOM     27  C   UNL     1      -2.951   0.666  -2.026  1.00  0.00     0.188 C 
BRANCH  27  28
ATOM     28  C   UNL     1      -3.863  -0.285  -2.838  1.00  0.00     0.188 C 
BRANCH  28  29
ATOM     29  O   UNL     1      -3.221  -1.435  -3.360  1.00  0.00    -0.376 OA
BRANCH  29  30
ATOM     30  C   UNL     1      -2.798  -1.427  -4.710  1.00  0.00     0.202 C 
BRANCH  30  31
ATOM     31  C   UNL     1      -1.812  -0.335  -5.144  1.00  0.00     0.261 C 
BRANCH  31  32
ATOM     32  O   UNL     1      -2.230   1.021  -4.934  1.00  0.00    -0.460 OA
BRANCH  32  33
ATOM     33  C   UNL     1      -3.382   1.426  -5.510  1.00  0.00     0.338 C 
ATOM     34  O   UNL     1      -4.100   0.781  -6.256  1.00  0.00    -0.246 OA
BRANCH  33  35
ATOM     35  C   UNL     1      -3.745   2.718  -4.892  1.00  0.00     0.060 A 
ATOM     36  C   UNL     1      -4.954   2.824  -4.190  1.00  0.00     0.016 A 
ATOM     37  C   UNL     1      -2.871   3.804  -4.969  1.00  0.00     0.016 A 
ATOM     38  C   UNL     1      -5.306   4.028  -3.586  1.00  0.00     0.010 A 
ATOM     39  C   UNL     1      -3.243   5.022  -4.400  1.00  0.00     0.010 A 
ATOM     40  C   UNL     1      -4.479   5.146  -3.741  1.00  0.00    -0.014 A 
BRANCH  40  41
ATOM     41  C   UNL     1      -5.032   6.489  -3.461  1.00  0.00     0.031 A 
ATOM     42  C   UNL     1      -5.675   7.224  -4.605  1.00  0.00     0.074 A 
ATOM     43  C   UNL     1      -4.993   7.031  -2.232  1.00  0.00     0.049 A 
ATOM     44  N   UNL     1      -6.213   8.413  -4.628  1.00  0.00    -0.248 NA
ATOM     45  C   UNL     1      -5.720   6.518  -5.899  1.00  0.00     0.031 C 
ATOM     46  C   UNL     1      -4.431   6.394  -1.044  1.00  0.00     0.029 A 
ATOM     47  N   UNL     1      -5.430   8.254  -1.788  1.00  0.00    -0.354 N 
ATOM     48  C   UNL     1      -6.643   8.604  -5.935  1.00  0.00     0.074 A 
ATOM     49  C   UNL     1      -6.289   7.419  -6.682  1.00  0.00     0.031 C 
ATOM     50  C   UNL     1      -4.538   7.243  -0.006  1.00  0.00     0.029 A 
ATOM     51  C   UNL     1      -5.151   8.490  -0.464  1.00  0.00     0.049 A 
ATOM     52  H   UNL     1      -5.899   8.900  -2.365  1.00  0.00     0.167 HD
ATOM     53  C   UNL     1      -7.295   9.664  -6.463  1.00  0.00     0.034 A 
ATOM     54  C   UNL     1      -5.353   9.595   0.283  1.00  0.00     0.034 A 
ATOM     55  C   UNL     1      -7.651  10.835  -5.713  1.00  0.00     0.049 A 
ATOM     56  C   UNL     1      -6.024  10.793  -0.345  1.00  0.00     0.074 A 
ATOM     57  C   UNL     1      -8.326  11.959  -6.151  1.00  0.00     0.029 A 
ATOM     58  N   UNL     1      -7.353  11.039  -4.375  1.00  0.00    -0.354 N 
ATOM     59  N   UNL     1      -6.505  10.929  -1.558  1.00  0.00    -0.248 NA
ATOM     60  C   UNL     1      -6.205  11.980   0.504  1.00  0.00     0.031 C 
ATOM     61  C   UNL     1      -8.406  12.859  -5.086  1.00  0.00     0.029 A 
ATOM     62  C   UNL     1      -7.818  12.278  -3.973  1.00  0.00     0.049 A 
ATOM     63  H   UNL     1      -6.882  10.397  -3.796  1.00  0.00     0.167 HD
ATOM     64  C   UNL     1      -7.074  12.198  -1.607  1.00  0.00     0.074 A 
ATOM     65  C   UNL     1      -6.895  12.784  -0.295  1.00  0.00     0.031 C 
ATOM     66  C   UNL     1      -7.677  12.827  -2.647  1.00  0.00     0.034 A 
BRANCH  53  67
ATOM     67  C   UNL     1      -7.687   9.597  -7.914  1.00  0.00     0.023 A 
ATOM     68  C   UNL     1      -8.733   8.741  -8.314  1.00  0.00     0.012 A 
ATOM     69  C   UNL     1      -7.075  10.434  -8.866  1.00  0.00     0.148 A 
ATOM     70  C   UNL     1      -9.149   8.703  -9.643  1.00  0.00     0.002 A 
ATOM     71  C   UNL     1      -7.529  10.428 -10.179  1.00  0.00     0.091 A 
ATOM     72  F   UNL     1      -6.064  11.221  -8.469  1.00  0.00    -0.205 F 
ATOM     73  C   UNL     1      -8.558   9.555 -10.571  1.00  0.00     0.022 A 
BRANCH  71  74
ATOM     74  S   UNL     1      -6.895  11.548 -11.431  1.00  0.00     0.127 S 
ATOM     75  O   UNL     1      -6.237  10.621 -12.350  1.00  0.00    -0.237 OA
ATOM     76  O   UNL     1      -8.122  12.152 -11.949  1.00  0.00    -0.237 OA
ATOM     77  O   UNL     1      -6.006  12.469 -10.737  1.00  0.00    -0.744 OA
ENDBRANCH  71  74
ENDBRANCH  53  67
BRANCH  54  78
ATOM     78  C   UNL     1      -4.955   9.604   1.721  1.00  0.00     0.023 A 
ATOM     79  C   UNL     1      -5.950   9.653   2.716  1.00  0.00     0.012 A 
ATOM     80  C   UNL     1      -3.602   9.527   2.109  1.00  0.00     0.148 A 
ATOM     81  C   UNL     1      -5.607   9.646   4.069  1.00  0.00     0.002 A 
ATOM     82  C   UNL     1      -3.270   9.460   3.457  1.00  0.00     0.091 A 
ATOM     83  F   UNL     1      -2.668   9.501   1.148  1.00  0.00    -0.205 F 
ATOM     84  C   UNL     1      -4.269   9.537   4.439  1.00  0.00     0.022 A 
BRANCH  82  85
ATOM     85  S   UNL     1      -1.589   9.185   4.029  1.00  0.00     0.127 S 
ATOM     86  O   UNL     1      -1.307  10.430   4.740  1.00  0.00    -0.237 OA
ATOM     87  O   UNL     1      -1.754   8.010   4.885  1.00  0.00    -0.237 OA
ATOM     88  O   UNL     1      -0.795   8.954   2.831  1.00  0.00    -0.744 OA
ENDBRANCH  82  85
ENDBRANCH  54  78
BRANCH  66  89
ATOM     89  C   UNL     1      -8.217  14.218  -2.426  1.00  0.00     0.023 A 
ATOM     90  C   UNL     1      -7.326  15.301  -2.297  1.00  0.00     0.012 A 
ATOM     91  C   UNL     1      -9.604  14.467  -2.482  1.00  0.00     0.148 A 
ATOM     92  C   UNL     1      -7.806  16.607  -2.205  1.00  0.00     0.002 A 
ATOM     93  C   UNL     1     -10.072  15.775  -2.446  1.00  0.00     0.091 A 
ATOM     94  F   UNL     1     -10.437  13.422  -2.595  1.00  0.00    -0.205 F 
ATOM     95  C   UNL     1      -9.176  16.845  -2.295  1.00  0.00     0.022 A 
BRANCH  93  96
ATOM     96  S   UNL     1     -11.807  16.190  -2.668  1.00  0.00     0.127 S 
ATOM     97  O   UNL     1     -12.165  16.691  -1.342  1.00  0.00    -0.237 OA
ATOM     98  O   UNL     1     -11.747  17.214  -3.711  1.00  0.00    -0.237 OA
ATOM     99  O   UNL     1     -12.470  14.955  -3.066  1.00  0.00    -0.744 OA
ENDBRANCH  93  96
ENDBRANCH  66  89
ENDBRANCH  40  41
ENDBRANCH  33  35
ENDBRANCH  32  33
ENDBRANCH  31  32
ENDBRANCH  30  31
ENDBRANCH  29  30
ENDBRANCH  28  29
ENDBRANCH  27  28
ENDBRANCH  26  27
ENDBRANCH   1  26
TORSDOF 25
