REMARK SMILES O=C(OCCOCCOCCOCCOC(=O)c1cc2nn[nH]n2n1)c1ccc(-c2c3nc(c(-c4cccc(S(=O)(=O)[O-])c4F)c4ccc([nH]4)c(-c4cccc(S(=O)(=O)[O-])c4F)c4nc(c(-c5cccc(S(=O)(=O)[O-])c5F)c5ccc2[nH]5)C=C4)C=C3)cc1
REMARK SMILES IDX 7 1 6 2 5 3 4 4 3 5 2 6 1 7 26 8 27 9 88 10 28 11 87 12
REMARK SMILES IDX 29 13 30 14 31 15 81 16 32 17 86 18 80 19 82 20 33 21 85 22
REMARK SMILES IDX 79 23 78 24 34 26 66 27 46 28 65 29 47 30 50 31 64 32 83 33
REMARK SMILES IDX 48 34 49 35 63 37 84 38 51 39 35 40 36 41 44 42 37 43 39 44
REMARK SMILES IDX 45 45 38 46 40 47 41 48 42 49 43 50 67 51 68 52 76 53 69 54
REMARK SMILES IDX 71 55 77 56 70 57 72 58 73 59 74 60 75 61 52 62 53 63 61 64
REMARK SMILES IDX 54 65 56 66 62 67 55 68 57 69 58 70 59 71 60 72 8 73 9 74
REMARK SMILES IDX 10 75 11 76 12 77 13 78 14 79 15 80 16 81 17 82 18 83 19 84
REMARK SMILES IDX 25 85 20 86 24 87 21 88 23 89 22 90
REMARK H PARENT 82 25 50 36 23 91
REMARK Flexibility Score: inf
ROOT
ATOM      1  C   UNL     1       3.153   1.387   0.750  1.00  0.00     0.188 C 
ENDROOT
BRANCH   1   2
ATOM      2  O   UNL     1       4.151   0.376   0.590  1.00  0.00    -0.376 OA
BRANCH   2   3
ATOM      3  C   UNL     1       5.105   0.365  -0.444  1.00  0.00     0.202 C 
BRANCH   3   4
ATOM      4  C   UNL     1       4.762  -0.496  -1.667  1.00  0.00     0.261 C 
BRANCH   4   5
ATOM      5  O   UNL     1       3.396  -0.476  -2.099  1.00  0.00    -0.460 OA
BRANCH   5   6
ATOM      6  C   UNL     1       2.288  -0.988  -1.509  1.00  0.00     0.338 C 
ATOM      7  O   UNL     1       1.205  -0.791  -2.059  1.00  0.00    -0.246 OA
BRANCH   6   8
ATOM      8  C   UNL     1       2.292  -1.707  -0.203  1.00  0.00     0.060 A 
ATOM      9  C   UNL     1       3.414  -2.309   0.374  1.00  0.00     0.016 A 
ATOM     10  C   UNL     1       1.053  -1.812   0.459  1.00  0.00     0.016 A 
ATOM     11  C   UNL     1       3.312  -3.056   1.528  1.00  0.00     0.010 A 
ATOM     12  C   UNL     1       0.931  -2.591   1.603  1.00  0.00     0.010 A 
ATOM     13  C   UNL     1       2.055  -3.277   2.067  1.00  0.00    -0.014 A 
BRANCH  13  14
ATOM     14  C   UNL     1       1.947  -4.481   2.875  1.00  0.00     0.031 A 
ATOM     15  C   UNL     1       2.455  -4.464   4.268  1.00  0.00     0.074 A 
ATOM     16  C   UNL     1       1.387  -5.563   2.300  1.00  0.00     0.049 A 
ATOM     17  N   UNL     1       3.235  -5.326   4.845  1.00  0.00    -0.248 NA
ATOM     18  C   UNL     1       2.079  -3.324   5.115  1.00  0.00     0.031 C 
ATOM     19  C   UNL     1       0.690  -5.608   1.004  1.00  0.00     0.029 A 
ATOM     20  N   UNL     1       1.154  -6.797   2.826  1.00  0.00    -0.354 N 
ATOM     21  C   UNL     1       3.271  -4.953   6.186  1.00  0.00     0.074 A 
ATOM     22  C   UNL     1       2.638  -3.660   6.277  1.00  0.00     0.031 C 
ATOM     23  C   UNL     1      -0.145  -6.662   1.000  1.00  0.00     0.029 A 
ATOM     24  C   UNL     1       0.070  -7.417   2.218  1.00  0.00     0.049 A 
ATOM     25  H   UNL     1       1.687  -7.200   3.549  1.00  0.00     0.167 HD
ATOM     26  C   UNL     1       3.626  -5.807   7.183  1.00  0.00     0.034 A 
ATOM     27  C   UNL     1      -0.706  -8.382   2.753  1.00  0.00     0.034 A 
ATOM     28  C   UNL     1       4.389  -6.933   6.733  1.00  0.00     0.049 A 
ATOM     29  C   UNL     1       0.061  -9.043   3.828  1.00  0.00     0.074 A 
ATOM     30  C   UNL     1       5.613  -7.113   6.124  1.00  0.00     0.029 A 
ATOM     31  N   UNL     1       3.758  -8.149   6.674  1.00  0.00    -0.354 N 
ATOM     32  N   UNL     1       1.138  -9.752   3.624  1.00  0.00    -0.248 NA
ATOM     33  C   UNL     1      -0.157  -8.622   5.202  1.00  0.00     0.031 C 
ATOM     34  C   UNL     1       5.478  -8.302   5.351  1.00  0.00     0.029 A 
ATOM     35  C   UNL     1       4.170  -8.762   5.521  1.00  0.00     0.049 A 
ATOM     36  H   UNL     1       3.127  -8.513   7.337  1.00  0.00     0.167 HD
ATOM     37  C   UNL     1       1.933  -9.516   4.737  1.00  0.00     0.074 A 
ATOM     38  C   UNL     1       1.027  -8.944   5.729  1.00  0.00     0.031 C 
ATOM     39  C   UNL     1       3.299  -9.528   4.652  1.00  0.00     0.034 A 
BRANCH  26  40
ATOM     40  C   UNL     1       3.018  -5.755   8.558  1.00  0.00     0.023 A 
ATOM     41  C   UNL     1       3.681  -6.400   9.622  1.00  0.00     0.012 A 
ATOM     42  C   UNL     1       1.702  -5.301   8.796  1.00  0.00     0.148 A 
ATOM     43  C   UNL     1       3.062  -6.574  10.867  1.00  0.00     0.002 A 
ATOM     44  C   UNL     1       1.125  -5.401  10.056  1.00  0.00     0.091 A 
ATOM     45  F   UNL     1       0.947  -4.876   7.774  1.00  0.00    -0.205 F 
ATOM     46  C   UNL     1       1.791  -6.056  11.092  1.00  0.00     0.022 A 
BRANCH  44  47
ATOM     47  S   UNL     1      -0.474  -4.649  10.366  1.00  0.00     0.127 S 
ATOM     48  O   UNL     1      -1.389  -5.709   9.957  1.00  0.00    -0.237 OA
ATOM     49  O   UNL     1      -0.430  -4.391  11.806  1.00  0.00    -0.237 OA
ATOM     50  O   UNL     1      -0.457  -3.440   9.549  1.00  0.00    -0.744 OA
ENDBRANCH  44  47
ENDBRANCH  26  40
BRANCH  27  51
ATOM     51  C   UNL     1      -2.164  -8.517   2.558  1.00  0.00     0.023 A 
ATOM     52  C   UNL     1      -2.776  -9.774   2.680  1.00  0.00     0.012 A 
ATOM     53  C   UNL     1      -2.994  -7.377   2.414  1.00  0.00     0.148 A 
ATOM     54  C   UNL     1      -4.170  -9.894   2.643  1.00  0.00     0.002 A 
ATOM     55  C   UNL     1      -4.375  -7.505   2.342  1.00  0.00     0.091 A 
ATOM     56  F   UNL     1      -2.435  -6.158   2.431  1.00  0.00    -0.205 F 
ATOM     57  C   UNL     1      -4.969  -8.764   2.465  1.00  0.00     0.022 A 
BRANCH  55  58
ATOM     58  S   UNL     1      -5.441  -6.084   2.061  1.00  0.00     0.127 S 
ATOM     59  O   UNL     1      -6.441  -6.626   1.138  1.00  0.00    -0.237 OA
ATOM     60  O   UNL     1      -5.939  -5.804   3.404  1.00  0.00    -0.237 OA
ATOM     61  O   UNL     1      -4.583  -5.065   1.469  1.00  0.00    -0.744 OA
ENDBRANCH  55  58
ENDBRANCH  27  51
BRANCH  39  62
ATOM     62  C   UNL     1       3.930 -10.041   3.376  1.00  0.00     0.023 A 
ATOM     63  C   UNL     1       3.738  -9.359   2.155  1.00  0.00     0.012 A 
ATOM     64  C   UNL     1       4.887 -11.070   3.429  1.00  0.00     0.148 A 
ATOM     65  C   UNL     1       4.456  -9.707   1.010  1.00  0.00     0.002 A 
ATOM     66  C   UNL     1       5.632 -11.388   2.295  1.00  0.00     0.091 A 
ATOM     67  F   UNL     1       5.083 -11.699   4.598  1.00  0.00    -0.205 F 
ATOM     68  C   UNL     1       5.412 -10.714   1.082  1.00  0.00     0.022 A 
BRANCH  66  69
ATOM     69  S   UNL     1       6.980 -12.575   2.346  1.00  0.00     0.127 S 
ATOM     70  O   UNL     1       6.378 -13.753   1.727  1.00  0.00    -0.237 OA
ATOM     71  O   UNL     1       8.011 -11.922   1.536  1.00  0.00    -0.237 OA
ATOM     72  O   UNL     1       7.335 -12.713   3.753  1.00  0.00    -0.744 OA
ENDBRANCH  66  69
ENDBRANCH  39  62
ENDBRANCH  13  14
ENDBRANCH   6   8
ENDBRANCH   5   6
ENDBRANCH   4   5
ENDBRANCH   3   4
ENDBRANCH   2   3
ENDBRANCH   1   2
BRANCH   1  73
ATOM     73  C   UNL     1       2.478   2.063  -0.456  1.00  0.00     0.188 C 
BRANCH  73  74
ATOM     74  O   UNL     1       2.873   3.403  -0.736  1.00  0.00    -0.377 OA
BRANCH  74  75
ATOM     75  C   UNL     1       4.208   3.552  -1.189  1.00  0.00     0.188 C 
BRANCH  75  76
ATOM     76  C   UNL     1       5.169   3.946  -0.054  1.00  0.00     0.188 C 
BRANCH  76  77
ATOM     77  O   UNL     1       4.505   4.144   1.188  1.00  0.00    -0.376 OA
BRANCH  77  78
ATOM     78  C   UNL     1       4.128   5.474   1.519  1.00  0.00     0.202 C 
BRANCH  78  79
ATOM     79  C   UNL     1       3.063   6.143   0.632  1.00  0.00     0.261 C 
BRANCH  79  80
ATOM     80  O   UNL     1       3.431   6.379  -0.741  1.00  0.00    -0.458 OA
BRANCH  80  81
ATOM     81  C   UNL     1       4.590   7.047  -1.006  1.00  0.00     0.359 C 
ATOM     82  O   UNL     1       5.253   7.648  -0.183  1.00  0.00    -0.244 OA
BRANCH  81  83
ATOM     83  C   UNL     1       5.003   6.804  -2.400  1.00  0.00     0.174 A 
ATOM     84  C   UNL     1       4.157   6.831  -3.568  1.00  0.00     0.091 A 
ATOM     85  N   UNL     1       6.244   6.329  -2.701  1.00  0.00    -0.142 NA
ATOM     86  C   UNL     1       4.955   6.339  -4.562  1.00  0.00     0.199 A 
ATOM     87  N   UNL     1       6.139   6.104  -3.997  1.00  0.00    -0.135 N 
ATOM     88  N   UNL     1       4.985   5.930  -5.851  1.00  0.00    -0.109 NA
ATOM     89  N   UNL     1       6.876   5.489  -4.906  1.00  0.00    -0.177 N 
ATOM     90  N   UNL     1       6.112   5.355  -6.055  1.00  0.00    -0.050 NA
ATOM     91  H   UNL     1       7.803   5.180  -4.789  1.00  0.00     0.216 HD
ENDBRANCH  81  83
ENDBRANCH  80  81
ENDBRANCH  79  80
ENDBRANCH  78  79
ENDBRANCH  77  78
ENDBRANCH  76  77
ENDBRANCH  75  76
ENDBRANCH  74  75
ENDBRANCH  73  74
ENDBRANCH   1  73
TORSDOF 23
