REMARK SMILES O=C(OCCOCCOCCOCCOC(=O)c1ccccc1Nc1cccc(C(F)(F)F)c1)c1ccc(-c2c3nc(c(-c4cccc(S(=O)(=O)[O-])c4F)c4ccc([nH]4)c(-c4cccc(S(=O)(=O)[O-])c4F)c4nc(c(-c5cccc(S(=O)(=O)[O-])c5F)c5ccc2[nH]5)C=C4)C=C3)cc1
REMARK SMILES IDX 9 1 8 2 7 3 6 4 5 5 4 6 3 7 2 8 1 9 35 10 36 11 97 12 37 13
REMARK SMILES IDX 96 14 38 15 39 16 40 17 90 18 41 19 95 20 89 21 91 22 42 23
REMARK SMILES IDX 94 24 88 25 87 26 43 28 75 29 55 30 74 31 56 32 59 33 73 34
REMARK SMILES IDX 92 35 57 36 58 37 72 39 93 40 60 41 44 42 45 43 53 44 46 45
REMARK SMILES IDX 48 46 54 47 47 48 49 49 50 50 51 51 52 52 76 53 77 54 85 55
REMARK SMILES IDX 78 56 80 57 86 58 79 59 81 60 82 61 83 62 84 63 61 64 62 65
REMARK SMILES IDX 70 66 63 67 65 68 71 69 64 70 66 71 67 72 68 73 69 74 10 75
REMARK SMILES IDX 11 76 12 77 13 78 14 79 15 80 16 81 17 82 18 83 19 84 23 85
REMARK SMILES IDX 20 86 22 87 21 88 24 89 25 91 26 92 34 93 27 94 29 95 28 96
REMARK SMILES IDX 30 97 31 98 32 99 33 100
REMARK H PARENT 91 27 59 38 24 90
REMARK Flexibility Score: inf
ROOT
ATOM      1  O   UNL     1       2.517  -3.713   1.442  1.00  0.00    -0.377 OA
ENDROOT
BRANCH   1   2
ATOM      2  C   UNL     1       1.807  -2.683   0.755  1.00  0.00     0.188 C 
BRANCH   2   3
ATOM      3  C   UNL     1       2.198  -1.260   1.156  1.00  0.00     0.188 C 
BRANCH   3   4
ATOM      4  O   UNL     1       3.534  -0.976   0.736  1.00  0.00    -0.376 OA
BRANCH   4   5
ATOM      5  C   UNL     1       4.297  -0.162   1.622  1.00  0.00     0.202 C 
BRANCH   5   6
ATOM      6  C   UNL     1       4.152   1.337   1.359  1.00  0.00     0.261 C 
BRANCH   6   7
ATOM      7  O   UNL     1       2.796   1.691   1.057  1.00  0.00    -0.460 OA
BRANCH   7   8
ATOM      8  C   UNL     1       2.215   1.778  -0.167  1.00  0.00     0.338 C 
ATOM      9  O   UNL     1       1.029   2.105  -0.215  1.00  0.00    -0.246 OA
BRANCH   8  10
ATOM     10  C   UNL     1       2.929   1.535  -1.464  1.00  0.00     0.060 A 
ATOM     11  C   UNL     1       4.067   0.742  -1.641  1.00  0.00     0.016 A 
ATOM     12  C   UNL     1       2.364   2.125  -2.609  1.00  0.00     0.016 A 
ATOM     13  C   UNL     1       4.682   0.610  -2.880  1.00  0.00     0.010 A 
ATOM     14  C   UNL     1       2.958   1.976  -3.866  1.00  0.00     0.010 A 
ATOM     15  C   UNL     1       4.146   1.249  -3.991  1.00  0.00    -0.014 A 
BRANCH  15  16
ATOM     16  C   UNL     1       4.952   1.292  -5.222  1.00  0.00     0.031 A 
ATOM     17  C   UNL     1       5.703   2.554  -5.518  1.00  0.00     0.074 A 
ATOM     18  C   UNL     1       5.077   0.196  -5.989  1.00  0.00     0.049 A 
ATOM     19  N   UNL     1       6.438   2.858  -6.551  1.00  0.00    -0.248 NA
ATOM     20  C   UNL     1       5.623   3.618  -4.500  1.00  0.00     0.031 C 
ATOM     21  C   UNL     1       4.453  -1.099  -5.716  1.00  0.00     0.029 A 
ATOM     22  N   UNL     1       5.770  -0.001  -7.154  1.00  0.00    -0.354 N 
ATOM     23  C   UNL     1       6.859   4.164  -6.337  1.00  0.00     0.074 A 
ATOM     24  C   UNL     1       6.317   4.591  -5.068  1.00  0.00     0.031 C 
ATOM     25  C   UNL     1       4.775  -1.954  -6.700  1.00  0.00     0.029 A 
ATOM     26  C   UNL     1       5.581  -1.251  -7.694  1.00  0.00     0.049 A 
ATOM     27  H   UNL     1       6.346   0.684  -7.564  1.00  0.00     0.167 HD
ATOM     28  C   UNL     1       7.626   4.937  -7.138  1.00  0.00     0.034 A 
ATOM     29  C   UNL     1       5.982  -1.746  -8.881  1.00  0.00     0.034 A 
ATOM     30  C   UNL     1       8.158   4.480  -8.389  1.00  0.00     0.049 A 
ATOM     31  C   UNL     1       6.803  -0.853  -9.775  1.00  0.00     0.074 A 
ATOM     32  C   UNL     1       8.927   5.170  -9.305  1.00  0.00     0.029 A 
ATOM     33  N   UNL     1       7.961   3.205  -8.902  1.00  0.00    -0.354 N 
ATOM     34  N   UNL     1       7.225   0.370  -9.553  1.00  0.00    -0.248 NA
ATOM     35  C   UNL     1       7.216  -1.406 -11.070  1.00  0.00     0.031 C 
ATOM     36  C   UNL     1       9.174   4.316 -10.386  1.00  0.00     0.029 A 
ATOM     37  C   UNL     1       8.584   3.086 -10.129  1.00  0.00     0.049 A 
ATOM     38  H   UNL     1       7.452   2.490  -8.456  1.00  0.00     0.167 HD
ATOM     39  C   UNL     1       7.968   0.729 -10.670  1.00  0.00     0.074 A 
ATOM     40  C   UNL     1       7.960  -0.420 -11.556  1.00  0.00     0.031 C 
ATOM     41  C   UNL     1       8.586   1.903 -10.954  1.00  0.00     0.034 A 
BRANCH  28  42
ATOM     42  C   UNL     1       7.879   6.348  -6.685  1.00  0.00     0.023 A 
ATOM     43  C   UNL     1       8.760   6.601  -5.613  1.00  0.00     0.012 A 
ATOM     44  C   UNL     1       7.207   7.424  -7.296  1.00  0.00     0.148 A 
ATOM     45  C   UNL     1       8.932   7.899  -5.128  1.00  0.00     0.002 A 
ATOM     46  C   UNL     1       7.414   8.718  -6.833  1.00  0.00     0.091 A 
ATOM     47  F   UNL     1       6.348   7.159  -8.291  1.00  0.00    -0.205 F 
ATOM     48  C   UNL     1       8.264   8.956  -5.741  1.00  0.00     0.022 A 
BRANCH  46  49
ATOM     49  S   UNL     1       6.638  10.149  -7.590  1.00  0.00     0.127 S 
ATOM     50  O   UNL     1       5.654  10.523  -6.575  1.00  0.00    -0.237 OA
ATOM     51  O   UNL     1       7.763  11.076  -7.718  1.00  0.00    -0.237 OA
ATOM     52  O   UNL     1       6.088   9.685  -8.855  1.00  0.00    -0.744 OA
ENDBRANCH  46  49
ENDBRANCH  28  42
BRANCH  29  53
ATOM     53  C   UNL     1       5.603  -3.132  -9.280  1.00  0.00     0.023 A 
ATOM     54  C   UNL     1       6.593  -4.125  -9.402  1.00  0.00     0.012 A 
ATOM     55  C   UNL     1       4.254  -3.483  -9.495  1.00  0.00     0.148 A 
ATOM     56  C   UNL     1       6.249  -5.434  -9.749  1.00  0.00     0.002 A 
ATOM     57  C   UNL     1       3.913  -4.799  -9.782  1.00  0.00     0.091 A 
ATOM     58  F   UNL     1       3.325  -2.521  -9.400  1.00  0.00    -0.205 F 
ATOM     59  C   UNL     1       4.910  -5.774  -9.926  1.00  0.00     0.022 A 
BRANCH  57  60
ATOM     60  S   UNL     1       2.204  -5.348  -9.886  1.00  0.00     0.127 S 
ATOM     61  O   UNL     1       2.050  -5.576 -11.320  1.00  0.00    -0.237 OA
ATOM     62  O   UNL     1       2.225  -6.562  -9.068  1.00  0.00    -0.237 OA
ATOM     63  O   UNL     1       1.409  -4.264  -9.326  1.00  0.00    -0.744 OA
ENDBRANCH  57  60
ENDBRANCH  29  53
BRANCH  41  64
ATOM     64  C   UNL     1       9.322   1.997 -12.262  1.00  0.00     0.023 A 
ATOM     65  C   UNL     1       8.598   2.142 -13.460  1.00  0.00     0.012 A 
ATOM     66  C   UNL     1      10.728   2.051 -12.284  1.00  0.00     0.148 A 
ATOM     67  C   UNL     1       9.266   2.320 -14.670  1.00  0.00     0.002 A 
ATOM     68  C   UNL     1      11.385   2.279 -13.485  1.00  0.00     0.091 A 
ATOM     69  F   UNL     1      11.394   1.890 -11.131  1.00  0.00    -0.205 F 
ATOM     70  C   UNL     1      10.657   2.403 -14.680  1.00  0.00     0.022 A 
BRANCH  68  71
ATOM     71  S   UNL     1      13.164   2.510 -13.572  1.00  0.00     0.127 S 
ATOM     72  O   UNL     1      13.599   1.248 -14.168  1.00  0.00    -0.237 OA
ATOM     73  O   UNL     1      13.284   3.674 -14.450  1.00  0.00    -0.237 OA
ATOM     74  O   UNL     1      13.605   2.741 -12.203  1.00  0.00    -0.744 OA
ENDBRANCH  68  71
ENDBRANCH  41  64
ENDBRANCH  15  16
ENDBRANCH   8  10
ENDBRANCH   7   8
ENDBRANCH   6   7
ENDBRANCH   5   6
ENDBRANCH   4   5
ENDBRANCH   3   4
ENDBRANCH   2   3
ENDBRANCH   1   2
BRANCH   1  75
ATOM     75  C   UNL     1       3.938  -3.635   1.422  1.00  0.00     0.188 C 
BRANCH  75  76
ATOM     76  C   UNL     1       4.669  -3.604   0.062  1.00  0.00     0.188 C 
BRANCH  76  77
ATOM     77  O   UNL     1       3.829  -3.744  -1.074  1.00  0.00    -0.376 OA
BRANCH  77  78
ATOM     78  C   UNL     1       3.916  -4.992  -1.757  1.00  0.00     0.202 C 
BRANCH  78  79
ATOM     79  C   UNL     1       3.165  -6.127  -1.052  1.00  0.00     0.261 C 
BRANCH  79  80
ATOM     80  O   UNL     1       3.670  -6.463   0.253  1.00  0.00    -0.460 OA
BRANCH  80  81
ATOM     81  C   UNL     1       4.945  -6.906   0.364  1.00  0.00     0.340 C 
ATOM     82  O   UNL     1       5.710  -7.165  -0.548  1.00  0.00    -0.246 OA
BRANCH  81  83
ATOM     83  C   UNL     1       5.330  -6.827   1.797  1.00  0.00     0.083 A 
ATOM     84  C   UNL     1       6.564  -6.210   2.072  1.00  0.00     0.018 A 
ATOM     85  C   UNL     1       4.469  -7.243   2.841  1.00  0.00     0.053 A 
ATOM     86  C   UNL     1       6.953  -5.977   3.388  1.00  0.00     0.001 A 
ATOM     87  C   UNL     1       4.930  -7.066   4.154  1.00  0.00     0.027 A 
ATOM     88  C   UNL     1       6.138  -6.413   4.427  1.00  0.00     0.002 A 
BRANCH  85  89
ATOM     89  N   UNL     1       3.252  -7.891   2.544  1.00  0.00    -0.355 N 
ATOM     90  H   UNL     1       3.048  -7.900   1.581  1.00  0.00     0.167 HD
BRANCH  89  91
ATOM     91  C   UNL     1       2.270  -8.524   3.316  1.00  0.00     0.039 A 
ATOM     92  C   UNL     1       1.738  -9.726   2.830  1.00  0.00     0.026 A 
ATOM     93  C   UNL     1       1.823  -8.048   4.550  1.00  0.00     0.039 A 
ATOM     94  C   UNL     1       0.816 -10.460   3.573  1.00  0.00     0.003 A 
ATOM     95  C   UNL     1       0.895  -8.776   5.315  1.00  0.00     0.058 A 
ATOM     96  C   UNL     1       0.404  -9.992   4.817  1.00  0.00     0.013 A 
BRANCH  95  97
ATOM     97  C   UNL     1       0.441  -8.281   6.663  1.00  0.00     0.416 C 
ATOM     98  F   UNL     1      -0.914  -8.172   6.755  1.00  0.00    -0.166 F 
ATOM     99  F   UNL     1       0.812  -9.120   7.672  1.00  0.00    -0.166 F 
ATOM    100  F   UNL     1       0.937  -7.059   7.002  1.00  0.00    -0.166 F 
ENDBRANCH  95  97
ENDBRANCH  89  91
ENDBRANCH  85  89
ENDBRANCH  81  83
ENDBRANCH  80  81
ENDBRANCH  79  80
ENDBRANCH  78  79
ENDBRANCH  77  78
ENDBRANCH  76  77
ENDBRANCH  75  76
ENDBRANCH   1  75
TORSDOF 26
