REMARK SMILES CC(=O)Nc1cnc(N2CC=C(c3ccccc3C)CC2)c(C(=O)OCCOCCOCCOCCOC(=O)c2ccc(-c3c4nc(c(-c5cccc(S(=O)(=O)[O-])c5F)c5ccc([nH]5)c(-c5cccc(S(=O)(=O)[O-])c5F)c5nc(c(-c6cccc(S(=O)(=O)[O-])c6F)c6ccc3[nH]6)C=C5)C=C4)cc2)c1
REMARK SMILES IDX 32 1 31 2 30 3 29 4 28 5 27 6 26 7 25 8 23 9 24 10 22 11
REMARK SMILES IDX 5 12 6 13 103 14 7 15 8 16 4 17 1 18 2 19 3 20 9 22 10 23
REMARK SMILES IDX 21 24 11 25 20 26 12 27 13 28 14 29 18 30 15 31 17 32 19 33
REMARK SMILES IDX 16 34 33 35 34 36 35 37 36 38 37 39 38 40 39 41 40 42 41 43
REMARK SMILES IDX 102 44 42 45 101 46 43 47 44 48 45 49 95 50 46 51 100 52
REMARK SMILES IDX 94 53 96 54 47 55 99 56 93 57 92 58 48 60 80 61 60 62 79 63
REMARK SMILES IDX 61 64 64 65 78 66 97 67 62 68 63 69 77 71 98 72 65 73 49 74
REMARK SMILES IDX 50 75 58 76 51 77 53 78 59 79 52 80 54 81 55 82 56 83 57 84
REMARK SMILES IDX 81 85 82 86 90 87 83 88 85 89 91 90 84 91 86 92 87 93 88 94
REMARK SMILES IDX 89 95 66 96 67 97 75 98 68 99 70 100 76 101 69 102 71 103
REMARK SMILES IDX 72 104 73 105 74 106
REMARK H PARENT 4 21 96 59 64 70
REMARK Flexibility Score: inf
ROOT
ATOM      1  C   UNL     1       7.114  -2.657   1.095  1.00  0.00     0.188 C 
ENDROOT
BRANCH   1   2
ATOM      2  O   UNL     1       5.708  -2.820   1.112  1.00  0.00    -0.377 OA
BRANCH   2   3
ATOM      3  C   UNL     1       5.089  -3.906   0.435  1.00  0.00     0.188 C 
BRANCH   3   4
ATOM      4  C   UNL     1       5.757  -4.886  -0.562  1.00  0.00     0.188 C 
BRANCH   4   5
ATOM      5  O   UNL     1       5.661  -4.890  -1.977  1.00  0.00    -0.376 OA
BRANCH   5   6
ATOM      6  C   UNL     1       6.064  -3.808  -2.776  1.00  0.00     0.202 C 
BRANCH   6   7
ATOM      7  C   UNL     1       4.858  -3.212  -3.521  1.00  0.00     0.261 C 
BRANCH   7   8
ATOM      8  O   UNL     1       3.727  -3.207  -2.639  1.00  0.00    -0.460 OA
BRANCH   8   9
ATOM      9  C   UNL     1       2.563  -3.606  -3.189  1.00  0.00     0.342 C 
ATOM     10  O   UNL     1       2.252  -3.717  -4.341  1.00  0.00    -0.246 OA
BRANCH   9  11
ATOM     11  C   UNL     1       1.760  -4.056  -2.054  1.00  0.00     0.104 A 
ATOM     12  C   UNL     1       0.797  -3.445   0.066  1.00  0.00     0.060 A 
ATOM     13  C   UNL     1       0.579  -4.812   0.225  1.00  0.00     0.139 A 
ATOM     14  C   UNL     1       1.425  -3.072  -1.103  1.00  0.00     0.047 A 
ATOM     15  N   UNL     1       0.906  -5.783  -0.674  1.00  0.00    -0.236 NA
ATOM     16  C   UNL     1       1.509  -5.424  -1.834  1.00  0.00     0.143 A 
BRANCH  12  17
ATOM     17  N   UNL     1       0.425  -2.566   1.099  1.00  0.00    -0.325 N 
ATOM     18  C   UNL     1       0.194  -0.403  -0.140  1.00  0.00     0.114 C 
ATOM     19  C   UNL     1       0.215  -1.216   1.126  1.00  0.00     0.221 C 
ATOM     20  O   UNL     1      -0.034  -0.686   2.213  1.00  0.00    -0.275 OA
ATOM     21  H   UNL     1       0.291  -3.007   1.969  1.00  0.00     0.169 HD
ENDBRANCH  12  17
BRANCH  16  22
ATOM     22  N   UNL     1       2.100  -6.482  -2.552  1.00  0.00    -0.352 N 
ATOM     23  C   UNL     1       1.748  -6.704  -3.952  1.00  0.00     0.146 C 
ATOM     24  C   UNL     1       3.519  -6.507  -2.240  1.00  0.00     0.123 C 
ATOM     25  C   UNL     1       2.658  -7.724  -4.590  1.00  0.00    -0.002 C 
ATOM     26  C   UNL     1       4.371  -7.620  -2.806  1.00  0.00     0.057 C 
ATOM     27  C   UNL     1       3.818  -8.169  -4.072  1.00  0.00    -0.041 C 
BRANCH  27  28
ATOM     28  C   UNL     1       4.521  -9.307  -4.683  1.00  0.00    -0.020 A 
ATOM     29  C   UNL     1       5.075  -9.170  -5.965  1.00  0.00     0.008 A 
ATOM     30  C   UNL     1       4.570 -10.559  -4.029  1.00  0.00    -0.044 A 
ATOM     31  C   UNL     1       5.612 -10.276  -6.623  1.00  0.00     0.001 A 
ATOM     32  C   UNL     1       5.116 -11.658  -4.707  1.00  0.00     0.004 A 
ATOM     33  C   UNL     1       4.106 -10.759  -2.610  1.00  0.00     0.045 C 
ATOM     34  C   UNL     1       5.609 -11.523  -6.004  1.00  0.00     0.000 A 
ENDBRANCH  27  28
ENDBRANCH  16  22
ENDBRANCH   9  11
ENDBRANCH   8   9
ENDBRANCH   7   8
ENDBRANCH   6   7
ENDBRANCH   5   6
ENDBRANCH   4   5
ENDBRANCH   3   4
ENDBRANCH   2   3
ENDBRANCH   1   2
BRANCH   1  35
ATOM     35  C   UNL     1       7.915  -3.683   1.880  1.00  0.00     0.188 C 
BRANCH  35  36
ATOM     36  O   UNL     1       8.072  -4.822   1.057  1.00  0.00    -0.376 OA
BRANCH  36  37
ATOM     37  C   UNL     1       8.529  -6.020   1.645  1.00  0.00     0.202 C 
BRANCH  37  38
ATOM     38  C   UNL     1       9.940  -5.875   2.201  1.00  0.00     0.261 C 
BRANCH  38  39
ATOM     39  O   UNL     1      10.818  -5.506   1.116  1.00  0.00    -0.460 OA
BRANCH  39  40
ATOM     40  C   UNL     1      11.333  -4.245   1.194  1.00  0.00     0.338 C 
ATOM     41  O   UNL     1      11.863  -3.785   2.191  1.00  0.00    -0.246 OA
BRANCH  40  42
ATOM     42  C   UNL     1      10.929  -3.451  -0.008  1.00  0.00     0.060 A 
ATOM     43  C   UNL     1      11.121  -2.061  -0.047  1.00  0.00     0.016 A 
ATOM     44  C   UNL     1      10.103  -4.033  -0.956  1.00  0.00     0.016 A 
ATOM     45  C   UNL     1      10.321  -1.243  -0.872  1.00  0.00     0.010 A 
ATOM     46  C   UNL     1       9.284  -3.215  -1.713  1.00  0.00     0.010 A 
ATOM     47  C   UNL     1       9.300  -1.806  -1.615  1.00  0.00    -0.014 A 
BRANCH  47  48
ATOM     48  C   UNL     1       8.191  -1.076  -2.310  1.00  0.00     0.031 A 
ATOM     49  C   UNL     1       8.052  -1.415  -3.778  1.00  0.00     0.074 A 
ATOM     50  C   UNL     1       7.150  -0.604  -1.559  1.00  0.00     0.049 A 
ATOM     51  N   UNL     1       7.029  -1.238  -4.544  1.00  0.00    -0.248 NA
ATOM     52  C   UNL     1       9.164  -2.045  -4.500  1.00  0.00     0.031 C 
ATOM     53  C   UNL     1       5.737  -0.963  -1.655  1.00  0.00     0.029 A 
ATOM     54  N   UNL     1       7.095   0.102  -0.379  1.00  0.00    -0.354 N 
ATOM     55  C   UNL     1       7.239  -1.934  -5.743  1.00  0.00     0.074 A 
ATOM     56  C   UNL     1       8.604  -2.377  -5.665  1.00  0.00     0.031 C 
ATOM     57  C   UNL     1       4.954  -0.364  -0.766  1.00  0.00     0.029 A 
ATOM     58  C   UNL     1       5.796   0.559  -0.116  1.00  0.00     0.049 A 
ATOM     59  H   UNL     1       7.870   0.266   0.206  1.00  0.00     0.167 HD
ATOM     60  C   UNL     1       6.206  -2.147  -6.622  1.00  0.00     0.034 A 
ATOM     61  C   UNL     1       5.407   1.850  -0.033  1.00  0.00     0.034 A 
ATOM     62  C   UNL     1       5.005  -1.364  -6.211  1.00  0.00     0.049 A 
ATOM     63  C   UNL     1       4.713   2.313  -1.337  1.00  0.00     0.074 A 
ATOM     64  C   UNL     1       3.671  -1.664  -5.997  1.00  0.00     0.029 A 
ATOM     65  N   UNL     1       5.141  -0.035  -5.782  1.00  0.00    -0.354 N 
ATOM     66  N   UNL     1       4.655   1.584  -2.445  1.00  0.00    -0.248 NA
ATOM     67  C   UNL     1       3.959   3.555  -1.506  1.00  0.00     0.031 C 
ATOM     68  C   UNL     1       3.090  -0.615  -5.223  1.00  0.00     0.029 A 
ATOM     69  C   UNL     1       4.019   0.407  -5.097  1.00  0.00     0.049 A 
ATOM     70  H   UNL     1       5.939   0.518  -5.948  1.00  0.00     0.167 HD
ATOM     71  C   UNL     1       3.990   2.244  -3.449  1.00  0.00     0.074 A 
ATOM     72  C   UNL     1       3.534   3.458  -2.783  1.00  0.00     0.031 C 
ATOM     73  C   UNL     1       3.865   1.819  -4.754  1.00  0.00     0.034 A 
BRANCH  60  74
ATOM     74  C   UNL     1       6.151  -3.202  -7.785  1.00  0.00     0.023 A 
ATOM     75  C   UNL     1       4.919  -3.327  -8.481  1.00  0.00     0.012 A 
ATOM     76  C   UNL     1       7.149  -4.122  -8.226  1.00  0.00     0.148 A 
ATOM     77  C   UNL     1       4.659  -4.304  -9.460  1.00  0.00     0.002 A 
ATOM     78  C   UNL     1       6.912  -5.063  -9.255  1.00  0.00     0.091 A 
ATOM     79  F   UNL     1       8.353  -4.133  -7.656  1.00  0.00    -0.205 F 
ATOM     80  C   UNL     1       5.657  -5.173  -9.852  1.00  0.00     0.022 A 
BRANCH  78  81
ATOM     81  S   UNL     1       8.174  -6.186  -9.914  1.00  0.00     0.127 S 
ATOM     82  O   UNL     1       7.564  -7.501  -9.703  1.00  0.00    -0.237 OA
ATOM     83  O   UNL     1       8.253  -5.777 -11.317  1.00  0.00    -0.237 OA
ATOM     84  O   UNL     1       9.383  -5.946  -9.138  1.00  0.00    -0.744 OA
ENDBRANCH  78  81
ENDBRANCH  60  74
BRANCH  61  85
ATOM     85  C   UNL     1       6.047   2.406   1.211  1.00  0.00     0.023 A 
ATOM     86  C   UNL     1       5.603   1.716   2.391  1.00  0.00     0.012 A 
ATOM     87  C   UNL     1       7.425   2.679   1.115  1.00  0.00     0.148 A 
ATOM     88  C   UNL     1       6.513   1.032   3.217  1.00  0.00     0.002 A 
ATOM     89  C   UNL     1       8.327   1.973   1.929  1.00  0.00     0.091 A 
ATOM     90  F   UNL     1       7.845   3.413   0.076  1.00  0.00    -0.205 F 
ATOM     91  C   UNL     1       7.872   1.114   2.947  1.00  0.00     0.022 A 
BRANCH  89  92
ATOM     92  S   UNL     1      10.051   1.792   1.422  1.00  0.00     0.127 S 
ATOM     93  O   UNL     1      10.716   2.830   2.196  1.00  0.00    -0.237 OA
ATOM     94  O   UNL     1      10.352   0.420   1.833  1.00  0.00    -0.237 OA
ATOM     95  O   UNL     1      10.020   1.974  -0.022  1.00  0.00    -0.744 OA
ENDBRANCH  89  92
ENDBRANCH  61  85
BRANCH  73  96
ATOM     96  C   UNL     1       3.603   2.754  -5.940  1.00  0.00     0.023 A 
ATOM     97  C   UNL     1       3.909   4.123  -5.851  1.00  0.00     0.012 A 
ATOM     98  C   UNL     1       3.308   2.253  -7.244  1.00  0.00     0.148 A 
ATOM     99  C   UNL     1       3.886   4.960  -6.970  1.00  0.00     0.002 A 
ATOM    100  C   UNL     1       3.417   3.063  -8.370  1.00  0.00     0.091 A 
ATOM    101  F   UNL     1       2.904   0.988  -7.413  1.00  0.00    -0.205 F 
ATOM    102  C   UNL     1       3.674   4.426  -8.232  1.00  0.00     0.022 A 
BRANCH 100 103
ATOM    103  S   UNL     1       3.429   2.377 -10.037  1.00  0.00     0.127 S 
ATOM    104  O   UNL     1       2.080   2.692 -10.502  1.00  0.00    -0.237 OA
ATOM    105  O   UNL     1       4.492   3.155 -10.680  1.00  0.00    -0.237 OA
ATOM    106  O   UNL     1       3.736   0.962  -9.883  1.00  0.00    -0.744 OA
ENDBRANCH 100 103
ENDBRANCH  73  96
ENDBRANCH  47  48
ENDBRANCH  40  42
ENDBRANCH  39  40
ENDBRANCH  38  39
ENDBRANCH  37  38
ENDBRANCH  36  37
ENDBRANCH  35  36
ENDBRANCH   1  35
TORSDOF 26
