REMARK SMILES Cc1ccc(/C=C2/SC(=O)N(CC(=O)OCCOCCOCCOCCOC(=O)c3ccc(-c4c5nc(c(-c6cccc(S(=O)(=O)[O-])c6F)c6ccc([nH]6)c(-c6cccc(S(=O)(=O)[O-])c6F)c6nc(c(-c7cccc(S(=O)(=O)[O-])c7F)c7ccc4[nH]7)C=C6)C=C5)cc3)C2=O)cc1
REMARK SMILES IDX 22 1 21 2 20 3 19 4 18 5 17 6 16 7 15 8 13 9 14 10 12 11
REMARK SMILES IDX 11 12 6 13 7 14 8 15 93 16 9 17 94 18 10 19 5 20 1 21 2 22
REMARK SMILES IDX 3 23 96 24 4 25 95 26 23 27 24 28 25 29 26 30 27 31 28 32
REMARK SMILES IDX 29 33 30 34 31 35 92 36 32 37 91 38 33 39 34 40 35 41 85 42
REMARK SMILES IDX 36 43 90 44 84 45 86 46 37 47 89 48 83 49 82 50 38 52 70 53
REMARK SMILES IDX 50 54 69 55 51 56 54 57 68 58 87 59 52 60 53 61 67 63 88 64
REMARK SMILES IDX 55 65 39 66 40 67 48 68 41 69 43 70 49 71 42 72 44 73 45 74
REMARK SMILES IDX 46 75 47 76 71 77 72 78 80 79 73 80 75 81 81 82 74 83 76 84
REMARK SMILES IDX 77 85 78 86 79 87 56 88 57 89 65 90 58 91 60 92 66 93 59 94
REMARK SMILES IDX 61 95 62 96 63 97 64 98
REMARK H PARENT 86 51 54 62
REMARK Flexibility Score: inf
ROOT
ATOM      1  C   UNL     1      -3.129   3.518  -0.502  1.00  0.00     0.188 C 
ENDROOT
BRANCH   1   2
ATOM      2  O   UNL     1      -2.640   2.257  -0.963  1.00  0.00    -0.377 OA
BRANCH   2   3
ATOM      3  C   UNL     1      -2.323   2.274  -2.361  1.00  0.00     0.188 C 
BRANCH   3   4
ATOM      4  C   UNL     1      -0.976   1.604  -2.702  1.00  0.00     0.188 C 
BRANCH   4   5
ATOM      5  O   UNL     1       0.019   2.220  -3.503  1.00  0.00    -0.376 OA
BRANCH   5   6
ATOM      6  C   UNL     1      -0.368   3.287  -4.335  1.00  0.00     0.202 C 
BRANCH   6   7
ATOM      7  C   UNL     1      -1.152   2.892  -5.577  1.00  0.00     0.261 C 
BRANCH   7   8
ATOM      8  O   UNL     1      -2.435   2.304  -5.282  1.00  0.00    -0.462 OA
BRANCH   8   9
ATOM      9  C   UNL     1      -2.567   0.993  -5.601  1.00  0.00     0.326 C 
ATOM     10  O   UNL     1      -1.678   0.283  -6.051  1.00  0.00    -0.250 OA
BRANCH   9  11
ATOM     11  C   UNL     1      -3.972   0.481  -5.306  1.00  0.00     0.252 C 
BRANCH  11  12
ATOM     12  N   UNL     1      -4.238   0.059  -3.932  1.00  0.00    -0.257 N 
ATOM     13  C   UNL     1      -3.332  -1.536  -0.763  1.00  0.00     0.029 C 
ATOM     14  C   UNL     1      -3.962  -1.059  -1.857  1.00  0.00     0.083 C 
ATOM     15  S   UNL     1      -5.532  -0.321  -1.737  1.00  0.00    -0.022 SA
ATOM     16  C   UNL     1      -3.480  -0.886  -3.268  1.00  0.00     0.268 C 
ATOM     17  C   UNL     1      -5.358   0.523  -3.276  1.00  0.00     0.294 C 
ATOM     18  O   UNL     1      -2.570  -1.541  -3.752  1.00  0.00    -0.268 OA
ATOM     19  O   UNL     1      -6.154   1.344  -3.661  1.00  0.00    -0.261 OA
BRANCH  13  20
ATOM     20  C   UNL     1      -1.878  -1.699  -0.566  1.00  0.00    -0.024 A 
ATOM     21  C   UNL     1       2.431  -1.525   0.036  1.00  0.00     0.044 C 
ATOM     22  C   UNL     1       0.941  -1.633  -0.106  1.00  0.00    -0.051 A 
ATOM     23  C   UNL     1       0.250  -2.845  -0.233  1.00  0.00     0.004 A 
ATOM     24  C   UNL     1       0.196  -0.471  -0.131  1.00  0.00     0.004 A 
ATOM     25  C   UNL     1      -1.150  -2.879  -0.467  1.00  0.00     0.008 A 
ATOM     26  C   UNL     1      -1.186  -0.523  -0.319  1.00  0.00     0.008 A 
ENDBRANCH  13  20
ENDBRANCH  11  12
ENDBRANCH   9  11
ENDBRANCH   8   9
ENDBRANCH   7   8
ENDBRANCH   6   7
ENDBRANCH   5   6
ENDBRANCH   4   5
ENDBRANCH   3   4
ENDBRANCH   2   3
ENDBRANCH   1   2
BRANCH   1  27
ATOM     27  C   UNL     1      -2.527   3.887   0.838  1.00  0.00     0.188 C 
BRANCH  27  28
ATOM     28  O   UNL     1      -1.127   3.958   0.663  1.00  0.00    -0.376 OA
BRANCH  28  29
ATOM     29  C   UNL     1      -0.402   2.765   0.862  1.00  0.00     0.202 C 
BRANCH  29  30
ATOM     30  C   UNL     1       0.254   2.823   2.229  1.00  0.00     0.261 C 
BRANCH  30  31
ATOM     31  O   UNL     1       1.300   3.822   2.248  1.00  0.00    -0.460 OA
BRANCH  31  32
ATOM     32  C   UNL     1       0.854   5.108   2.402  1.00  0.00     0.338 C 
ATOM     33  O   UNL     1       0.489   5.557   3.477  1.00  0.00    -0.246 OA
BRANCH  32  34
ATOM     34  C   UNL     1       0.768   5.828   1.083  1.00  0.00     0.060 A 
ATOM     35  C   UNL     1      -0.125   6.901   0.953  1.00  0.00     0.016 A 
ATOM     36  C   UNL     1       1.251   5.212  -0.070  1.00  0.00     0.016 A 
ATOM     37  C   UNL     1      -0.696   7.207  -0.299  1.00  0.00     0.010 A 
ATOM     38  C   UNL     1       0.566   5.424  -1.267  1.00  0.00     0.010 A 
ATOM     39  C   UNL     1      -0.455   6.397  -1.399  1.00  0.00    -0.014 A 
BRANCH  39  40
ATOM     40  C   UNL     1      -1.117   6.492  -2.733  1.00  0.00     0.031 A 
ATOM     41  C   UNL     1      -0.170   6.644  -3.901  1.00  0.00     0.074 A 
ATOM     42  C   UNL     1      -2.403   6.094  -2.973  1.00  0.00     0.049 A 
ATOM     43  N   UNL     1      -0.446   6.443  -5.145  1.00  0.00    -0.248 NA
ATOM     44  C   UNL     1       1.234   7.001  -3.711  1.00  0.00     0.031 C 
ATOM     45  C   UNL     1      -2.828   5.405  -4.199  1.00  0.00     0.029 A 
ATOM     46  N   UNL     1      -3.583   6.059  -2.223  1.00  0.00    -0.354 N 
ATOM     47  C   UNL     1       0.731   6.405  -5.873  1.00  0.00     0.074 A 
ATOM     48  C   UNL     1       1.745   6.784  -4.927  1.00  0.00     0.031 C 
ATOM     49  C   UNL     1      -4.089   4.970  -4.113  1.00  0.00     0.029 A 
ATOM     50  C   UNL     1      -4.671   5.756  -3.068  1.00  0.00     0.049 A 
ATOM     51  H   UNL     1      -3.645   6.220  -1.254  1.00  0.00     0.167 HD
ATOM     52  C   UNL     1       0.701   5.968  -7.169  1.00  0.00     0.034 A 
ATOM     53  C   UNL     1      -5.741   6.563  -3.342  1.00  0.00     0.034 A 
ATOM     54  C   UNL     1      -0.700   5.851  -7.662  1.00  0.00     0.049 A 
ATOM     55  C   UNL     1      -5.708   7.099  -4.790  1.00  0.00     0.074 A 
ATOM     56  C   UNL     1      -1.457   4.861  -8.272  1.00  0.00     0.029 A 
ATOM     57  N   UNL     1      -1.594   6.904  -7.433  1.00  0.00    -0.354 N 
ATOM     58  N   UNL     1      -4.720   6.877  -5.629  1.00  0.00    -0.248 NA
ATOM     59  C   UNL     1      -6.765   7.871  -5.440  1.00  0.00     0.031 C 
ATOM     60  C   UNL     1      -2.824   5.266  -8.262  1.00  0.00     0.029 A 
ATOM     61  C   UNL     1      -2.892   6.557  -7.764  1.00  0.00     0.049 A 
ATOM     62  H   UNL     1      -1.331   7.784  -7.080  1.00  0.00     0.167 HD
ATOM     63  C   UNL     1      -4.909   7.519  -6.820  1.00  0.00     0.074 A 
ATOM     64  C   UNL     1      -6.239   8.085  -6.664  1.00  0.00     0.031 C 
ATOM     65  C   UNL     1      -3.947   7.568  -7.801  1.00  0.00     0.034 A 
BRANCH  52  66
ATOM     66  C   UNL     1       1.911   5.497  -8.014  1.00  0.00     0.023 A 
ATOM     67  C   UNL     1       1.625   4.995  -9.308  1.00  0.00     0.012 A 
ATOM     68  C   UNL     1       3.285   5.425  -7.649  1.00  0.00     0.148 A 
ATOM     69  C   UNL     1       2.580   4.392 -10.139  1.00  0.00     0.002 A 
ATOM     70  C   UNL     1       4.258   4.874  -8.505  1.00  0.00     0.091 A 
ATOM     71  F   UNL     1       3.690   5.868  -6.461  1.00  0.00    -0.205 F 
ATOM     72  C   UNL     1       3.900   4.329  -9.738  1.00  0.00     0.022 A 
BRANCH  70  73
ATOM     73  S   UNL     1       6.024   4.819  -8.112  1.00  0.00     0.127 S 
ATOM     74  O   UNL     1       6.333   3.396  -8.267  1.00  0.00    -0.237 OA
ATOM     75  O   UNL     1       6.599   5.677  -9.147  1.00  0.00    -0.237 OA
ATOM     76  O   UNL     1       6.160   5.321  -6.751  1.00  0.00    -0.744 OA
ENDBRANCH  70  73
ENDBRANCH  52  66
BRANCH  53  77
ATOM     77  C   UNL     1      -6.362   7.103  -2.093  1.00  0.00     0.023 A 
ATOM     78  C   UNL     1      -6.967   6.095  -1.292  1.00  0.00     0.012 A 
ATOM     79  C   UNL     1      -5.696   8.155  -1.452  1.00  0.00     0.148 A 
ATOM     80  C   UNL     1      -6.618   5.958   0.055  1.00  0.00     0.002 A 
ATOM     81  C   UNL     1      -5.324   7.995  -0.115  1.00  0.00     0.091 A 
ATOM     82  F   UNL     1      -5.248   9.170  -2.201  1.00  0.00    -0.205 F 
ATOM     83  C   UNL     1      -5.735   6.870   0.621  1.00  0.00     0.022 A 
BRANCH  81  84
ATOM     84  S   UNL     1      -3.995   9.000   0.567  1.00  0.00     0.127 S 
ATOM     85  O   UNL     1      -4.726  10.056   1.253  1.00  0.00    -0.237 OA
ATOM     86  O   UNL     1      -3.308   8.047   1.438  1.00  0.00    -0.237 OA
ATOM     87  O   UNL     1      -3.223   9.396  -0.602  1.00  0.00    -0.744 OA
ENDBRANCH  81  84
ENDBRANCH  53  77
BRANCH  65  88
ATOM     88  C   UNL     1      -3.876   8.587  -8.941  1.00  0.00     0.023 A 
ATOM     89  C   UNL     1      -4.696   9.727  -8.973  1.00  0.00     0.012 A 
ATOM     90  C   UNL     1      -2.844   8.530  -9.928  1.00  0.00     0.148 A 
ATOM     91  C   UNL     1      -4.542  10.727  -9.940  1.00  0.00     0.002 A 
ATOM     92  C   UNL     1      -2.620   9.582 -10.810  1.00  0.00     0.091 A 
ATOM     93  F   UNL     1      -2.072   7.442 -10.043  1.00  0.00    -0.205 F 
ATOM     94  C   UNL     1      -3.490  10.670 -10.841  1.00  0.00     0.022 A 
BRANCH  92  95
ATOM     95  S   UNL     1      -1.141   9.672 -11.835  1.00  0.00     0.127 S 
ATOM     96  O   UNL     1      -1.671   9.336 -13.154  1.00  0.00    -0.237 OA
ATOM     97  O   UNL     1      -0.747  11.074 -11.674  1.00  0.00    -0.237 OA
ATOM     98  O   UNL     1      -0.203   8.717 -11.263  1.00  0.00    -0.744 OA
ENDBRANCH  92  95
ENDBRANCH  65  88
ENDBRANCH  39  40
ENDBRANCH  32  34
ENDBRANCH  31  32
ENDBRANCH  30  31
ENDBRANCH  29  30
ENDBRANCH  28  29
ENDBRANCH  27  28
ENDBRANCH   1  27
TORSDOF 25
