REMARK SMILES Cc1ccc(S(=O)(=O)N(CC(=O)OCCOCCOCCOCCOC(=O)c2ccc(-c3c4nc(c(-c5cccc(S(=O)(=O)[O-])c5F)c5ccc([nH]5)c(-c5cccc(S(=O)(=O)[O-])c5F)c5nc(c(-c6cccc(S(=O)(=O)[O-])c6F)c6ccc3[nH]6)C=C5)C=C4)cc2)c2cc(Cl)cc(Cl)c2)cc1
REMARK SMILES IDX 19 1 18 2 17 3 16 4 15 5 14 6 13 7 11 8 12 9 10 10 9 11 6 12
REMARK SMILES IDX 7 13 8 14 5 15 1 16 2 17 3 18 100 19 4 20 99 21 91 22 92 23
REMARK SMILES IDX 98 24 93 25 96 26 94 27 95 28 97 29 20 30 21 31 22 32 23 33
REMARK SMILES IDX 24 34 25 35 26 36 27 37 28 38 29 39 90 40 30 41 89 42 31 43
REMARK SMILES IDX 32 44 33 45 83 46 34 47 88 48 82 49 84 50 35 51 87 52 81 53
REMARK SMILES IDX 80 54 36 56 68 57 48 58 67 59 49 60 52 61 66 62 85 63 50 64
REMARK SMILES IDX 51 65 65 67 86 68 53 69 37 70 38 71 46 72 39 73 41 74 47 75
REMARK SMILES IDX 40 76 42 77 43 78 44 79 45 80 69 81 70 82 78 83 71 84 73 85
REMARK SMILES IDX 79 86 72 87 74 88 75 89 76 90 77 91 54 92 55 93 63 94 56 95
REMARK SMILES IDX 58 96 64 97 57 98 59 99 60 100 61 101 62 102
REMARK H PARENT 84 55 52 66
REMARK Flexibility Score: inf
ROOT
ATOM      1  O   UNL     1      -6.614   2.596  -0.739  1.00  0.00    -0.377 OA
ENDROOT
BRANCH   1   2
ATOM      2  C   UNL     1      -6.862   3.989  -0.598  1.00  0.00     0.188 C 
BRANCH   2   3
ATOM      3  C   UNL     1      -5.635   4.870  -0.881  1.00  0.00     0.188 C 
BRANCH   3   4
ATOM      4  O   UNL     1      -4.723   4.475  -1.883  1.00  0.00    -0.376 OA
BRANCH   4   5
ATOM      5  C   UNL     1      -5.104   3.443  -2.765  1.00  0.00     0.202 C 
BRANCH   5   6
ATOM      6  C   UNL     1      -4.442   2.088  -2.495  1.00  0.00     0.261 C 
BRANCH   6   7
ATOM      7  O   UNL     1      -4.364   1.686  -1.123  1.00  0.00    -0.462 OA
BRANCH   7   8
ATOM      8  C   UNL     1      -3.587   2.363  -0.248  1.00  0.00     0.326 C 
ATOM      9  O   UNL     1      -2.693   3.140  -0.472  1.00  0.00    -0.250 OA
BRANCH   8  10
ATOM     10  C   UNL     1      -4.022   2.103   1.160  1.00  0.00     0.258 C 
BRANCH  10  11
ATOM     11  N   UNL     1      -4.526   0.774   1.602  1.00  0.00    -0.255 N 
BRANCH  11  12
ATOM     12  S   UNL     1      -3.713  -0.613   0.941  1.00  0.00     0.264 S 
ATOM     13  O   UNL     1      -4.215  -0.869  -0.396  1.00  0.00    -0.201 OA
ATOM     14  O   UNL     1      -3.832  -1.667   1.934  1.00  0.00    -0.201 OA
BRANCH  12  15
ATOM     15  C   UNL     1      -1.917  -0.395   0.765  1.00  0.00     0.088 A 
ATOM     16  C   UNL     1       2.391  -0.290   0.169  1.00  0.00     0.044 C 
ATOM     17  C   UNL     1       0.904  -0.334   0.365  1.00  0.00    -0.051 A 
ATOM     18  C   UNL     1       0.180  -1.510   0.156  1.00  0.00     0.005 A 
ATOM     19  C   UNL     1       0.215   0.795   0.800  1.00  0.00     0.005 A 
ATOM     20  C   UNL     1      -1.214  -1.536   0.338  1.00  0.00     0.022 A 
ATOM     21  C   UNL     1      -1.173   0.757   1.018  1.00  0.00     0.022 A 
ENDBRANCH  12  15
ENDBRANCH  11  12
BRANCH  11  22
ATOM     22  C   UNL     1      -5.992   0.675   1.888  1.00  0.00     0.055 A 
ATOM     23  C   UNL     1      -6.787   1.836   1.970  1.00  0.00     0.047 A 
ATOM     24  C   UNL     1      -6.643  -0.497   2.291  1.00  0.00     0.047 A 
ATOM     25  C   UNL     1      -8.143   1.847   2.307  1.00  0.00     0.044 A 
ATOM     26  C   UNL     1      -8.005  -0.484   2.676  1.00  0.00     0.044 A 
ATOM     27  Cl  UNL     1      -9.042   3.317   2.258  1.00  0.00    -0.084 Cl
ATOM     28  C   UNL     1      -8.762   0.682   2.679  1.00  0.00     0.041 A 
ATOM     29  Cl  UNL     1      -8.777  -1.939   3.186  1.00  0.00    -0.084 Cl
ENDBRANCH  11  22
ENDBRANCH  10  11
ENDBRANCH   8  10
ENDBRANCH   7   8
ENDBRANCH   6   7
ENDBRANCH   5   6
ENDBRANCH   4   5
ENDBRANCH   3   4
ENDBRANCH   2   3
ENDBRANCH   1   2
BRANCH   1  30
ATOM     30  C   UNL     1      -7.513   1.694  -1.399  1.00  0.00     0.188 C 
BRANCH  30  31
ATOM     31  C   UNL     1      -7.996   2.006  -2.823  1.00  0.00     0.188 C 
BRANCH  31  32
ATOM     32  O   UNL     1      -8.471   3.333  -2.879  1.00  0.00    -0.376 OA
BRANCH  32  33
ATOM     33  C   UNL     1      -9.776   3.540  -2.365  1.00  0.00     0.202 C 
BRANCH  33  34
ATOM     34  C   UNL     1     -10.655   3.794  -3.575  1.00  0.00     0.261 C 
BRANCH  34  35
ATOM     35  O   UNL     1     -10.063   4.906  -4.290  1.00  0.00    -0.460 OA
BRANCH  35  36
ATOM     36  C   UNL     1      -9.261   4.532  -5.334  1.00  0.00     0.338 C 
ATOM     37  O   UNL     1      -9.563   3.663  -6.137  1.00  0.00    -0.246 OA
BRANCH  36  38
ATOM     38  C   UNL     1      -7.928   5.223  -5.287  1.00  0.00     0.060 A 
ATOM     39  C   UNL     1      -6.956   4.939  -6.260  1.00  0.00     0.016 A 
ATOM     40  C   UNL     1      -7.557   6.004  -4.193  1.00  0.00     0.016 A 
ATOM     41  C   UNL     1      -5.615   5.357  -6.104  1.00  0.00     0.010 A 
ATOM     42  C   UNL     1      -6.222   6.387  -4.034  1.00  0.00     0.010 A 
ATOM     43  C   UNL     1      -5.215   6.043  -4.961  1.00  0.00    -0.014 A 
BRANCH  43  44
ATOM     44  C   UNL     1      -3.800   6.253  -4.533  1.00  0.00     0.031 A 
ATOM     45  C   UNL     1      -3.375   7.536  -3.883  1.00  0.00     0.074 A 
ATOM     46  C   UNL     1      -3.030   5.178  -4.211  1.00  0.00     0.049 A 
ATOM     47  N   UNL     1      -2.238   7.716  -3.287  1.00  0.00    -0.248 NA
ATOM     48  C   UNL     1      -4.189   8.749  -3.862  1.00  0.00     0.031 C 
ATOM     49  C   UNL     1      -2.269   5.106  -2.958  1.00  0.00     0.029 A 
ATOM     50  N   UNL     1      -2.883   3.894  -4.738  1.00  0.00    -0.354 N 
ATOM     51  C   UNL     1      -2.407   8.768  -2.424  1.00  0.00     0.074 A 
ATOM     52  C   UNL     1      -3.505   9.508  -2.996  1.00  0.00     0.031 C 
ATOM     53  C   UNL     1      -1.617   3.954  -2.878  1.00  0.00     0.029 A 
ATOM     54  C   UNL     1      -1.824   3.246  -4.118  1.00  0.00     0.049 A 
ATOM     55  H   UNL     1      -3.448   3.505  -5.445  1.00  0.00     0.167 HD
ATOM     56  C   UNL     1      -1.738   8.793  -1.232  1.00  0.00     0.034 A 
ATOM     57  C   UNL     1      -0.944   2.313  -4.546  1.00  0.00     0.034 A 
ATOM     58  C   UNL     1      -0.763   7.668  -1.068  1.00  0.00     0.049 A 
ATOM     59  C   UNL     1       0.416   2.914  -4.300  1.00  0.00     0.074 A 
ATOM     60  C   UNL     1      -0.509   6.738  -0.069  1.00  0.00     0.029 A 
ATOM     61  N   UNL     1       0.064   7.277  -2.139  1.00  0.00    -0.354 N 
ATOM     62  N   UNL     1       0.512   4.211  -4.112  1.00  0.00    -0.248 NA
ATOM     63  C   UNL     1       1.701   2.255  -4.087  1.00  0.00     0.031 C 
ATOM     64  C   UNL     1       0.437   5.782  -0.564  1.00  0.00     0.029 A 
ATOM     65  C   UNL     1       0.807   6.134  -1.856  1.00  0.00     0.049 A 
ATOM     66  H   UNL     1       0.112   7.760  -2.996  1.00  0.00     0.167 HD
ATOM     67  C   UNL     1       1.669   4.499  -3.481  1.00  0.00     0.074 A 
ATOM     68  C   UNL     1       2.453   3.279  -3.619  1.00  0.00     0.031 C 
ATOM     69  C   UNL     1       1.866   5.637  -2.752  1.00  0.00     0.034 A 
BRANCH  56  70
ATOM     70  C   UNL     1      -2.035   9.814  -0.118  1.00  0.00     0.023 A 
ATOM     71  C   UNL     1      -1.080   9.964   0.912  1.00  0.00     0.012 A 
ATOM     72  C   UNL     1      -3.183  10.648  -0.005  1.00  0.00     0.148 A 
ATOM     73  C   UNL     1      -1.217  10.913   1.940  1.00  0.00     0.002 A 
ATOM     74  C   UNL     1      -3.265  11.671   0.952  1.00  0.00     0.091 A 
ATOM     75  F   UNL     1      -4.269  10.393  -0.742  1.00  0.00    -0.205 F 
ATOM     76  C   UNL     1      -2.286  11.797   1.936  1.00  0.00     0.022 A 
BRANCH  74  77
ATOM     77  S   UNL     1      -4.574  12.917   0.945  1.00  0.00     0.127 S 
ATOM     78  O   UNL     1      -5.258  12.657   2.211  1.00  0.00    -0.237 OA
ATOM     79  O   UNL     1      -3.817  14.169   0.912  1.00  0.00    -0.237 OA
ATOM     80  O   UNL     1      -5.371  12.663  -0.250  1.00  0.00    -0.744 OA
ENDBRANCH  74  77
ENDBRANCH  56  70
BRANCH  57  81
ATOM     81  C   UNL     1      -1.540   1.213  -5.340  1.00  0.00     0.023 A 
ATOM     82  C   UNL     1      -2.145   0.166  -4.589  1.00  0.00     0.012 A 
ATOM     83  C   UNL     1      -2.132   1.568  -6.560  1.00  0.00     0.148 A 
ATOM     84  C   UNL     1      -3.398  -0.358  -4.950  1.00  0.00     0.002 A 
ATOM     85  C   UNL     1      -3.423   1.122  -6.854  1.00  0.00     0.091 A 
ATOM     86  F   UNL     1      -1.529   2.514  -7.292  1.00  0.00    -0.205 F 
ATOM     87  C   UNL     1      -4.066   0.172  -6.047  1.00  0.00     0.022 A 
BRANCH  85  88
ATOM     88  S   UNL     1      -4.436   2.021  -8.041  1.00  0.00     0.127 S 
ATOM     89  O   UNL     1      -4.341   1.177  -9.226  1.00  0.00    -0.237 OA
ATOM     90  O   UNL     1      -5.745   2.036  -7.390  1.00  0.00    -0.237 OA
ATOM     91  O   UNL     1      -3.807   3.333  -8.127  1.00  0.00    -0.744 OA
ENDBRANCH  85  88
ENDBRANCH  57  81
BRANCH  69  92
ATOM     92  C   UNL     1       3.058   6.500  -3.088  1.00  0.00     0.023 A 
ATOM     93  C   UNL     1       3.928   6.173  -4.150  1.00  0.00     0.012 A 
ATOM     94  C   UNL     1       3.212   7.774  -2.494  1.00  0.00     0.148 A 
ATOM     95  C   UNL     1       4.901   7.064  -4.601  1.00  0.00     0.002 A 
ATOM     96  C   UNL     1       4.107   8.695  -3.017  1.00  0.00     0.091 A 
ATOM     97  F   UNL     1       2.501   8.100  -1.406  1.00  0.00    -0.205 F 
ATOM     98  C   UNL     1       4.970   8.338  -4.056  1.00  0.00     0.022 A 
BRANCH  96  99
ATOM     99  S   UNL     1       4.089  10.410  -2.484  1.00  0.00     0.127 S 
ATOM    100  O   UNL     1       5.203  10.435  -1.539  1.00  0.00    -0.237 OA
ATOM    101  O   UNL     1       4.333  11.126  -3.737  1.00  0.00    -0.237 OA
ATOM    102  O   UNL     1       2.765  10.629  -1.919  1.00  0.00    -0.744 OA
ENDBRANCH  96  99
ENDBRANCH  69  92
ENDBRANCH  43  44
ENDBRANCH  36  38
ENDBRANCH  35  36
ENDBRANCH  34  35
ENDBRANCH  33  34
ENDBRANCH  32  33
ENDBRANCH  31  32
ENDBRANCH  30  31
ENDBRANCH   1  30
TORSDOF 27
