REMARK SMILES CC#CC[C@H](C(=O)OCCOCCOCCOCCOC(=O)c1ccc(-c2c3nc(c(-c4cccc(S(=O)(=O)[O-])c4F)c4ccc([nH]4)c(-c4cccc(S(=O)(=O)[O-])c4F)c4nc(c(-c5cccc(S(=O)(=O)[O-])c5F)c5ccc2[nH]5)C=C4)C=C3)cc1)c1cccc(Br)c1
REMARK SMILES IDX 15 1 14 2 13 3 12 4 11 5 10 6 9 7 8 8 6 9 7 10 5 11 4 12
REMARK SMILES IDX 3 13 1 14 2 15 86 16 87 17 92 18 88 19 90 20 89 21 91 22
REMARK SMILES IDX 16 23 17 24 18 25 19 26 20 27 21 28 22 29 23 30 24 31 85 32
REMARK SMILES IDX 25 33 84 34 26 35 27 36 28 37 78 38 29 39 83 40 77 41 79 42
REMARK SMILES IDX 30 43 82 44 76 45 75 46 31 48 63 49 43 50 62 51 44 52 47 53
REMARK SMILES IDX 61 54 80 55 45 56 46 57 60 59 81 60 48 61 32 62 33 63 41 64
REMARK SMILES IDX 34 65 36 66 42 67 35 68 37 69 38 70 39 71 40 72 64 73 65 74
REMARK SMILES IDX 73 75 66 76 68 77 74 78 67 79 69 80 70 81 71 82 72 83 49 84
REMARK SMILES IDX 50 85 58 86 51 87 53 88 59 89 52 90 54 91 55 92 56 93 57 94
REMARK H PARENT 79 47 47 58
REMARK Flexibility Score: inf
ROOT
ATOM      1  C   UNL     1      -0.368  -0.340   0.413  1.00  0.00     0.188 C 
ENDROOT
BRANCH   1   2
ATOM      2  O   UNL     1       0.432  -0.582   1.552  1.00  0.00    -0.377 OA
BRANCH   2   3
ATOM      3  C   UNL     1      -0.168  -0.555   2.840  1.00  0.00     0.188 C 
BRANCH   3   4
ATOM      4  C   UNL     1      -1.622  -0.068   3.128  1.00  0.00     0.188 C 
BRANCH   4   5
ATOM      5  O   UNL     1      -2.339   0.426   2.013  1.00  0.00    -0.376 OA
BRANCH   5   6
ATOM      6  C   UNL     1      -2.778   1.769   1.941  1.00  0.00     0.202 C 
BRANCH   6   7
ATOM      7  C   UNL     1      -1.753   2.894   2.090  1.00  0.00     0.261 C 
BRANCH   7   8
ATOM      8  O   UNL     1      -0.673   2.527   2.939  1.00  0.00    -0.463 OA
BRANCH   8   9
ATOM      9  C   UNL     1      -0.656   2.967   4.219  1.00  0.00     0.314 C 
ATOM     10  O   UNL     1      -1.526   3.676   4.707  1.00  0.00    -0.252 OA
BRANCH   9  11
ATOM     11  C   UNL     1       0.493   2.277   4.976  1.00  0.00     0.141 C 
BRANCH  11  12
ATOM     12  C   UNL     1       1.900   2.501   4.385  1.00  0.00     0.109 C 
BRANCH  12  13
ATOM     13  C   UNL     1       1.999   2.394   2.904  1.00  0.00    -0.102 C 
ATOM     14  C   UNL     1       2.127   2.976   0.144  1.00  0.00     0.107 C 
ATOM     15  C   UNL     1       2.058   2.663   1.630  1.00  0.00    -0.107 C 
ENDBRANCH  12  13
ENDBRANCH  11  12
BRANCH  11  16
ATOM     16  C   UNL     1       0.384   2.514   6.481  1.00  0.00    -0.032 A 
ATOM     17  C   UNL     1       0.442   3.807   7.018  1.00  0.00     0.005 A 
ATOM     18  C   UNL     1       0.083   1.437   7.337  1.00  0.00     0.020 A 
ATOM     19  C   UNL     1       0.155   4.025   8.367  1.00  0.00     0.001 A 
ATOM     20  C   UNL     1      -0.196   1.664   8.684  1.00  0.00     0.018 A 
ATOM     21  C   UNL     1      -0.172   2.956   9.200  1.00  0.00     0.016 A 
ATOM     22  Br  UNL     1      -0.659   0.211   9.804  1.00  0.00    -0.051 Br
ENDBRANCH  11  16
ENDBRANCH   9  11
ENDBRANCH   8   9
ENDBRANCH   7   8
ENDBRANCH   6   7
ENDBRANCH   5   6
ENDBRANCH   4   5
ENDBRANCH   3   4
ENDBRANCH   2   3
ENDBRANCH   1   2
BRANCH   1  23
ATOM     23  C   UNL     1      -1.495  -1.364   0.174  1.00  0.00     0.188 C 
BRANCH  23  24
ATOM     24  O   UNL     1      -1.706  -2.234   1.280  1.00  0.00    -0.376 OA
BRANCH  24  25
ATOM     25  C   UNL     1      -1.141  -3.533   1.205  1.00  0.00     0.202 C 
BRANCH  25  26
ATOM     26  C   UNL     1       0.364  -3.706   0.935  1.00  0.00     0.261 C 
BRANCH  26  27
ATOM     27  O   UNL     1       0.924  -2.991  -0.176  1.00  0.00    -0.460 OA
BRANCH  27  28
ATOM     28  C   UNL     1       0.519  -3.312  -1.421  1.00  0.00     0.338 C 
ATOM     29  O   UNL     1      -0.295  -4.164  -1.736  1.00  0.00    -0.246 OA
BRANCH  28  30
ATOM     30  C   UNL     1       1.096  -2.298  -2.332  1.00  0.00     0.060 A 
ATOM     31  C   UNL     1       0.246  -1.417  -3.015  1.00  0.00     0.016 A 
ATOM     32  C   UNL     1       2.481  -2.186  -2.463  1.00  0.00     0.016 A 
ATOM     33  C   UNL     1       0.782  -0.418  -3.832  1.00  0.00     0.010 A 
ATOM     34  C   UNL     1       3.014  -1.209  -3.307  1.00  0.00     0.010 A 
ATOM     35  C   UNL     1       2.168  -0.332  -4.009  1.00  0.00    -0.014 A 
BRANCH  35  36
ATOM     36  C   UNL     1       2.744   0.553  -5.049  1.00  0.00     0.031 A 
ATOM     37  C   UNL     1       3.100  -0.054  -6.376  1.00  0.00     0.074 A 
ATOM     38  C   UNL     1       2.987   1.854  -4.809  1.00  0.00     0.049 A 
ATOM     39  N   UNL     1       3.741   0.476  -7.383  1.00  0.00    -0.248 NA
ATOM     40  C   UNL     1       2.675  -1.448  -6.595  1.00  0.00     0.031 C 
ATOM     41  C   UNL     1       2.659   2.560  -3.574  1.00  0.00     0.029 A 
ATOM     42  N   UNL     1       3.608   2.804  -5.584  1.00  0.00    -0.354 N 
ATOM     43  C   UNL     1       3.816  -0.522  -8.347  1.00  0.00     0.074 A 
ATOM     44  C   UNL     1       3.166  -1.693  -7.801  1.00  0.00     0.031 C 
ATOM     45  C   UNL     1       3.132   3.817  -3.649  1.00  0.00     0.029 A 
ATOM     46  C   UNL     1       3.825   3.992  -4.924  1.00  0.00     0.049 A 
ATOM     47  H   UNL     1       3.872   2.650  -6.520  1.00  0.00     0.167 HD
ATOM     48  C   UNL     1       4.363  -0.463  -9.582  1.00  0.00     0.034 A 
ATOM     49  C   UNL     1       4.543   5.074  -5.291  1.00  0.00     0.034 A 
ATOM     50  C   UNL     1       5.010   0.701 -10.120  1.00  0.00     0.049 A 
ATOM     51  C   UNL     1       5.217   5.083  -6.642  1.00  0.00     0.074 A 
ATOM     52  C   UNL     1       5.585   0.865 -11.367  1.00  0.00     0.029 A 
ATOM     53  N   UNL     1       5.181   1.896  -9.439  1.00  0.00    -0.354 N 
ATOM     54  N   UNL     1       5.194   4.171  -7.584  1.00  0.00    -0.248 NA
ATOM     55  C   UNL     1       6.000   6.280  -6.990  1.00  0.00     0.031 C 
ATOM     56  C   UNL     1       6.128   2.151 -11.430  1.00  0.00     0.029 A 
ATOM     57  C   UNL     1       5.863   2.799 -10.234  1.00  0.00     0.049 A 
ATOM     58  H   UNL     1       4.863   2.075  -8.524  1.00  0.00     0.167 HD
ATOM     59  C   UNL     1       5.925   4.698  -8.645  1.00  0.00     0.074 A 
ATOM     60  C   UNL     1       6.356   6.019  -8.241  1.00  0.00     0.031 C 
ATOM     61  C   UNL     1       6.229   4.133  -9.839  1.00  0.00     0.034 A 
BRANCH  48  62
ATOM     62  C   UNL     1       4.261  -1.685 -10.452  1.00  0.00     0.023 A 
ATOM     63  C   UNL     1       3.018  -2.027 -11.022  1.00  0.00     0.012 A 
ATOM     64  C   UNL     1       5.402  -2.450 -10.765  1.00  0.00     0.148 A 
ATOM     65  C   UNL     1       2.906  -3.124 -11.873  1.00  0.00     0.002 A 
ATOM     66  C   UNL     1       5.291  -3.516 -11.649  1.00  0.00     0.091 A 
ATOM     67  F   UNL     1       6.569  -2.118 -10.197  1.00  0.00    -0.205 F 
ATOM     68  C   UNL     1       4.043  -3.860 -12.196  1.00  0.00     0.022 A 
BRANCH  66  69
ATOM     69  S   UNL     1       6.705  -4.482 -12.190  1.00  0.00     0.127 S 
ATOM     70  O   UNL     1       6.397  -5.796 -11.625  1.00  0.00    -0.237 OA
ATOM     71  O   UNL     1       6.589  -4.403 -13.646  1.00  0.00    -0.237 OA
ATOM     72  O   UNL     1       7.879  -3.828 -11.632  1.00  0.00    -0.744 OA
ENDBRANCH  66  69
ENDBRANCH  48  62
BRANCH  49  73
ATOM     73  C   UNL     1       4.688   6.240  -4.371  1.00  0.00     0.023 A 
ATOM     74  C   UNL     1       4.144   7.488  -4.733  1.00  0.00     0.012 A 
ATOM     75  C   UNL     1       5.396   6.130  -3.158  1.00  0.00     0.148 A 
ATOM     76  C   UNL     1       4.345   8.614  -3.931  1.00  0.00     0.002 A 
ATOM     77  C   UNL     1       5.541   7.241  -2.334  1.00  0.00     0.091 A 
ATOM     78  F   UNL     1       5.926   4.941  -2.836  1.00  0.00    -0.205 F 
ATOM     79  C   UNL     1       5.036   8.489  -2.729  1.00  0.00     0.022 A 
BRANCH  77  80
ATOM     80  S   UNL     1       6.304   7.140  -0.712  1.00  0.00     0.127 S 
ATOM     81  O   UNL     1       7.578   7.817  -0.937  1.00  0.00    -0.237 OA
ATOM     82  O   UNL     1       5.350   7.878   0.117  1.00  0.00    -0.237 OA
ATOM     83  O   UNL     1       6.384   5.718  -0.408  1.00  0.00    -0.744 OA
ENDBRANCH  77  80
ENDBRANCH  49  73
BRANCH  61  84
ATOM     84  C   UNL     1       7.032   4.948 -10.822  1.00  0.00     0.023 A 
ATOM     85  C   UNL     1       8.405   5.164 -10.595  1.00  0.00     0.012 A 
ATOM     86  C   UNL     1       6.445   5.411 -12.016  1.00  0.00     0.148 A 
ATOM     87  C   UNL     1       9.177   5.852 -11.531  1.00  0.00     0.002 A 
ATOM     88  C   UNL     1       7.230   6.051 -12.967  1.00  0.00     0.091 A 
ATOM     89  F   UNL     1       5.134   5.202 -12.206  1.00  0.00    -0.205 F 
ATOM     90  C   UNL     1       8.594   6.282 -12.721  1.00  0.00     0.022 A 
BRANCH  88  91
ATOM     91  S   UNL     1       6.595   6.558 -14.569  1.00  0.00     0.127 S 
ATOM     92  O   UNL     1       6.696   8.014 -14.482  1.00  0.00    -0.237 OA
ATOM     93  O   UNL     1       7.546   5.934 -15.488  1.00  0.00    -0.237 OA
ATOM     94  O   UNL     1       5.237   6.036 -14.650  1.00  0.00    -0.744 OA
ENDBRANCH  88  91
ENDBRANCH  61  84
ENDBRANCH  35  36
ENDBRANCH  28  30
ENDBRANCH  27  28
ENDBRANCH  26  27
ENDBRANCH  25  26
ENDBRANCH  24  25
ENDBRANCH  23  24
ENDBRANCH   1  23
TORSDOF 26
