REMARK SMILES C[C@@H](C(=O)OCCOCCOCCOCCOC(=O)c1ccc(-c2c3nc(c(-c4cccc(S(=O)(=O)[O-])c4F)c4ccc([nH]4)c(-c4cccc(S(=O)(=O)[O-])c4F)c4nc(c(-c5cccc(S(=O)(=O)[O-])c5F)c5ccc2[nH]5)C=C4)C=C3)cc1)S(=O)(=O)N[C@@]12C[C@@H]3C[C@@](C)(C[C@@](C)(C3)C1)C2
REMARK SMILES IDX 11 1 10 2 9 3 8 4 7 5 6 6 5 7 3 8 4 9 2 10 1 11 83 12 84 13
REMARK SMILES IDX 85 14 86 15 87 17 88 18 97 19 98 20 89 21 94 22 91 23 96 24
REMARK SMILES IDX 90 25 93 26 95 27 92 28 12 29 13 30 14 31 15 32 16 33 17 34
REMARK SMILES IDX 18 35 19 36 20 37 21 38 82 39 22 40 81 41 23 42 24 43 25 44
REMARK SMILES IDX 75 45 26 46 80 47 74 48 76 49 27 50 79 51 73 52 72 53 28 55
REMARK SMILES IDX 60 56 40 57 59 58 41 59 44 60 58 61 77 62 42 63 43 64 57 66
REMARK SMILES IDX 78 67 45 68 29 69 30 70 38 71 31 72 33 73 39 74 32 75 34 76
REMARK SMILES IDX 35 77 36 78 37 79 61 80 62 81 70 82 63 83 65 84 71 85 64 86
REMARK SMILES IDX 66 87 67 88 68 89 69 90 46 91 47 92 55 93 48 94 50 95 56 96
REMARK SMILES IDX 49 97 51 98 52 99 53 100 54 101
REMARK H PARENT 86 16 76 54 44 65
REMARK Flexibility Score: inf
ROOT
ATOM      1  O   UNL     1       2.340   2.608  -2.239  1.00  0.00    -0.377 OA
ENDROOT
BRANCH   1   2
ATOM      2  C   UNL     1       0.932   2.499  -2.187  1.00  0.00     0.188 C 
BRANCH   2   3
ATOM      3  C   UNL     1       0.141   3.798  -1.975  1.00  0.00     0.188 C 
BRANCH   3   4
ATOM      4  O   UNL     1       0.780   5.023  -1.648  1.00  0.00    -0.376 OA
BRANCH   4   5
ATOM      5  C   UNL     1       2.080   5.015  -1.085  1.00  0.00     0.202 C 
BRANCH   5   6
ATOM      6  C   UNL     1       2.285   4.348   0.287  1.00  0.00     0.261 C 
BRANCH   6   7
ATOM      7  O   UNL     1       1.709   3.036   0.478  1.00  0.00    -0.462 OA
BRANCH   7   8
ATOM      8  C   UNL     1       0.577   2.940   1.232  1.00  0.00     0.325 C 
ATOM      9  O   UNL     1      -0.004   3.915   1.693  1.00  0.00    -0.251 OA
BRANCH   8  10
ATOM     10  C   UNL     1       0.189   1.511   1.540  1.00  0.00     0.230 C 
ATOM     11  C   UNL     1       1.235   0.443   1.281  1.00  0.00     0.039 C 
BRANCH  10  12
ATOM     12  S   UNL     1      -1.481   1.096   0.992  1.00  0.00     0.225 S 
ATOM     13  O   UNL     1      -1.906  -0.086   1.710  1.00  0.00    -0.212 OA
ATOM     14  O   UNL     1      -2.306   2.284   1.079  1.00  0.00    -0.212 OA
BRANCH  12  15
ATOM     15  N   UNL     1      -1.530   0.758  -0.644  1.00  0.00    -0.208 NA
ATOM     16  H   UNL     1      -0.784   1.328  -1.042  1.00  0.00     0.141 HD
BRANCH  15  17
ATOM     17  C   UNL     1      -1.404  -0.560  -1.348  1.00  0.00     0.034 C 
ATOM     18  C   UNL     1      -2.158  -0.431  -2.706  1.00  0.00     0.027 C 
ATOM     19  C   UNL     1       0.070  -0.822  -1.656  1.00  0.00     0.030 C 
ATOM     20  C   UNL     1      -1.983  -1.788  -0.624  1.00  0.00     0.030 C 
ATOM     21  C   UNL     1      -1.988  -1.700  -3.561  1.00  0.00    -0.008 C 
ATOM     22  C   UNL     1       0.300  -2.053  -2.539  1.00  0.00    -0.030 C 
ATOM     23  C   UNL     1      -1.765  -3.081  -1.470  1.00  0.00    -0.030 C 
ATOM     24  C   UNL     1      -0.501  -1.915  -3.850  1.00  0.00     0.010 C 
ATOM     25  C   UNL     1      -2.514  -2.926  -2.810  1.00  0.00     0.010 C 
ATOM     26  C   UNL     1      -0.249  -3.263  -1.762  1.00  0.00     0.013 C 
ATOM     27  C   UNL     1       1.809  -2.169  -2.817  1.00  0.00     0.011 C 
ATOM     28  C   UNL     1      -2.282  -4.309  -0.718  1.00  0.00     0.011 C 
ENDBRANCH  15  17
ENDBRANCH  12  15
ENDBRANCH  10  12
ENDBRANCH   8  10
ENDBRANCH   7   8
ENDBRANCH   6   7
ENDBRANCH   5   6
ENDBRANCH   4   5
ENDBRANCH   3   4
ENDBRANCH   2   3
ENDBRANCH   1   2
BRANCH   1  29
ATOM     29  C   UNL     1       2.956   2.448  -3.508  1.00  0.00     0.188 C 
BRANCH  29  30
ATOM     30  C   UNL     1       2.342   3.295  -4.631  1.00  0.00     0.188 C 
BRANCH  30  31
ATOM     31  O   UNL     1       0.994   2.933  -4.922  1.00  0.00    -0.376 OA
BRANCH  31  32
ATOM     32  C   UNL     1       0.768   1.959  -5.937  1.00  0.00     0.202 C 
BRANCH  32  33
ATOM     33  C   UNL     1       1.405   0.581  -5.738  1.00  0.00     0.261 C 
BRANCH  33  34
ATOM     34  O   UNL     1       2.828   0.476  -5.797  1.00  0.00    -0.460 OA
BRANCH  34  35
ATOM     35  C   UNL     1       3.506   1.036  -6.809  1.00  0.00     0.338 C 
ATOM     36  O   UNL     1       3.059   1.589  -7.800  1.00  0.00    -0.246 OA
BRANCH  35  37
ATOM     37  C   UNL     1       4.900   1.062  -6.344  1.00  0.00     0.060 A 
ATOM     38  C   UNL     1       5.548   2.297  -6.250  1.00  0.00     0.016 A 
ATOM     39  C   UNL     1       5.521  -0.120  -5.922  1.00  0.00     0.016 A 
ATOM     40  C   UNL     1       6.853   2.346  -5.778  1.00  0.00     0.010 A 
ATOM     41  C   UNL     1       6.831  -0.071  -5.458  1.00  0.00     0.010 A 
ATOM     42  C   UNL     1       7.511   1.157  -5.436  1.00  0.00    -0.014 A 
BRANCH  42  43
ATOM     43  C   UNL     1       8.980   1.179  -5.319  1.00  0.00     0.031 A 
ATOM     44  C   UNL     1       9.776   0.781  -6.529  1.00  0.00     0.074 A 
ATOM     45  C   UNL     1       9.576   1.591  -4.189  1.00  0.00     0.049 A 
ATOM     46  N   UNL     1      11.069   0.743  -6.694  1.00  0.00    -0.248 NA
ATOM     47  C   UNL     1       9.006   0.371  -7.719  1.00  0.00     0.031 C 
ATOM     48  C   UNL     1       8.884   2.007  -2.970  1.00  0.00     0.029 A 
ATOM     49  N   UNL     1      10.906   1.713  -3.884  1.00  0.00    -0.354 N 
ATOM     50  C   UNL     1      11.267   0.287  -7.992  1.00  0.00     0.074 A 
ATOM     51  C   UNL     1       9.966   0.039  -8.566  1.00  0.00     0.031 C 
ATOM     52  C   UNL     1       9.800   2.319  -2.037  1.00  0.00     0.029 A 
ATOM     53  C   UNL     1      11.136   2.099  -2.586  1.00  0.00     0.049 A 
ATOM     54  H   UNL     1      11.626   1.542  -4.533  1.00  0.00     0.167 HD
ATOM     55  C   UNL     1      12.433   0.109  -8.651  1.00  0.00     0.034 A 
ATOM     56  C   UNL     1      12.299   2.230  -1.921  1.00  0.00     0.034 A 
ATOM     57  C   UNL     1      13.717   0.364  -8.064  1.00  0.00     0.049 A 
ATOM     58  C   UNL     1      13.586   1.989  -2.666  1.00  0.00     0.074 A 
ATOM     59  C   UNL     1      14.967   0.245  -8.642  1.00  0.00     0.029 A 
ATOM     60  N   UNL     1      13.915   0.774  -6.753  1.00  0.00    -0.354 N 
ATOM     61  N   UNL     1      13.762   1.653  -3.922  1.00  0.00    -0.248 NA
ATOM     62  C   UNL     1      14.834   2.179  -1.915  1.00  0.00     0.031 C 
ATOM     63  C   UNL     1      15.923   0.544  -7.666  1.00  0.00     0.029 A 
ATOM     64  C   UNL     1      15.267   0.898  -6.497  1.00  0.00     0.049 A 
ATOM     65  H   UNL     1      13.197   0.950  -6.103  1.00  0.00     0.167 HD
ATOM     66  C   UNL     1      15.137   1.627  -4.123  1.00  0.00     0.074 A 
ATOM     67  C   UNL     1      15.746   2.001  -2.861  1.00  0.00     0.031 C 
ATOM     68  C   UNL     1      15.839   1.314  -5.241  1.00  0.00     0.034 A 
BRANCH  55  69
ATOM     69  C   UNL     1      12.364  -0.382 -10.072  1.00  0.00     0.023 A 
ATOM     70  C   UNL     1      11.877   0.464 -11.089  1.00  0.00     0.012 A 
ATOM     71  C   UNL     1      12.810  -1.675 -10.404  1.00  0.00     0.148 A 
ATOM     72  C   UNL     1      11.805   0.019 -12.409  1.00  0.00     0.002 A 
ATOM     73  C   UNL     1      12.782  -2.094 -11.728  1.00  0.00     0.091 A 
ATOM     74  F   UNL     1      13.241  -2.475  -9.418  1.00  0.00    -0.205 F 
ATOM     75  C   UNL     1      12.268  -1.254 -12.730  1.00  0.00     0.022 A 
BRANCH  73  76
ATOM     76  S   UNL     1      13.425  -3.685 -12.255  1.00  0.00     0.127 S 
ATOM     77  O   UNL     1      12.205  -4.368 -12.684  1.00  0.00    -0.237 OA
ATOM     78  O   UNL     1      14.327  -3.305 -13.342  1.00  0.00    -0.237 OA
ATOM     79  O   UNL     1      14.082  -4.261 -11.090  1.00  0.00    -0.744 OA
ENDBRANCH  73  76
ENDBRANCH  55  69
BRANCH  56  80
ATOM     80  C   UNL     1      12.296   2.615  -0.482  1.00  0.00     0.023 A 
ATOM     81  C   UNL     1      12.806   3.866  -0.084  1.00  0.00     0.012 A 
ATOM     82  C   UNL     1      11.771   1.746   0.495  1.00  0.00     0.148 A 
ATOM     83  C   UNL     1      12.823   4.230   1.263  1.00  0.00     0.002 A 
ATOM     84  C   UNL     1      11.738   2.139   1.827  1.00  0.00     0.091 A 
ATOM     85  F   UNL     1      11.304   0.555   0.097  1.00  0.00    -0.205 F 
ATOM     86  C   UNL     1      12.281   3.372   2.217  1.00  0.00     0.022 A 
BRANCH  84  87
ATOM     87  S   UNL     1      10.940   1.153   3.099  1.00  0.00     0.127 S 
ATOM     88  O   UNL     1      12.081   0.721   3.901  1.00  0.00    -0.237 OA
ATOM     89  O   UNL     1      10.072   2.140   3.741  1.00  0.00    -0.237 OA
ATOM     90  O   UNL     1      10.228   0.098   2.392  1.00  0.00    -0.744 OA
ENDBRANCH  84  87
ENDBRANCH  56  80
BRANCH  68  91
ATOM     91  C   UNL     1      17.339   1.409  -5.170  1.00  0.00     0.023 A 
ATOM     92  C   UNL     1      18.074   0.461  -4.432  1.00  0.00     0.012 A 
ATOM     93  C   UNL     1      18.022   2.399  -5.904  1.00  0.00     0.148 A 
ATOM     94  C   UNL     1      19.466   0.521  -4.395  1.00  0.00     0.002 A 
ATOM     95  C   UNL     1      19.410   2.417  -5.908  1.00  0.00     0.091 A 
ATOM     96  F   UNL     1      17.301   3.300  -6.588  1.00  0.00    -0.205 F 
ATOM     97  C   UNL     1      20.134   1.489  -5.142  1.00  0.00     0.022 A 
BRANCH  95  98
ATOM     98  S   UNL     1      20.354   3.559  -6.922  1.00  0.00     0.127 S 
ATOM     99  O   UNL     1      20.938   4.441  -5.912  1.00  0.00    -0.237 OA
ATOM    100  O   UNL     1      21.309   2.669  -7.581  1.00  0.00    -0.237 OA
ATOM    101  O   UNL     1      19.395   4.190  -7.819  1.00  0.00    -0.744 OA
ENDBRANCH  95  98
ENDBRANCH  68  91
ENDBRANCH  42  43
ENDBRANCH  35  37
ENDBRANCH  34  35
ENDBRANCH  33  34
ENDBRANCH  32  33
ENDBRANCH  31  32
ENDBRANCH  30  31
ENDBRANCH  29  30
ENDBRANCH   1  29
TORSDOF 26
