REMARK SMILES Cc1ccc(OCC(=O)NNC(=O)[C@H]2CCCC[C@@H]2C(=O)OCCOCCOCCOCCOC(=O)c2ccc(-c3c4nc(c(-c5cccc(S(=O)(=O)[O-])c5F)c5ccc([nH]5)c(-c5cccc(S(=O)(=O)[O-])c5F)c5nc(c(-c6cccc(S(=O)(=O)[O-])c6F)c6ccc3[nH]6)C=C5)C=C4)cc2)cc1
REMARK SMILES IDX 27 1 26 2 25 3 24 4 23 5 22 6 20 7 21 8 19 9 14 10 15 11
REMARK SMILES IDX 16 12 18 13 17 14 12 15 11 16 13 18 10 19 8 20 9 21 7 23
REMARK SMILES IDX 6 24 5 25 1 26 2 27 3 28 101 29 4 30 100 31 28 32 29 33
REMARK SMILES IDX 30 34 31 35 32 36 33 37 34 38 35 39 36 40 37 41 38 42 99 43
REMARK SMILES IDX 39 44 98 45 40 46 41 47 42 48 92 49 43 50 97 51 91 52 93 53
REMARK SMILES IDX 44 54 96 55 90 56 89 57 45 59 77 60 57 61 76 62 58 63 61 64
REMARK SMILES IDX 75 65 94 66 59 67 60 68 74 70 95 71 62 72 46 73 47 74 55 75
REMARK SMILES IDX 48 76 50 77 56 78 49 79 51 80 52 81 53 82 54 83 78 84 79 85
REMARK SMILES IDX 87 86 80 87 82 88 88 89 81 90 83 91 84 92 85 93 86 94 63 95
REMARK SMILES IDX 64 96 72 97 65 98 67 99 73 100 66 101 68 102 69 103 70 104
REMARK SMILES IDX 71 105
REMARK H PARENT 11 17 10 22 93 58 61 69
REMARK Flexibility Score: inf
ROOT
ATOM      1  C   UNL     1      -3.584   3.663   3.056  1.00  0.00     0.188 C 
ENDROOT
BRANCH   1   2
ATOM      2  C   UNL     1      -3.183   2.598   2.034  1.00  0.00     0.188 C 
BRANCH   2   3
ATOM      3  O   UNL     1      -4.156   2.217   1.062  1.00  0.00    -0.376 OA
BRANCH   3   4
ATOM      4  C   UNL     1      -5.476   1.927   1.510  1.00  0.00     0.202 C 
BRANCH   4   5
ATOM      5  C   UNL     1      -5.612   0.780   2.480  1.00  0.00     0.261 C 
BRANCH   5   6
ATOM      6  O   UNL     1      -5.086   1.104   3.776  1.00  0.00    -0.463 OA
BRANCH   6   7
ATOM      7  C   UNL     1      -4.067   0.318   4.116  1.00  0.00     0.309 C 
ATOM      8  O   UNL     1      -3.600  -0.564   3.390  1.00  0.00    -0.252 OA
BRANCH   7   9
ATOM      9  C   UNL     1      -3.371   0.658   5.411  1.00  0.00     0.111 C 
ATOM     10  C   UNL     1      -3.103  -0.716   6.034  1.00  0.00     0.094 C 
ATOM     11  C   UNL     1      -4.127  -1.033   7.125  1.00  0.00     0.014 C 
ATOM     12  C   UNL     1      -4.198   0.018   8.213  1.00  0.00     0.001 C 
ATOM     13  C   UNL     1      -3.794   1.768   6.380  1.00  0.00     0.016 C 
ATOM     14  C   UNL     1      -4.541   1.388   7.655  1.00  0.00     0.001 C 
BRANCH  10  15
ATOM     15  C   UNL     1      -1.621  -0.859   6.353  1.00  0.00     0.242 C 
ATOM     16  N   UNL     1      -0.697  -0.725   5.326  1.00  0.00    -0.267 N 
ATOM     17  H   UNL     1       0.249  -0.859   5.561  1.00  0.00     0.191 HD
ATOM     18  O   UNL     1      -1.218  -1.127   7.485  1.00  0.00    -0.273 OA
BRANCH  16  19
ATOM     19  N   UNL     1      -0.981  -0.417   3.982  1.00  0.00    -0.265 N 
ATOM     20  C   UNL     1      -0.266   0.495   3.229  1.00  0.00     0.276 C 
ATOM     21  O   UNL     1      -0.627   0.809   2.095  1.00  0.00    -0.269 OA
ATOM     22  H   UNL     1      -1.735  -0.881   3.551  1.00  0.00     0.191 HD
BRANCH  20  23
ATOM     23  C   UNL     1       1.030   1.053   3.798  1.00  0.00     0.331 C 
BRANCH  23  24
ATOM     24  O   UNL     1       0.882   1.757   5.017  1.00  0.00    -0.484 OA
BRANCH  24  25
ATOM     25  C   UNL     1       0.782   3.119   4.982  1.00  0.00     0.120 A 
ATOM     26  C   UNL     1       0.606   7.415   5.405  1.00  0.00     0.044 C 
ATOM     27  C   UNL     1       0.658   5.924   5.248  1.00  0.00    -0.051 A 
ATOM     28  C   UNL     1       0.847   5.114   6.371  1.00  0.00     0.007 A 
ATOM     29  C   UNL     1       0.519   5.316   3.995  1.00  0.00     0.007 A 
ATOM     30  C   UNL     1       0.905   3.726   6.235  1.00  0.00     0.047 A 
ATOM     31  C   UNL     1       0.570   3.920   3.862  1.00  0.00     0.047 A 
ENDBRANCH  24  25
ENDBRANCH  23  24
ENDBRANCH  20  23
ENDBRANCH  16  19
ENDBRANCH  10  15
ENDBRANCH   7   9
ENDBRANCH   6   7
ENDBRANCH   5   6
ENDBRANCH   4   5
ENDBRANCH   3   4
ENDBRANCH   2   3
ENDBRANCH   1   2
BRANCH   1  32
ATOM     32  O   UNL     1      -3.503   4.956   2.491  1.00  0.00    -0.377 OA
BRANCH  32  33
ATOM     33  C   UNL     1      -4.424   5.168   1.436  1.00  0.00     0.188 C 
BRANCH  33  34
ATOM     34  C   UNL     1      -3.728   5.564   0.122  1.00  0.00     0.188 C 
BRANCH  34  35
ATOM     35  O   UNL     1      -2.450   6.178   0.201  1.00  0.00    -0.376 OA
BRANCH  35  36
ATOM     36  C   UNL     1      -2.265   7.125   1.246  1.00  0.00     0.202 C 
BRANCH  36  37
ATOM     37  C   UNL     1      -3.409   8.121   1.641  1.00  0.00     0.261 C 
BRANCH  37  38
ATOM     38  O   UNL     1      -4.696   7.819   1.031  1.00  0.00    -0.460 OA
BRANCH  38  39
ATOM     39  C   UNL     1      -5.768   8.620   0.835  1.00  0.00     0.338 C 
ATOM     40  O   UNL     1      -5.779   9.839   0.926  1.00  0.00    -0.246 OA
BRANCH  39  41
ATOM     41  C   UNL     1      -6.971   7.702   0.666  1.00  0.00     0.060 A 
ATOM     42  C   UNL     1      -8.084   7.846   1.490  1.00  0.00     0.016 A 
ATOM     43  C   UNL     1      -6.888   6.522  -0.074  1.00  0.00     0.016 A 
ATOM     44  C   UNL     1      -8.878   6.725   1.822  1.00  0.00     0.010 A 
ATOM     45  C   UNL     1      -7.590   5.382   0.342  1.00  0.00     0.010 A 
ATOM     46  C   UNL     1      -8.512   5.448   1.395  1.00  0.00    -0.014 A 
BRANCH  46  47
ATOM     47  C   UNL     1      -8.768   4.203   2.184  1.00  0.00     0.031 A 
ATOM     48  C   UNL     1      -9.024   2.853   1.515  1.00  0.00     0.074 A 
ATOM     49  C   UNL     1      -8.288   4.194   3.462  1.00  0.00     0.049 A 
ATOM     50  N   UNL     1      -9.000   1.694   2.108  1.00  0.00    -0.248 NA
ATOM     51  C   UNL     1      -9.361   2.711   0.098  1.00  0.00     0.031 C 
ATOM     52  C   UNL     1      -7.590   3.049   4.019  1.00  0.00     0.029 A 
ATOM     53  N   UNL     1      -8.122   5.135   4.483  1.00  0.00    -0.354 N 
ATOM     54  C   UNL     1      -9.014   0.690   1.153  1.00  0.00     0.074 A 
ATOM     55  C   UNL     1      -9.352   1.380  -0.067  1.00  0.00     0.031 C 
ATOM     56  C   UNL     1      -7.115   3.307   5.231  1.00  0.00     0.029 A 
ATOM     57  C   UNL     1      -7.784   4.478   5.682  1.00  0.00     0.049 A 
ATOM     58  H   UNL     1      -8.226   6.108   4.380  1.00  0.00     0.167 HD
ATOM     59  C   UNL     1      -8.635  -0.595   1.457  1.00  0.00     0.034 A 
ATOM     60  C   UNL     1      -8.503   4.414   6.842  1.00  0.00     0.034 A 
ATOM     61  C   UNL     1      -8.456  -0.848   2.919  1.00  0.00     0.049 A 
ATOM     62  C   UNL     1      -9.175   3.060   7.115  1.00  0.00     0.074 A 
ATOM     63  C   UNL     1      -7.554  -1.563   3.702  1.00  0.00     0.029 A 
ATOM     64  N   UNL     1      -9.299  -0.222   3.836  1.00  0.00    -0.354 N 
ATOM     65  N   UNL     1      -8.861   1.908   6.563  1.00  0.00    -0.248 NA
ATOM     66  C   UNL     1     -10.344   2.938   7.982  1.00  0.00     0.031 C 
ATOM     67  C   UNL     1      -7.868  -1.352   5.080  1.00  0.00     0.029 A 
ATOM     68  C   UNL     1      -8.992  -0.551   5.143  1.00  0.00     0.049 A 
ATOM     69  H   UNL     1     -10.030   0.386   3.581  1.00  0.00     0.167 HD
ATOM     70  C   UNL     1      -9.860   0.983   6.808  1.00  0.00     0.074 A 
ATOM     71  C   UNL     1     -10.734   1.674   7.744  1.00  0.00     0.031 C 
ATOM     72  C   UNL     1      -9.968  -0.238   6.178  1.00  0.00     0.034 A 
BRANCH  59  73
ATOM     73  C   UNL     1      -8.278  -1.683   0.414  1.00  0.00     0.023 A 
ATOM     74  C   UNL     1      -8.178  -3.023   0.868  1.00  0.00     0.012 A 
ATOM     75  C   UNL     1      -7.927  -1.484  -0.951  1.00  0.00     0.148 A 
ATOM     76  C   UNL     1      -7.716  -4.075   0.061  1.00  0.00     0.002 A 
ATOM     77  C   UNL     1      -7.562  -2.556  -1.786  1.00  0.00     0.091 A 
ATOM     78  F   UNL     1      -7.855  -0.242  -1.442  1.00  0.00    -0.205 F 
ATOM     79  C   UNL     1      -7.422  -3.846  -1.273  1.00  0.00     0.022 A 
BRANCH  77  80
ATOM     80  S   UNL     1      -7.290  -2.382  -3.565  1.00  0.00     0.127 S 
ATOM     81  O   UNL     1      -5.873  -2.715  -3.699  1.00  0.00    -0.237 OA
ATOM     82  O   UNL     1      -8.201  -3.384  -4.120  1.00  0.00    -0.237 OA
ATOM     83  O   UNL     1      -7.639  -1.005  -3.893  1.00  0.00    -0.744 OA
ENDBRANCH  77  80
ENDBRANCH  59  73
BRANCH  60  84
ATOM     84  C   UNL     1      -8.751   5.755   7.437  1.00  0.00     0.023 A 
ATOM     85  C   UNL     1      -7.559   6.345   7.931  1.00  0.00     0.012 A 
ATOM     86  C   UNL     1      -9.700   6.565   6.806  1.00  0.00     0.148 A 
ATOM     87  C   UNL     1      -7.171   7.606   7.482  1.00  0.00     0.002 A 
ATOM     88  C   UNL     1      -9.293   7.806   6.328  1.00  0.00     0.091 A 
ATOM     89  F   UNL     1     -10.896   6.036   6.517  1.00  0.00    -0.205 F 
ATOM     90  C   UNL     1      -8.009   8.303   6.618  1.00  0.00     0.022 A 
BRANCH  88  91
ATOM     91  S   UNL     1     -10.226   8.618   5.026  1.00  0.00     0.127 S 
ATOM     92  O   UNL     1     -10.972   9.631   5.761  1.00  0.00    -0.237 OA
ATOM     93  O   UNL     1      -9.161   9.130   4.168  1.00  0.00    -0.237 OA
ATOM     94  O   UNL     1     -11.007   7.550   4.417  1.00  0.00    -0.744 OA
ENDBRANCH  88  91
ENDBRANCH  60  84
BRANCH  72  95
ATOM     95  C   UNL     1     -11.101  -1.262   6.375  1.00  0.00     0.023 A 
ATOM     96  C   UNL     1     -11.863  -1.325   7.554  1.00  0.00     0.012 A 
ATOM     97  C   UNL     1     -11.412  -2.248   5.385  1.00  0.00     0.148 A 
ATOM     98  C   UNL     1     -12.973  -2.174   7.678  1.00  0.00     0.002 A 
ATOM     99  C   UNL     1     -12.486  -3.123   5.528  1.00  0.00     0.091 A 
ATOM    100  F   UNL     1     -10.654  -2.366   4.292  1.00  0.00    -0.205 F 
ATOM    101  C   UNL     1     -13.299  -3.056   6.657  1.00  0.00     0.022 A 
BRANCH  99 102
ATOM    102  S   UNL     1     -12.875  -4.402   4.318  1.00  0.00     0.127 S 
ATOM    103  O   UNL     1     -12.812  -5.612   5.139  1.00  0.00    -0.237 OA
ATOM    104  O   UNL     1     -14.223  -4.017   3.903  1.00  0.00    -0.237 OA
ATOM    105  O   UNL     1     -11.857  -4.319   3.281  1.00  0.00    -0.744 OA
ENDBRANCH  99 102
ENDBRANCH  72  95
ENDBRANCH  46  47
ENDBRANCH  39  41
ENDBRANCH  38  39
ENDBRANCH  37  38
ENDBRANCH  36  37
ENDBRANCH  35  36
ENDBRANCH  34  35
ENDBRANCH  33  34
ENDBRANCH  32  33
ENDBRANCH   1  32
TORSDOF 28
