REMARK SMILES Cc1ccc(-c2cc(Cl)cc3c2O[C@H](C(F)(F)F)C(C(=O)OCCOCCOCCOCCOC(=O)c2ccc(-c4c5nc(c(-c6cccc(S(=O)(=O)[O-])c6F)c6ccc([nH]6)c(-c6cccc(S(=O)(=O)[O-])c6F)c6nc(c(-c7cccc(S(=O)(=O)[O-])c7F)c7ccc4[nH]7)C=C6)C=C5)cc2)=C3)cc1F
REMARK SMILES IDX 29 1 28 2 27 3 26 4 25 5 24 6 23 7 22 8 20 9 21 10 19 11
REMARK SMILES IDX 6 12 7 13 12 14 8 15 11 16 13 17 9 18 10 19 100 20 14 21
REMARK SMILES IDX 5 22 1 23 2 24 3 25 102 26 4 27 101 28 103 29 15 30 16 31
REMARK SMILES IDX 17 32 18 33 30 34 31 35 32 36 33 37 34 38 35 39 36 40 37 41
REMARK SMILES IDX 38 42 99 43 39 44 98 45 40 46 41 47 42 48 92 49 43 50 97 51
REMARK SMILES IDX 91 52 93 53 44 54 96 55 90 56 89 57 45 59 77 60 57 61 76 62
REMARK SMILES IDX 58 63 61 64 75 65 94 66 59 67 60 68 74 70 95 71 62 72 46 73
REMARK SMILES IDX 47 74 55 75 48 76 50 77 56 78 49 79 51 80 52 81 53 82 54 83
REMARK SMILES IDX 78 84 79 85 87 86 80 87 82 88 88 89 81 90 83 91 84 92 85 93
REMARK SMILES IDX 86 94 63 95 64 96 72 97 65 98 67 99 73 100 66 101 68 102
REMARK SMILES IDX 69 103 70 104 71 105
REMARK H PARENT 93 58 61 69
REMARK Flexibility Score: inf
ROOT
ATOM      1  C   UNL     1      -4.381  -3.950   8.161  1.00  0.00     0.188 C 
ENDROOT
BRANCH   1   2
ATOM      2  O   UNL     1      -3.834  -2.965   6.939  1.00  0.00    -0.377 OA
BRANCH   2   3
ATOM      3  C   UNL     1      -4.084  -2.917   4.918  1.00  0.00     0.188 C 
BRANCH   3   4
ATOM      4  C   UNL     1      -4.867  -4.418   4.019  1.00  0.00     0.188 C 
BRANCH   4   5
ATOM      5  O   UNL     1      -5.755  -5.545   4.463  1.00  0.00    -0.376 OA
BRANCH   5   6
ATOM      6  C   UNL     1      -5.461  -6.820   5.131  1.00  0.00     0.202 C 
BRANCH   6   7
ATOM      7  C   UNL     1      -4.213  -7.683   4.687  1.00  0.00     0.261 C 
BRANCH   7   8
ATOM      8  O   UNL     1      -3.272  -6.960   3.857  1.00  0.00    -0.460 OA
BRANCH   8   9
ATOM      9  C   UNL     1      -3.541  -7.019   2.531  1.00  0.00     0.338 C 
ATOM     10  O   UNL     1      -4.157  -7.927   1.988  1.00  0.00    -0.246 OA
BRANCH   9  11
ATOM     11  C   UNL     1      -3.236  -5.724   1.841  1.00  0.00     0.087 C 
ATOM     12  C   UNL     1      -3.076  -1.924  -0.007  1.00  0.00     0.026 A 
ATOM     13  C   UNL     1      -4.062  -1.673  -0.988  1.00  0.00     0.033 A 
ATOM     14  C   UNL     1      -3.210  -3.110   0.756  1.00  0.00     0.135 A 
ATOM     15  C   UNL     1      -5.160  -2.516  -1.152  1.00  0.00     0.042 A 
ATOM     16  C   UNL     1      -4.259  -4.002   0.496  1.00  0.00     0.019 A 
ATOM     17  O   UNL     1      -2.346  -3.354   1.792  1.00  0.00    -0.475 OA
ATOM     18  Cl  UNL     1      -6.332  -2.178  -2.366  1.00  0.00    -0.084 Cl
ATOM     19  C   UNL     1      -5.275  -3.668  -0.396  1.00  0.00     0.032 A 
ATOM     20  C   UNL     1      -4.281  -5.320   1.101  1.00  0.00     0.027 C 
ATOM     21  C   UNL     1      -2.132  -4.746   2.217  1.00  0.00     0.316 C 
BRANCH  12  22
ATOM     22  C   UNL     1      -1.920  -0.993   0.074  1.00  0.00    -0.012 A 
ATOM     23  C   UNL     1       1.485   1.716   0.010  1.00  0.00     0.047 C 
ATOM     24  C   UNL     1       0.296   0.804   0.016  1.00  0.00    -0.015 A 
ATOM     25  C   UNL     1      -1.010   1.294   0.050  1.00  0.00     0.007 A 
ATOM     26  C   UNL     1       0.479  -0.579   0.003  1.00  0.00     0.126 A 
ATOM     27  C   UNL     1      -2.099   0.407   0.080  1.00  0.00     0.009 A 
ATOM     28  C   UNL     1      -0.600  -1.465   0.029  1.00  0.00     0.048 A 
ATOM     29  F   UNL     1       1.722  -1.077  -0.064  1.00  0.00    -0.207 F 
ENDBRANCH  12  22
BRANCH  21  30
ATOM     30  C   UNL     1      -0.740  -5.129   1.758  1.00  0.00     0.430 C 
ATOM     31  F   UNL     1       0.139  -4.137   2.050  1.00  0.00    -0.167 F 
ATOM     32  F   UNL     1      -0.304  -6.247   2.371  1.00  0.00    -0.167 F 
ATOM     33  F   UNL     1      -0.689  -5.320   0.422  1.00  0.00    -0.167 F 
ENDBRANCH  21  30
ENDBRANCH   9  11
ENDBRANCH   8   9
ENDBRANCH   7   8
ENDBRANCH   6   7
ENDBRANCH   5   6
ENDBRANCH   4   5
ENDBRANCH   3   4
ENDBRANCH   2   3
ENDBRANCH   1   2
BRANCH   1  34
ATOM     34  C   UNL     1      -5.711  -4.306   8.864  1.00  0.00     0.188 C 
BRANCH  34  35
ATOM     35  O   UNL     1      -6.901  -4.241   8.153  1.00  0.00    -0.376 OA
BRANCH  35  36
ATOM     36  C   UNL     1      -7.869  -3.362   8.711  1.00  0.00     0.202 C 
BRANCH  36  37
ATOM     37  C   UNL     1      -7.455  -1.914   9.123  1.00  0.00     0.261 C 
BRANCH  37  38
ATOM     38  O   UNL     1      -6.125  -1.698   9.680  1.00  0.00    -0.460 OA
BRANCH  38  39
ATOM     39  C   UNL     1      -5.902  -1.887  11.008  1.00  0.00     0.338 C 
ATOM     40  O   UNL     1      -6.753  -2.028  11.870  1.00  0.00    -0.246 OA
BRANCH  39  41
ATOM     41  C   UNL     1      -4.476  -2.349  11.166  1.00  0.00     0.060 A 
ATOM     42  C   UNL     1      -3.396  -1.773  10.469  1.00  0.00     0.016 A 
ATOM     43  C   UNL     1      -4.355  -3.645  11.699  1.00  0.00     0.016 A 
ATOM     44  C   UNL     1      -2.249  -2.546  10.190  1.00  0.00     0.010 A 
ATOM     45  C   UNL     1      -3.287  -4.442  11.318  1.00  0.00     0.010 A 
ATOM     46  C   UNL     1      -2.258  -3.915  10.522  1.00  0.00    -0.014 A 
BRANCH  46  47
ATOM     47  C   UNL     1      -1.223  -4.889  10.153  1.00  0.00     0.031 A 
ATOM     48  C   UNL     1      -0.143  -4.919  11.137  1.00  0.00     0.074 A 
ATOM     49  C   UNL     1      -1.362  -5.786   9.139  1.00  0.00     0.049 A 
ATOM     50  N   UNL     1       1.088  -5.190  10.918  1.00  0.00    -0.248 NA
ATOM     51  C   UNL     1      -0.390  -4.544  12.539  1.00  0.00     0.031 C 
ATOM     52  C   UNL     1      -0.630  -6.966   8.693  1.00  0.00     0.029 A 
ATOM     53  N   UNL     1      -2.198  -5.641   8.055  1.00  0.00    -0.354 N 
ATOM     54  C   UNL     1       1.534  -5.635  12.143  1.00  0.00     0.074 A 
ATOM     55  C   UNL     1       0.742  -4.940  13.119  1.00  0.00     0.031 C 
ATOM     56  C   UNL     1      -0.671  -7.041   7.338  1.00  0.00     0.029 A 
ATOM     57  C   UNL     1      -1.442  -5.894   6.904  1.00  0.00     0.049 A 
ATOM     58  H   UNL     1      -3.153  -5.404   8.083  1.00  0.00     0.167 HD
ATOM     59  C   UNL     1       2.221  -6.811  12.186  1.00  0.00     0.034 A 
ATOM     60  C   UNL     1      -1.117  -4.850   6.103  1.00  0.00     0.034 A 
ATOM     61  C   UNL     1       2.379  -7.359  10.841  1.00  0.00     0.049 A 
ATOM     62  C   UNL     1       0.418  -4.754   6.138  1.00  0.00     0.074 A 
ATOM     63  C   UNL     1       1.886  -8.472  10.181  1.00  0.00     0.029 A 
ATOM     64  N   UNL     1       2.900  -6.541   9.860  1.00  0.00    -0.354 N 
ATOM     65  N   UNL     1       1.109  -5.131   7.197  1.00  0.00    -0.248 NA
ATOM     66  C   UNL     1       1.314  -4.480   5.010  1.00  0.00     0.031 C 
ATOM     67  C   UNL     1       2.167  -8.324   8.791  1.00  0.00     0.029 A 
ATOM     68  C   UNL     1       2.712  -7.067   8.610  1.00  0.00     0.049 A 
ATOM     69  H   UNL     1       3.351  -5.684  10.037  1.00  0.00     0.167 HD
ATOM     70  C   UNL     1       2.388  -5.456   6.809  1.00  0.00     0.074 A 
ATOM     71  C   UNL     1       2.517  -4.836   5.504  1.00  0.00     0.031 C 
ATOM     72  C   UNL     1       3.215  -6.315   7.488  1.00  0.00     0.034 A 
BRANCH  59  73
ATOM     73  C   UNL     1       2.520  -7.601  13.433  1.00  0.00     0.023 A 
ATOM     74  C   UNL     1       2.469  -7.061  14.734  1.00  0.00     0.012 A 
ATOM     75  C   UNL     1       2.934  -8.946  13.339  1.00  0.00     0.148 A 
ATOM     76  C   UNL     1       2.773  -7.819  15.873  1.00  0.00     0.002 A 
ATOM     77  C   UNL     1       3.255  -9.693  14.465  1.00  0.00     0.091 A 
ATOM     78  F   UNL     1       3.056  -9.544  12.151  1.00  0.00    -0.205 F 
ATOM     79  C   UNL     1       3.175  -9.140  15.739  1.00  0.00     0.022 A 
BRANCH  77  80
ATOM     80  S   UNL     1       3.815 -11.376  14.217  1.00  0.00     0.127 S 
ATOM     81  O   UNL     1       2.631 -12.029  13.664  1.00  0.00    -0.237 OA
ATOM     82  O   UNL     1       4.957 -11.217  13.323  1.00  0.00    -0.237 OA
ATOM     83  O   UNL     1       4.168 -11.808  15.569  1.00  0.00    -0.744 OA
ENDBRANCH  77  80
ENDBRANCH  59  73
BRANCH  60  84
ATOM     84  C   UNL     1      -2.292  -3.854   6.030  1.00  0.00     0.023 A 
ATOM     85  C   UNL     1      -2.127  -2.139   6.206  1.00  0.00     0.012 A 
ATOM     86  C   UNL     1      -3.986  -4.550   6.019  1.00  0.00     0.148 A 
ATOM     87  C   UNL     1      -3.503  -1.076   6.423  1.00  0.00     0.002 A 
ATOM     88  C   UNL     1      -5.532  -3.409   6.222  1.00  0.00     0.091 A 
ATOM     89  F   UNL     1      -3.891  -5.842   6.149  1.00  0.00    -0.205 F 
ATOM     90  C   UNL     1      -5.164  -1.654   6.479  1.00  0.00     0.022 A 
BRANCH  88  91
ATOM     91  S   UNL     1      -7.274  -3.213   5.293  1.00  0.00     0.127 S 
ATOM     92  O   UNL     1      -6.903  -2.747   3.954  1.00  0.00    -0.237 OA
ATOM     93  O   UNL     1      -7.979  -4.479   5.392  1.00  0.00    -0.237 OA
ATOM     94  O   UNL     1      -7.904  -2.120   6.046  1.00  0.00    -0.744 OA
ENDBRANCH  88  91
ENDBRANCH  60  84
BRANCH  72  95
ATOM     95  C   UNL     1       4.680  -6.447   7.221  1.00  0.00     0.023 A 
ATOM     96  C   UNL     1       5.571  -6.455   8.325  1.00  0.00     0.012 A 
ATOM     97  C   UNL     1       5.229  -6.472   5.950  1.00  0.00     0.148 A 
ATOM     98  C   UNL     1       6.942  -6.298   8.170  1.00  0.00     0.002 A 
ATOM     99  C   UNL     1       6.578  -6.188   5.796  1.00  0.00     0.091 A 
ATOM    100  F   UNL     1       4.449  -6.737   4.891  1.00  0.00    -0.205 F 
ATOM    101  C   UNL     1       7.441  -6.093   6.896  1.00  0.00     0.022 A 
BRANCH  99 102
ATOM    102  S   UNL     1       7.116  -5.649   4.181  1.00  0.00     0.127 S 
ATOM    103  O   UNL     1       6.817  -6.788   3.321  1.00  0.00    -0.237 OA
ATOM    104  O   UNL     1       6.303  -4.451   3.979  1.00  0.00    -0.237 OA
ATOM    105  O   UNL     1       8.543  -5.386   4.372  1.00  0.00    -0.744 OA
ENDBRANCH  99 102
ENDBRANCH  72  95
ENDBRANCH  46  47
ENDBRANCH  39  41
ENDBRANCH  38  39
ENDBRANCH  37  38
ENDBRANCH  36  37
ENDBRANCH  35  36
ENDBRANCH  34  35
ENDBRANCH   1  34
TORSDOF 25
