REMARK SMILES O=C1C[C@H](c2cn[nH]c2C(=O)OCCOCCOCCOCCOC(=O)c2ccc(-c3c4nc(c(-c5cccc(S(=O)(=O)[O-])c5F)c5ccc([nH]5)c(-c5cccc(S(=O)(=O)[O-])c5F)c5nc(c(-c6cccc(S(=O)(=O)[O-])c6F)c6ccc3[nH]6)C=C5)C=C4)cc2)c2c(-c3cccs3)n[nH]c2N1
REMARK SMILES IDX 19 1 18 2 17 3 16 4 15 5 14 6 13 7 12 8 10 9 11 10 9 11 5 12
REMARK SMILES IDX 6 13 7 14 8 15 4 17 1 18 2 19 3 20 100 21 99 22 90 24 98 25
REMARK SMILES IDX 91 26 97 27 92 29 93 30 96 31 94 32 95 33 20 34 21 35 22 36
REMARK SMILES IDX 23 37 24 38 25 39 26 40 27 41 28 42 89 43 29 44 88 45 30 46
REMARK SMILES IDX 31 47 32 48 82 49 33 50 87 51 81 52 83 53 34 54 86 55 80 56
REMARK SMILES IDX 79 57 35 59 67 60 47 61 66 62 48 63 51 64 65 65 84 66 49 67
REMARK SMILES IDX 50 68 64 70 85 71 52 72 36 73 37 74 45 75 38 76 40 77 46 78
REMARK SMILES IDX 39 79 41 80 42 81 43 82 44 83 68 84 69 85 77 86 70 87 72 88
REMARK SMILES IDX 78 89 71 90 73 91 74 92 75 93 76 94 53 95 54 96 62 97 55 98
REMARK SMILES IDX 57 99 63 100 56 101 58 102 59 103 60 104 61 105
REMARK H PARENT 8 16 100 23 98 28 83 58 51 69
REMARK Flexibility Score: inf
ROOT
ATOM      1  C   UNL     1       3.566  -3.302  -2.422  1.00  0.00     0.188 C 
ENDROOT
BRANCH   1   2
ATOM      2  O   UNL     1       3.016  -2.118  -2.944  1.00  0.00    -0.377 OA
BRANCH   2   3
ATOM      3  C   UNL     1       3.940  -1.091  -3.235  1.00  0.00     0.188 C 
BRANCH   3   4
ATOM      4  C   UNL     1       5.089  -1.389  -4.228  1.00  0.00     0.188 C 
BRANCH   4   5
ATOM      5  O   UNL     1       5.839  -2.580  -4.100  1.00  0.00    -0.376 OA
BRANCH   5   6
ATOM      6  C   UNL     1       6.779  -2.840  -3.078  1.00  0.00     0.202 C 
BRANCH   6   7
ATOM      7  C   UNL     1       7.293  -1.801  -2.080  1.00  0.00     0.261 C 
BRANCH   7   8
ATOM      8  O   UNL     1       6.434  -0.692  -1.827  1.00  0.00    -0.459 OA
BRANCH   8   9
ATOM      9  C   UNL     1       6.824   0.495  -2.349  1.00  0.00     0.356 C 
ATOM     10  O   UNL     1       7.834   0.646  -3.038  1.00  0.00    -0.244 OA
BRANCH   9  11
ATOM     11  C   UNL     1       5.818   1.516  -2.205  1.00  0.00     0.147 A 
ATOM     12  C   UNL     1       4.825   1.893  -1.291  1.00  0.00     0.013 A 
ATOM     13  C   UNL     1       4.272   3.068  -1.894  1.00  0.00     0.140 A 
ATOM     14  N   UNL     1       4.810   3.370  -3.070  1.00  0.00    -0.183 NA
ATOM     15  N   UNL     1       5.735   2.427  -3.230  1.00  0.00    -0.271 N 
ATOM     16  H   UNL     1       6.315   2.385  -4.024  1.00  0.00     0.190 HD
BRANCH  12  17
ATOM     17  C   UNL     1       4.364   1.420   0.088  1.00  0.00     0.069 C 
ATOM     18  O   UNL     1       1.092  -0.390  -0.113  1.00  0.00    -0.275 OA
ATOM     19  C   UNL     1       2.269  -0.170   0.168  1.00  0.00     0.226 C 
ATOM     20  C   UNL     1       2.823   1.251   0.185  1.00  0.00     0.114 C 
ATOM     21  N   UNL     1       3.073  -1.198   0.587  1.00  0.00    -0.311 N 
ATOM     22  C   UNL     1       4.394  -0.962   0.835  1.00  0.00     0.132 A 
ATOM     23  H   UNL     1       2.700  -2.101   0.709  1.00  0.00     0.171 HD
ATOM     24  C   UNL     1       5.045   0.227   0.649  1.00  0.00     0.031 A 
ATOM     25  N   UNL     1       5.320  -1.863   1.254  1.00  0.00    -0.262 N 
ATOM     26  C   UNL     1       6.385  -0.040   1.028  1.00  0.00     0.108 A 
ATOM     27  N   UNL     1       6.566  -1.343   1.311  1.00  0.00    -0.173 NA
ATOM     28  H   UNL     1       5.106  -2.795   1.492  1.00  0.00     0.192 HD
BRANCH  26  29
ATOM     29  C   UNL     1       7.514   0.937   0.926  1.00  0.00     0.055 A 
ATOM     30  C   UNL     1       8.711   0.659   0.300  1.00  0.00     0.022 A 
ATOM     31  S   UNL     1       7.431   2.559   1.449  1.00  0.00    -0.142 S 
ATOM     32  C   UNL     1       9.492   1.838   0.107  1.00  0.00     0.012 A 
ATOM     33  C   UNL     1       8.938   2.930   0.735  1.00  0.00     0.065 A 
ENDBRANCH  26  29
ENDBRANCH  12  17
ENDBRANCH   9  11
ENDBRANCH   8   9
ENDBRANCH   7   8
ENDBRANCH   6   7
ENDBRANCH   5   6
ENDBRANCH   4   5
ENDBRANCH   3   4
ENDBRANCH   2   3
ENDBRANCH   1   2
BRANCH   1  34
ATOM     34  C   UNL     1       3.602  -4.460  -3.434  1.00  0.00     0.188 C 
BRANCH  34  35
ATOM     35  O   UNL     1       3.299  -4.304  -4.819  1.00  0.00    -0.376 OA
BRANCH  35  36
ATOM     36  C   UNL     1       2.440  -3.310  -5.365  1.00  0.00     0.202 C 
BRANCH  36  37
ATOM     37  C   UNL     1       0.991  -3.102  -4.928  1.00  0.00     0.261 C 
BRANCH  37  38
ATOM     38  O   UNL     1       0.781  -3.322  -3.557  1.00  0.00    -0.460 OA
BRANCH  38  39
ATOM     39  C   UNL     1       0.684  -4.622  -3.242  1.00  0.00     0.338 C 
ATOM     40  O   UNL     1       0.719  -5.574  -4.005  1.00  0.00    -0.246 OA
BRANCH  39  41
ATOM     41  C   UNL     1       0.469  -4.722  -1.786  1.00  0.00     0.060 A 
ATOM     42  C   UNL     1       0.148  -6.019  -1.403  1.00  0.00     0.016 A 
ATOM     43  C   UNL     1      -0.066  -3.585  -1.163  1.00  0.00     0.016 A 
ATOM     44  C   UNL     1      -1.076  -6.173  -0.819  1.00  0.00     0.010 A 
ATOM     45  C   UNL     1      -1.293  -3.736  -0.587  1.00  0.00     0.010 A 
ATOM     46  C   UNL     1      -1.825  -5.019  -0.560  1.00  0.00    -0.014 A 
BRANCH  46  47
ATOM     47  C   UNL     1      -3.201  -5.206  -0.194  1.00  0.00     0.031 A 
ATOM     48  C   UNL     1      -3.302  -5.639   1.209  1.00  0.00     0.074 A 
ATOM     49  C   UNL     1      -4.202  -4.943  -1.051  1.00  0.00     0.049 A 
ATOM     50  N   UNL     1      -3.577  -6.821   1.650  1.00  0.00    -0.248 NA
ATOM     51  C   UNL     1      -2.751  -4.725   2.223  1.00  0.00     0.031 C 
ATOM     52  C   UNL     1      -4.153  -4.227  -2.330  1.00  0.00     0.029 A 
ATOM     53  N   UNL     1      -5.529  -5.139  -0.866  1.00  0.00    -0.354 N 
ATOM     54  C   UNL     1      -3.477  -6.706   3.031  1.00  0.00     0.074 A 
ATOM     55  C   UNL     1      -2.702  -5.525   3.286  1.00  0.00     0.031 C 
ATOM     56  C   UNL     1      -5.402  -3.805  -2.641  1.00  0.00     0.029 A 
ATOM     57  C   UNL     1      -6.333  -4.328  -1.654  1.00  0.00     0.049 A 
ATOM     58  H   UNL     1      -5.891  -5.797  -0.229  1.00  0.00     0.167 HD
ATOM     59  C   UNL     1      -4.311  -7.396   3.850  1.00  0.00     0.034 A 
ATOM     60  C   UNL     1      -7.631  -4.025  -1.402  1.00  0.00     0.034 A 
ATOM     61  C   UNL     1      -4.952  -8.477   3.146  1.00  0.00     0.049 A 
ATOM     62  C   UNL     1      -8.130  -5.016  -0.411  1.00  0.00     0.074 A 
ATOM     63  C   UNL     1      -4.508  -9.606   2.487  1.00  0.00     0.029 A 
ATOM     64  N   UNL     1      -6.233  -8.248   2.701  1.00  0.00    -0.354 N 
ATOM     65  N   UNL     1      -8.258  -6.289  -0.668  1.00  0.00    -0.248 NA
ATOM     66  C   UNL     1      -8.013  -4.673   1.000  1.00  0.00     0.031 C 
ATOM     67  C   UNL     1      -5.365  -9.731   1.355  1.00  0.00     0.029 A 
ATOM     68  C   UNL     1      -6.323  -8.716   1.417  1.00  0.00     0.049 A 
ATOM     69  H   UNL     1      -6.957  -7.822   3.214  1.00  0.00     0.167 HD
ATOM     70  C   UNL     1      -7.796  -6.926   0.478  1.00  0.00     0.074 A 
ATOM     71  C   UNL     1      -7.746  -5.883   1.502  1.00  0.00     0.031 C 
ATOM     72  C   UNL     1      -7.204  -8.155   0.413  1.00  0.00     0.034 A 
BRANCH  59  73
ATOM     73  C   UNL     1      -4.862  -6.857   5.150  1.00  0.00     0.023 A 
ATOM     74  C   UNL     1      -5.630  -7.749   5.928  1.00  0.00     0.012 A 
ATOM     75  C   UNL     1      -4.905  -5.490   5.516  1.00  0.00     0.148 A 
ATOM     76  C   UNL     1      -6.448  -7.296   6.967  1.00  0.00     0.002 A 
ATOM     77  C   UNL     1      -5.657  -5.055   6.598  1.00  0.00     0.091 A 
ATOM     78  F   UNL     1      -4.335  -4.560   4.749  1.00  0.00    -0.205 F 
ATOM     79  C   UNL     1      -6.459  -5.949   7.306  1.00  0.00     0.022 A 
BRANCH  77  80
ATOM     80  S   UNL     1      -5.667  -3.328   7.098  1.00  0.00     0.127 S 
ATOM     81  O   UNL     1      -6.986  -2.899   6.644  1.00  0.00    -0.237 OA
ATOM     82  O   UNL     1      -5.514  -3.438   8.549  1.00  0.00    -0.237 OA
ATOM     83  O   UNL     1      -4.527  -2.715   6.427  1.00  0.00    -0.744 OA
ENDBRANCH  77  80
ENDBRANCH  59  73
BRANCH  60  84
ATOM     84  C   UNL     1      -8.350  -2.755  -1.671  1.00  0.00     0.023 A 
ATOM     85  C   UNL     1      -9.756  -2.746  -1.752  1.00  0.00     0.012 A 
ATOM     86  C   UNL     1      -7.681  -1.512  -1.591  1.00  0.00     0.148 A 
ATOM     87  C   UNL     1     -10.472  -1.541  -1.745  1.00  0.00     0.002 A 
ATOM     88  C   UNL     1      -8.395  -0.317  -1.596  1.00  0.00     0.091 A 
ATOM     89  F   UNL     1      -6.353  -1.505  -1.420  1.00  0.00    -0.205 F 
ATOM     90  C   UNL     1      -9.793  -0.328  -1.663  1.00  0.00     0.022 A 
BRANCH  88  91
ATOM     91  S   UNL     1      -7.589   1.287  -1.471  1.00  0.00     0.127 S 
ATOM     92  O   UNL     1      -8.168   2.003  -2.608  1.00  0.00    -0.237 OA
ATOM     93  O   UNL     1      -8.040   1.750  -0.162  1.00  0.00    -0.237 OA
ATOM     94  O   UNL     1      -6.160   1.026  -1.589  1.00  0.00    -0.744 OA
ENDBRANCH  88  91
ENDBRANCH  60  84
BRANCH  72  95
ATOM     95  C   UNL     1      -7.261  -8.905  -0.894  1.00  0.00     0.023 A 
ATOM     96  C   UNL     1      -6.581  -8.467  -2.051  1.00  0.00     0.012 A 
ATOM     97  C   UNL     1      -7.830 -10.188  -0.884  1.00  0.00     0.148 A 
ATOM     98  C   UNL     1      -6.480  -9.293  -3.175  1.00  0.00     0.002 A 
ATOM     99  C   UNL     1      -7.683 -11.024  -1.982  1.00  0.00     0.091 A 
ATOM    100  F   UNL     1      -8.469 -10.586   0.227  1.00  0.00    -0.205 F 
ATOM    101  C   UNL     1      -7.016 -10.579  -3.134  1.00  0.00     0.022 A 
BRANCH  99 102
ATOM    102  S   UNL     1      -8.218 -12.735  -1.929  1.00  0.00     0.127 S 
ATOM    103  O   UNL     1      -9.403 -12.711  -2.783  1.00  0.00    -0.237 OA
ATOM    104  O   UNL     1      -7.068 -13.442  -2.496  1.00  0.00    -0.237 OA
ATOM    105  O   UNL     1      -8.464 -13.036  -0.523  1.00  0.00    -0.744 OA
ENDBRANCH  99 102
ENDBRANCH  72  95
ENDBRANCH  46  47
ENDBRANCH  39  41
ENDBRANCH  38  39
ENDBRANCH  37  38
ENDBRANCH  36  37
ENDBRANCH  35  36
ENDBRANCH  34  35
ENDBRANCH   1  34
TORSDOF 25
