REMARK SMILES CC(C)c1nnsc1C[N@@H+]1C[C@@H](C(=O)OCCOCCOCCOCCOC(=O)c2ccc(-c3c4nc(c(-c5cccc(S(=O)(=O)[O-])c5F)c5ccc([nH]5)c(-c5cccc(S(=O)(=O)[O-])c5F)c5nc(c(-c6cccc(S(=O)(=O)[O-])c6F)c6ccc3[nH]6)C=C5)C=C4)cc2)[C@H](c2cccc(F)c2)C1
REMARK SMILES IDX 21 1 20 2 19 3 18 4 17 5 16 6 15 7 13 8 14 9 12 10 10 11
REMARK SMILES IDX 11 12 101 13 93 15 9 16 8 17 4 18 5 19 6 20 7 21 2 22 1 23
REMARK SMILES IDX 3 24 94 25 95 26 100 27 96 28 98 29 97 30 99 31 22 32 23 33
REMARK SMILES IDX 24 34 25 35 26 36 27 37 28 38 29 39 30 40 31 41 92 42 32 43
REMARK SMILES IDX 91 44 33 45 34 46 35 47 85 48 36 49 90 50 84 51 86 52 37 53
REMARK SMILES IDX 89 54 83 55 82 56 38 58 70 59 50 60 69 61 51 62 54 63 68 64
REMARK SMILES IDX 87 65 52 66 53 67 67 69 88 70 55 71 39 72 40 73 48 74 41 75
REMARK SMILES IDX 43 76 49 77 42 78 44 79 45 80 46 81 47 82 71 83 72 84 80 85
REMARK SMILES IDX 73 86 75 87 81 88 74 89 76 90 77 91 78 92 79 93 56 94 57 95
REMARK SMILES IDX 65 96 58 97 60 98 66 99 59 100 61 101 62 102 63 103 64 104
REMARK H PARENT 10 14 86 57 54 68
REMARK Flexibility Score: inf
ROOT
ATOM      1  O   UNL     1      -6.941  -1.853  -1.683  1.00  0.00    -0.377 OA
ENDROOT
BRANCH   1   2
ATOM      2  C   UNL     1      -6.066  -2.508  -0.778  1.00  0.00     0.188 C 
BRANCH   2   3
ATOM      3  C   UNL     1      -6.578  -3.455   0.340  1.00  0.00     0.188 C 
BRANCH   3   4
ATOM      4  O   UNL     1      -7.733  -2.990   1.019  1.00  0.00    -0.376 OA
BRANCH   4   5
ATOM      5  C   UNL     1      -7.647  -2.369   2.286  1.00  0.00     0.202 C 
BRANCH   5   6
ATOM      6  C   UNL     1      -6.756  -1.140   2.457  1.00  0.00     0.261 C 
BRANCH   6   7
ATOM      7  O   UNL     1      -5.485  -1.218   1.816  1.00  0.00    -0.463 OA
BRANCH   7   8
ATOM      8  C   UNL     1      -4.530  -2.053   2.300  1.00  0.00     0.315 C 
ATOM      9  O   UNL     1      -4.658  -2.801   3.255  1.00  0.00    -0.252 OA
BRANCH   8  10
ATOM     10  C   UNL     1      -3.305  -1.905   1.428  1.00  0.00     0.167 C 
ATOM     11  N   UNL     1      -1.612  -3.027   0.220  1.00  0.00    -0.329 N 
ATOM     12  C   UNL     1      -3.009  -3.153   0.620  1.00  0.00     0.278 C 
ATOM     13  C   UNL     1      -0.950  -2.296   1.308  1.00  0.00     0.272 C 
ATOM     14  H   UNL     1      -1.189  -3.949   0.111  1.00  0.00     0.348 HD
ATOM     15  C   UNL     1      -2.030  -1.666   2.228  1.00  0.00     0.094 C 
BRANCH  11  16
ATOM     16  C   UNL     1      -1.374  -2.519  -1.149  1.00  0.00     0.313 C 
BRANCH  16  17
ATOM     17  C   UNL     1      -1.577  -1.060  -1.431  1.00  0.00     0.103 A 
ATOM     18  C   UNL     1      -0.710   0.029  -1.572  1.00  0.00     0.087 A 
ATOM     19  N   UNL     1      -1.358   1.244  -1.812  1.00  0.00    -0.142 NA
ATOM     20  N   UNL     1      -2.652   1.098  -2.000  1.00  0.00    -0.090 NA
ATOM     21  S   UNL     1      -3.134  -0.486  -1.932  1.00  0.00    -0.011 S 
BRANCH  18  22
ATOM     22  C   UNL     1       0.796   0.126  -1.594  1.00  0.00     0.035 C 
ATOM     23  C   UNL     1       1.433   0.327  -0.224  1.00  0.00     0.014 C 
ATOM     24  C   UNL     1       1.483  -1.001  -2.360  1.00  0.00     0.014 C 
ENDBRANCH  18  22
ENDBRANCH  16  17
ENDBRANCH  11  16
BRANCH  15  25
ATOM     25  C   UNL     1      -1.826  -0.213   2.636  1.00  0.00    -0.035 A 
ATOM     26  C   UNL     1      -0.544   0.338   2.771  1.00  0.00     0.004 A 
ATOM     27  C   UNL     1      -2.912   0.622   2.958  1.00  0.00     0.043 A 
ATOM     28  C   UNL     1      -0.363   1.683   3.116  1.00  0.00     0.003 A 
ATOM     29  C   UNL     1      -2.727   1.952   3.319  1.00  0.00     0.123 A 
ATOM     30  C   UNL     1      -1.459   2.497   3.384  1.00  0.00     0.039 A 
ATOM     31  F   UNL     1      -3.795   2.699   3.623  1.00  0.00    -0.207 F 
ENDBRANCH  15  25
ENDBRANCH   8  10
ENDBRANCH   7   8
ENDBRANCH   6   7
ENDBRANCH   5   6
ENDBRANCH   4   5
ENDBRANCH   3   4
ENDBRANCH   2   3
ENDBRANCH   1   2
BRANCH   1  32
ATOM     32  C   UNL     1      -8.235  -1.537  -1.201  1.00  0.00     0.188 C 
BRANCH  32  33
ATOM     33  C   UNL     1      -9.192  -2.736  -1.337  1.00  0.00     0.188 C 
BRANCH  33  34
ATOM     34  O   UNL     1      -8.523  -3.966  -1.575  1.00  0.00    -0.376 OA
BRANCH  34  35
ATOM     35  C   UNL     1      -8.229  -4.379  -2.900  1.00  0.00     0.202 C 
BRANCH  35  36
ATOM     36  C   UNL     1      -7.753  -3.434  -4.022  1.00  0.00     0.261 C 
BRANCH  36  37
ATOM     37  O   UNL     1      -8.320  -2.124  -4.102  1.00  0.00    -0.460 OA
BRANCH  37  38
ATOM     38  C   UNL     1      -9.628  -2.016  -4.417  1.00  0.00     0.338 C 
ATOM     39  O   UNL     1     -10.402  -2.914  -4.658  1.00  0.00    -0.246 OA
BRANCH  38  40
ATOM     40  C   UNL     1      -9.990  -0.596  -4.197  1.00  0.00     0.060 A 
ATOM     41  C   UNL     1     -10.945  -0.281  -3.220  1.00  0.00     0.016 A 
ATOM     42  C   UNL     1      -9.351   0.417  -4.917  1.00  0.00     0.016 A 
ATOM     43  C   UNL     1     -11.280   1.048  -2.975  1.00  0.00     0.010 A 
ATOM     44  C   UNL     1      -9.717   1.746  -4.700  1.00  0.00     0.010 A 
ATOM     45  C   UNL     1     -10.707   2.061  -3.752  1.00  0.00    -0.014 A 
BRANCH  45  46
ATOM     46  C   UNL     1     -11.313   3.410  -3.736  1.00  0.00     0.031 A 
ATOM     47  C   UNL     1     -12.323   3.732  -4.803  1.00  0.00     0.074 A 
ATOM     48  C   UNL     1     -10.984   4.320  -2.804  1.00  0.00     0.049 A 
ATOM     49  N   UNL     1     -12.956   4.850  -5.033  1.00  0.00    -0.248 NA
ATOM     50  C   UNL     1     -12.663   2.644  -5.740  1.00  0.00     0.031 C 
ATOM     51  C   UNL     1     -10.031   4.112  -1.714  1.00  0.00     0.029 A 
ATOM     52  N   UNL     1     -11.399   5.619  -2.647  1.00  0.00    -0.354 N 
ATOM     53  C   UNL     1     -13.736   4.615  -6.159  1.00  0.00     0.074 A 
ATOM     54  C   UNL     1     -13.503   3.248  -6.566  1.00  0.00     0.031 C 
ATOM     55  C   UNL     1      -9.903   5.260  -1.025  1.00  0.00     0.029 A 
ATOM     56  C   UNL     1     -10.740   6.287  -1.642  1.00  0.00     0.049 A 
ATOM     57  H   UNL     1     -12.101   6.032  -3.201  1.00  0.00     0.167 HD
ATOM     58  C   UNL     1     -14.574   5.464  -6.795  1.00  0.00     0.034 A 
ATOM     59  C   UNL     1     -10.786   7.588  -1.292  1.00  0.00     0.034 A 
ATOM     60  C   UNL     1     -14.815   6.816  -6.376  1.00  0.00     0.049 A 
ATOM     61  C   UNL     1     -11.712   8.517  -2.039  1.00  0.00     0.074 A 
ATOM     62  C   UNL     1     -15.689   7.738  -6.921  1.00  0.00     0.029 A 
ATOM     63  N   UNL     1     -14.166   7.445  -5.327  1.00  0.00    -0.354 N 
ATOM     64  N   UNL     1     -12.537   8.250  -3.022  1.00  0.00    -0.248 NA
ATOM     65  C   UNL     1     -11.737   9.923  -1.605  1.00  0.00     0.031 C 
ATOM     66  C   UNL     1     -15.537   8.942  -6.228  1.00  0.00     0.029 A 
ATOM     67  C   UNL     1     -14.606   8.752  -5.219  1.00  0.00     0.049 A 
ATOM     68  H   UNL     1     -13.492   7.025  -4.745  1.00  0.00     0.167 HD
ATOM     69  C   UNL     1     -13.208   9.439  -3.293  1.00  0.00     0.074 A 
ATOM     70  C   UNL     1     -12.708  10.422  -2.357  1.00  0.00     0.031 C 
ATOM     71  C   UNL     1     -14.143   9.699  -4.239  1.00  0.00     0.034 A 
BRANCH  58  72
ATOM     72  C   UNL     1     -15.299   4.964  -8.013  1.00  0.00     0.023 A 
ATOM     73  C   UNL     1     -16.369   4.058  -7.875  1.00  0.00     0.012 A 
ATOM     74  C   UNL     1     -14.974   5.468  -9.288  1.00  0.00     0.148 A 
ATOM     75  C   UNL     1     -17.098   3.651  -8.992  1.00  0.00     0.002 A 
ATOM     76  C   UNL     1     -15.735   5.095 -10.387  1.00  0.00     0.091 A 
ATOM     77  F   UNL     1     -13.935   6.309  -9.396  1.00  0.00    -0.205 F 
ATOM     78  C   UNL     1     -16.791   4.180 -10.243  1.00  0.00     0.022 A 
BRANCH  76  79
ATOM     79  S   UNL     1     -15.475   5.785 -12.024  1.00  0.00     0.127 S 
ATOM     80  O   UNL     1     -15.058   4.604 -12.780  1.00  0.00    -0.237 OA
ATOM     81  O   UNL     1     -16.808   6.284 -12.359  1.00  0.00    -0.237 OA
ATOM     82  O   UNL     1     -14.455   6.814 -11.874  1.00  0.00    -0.744 OA
ENDBRANCH  76  79
ENDBRANCH  58  72
BRANCH  59  83
ATOM     83  C   UNL     1      -9.931   8.108  -0.185  1.00  0.00     0.023 A 
ATOM     84  C   UNL     1     -10.530   8.595   0.993  1.00  0.00     0.012 A 
ATOM     85  C   UNL     1      -8.530   8.159  -0.313  1.00  0.00     0.148 A 
ATOM     86  C   UNL     1      -9.754   9.171   2.000  1.00  0.00     0.002 A 
ATOM     87  C   UNL     1      -7.758   8.681   0.718  1.00  0.00     0.091 A 
ATOM     88  F   UNL     1      -7.978   7.708  -1.448  1.00  0.00    -0.205 F 
ATOM     89  C   UNL     1      -8.369   9.208   1.866  1.00  0.00     0.022 A 
BRANCH  87  90
ATOM     90  S   UNL     1      -5.963   8.665   0.680  1.00  0.00     0.127 S 
ATOM     91  O   UNL     1      -5.655  10.079   0.484  1.00  0.00    -0.237 OA
ATOM     92  O   UNL     1      -5.638   8.143   2.008  1.00  0.00    -0.237 OA
ATOM     93  O   UNL     1      -5.603   7.780  -0.419  1.00  0.00    -0.744 OA
ENDBRANCH  87  90
ENDBRANCH  59  83
BRANCH  71  94
ATOM     94  C   UNL     1     -14.745  11.081  -4.276  1.00  0.00     0.023 A 
ATOM     95  C   UNL     1     -13.979  12.177  -4.720  1.00  0.00     0.012 A 
ATOM     96  C   UNL     1     -16.101  11.274  -3.944  1.00  0.00     0.148 A 
ATOM     97  C   UNL     1     -14.544  13.449  -4.796  1.00  0.00     0.002 A 
ATOM     98  C   UNL     1     -16.672  12.533  -4.076  1.00  0.00     0.091 A 
ATOM     99  F   UNL     1     -16.809  10.220  -3.511  1.00  0.00    -0.205 F 
ATOM    100  C   UNL     1     -15.891  13.625  -4.487  1.00  0.00     0.022 A 
BRANCH  98 101
ATOM    101  S   UNL     1     -18.421  12.832  -3.800  1.00  0.00     0.127 S 
ATOM    102  O   UNL     1     -18.398  13.618  -2.568  1.00  0.00    -0.237 OA
ATOM    103  O   UNL     1     -18.798  13.585  -4.997  1.00  0.00    -0.237 OA
ATOM    104  O   UNL     1     -19.043  11.520  -3.690  1.00  0.00    -0.744 OA
ENDBRANCH  98 101
ENDBRANCH  71  94
ENDBRANCH  45  46
ENDBRANCH  38  40
ENDBRANCH  37  38
ENDBRANCH  36  37
ENDBRANCH  35  36
ENDBRANCH  34  35
ENDBRANCH  33  34
ENDBRANCH  32  33
ENDBRANCH   1  32
TORSDOF 27
