REMARK SMILES Cc1nc2n(n1)[C@@H](c1ccc([N+](=O)[O-])o1)CC(C(=O)OCCOCCOCCOCCOC(=O)c1ccc(-c3c4nc(c(-c5cccc(S(=O)(=O)[O-])c5F)c5ccc([nH]5)c(-c5cccc(S(=O)(=O)[O-])c5F)c5nc(c(-c6cccc(S(=O)(=O)[O-])c6F)c6ccc3[nH]6)C=C5)C=C4)cc1)=N2
REMARK SMILES IDX 27 1 26 2 25 3 24 4 23 5 22 6 21 7 20 8 18 9 19 10 17 11
REMARK SMILES IDX 1 12 2 13 3 14 6 15 4 16 5 17 98 18 7 19 16 20 8 21 9 22
REMARK SMILES IDX 15 23 10 24 11 25 12 26 13 27 14 28 28 29 29 30 30 31 31 32
REMARK SMILES IDX 32 33 33 34 34 35 35 36 36 37 97 38 37 39 96 40 38 41 39 42
REMARK SMILES IDX 40 43 90 44 41 45 95 46 89 47 91 48 42 49 94 50 88 51 87 52
REMARK SMILES IDX 43 54 75 55 55 56 74 57 56 58 59 59 73 60 92 61 57 62 58 63
REMARK SMILES IDX 72 65 93 66 60 67 44 68 45 69 53 70 46 71 48 72 54 73 47 74
REMARK SMILES IDX 49 75 50 76 51 77 52 78 76 79 77 80 85 81 78 82 80 83 86 84
REMARK SMILES IDX 79 85 81 86 82 87 83 88 84 89 61 90 62 91 70 92 63 93 65 94
REMARK SMILES IDX 71 95 64 96 66 97 67 98 68 99 69 100
REMARK H PARENT 91 53 59 64
REMARK Flexibility Score: inf
ROOT
ATOM      1  C   UNL     1      -2.918  -8.369   4.757  1.00  0.00     0.188 C 
ENDROOT
BRANCH   1   2
ATOM      2  O   UNL     1      -1.822  -7.459   4.897  1.00  0.00    -0.377 OA
BRANCH   2   3
ATOM      3  C   UNL     1      -1.462  -6.765   3.714  1.00  0.00     0.188 C 
BRANCH   3   4
ATOM      4  C   UNL     1      -0.210  -7.298   2.977  1.00  0.00     0.188 C 
BRANCH   4   5
ATOM      5  O   UNL     1       0.533  -8.426   3.438  1.00  0.00    -0.376 OA
BRANCH   5   6
ATOM      6  C   UNL     1       0.661  -8.701   4.825  1.00  0.00     0.202 C 
BRANCH   6   7
ATOM      7  C   UNL     1       1.313  -7.636   5.712  1.00  0.00     0.261 C 
BRANCH   7   8
ATOM      8  O   UNL     1       0.798  -6.326   5.453  1.00  0.00    -0.459 OA
BRANCH   8   9
ATOM      9  C   UNL     1       1.709  -5.361   5.257  1.00  0.00     0.352 C 
ATOM     10  O   UNL     1       2.903  -5.384   5.478  1.00  0.00    -0.245 OA
BRANCH   9  11
ATOM     11  C   UNL     1       1.031  -4.180   4.578  1.00  0.00     0.132 C 
ATOM     12  C   UNL     1       0.669  -0.140   0.470  1.00  0.00     0.092 C 
ATOM     13  C   UNL     1       0.525  -1.100   1.581  1.00  0.00     0.149 A 
ATOM     14  N   UNL     1       1.224  -2.275   1.617  1.00  0.00    -0.195 NA
ATOM     15  N   UNL     1      -0.247  -0.873   2.649  1.00  0.00    -0.154 NA
ATOM     16  C   UNL     1       0.901  -2.807   2.776  1.00  0.00     0.249 A 
ATOM     17  N   UNL     1      -0.041  -2.004   3.359  1.00  0.00    -0.219 N 
ATOM     18  N   UNL     1       1.426  -3.892   3.377  1.00  0.00    -0.209 NA
ATOM     19  C   UNL     1      -0.612  -2.224   4.673  1.00  0.00     0.184 C 
ATOM     20  C   UNL     1      -0.052  -3.478   5.359  1.00  0.00     0.100 C 
BRANCH  19  21
ATOM     21  C   UNL     1      -2.119  -2.227   4.625  1.00  0.00     0.136 A 
ATOM     22  C   UNL     1      -3.070  -1.956   3.652  1.00  0.00     0.056 A 
ATOM     23  O   UNL     1      -2.751  -2.490   5.814  1.00  0.00    -0.404 OA
ATOM     24  C   UNL     1      -4.344  -2.050   4.271  1.00  0.00     0.134 A 
ATOM     25  C   UNL     1      -4.088  -2.384   5.577  1.00  0.00     0.433 A 
BRANCH  25  26
ATOM     26  N   UNL     1      -4.954  -2.585   6.696  1.00  0.00     0.102 N 
ATOM     27  O   UNL     1      -6.154  -2.358   6.501  1.00  0.00    -0.256 OA
ATOM     28  O   UNL     1      -4.434  -2.942   7.760  1.00  0.00    -0.256 OA
ENDBRANCH  25  26
ENDBRANCH  19  21
ENDBRANCH   9  11
ENDBRANCH   8   9
ENDBRANCH   7   8
ENDBRANCH   6   7
ENDBRANCH   5   6
ENDBRANCH   4   5
ENDBRANCH   3   4
ENDBRANCH   2   3
ENDBRANCH   1   2
BRANCH   1  29
ATOM     29  C   UNL     1      -2.775  -9.389   3.616  1.00  0.00     0.188 C 
BRANCH  29  30
ATOM     30  O   UNL     1      -2.771  -8.754   2.336  1.00  0.00    -0.376 OA
BRANCH  30  31
ATOM     31  C   UNL     1      -4.000  -8.764   1.614  1.00  0.00     0.202 C 
BRANCH  31  32
ATOM     32  C   UNL     1      -5.156  -7.994   2.271  1.00  0.00     0.261 C 
BRANCH  32  33
ATOM     33  O   UNL     1      -5.694  -8.600   3.457  1.00  0.00    -0.460 OA
BRANCH  33  34
ATOM     34  C   UNL     1      -6.183  -9.850   3.308  1.00  0.00     0.338 C 
ATOM     35  O   UNL     1      -6.161 -10.541   2.308  1.00  0.00    -0.246 OA
BRANCH  34  36
ATOM     36  C   UNL     1      -6.647 -10.323   4.610  1.00  0.00     0.060 A 
ATOM     37  C   UNL     1      -5.944 -11.346   5.252  1.00  0.00     0.016 A 
ATOM     38  C   UNL     1      -7.856  -9.843   5.106  1.00  0.00     0.016 A 
ATOM     39  C   UNL     1      -6.496 -11.937   6.382  1.00  0.00     0.010 A 
ATOM     40  C   UNL     1      -8.414 -10.453   6.222  1.00  0.00     0.010 A 
ATOM     41  C   UNL     1      -7.757 -11.525   6.846  1.00  0.00    -0.014 A 
BRANCH  41  42
ATOM     42  C   UNL     1      -8.409 -12.333   7.903  1.00  0.00     0.031 A 
ATOM     43  C   UNL     1      -9.261 -11.579   8.878  1.00  0.00     0.074 A 
ATOM     44  C   UNL     1      -8.826 -13.575   7.564  1.00  0.00     0.049 A 
ATOM     45  N   UNL     1     -10.454 -11.151   8.585  1.00  0.00    -0.248 NA
ATOM     46  C   UNL     1      -8.730 -11.031  10.125  1.00  0.00     0.031 C 
ATOM     47  C   UNL     1      -9.273 -13.923   6.203  1.00  0.00     0.029 A 
ATOM     48  N   UNL     1      -9.188 -14.662   8.326  1.00  0.00    -0.354 N 
ATOM     49  C   UNL     1     -10.796 -10.202   9.532  1.00  0.00     0.074 A 
ATOM     50  C   UNL     1      -9.712 -10.190  10.490  1.00  0.00     0.031 C 
ATOM     51  C   UNL     1     -10.003 -15.052   6.260  1.00  0.00     0.029 A 
ATOM     52  C   UNL     1      -9.956 -15.585   7.615  1.00  0.00     0.049 A 
ATOM     53  H   UNL     1      -8.933 -14.776   9.271  1.00  0.00     0.167 HD
ATOM     54  C   UNL     1     -11.932  -9.459   9.452  1.00  0.00     0.034 A 
ATOM     55  C   UNL     1     -10.899 -16.399   8.163  1.00  0.00     0.034 A 
ATOM     56  C   UNL     1     -12.776  -9.736   8.325  1.00  0.00     0.049 A 
ATOM     57  C   UNL     1     -12.040 -15.431   8.348  1.00  0.00     0.074 A 
ATOM     58  C   UNL     1     -12.989  -9.197   7.075  1.00  0.00     0.029 A 
ATOM     59  N   UNL     1     -13.595 -10.838   8.374  1.00  0.00    -0.354 N 
ATOM     60  N   UNL     1     -12.867 -15.037   7.411  1.00  0.00    -0.248 NA
ATOM     61  C   UNL     1     -12.008 -14.571   9.530  1.00  0.00     0.031 C 
ATOM     62  C   UNL     1     -13.583 -10.241   6.299  1.00  0.00     0.029 A 
ATOM     63  C   UNL     1     -13.648 -11.373   7.111  1.00  0.00     0.049 A 
ATOM     64  H   UNL     1     -14.060 -11.182   9.171  1.00  0.00     0.167 HD
ATOM     65  C   UNL     1     -13.195 -13.719   7.747  1.00  0.00     0.074 A 
ATOM     66  C   UNL     1     -12.673 -13.516   9.083  1.00  0.00     0.031 C 
ATOM     67  C   UNL     1     -13.694 -12.801   6.865  1.00  0.00     0.034 A 
BRANCH  54  68
ATOM     68  C   UNL     1     -12.392  -8.489  10.472  1.00  0.00     0.023 A 
ATOM     69  C   UNL     1     -13.464  -8.899  11.290  1.00  0.00     0.012 A 
ATOM     70  C   UNL     1     -11.966  -7.151  10.507  1.00  0.00     0.148 A 
ATOM     71  C   UNL     1     -14.137  -7.988  12.097  1.00  0.00     0.002 A 
ATOM     72  C   UNL     1     -12.640  -6.245  11.325  1.00  0.00     0.091 A 
ATOM     73  F   UNL     1     -10.962  -6.773   9.703  1.00  0.00    -0.205 F 
ATOM     74  C   UNL     1     -13.731  -6.659  12.109  1.00  0.00     0.022 A 
BRANCH  72  75
ATOM     75  S   UNL     1     -12.194  -4.507  11.424  1.00  0.00     0.127 S 
ATOM     76  O   UNL     1     -13.235  -3.878  10.615  1.00  0.00    -0.237 OA
ATOM     77  O   UNL     1     -12.297  -4.244  12.861  1.00  0.00    -0.237 OA
ATOM     78  O   UNL     1     -10.838  -4.423  10.898  1.00  0.00    -0.744 OA
ENDBRANCH  72  75
ENDBRANCH  54  68
BRANCH  55  79
ATOM     79  C   UNL     1     -10.350 -17.334   9.196  1.00  0.00     0.023 A 
ATOM     80  C   UNL     1      -9.318 -18.198   8.747  1.00  0.00     0.012 A 
ATOM     81  C   UNL     1     -10.705 -17.402  10.552  1.00  0.00     0.148 A 
ATOM     82  C   UNL     1      -8.597 -19.009   9.625  1.00  0.00     0.002 A 
ATOM     83  C   UNL     1      -9.937 -18.156  11.439  1.00  0.00     0.091 A 
ATOM     84  F   UNL     1     -11.787 -16.745  10.980  1.00  0.00    -0.205 F 
ATOM     85  C   UNL     1      -8.884 -18.960  10.980  1.00  0.00     0.022 A 
BRANCH  83  86
ATOM     86  S   UNL     1     -10.153 -18.059  13.221  1.00  0.00     0.127 S 
ATOM     87  O   UNL     1     -10.426 -19.452  13.569  1.00  0.00    -0.237 OA
ATOM     88  O   UNL     1      -8.846 -17.560  13.646  1.00  0.00    -0.237 OA
ATOM     89  O   UNL     1     -11.258 -17.135  13.435  1.00  0.00    -0.744 OA
ENDBRANCH  83  86
ENDBRANCH  55  79
BRANCH  67  90
ATOM     90  C   UNL     1     -14.123 -13.307   5.520  1.00  0.00     0.023 A 
ATOM     91  C   UNL     1     -15.248 -14.151   5.449  1.00  0.00     0.012 A 
ATOM     92  C   UNL     1     -13.510 -12.883   4.323  1.00  0.00     0.148 A 
ATOM     93  C   UNL     1     -15.775 -14.536   4.217  1.00  0.00     0.002 A 
ATOM     94  C   UNL     1     -14.072 -13.226   3.098  1.00  0.00     0.091 A 
ATOM     95  F   UNL     1     -12.398 -12.137   4.393  1.00  0.00    -0.205 F 
ATOM     96  C   UNL     1     -15.202 -14.057   3.043  1.00  0.00     0.022 A 
BRANCH  94  97
ATOM     97  S   UNL     1     -13.474 -12.575   1.533  1.00  0.00     0.127 S 
ATOM     98  O   UNL     1     -13.099 -13.794   0.817  1.00  0.00    -0.237 OA
ATOM     99  O   UNL     1     -14.666 -11.905   1.009  1.00  0.00    -0.237 OA
ATOM    100  O   UNL     1     -12.369 -11.682   1.855  1.00  0.00    -0.744 OA
ENDBRANCH  94  97
ENDBRANCH  67  90
ENDBRANCH  41  42
ENDBRANCH  34  36
ENDBRANCH  33  34
ENDBRANCH  32  33
ENDBRANCH  31  32
ENDBRANCH  30  31
ENDBRANCH  29  30
ENDBRANCH   1  29
TORSDOF 25
