REMARK SMILES Cc1ccc(S(=O)(=O)N2CCN(C(=O)[C@H]3CCCC[C@H]3C(=O)OCCOCCOCCOCCOC(=O)c3ccc(-c4c5nc(c(-c6cccc(S(=O)(=O)[O-])c6F)c6ccc([nH]6)c(-c6cccc(S(=O)(=O)[O-])c6F)c6nc(c(-c7cccc(S(=O)(=O)[O-])c7F)c7ccc4[nH]7)C=C6)C=C5)cc3)CC2)cc1C
REMARK SMILES IDX 29 1 28 2 27 3 26 4 25 5 24 6 23 7 21 8 22 9 20 10 15 11
REMARK SMILES IDX 16 12 17 13 19 14 18 15 13 16 9 17 10 18 102 19 11 20 101 21
REMARK SMILES IDX 12 22 14 23 6 24 7 25 8 26 5 27 1 28 2 29 3 30 104 31 4 32
REMARK SMILES IDX 103 33 105 34 30 35 31 36 32 37 33 38 34 39 35 40 36 41
REMARK SMILES IDX 37 42 38 43 39 44 100 45 40 46 99 47 41 48 42 49 43 50 93 51
REMARK SMILES IDX 44 52 98 53 92 54 94 55 45 56 97 57 91 58 90 59 46 61 78 62
REMARK SMILES IDX 58 63 77 64 59 65 62 66 76 67 95 68 60 69 61 70 75 72 96 73
REMARK SMILES IDX 63 74 47 75 48 76 56 77 49 78 51 79 57 80 50 81 52 82 53 83
REMARK SMILES IDX 54 84 55 85 79 86 80 87 88 88 81 89 83 90 89 91 82 92 84 93
REMARK SMILES IDX 85 94 86 95 87 96 64 97 65 98 73 99 66 100 68 101 74 102
REMARK SMILES IDX 67 103 69 104 70 105 71 106 72 107
REMARK H PARENT 94 60 62 71
REMARK Flexibility Score: inf
ROOT
ATOM      1  O   UNL     1      -3.703   5.030   2.517  1.00  0.00    -0.377 OA
ENDROOT
BRANCH   1   2
ATOM      2  C   UNL     1      -2.920   4.207   1.678  1.00  0.00     0.188 C 
BRANCH   2   3
ATOM      3  C   UNL     1      -1.771   4.852   0.889  1.00  0.00     0.188 C 
BRANCH   3   4
ATOM      4  O   UNL     1      -1.046   5.922   1.452  1.00  0.00    -0.376 OA
BRANCH   4   5
ATOM      5  C   UNL     1      -1.586   7.234   1.536  1.00  0.00     0.202 C 
BRANCH   5   6
ATOM      6  C   UNL     1      -2.801   7.748   0.747  1.00  0.00     0.261 C 
BRANCH   6   7
ATOM      7  O   UNL     1      -3.914   6.857   0.599  1.00  0.00    -0.463 OA
BRANCH   7   8
ATOM      8  C   UNL     1      -4.133   6.441  -0.665  1.00  0.00     0.309 C 
ATOM      9  O   UNL     1      -3.353   6.647  -1.595  1.00  0.00    -0.252 OA
BRANCH   8  10
ATOM     10  C   UNL     1      -5.398   5.634  -0.900  1.00  0.00     0.111 C 
ATOM     11  C   UNL     1      -6.293   5.133   0.266  1.00  0.00     0.093 C 
ATOM     12  C   UNL     1      -7.473   4.328  -0.332  1.00  0.00     0.014 C 
ATOM     13  C   UNL     1      -8.237   5.076  -1.421  1.00  0.00     0.001 C 
ATOM     14  C   UNL     1      -6.182   6.373  -1.998  1.00  0.00     0.016 C 
ATOM     15  C   UNL     1      -7.319   5.529  -2.541  1.00  0.00     0.001 C 
BRANCH  11  16
ATOM     16  C   UNL     1      -6.777   6.219   1.236  1.00  0.00     0.226 C 
ATOM     17  N   UNL     1      -9.434   5.441   4.284  1.00  0.00    -0.194 NA
ATOM     18  C   UNL     1      -9.037   6.824   3.911  1.00  0.00     0.124 C 
ATOM     19  C   UNL     1      -9.048   4.380   3.330  1.00  0.00     0.124 C 
ATOM     20  C   UNL     1      -7.560   6.877   3.487  1.00  0.00     0.136 C 
ATOM     21  C   UNL     1      -7.550   4.488   2.969  1.00  0.00     0.136 C 
ATOM     22  N   UNL     1      -7.238   5.841   2.493  1.00  0.00    -0.340 N 
ATOM     23  O   UNL     1      -6.758   7.401   0.889  1.00  0.00    -0.275 OA
BRANCH  17  24
ATOM     24  S   UNL     1     -10.262   5.112   5.704  1.00  0.00     0.243 S 
ATOM     25  O   UNL     1     -10.998   3.873   5.512  1.00  0.00    -0.207 OA
ATOM     26  O   UNL     1     -10.922   6.317   6.135  1.00  0.00    -0.207 OA
BRANCH  24  27
ATOM     27  C   UNL     1      -8.976   4.738   6.882  1.00  0.00     0.082 A 
ATOM     28  C   UNL     1      -5.929   3.651   9.737  1.00  0.00     0.044 C 
ATOM     29  C   UNL     1      -7.027   4.036   8.782  1.00  0.00    -0.048 A 
ATOM     30  C   UNL     1      -7.112   3.360   7.554  1.00  0.00     0.005 A 
ATOM     31  C   UNL     1      -7.960   5.054   9.075  1.00  0.00    -0.047 A 
ATOM     32  C   UNL     1      -8.086   3.699   6.617  1.00  0.00     0.022 A 
ATOM     33  C   UNL     1      -8.923   5.408   8.108  1.00  0.00     0.025 A 
ATOM     34  C   UNL     1      -8.011   5.756  10.408  1.00  0.00     0.044 C 
ENDBRANCH  24  27
ENDBRANCH  17  24
ENDBRANCH  11  16
ENDBRANCH   8  10
ENDBRANCH   7   8
ENDBRANCH   6   7
ENDBRANCH   5   6
ENDBRANCH   4   5
ENDBRANCH   3   4
ENDBRANCH   2   3
ENDBRANCH   1   2
BRANCH   1  35
ATOM     35  C   UNL     1      -3.187   5.473   3.769  1.00  0.00     0.188 C 
BRANCH  35  36
ATOM     36  C   UNL     1      -1.811   4.993   4.274  1.00  0.00     0.188 C 
BRANCH  36  37
ATOM     37  O   UNL     1      -1.541   3.622   4.012  1.00  0.00    -0.376 OA
BRANCH  37  38
ATOM     38  C   UNL     1      -1.817   2.676   5.034  1.00  0.00     0.202 C 
BRANCH  38  39
ATOM     39  C   UNL     1      -3.274   2.604   5.506  1.00  0.00     0.261 C 
BRANCH  39  40
ATOM     40  O   UNL     1      -3.735   3.773   6.200  1.00  0.00    -0.460 OA
BRANCH  40  41
ATOM     41  C   UNL     1      -3.014   4.201   7.259  1.00  0.00     0.338 C 
ATOM     42  O   UNL     1      -2.095   3.608   7.796  1.00  0.00    -0.246 OA
BRANCH  41  43
ATOM     43  C   UNL     1      -3.433   5.576   7.616  1.00  0.00     0.060 A 
ATOM     44  C   UNL     1      -2.513   6.403   8.268  1.00  0.00     0.016 A 
ATOM     45  C   UNL     1      -4.734   6.027   7.379  1.00  0.00     0.016 A 
ATOM     46  C   UNL     1      -2.934   7.618   8.804  1.00  0.00     0.010 A 
ATOM     47  C   UNL     1      -5.170   7.215   7.955  1.00  0.00     0.010 A 
ATOM     48  C   UNL     1      -4.284   7.984   8.717  1.00  0.00    -0.014 A 
BRANCH  48  49
ATOM     49  C   UNL     1      -4.800   9.096   9.536  1.00  0.00     0.031 A 
ATOM     50  C   UNL     1      -5.094   8.858  10.992  1.00  0.00     0.074 A 
ATOM     51  C   UNL     1      -5.089  10.272   8.959  1.00  0.00     0.049 A 
ATOM     52  N   UNL     1      -5.470   9.703  11.912  1.00  0.00    -0.248 NA
ATOM     53  C   UNL     1      -4.981   7.469  11.466  1.00  0.00     0.031 C 
ATOM     54  C   UNL     1      -4.962  10.565   7.532  1.00  0.00     0.029 A 
ATOM     55  N   UNL     1      -5.574  11.429   9.503  1.00  0.00    -0.354 N 
ATOM     56  C   UNL     1      -5.656   8.952  13.069  1.00  0.00     0.074 A 
ATOM     57  C   UNL     1      -5.382   7.575  12.726  1.00  0.00     0.031 C 
ATOM     58  C   UNL     1      -5.382  11.821   7.309  1.00  0.00     0.029 A 
ATOM     59  C   UNL     1      -5.768  12.426   8.581  1.00  0.00     0.049 A 
ATOM     60  H   UNL     1      -5.764  11.536  10.463  1.00  0.00     0.167 HD
ATOM     61  C   UNL     1      -5.998   9.384  14.307  1.00  0.00     0.034 A 
ATOM     62  C   UNL     1      -6.172  13.697   8.757  1.00  0.00     0.034 A 
ATOM     63  C   UNL     1      -6.223  10.771  14.621  1.00  0.00     0.049 A 
ATOM     64  C   UNL     1      -6.376  14.194  10.161  1.00  0.00     0.074 A 
ATOM     65  C   UNL     1      -6.446  11.356  15.854  1.00  0.00     0.029 A 
ATOM     66  N   UNL     1      -6.255  11.793  13.683  1.00  0.00    -0.354 N 
ATOM     67  N   UNL     1      -6.336  13.523  11.288  1.00  0.00    -0.248 NA
ATOM     68  C   UNL     1      -6.599  15.636  10.326  1.00  0.00     0.031 C 
ATOM     69  C   UNL     1      -6.617  12.732  15.661  1.00  0.00     0.029 A 
ATOM     70  C   UNL     1      -6.479  13.006  14.309  1.00  0.00     0.049 A 
ATOM     71  H   UNL     1      -6.136  11.673  12.713  1.00  0.00     0.167 HD
ATOM     72  C   UNL     1      -6.485  14.465  12.299  1.00  0.00     0.074 A 
ATOM     73  C   UNL     1      -6.593  15.756  11.647  1.00  0.00     0.031 C 
ATOM     74  C   UNL     1      -6.538  14.282  13.642  1.00  0.00     0.034 A 
BRANCH  61  75
ATOM     75  C   UNL     1      -6.071   8.373  15.427  1.00  0.00     0.023 A 
ATOM     76  C   UNL     1      -4.888   7.753  15.880  1.00  0.00     0.012 A 
ATOM     77  C   UNL     1      -7.283   8.103  16.095  1.00  0.00     0.148 A 
ATOM     78  C   UNL     1      -4.911   6.860  16.951  1.00  0.00     0.002 A 
ATOM     79  C   UNL     1      -7.291   7.251  17.196  1.00  0.00     0.091 A 
ATOM     80  F   UNL     1      -8.405   8.681  15.644  1.00  0.00    -0.205 F 
ATOM     81  C   UNL     1      -6.109   6.620  17.617  1.00  0.00     0.022 A 
BRANCH  79  82
ATOM     82  S   UNL     1      -8.762   6.952  18.186  1.00  0.00     0.127 S 
ATOM     83  O   UNL     1      -9.083   5.572  17.826  1.00  0.00    -0.237 OA
ATOM     84  O   UNL     1      -8.256   7.125  19.548  1.00  0.00    -0.237 OA
ATOM     85  O   UNL     1      -9.734   7.952  17.769  1.00  0.00    -0.744 OA
ENDBRANCH  79  82
ENDBRANCH  61  75
BRANCH  62  86
ATOM     86  C   UNL     1      -6.233  14.606   7.583  1.00  0.00     0.023 A 
ATOM     87  C   UNL     1      -5.215  15.562   7.399  1.00  0.00     0.012 A 
ATOM     88  C   UNL     1      -7.236  14.470   6.605  1.00  0.00     0.148 A 
ATOM     89  C   UNL     1      -5.210  16.387   6.275  1.00  0.00     0.002 A 
ATOM     90  C   UNL     1      -7.196  15.259   5.462  1.00  0.00     0.091 A 
ATOM     91  F   UNL     1      -8.195  13.553   6.802  1.00  0.00    -0.205 F 
ATOM     92  C   UNL     1      -6.193  16.228   5.302  1.00  0.00     0.022 A 
BRANCH  90  93
ATOM     93  S   UNL     1      -8.334  15.020   4.093  1.00  0.00     0.127 S 
ATOM     94  O   UNL     1      -9.227  16.166   4.244  1.00  0.00    -0.237 OA
ATOM     95  O   UNL     1      -7.438  15.084   2.938  1.00  0.00    -0.237 OA
ATOM     96  O   UNL     1      -8.934  13.711   4.313  1.00  0.00    -0.744 OA
ENDBRANCH  90  93
ENDBRANCH  62  86
BRANCH  74  97
ATOM     97  C   UNL     1      -6.690  15.511  14.499  1.00  0.00     0.023 A 
ATOM     98  C   UNL     1      -7.917  16.203  14.519  1.00  0.00     0.012 A 
ATOM     99  C   UNL     1      -5.631  15.954  15.315  1.00  0.00     0.148 A 
ATOM    100  C   UNL     1      -8.072  17.345  15.302  1.00  0.00     0.002 A 
ATOM    101  C   UNL     1      -5.809  17.065  16.130  1.00  0.00     0.091 A 
ATOM    102  F   UNL     1      -4.465  15.294  15.268  1.00  0.00    -0.205 F 
ATOM    103  C   UNL     1      -7.023  17.771  16.113  1.00  0.00     0.022 A 
BRANCH 101 104
ATOM    104  S   UNL     1      -4.540  17.623  17.271  1.00  0.00     0.127 S 
ATOM    105  O   UNL     1      -3.970  18.761  16.551  1.00  0.00    -0.237 OA
ATOM    106  O   UNL     1      -5.319  17.981  18.457  1.00  0.00    -0.237 OA
ATOM    107  O   UNL     1      -3.650  16.486  17.460  1.00  0.00    -0.744 OA
ENDBRANCH 101 104
ENDBRANCH  74  97
ENDBRANCH  48  49
ENDBRANCH  41  43
ENDBRANCH  40  41
ENDBRANCH  39  40
ENDBRANCH  38  39
ENDBRANCH  37  38
ENDBRANCH  36  37
ENDBRANCH  35  36
ENDBRANCH   1  35
TORSDOF 26
