REMARK SMILES CC(C)[C@H](Nc1cc(C#N)ccn1)C(=O)OCCOCCOCCOCCOC(=O)c1ccc(-c2c3nc(c(-c4cccc(S(=O)(=O)[O-])c4F)c4ccc([nH]4)c(-c4cccc(S(=O)(=O)[O-])c4F)c4nc(c(-c5cccc(S(=O)(=O)[O-])c5F)c5ccc2[nH]5)C=C4)C=C3)cc1
REMARK SMILES IDX 22 1 21 2 20 3 19 4 18 5 17 6 16 7 14 8 15 9 4 10 2 11 1 12
REMARK SMILES IDX 3 13 5 14 6 16 7 17 13 18 8 19 12 20 11 21 9 22 10 23 23 24
REMARK SMILES IDX 24 25 25 26 26 27 27 28 28 29 29 30 30 31 31 32 32 33 93 34
REMARK SMILES IDX 33 35 92 36 34 37 35 38 36 39 86 40 37 41 91 42 85 43 87 44
REMARK SMILES IDX 38 45 90 46 84 47 83 48 39 50 71 51 51 52 70 53 52 54 55 55
REMARK SMILES IDX 69 56 88 57 53 58 54 59 68 61 89 62 56 63 40 64 41 65 49 66
REMARK SMILES IDX 42 67 44 68 50 69 43 70 45 71 46 72 47 73 48 74 72 75 73 76
REMARK SMILES IDX 81 77 74 78 76 79 82 80 75 81 77 82 78 83 79 84 80 85 57 86
REMARK SMILES IDX 58 87 66 88 59 89 61 90 67 91 60 92 62 93 63 94 64 95 65 96
REMARK H PARENT 5 15 87 49 55 60
REMARK Flexibility Score: inf
ROOT
ATOM      1  O   UNL     1      -0.098   1.117   4.244  1.00  0.00    -0.377 OA
ENDROOT
BRANCH   1   2
ATOM      2  C   UNL     1      -0.918   2.202   3.869  1.00  0.00     0.188 C 
BRANCH   2   3
ATOM      3  C   UNL     1      -2.409   2.084   4.184  1.00  0.00     0.188 C 
BRANCH   3   4
ATOM      4  O   UNL     1      -2.768   1.674   5.487  1.00  0.00    -0.376 OA
BRANCH   4   5
ATOM      5  C   UNL     1      -2.682   0.295   5.840  1.00  0.00     0.202 C 
BRANCH   5   6
ATOM      6  C   UNL     1      -2.743  -0.844   4.802  1.00  0.00     0.261 C 
BRANCH   6   7
ATOM      7  O   UNL     1      -1.791  -0.769   3.724  1.00  0.00    -0.462 OA
BRANCH   7   8
ATOM      8  C   UNL     1      -2.285  -0.655   2.468  1.00  0.00     0.328 C 
ATOM      9  O   UNL     1      -3.491  -0.577   2.226  1.00  0.00    -0.250 OA
BRANCH   8  10
ATOM     10  C   UNL     1      -1.263  -0.631   1.315  1.00  0.00     0.193 C 
BRANCH  10  11
ATOM     11  C   UNL     1      -1.576  -1.760   0.307  1.00  0.00     0.017 C 
ATOM     12  C   UNL     1      -0.616  -1.780  -0.883  1.00  0.00     0.010 C 
ATOM     13  C   UNL     1      -1.673  -3.151   0.936  1.00  0.00     0.010 C 
ENDBRANCH  10  11
BRANCH  10  14
ATOM     14  N   UNL     1       0.168  -0.438   1.559  1.00  0.00    -0.357 N 
ATOM     15  H   UNL     1       0.572   0.239   0.970  1.00  0.00     0.163 HD
BRANCH  14  16
ATOM     16  C   UNL     1       1.057  -0.991   2.423  1.00  0.00     0.127 A 
ATOM     17  C   UNL     1       0.775  -2.041   3.263  1.00  0.00     0.066 A 
ATOM     18  N   UNL     1       2.260  -0.373   2.457  1.00  0.00    -0.239 NA
ATOM     19  C   UNL     1       1.685  -2.383   4.259  1.00  0.00     0.057 A 
ATOM     20  C   UNL     1       3.157  -0.754   3.398  1.00  0.00     0.115 A 
ATOM     21  C   UNL     1       2.911  -1.738   4.332  1.00  0.00     0.040 A 
BRANCH  19  22
ATOM     22  C   UNL     1       1.254  -3.300   5.260  1.00  0.00     0.099 C 
ATOM     23  N   UNL     1       0.788  -3.970   6.088  1.00  0.00    -0.192 NA
ENDBRANCH  19  22
ENDBRANCH  14  16
ENDBRANCH  10  14
ENDBRANCH   8  10
ENDBRANCH   7   8
ENDBRANCH   6   7
ENDBRANCH   5   6
ENDBRANCH   4   5
ENDBRANCH   3   4
ENDBRANCH   2   3
ENDBRANCH   1   2
BRANCH   1  24
ATOM     24  C   UNL     1       0.530   1.068   5.517  1.00  0.00     0.188 C 
BRANCH  24  25
ATOM     25  C   UNL     1       0.505   2.313   6.399  1.00  0.00     0.188 C 
BRANCH  25  26
ATOM     26  O   UNL     1       1.053   3.530   5.884  1.00  0.00    -0.376 OA
BRANCH  26  27
ATOM     27  C   UNL     1       1.980   3.474   4.803  1.00  0.00     0.202 C 
BRANCH  27  28
ATOM     28  C   UNL     1       3.441   3.298   5.196  1.00  0.00     0.261 C 
BRANCH  28  29
ATOM     29  O   UNL     1       3.689   2.026   5.806  1.00  0.00    -0.460 OA
BRANCH  29  30
ATOM     30  C   UNL     1       3.673   2.049   7.158  1.00  0.00     0.338 C 
ATOM     31  O   UNL     1       3.505   3.013   7.885  1.00  0.00    -0.246 OA
BRANCH  30  32
ATOM     32  C   UNL     1       3.776   0.674   7.665  1.00  0.00     0.060 A 
ATOM     33  C   UNL     1       2.861   0.266   8.638  1.00  0.00     0.016 A 
ATOM     34  C   UNL     1       4.825  -0.160   7.266  1.00  0.00     0.016 A 
ATOM     35  C   UNL     1       3.039  -0.952   9.279  1.00  0.00     0.010 A 
ATOM     36  C   UNL     1       4.996  -1.387   7.906  1.00  0.00     0.010 A 
ATOM     37  C   UNL     1       4.139  -1.757   8.956  1.00  0.00    -0.014 A 
BRANCH  37  38
ATOM     38  C   UNL     1       4.460  -2.899   9.841  1.00  0.00     0.031 A 
ATOM     39  C   UNL     1       5.625  -2.796  10.784  1.00  0.00     0.074 A 
ATOM     40  C   UNL     1       3.674  -3.988   9.849  1.00  0.00     0.049 A 
ATOM     41  N   UNL     1       6.031  -3.649  11.685  1.00  0.00    -0.248 NA
ATOM     42  C   UNL     1       6.441  -1.573  10.703  1.00  0.00     0.031 C 
ATOM     43  C   UNL     1       2.515  -4.184   8.986  1.00  0.00     0.029 A 
ATOM     44  N   UNL     1       3.732  -5.132  10.600  1.00  0.00    -0.354 N 
ATOM     45  C   UNL     1       7.164  -3.086  12.256  1.00  0.00     0.074 A 
ATOM     46  C   UNL     1       7.395  -1.825  11.585  1.00  0.00     0.031 C 
ATOM     47  C   UNL     1       1.976  -5.386   9.238  1.00  0.00     0.029 A 
ATOM     48  C   UNL     1       2.766  -6.051  10.268  1.00  0.00     0.049 A 
ATOM     49  H   UNL     1       4.400  -5.281  11.308  1.00  0.00     0.167 HD
ATOM     50  C   UNL     1       7.935  -3.571  13.257  1.00  0.00     0.034 A 
ATOM     51  C   UNL     1       2.555  -7.296  10.732  1.00  0.00     0.034 A 
ATOM     52  C   UNL     1       7.692  -4.824  13.920  1.00  0.00     0.049 A 
ATOM     53  C   UNL     1       3.435  -7.816  11.832  1.00  0.00     0.074 A 
ATOM     54  C   UNL     1       8.383  -5.384  14.979  1.00  0.00     0.029 A 
ATOM     55  N   UNL     1       6.697  -5.726  13.571  1.00  0.00    -0.354 N 
ATOM     56  N   UNL     1       4.442  -7.229  12.433  1.00  0.00    -0.248 NA
ATOM     57  C   UNL     1       3.123  -9.154  12.350  1.00  0.00     0.031 C 
ATOM     58  C   UNL     1       7.849  -6.652  15.227  1.00  0.00     0.029 A 
ATOM     59  C   UNL     1       6.773  -6.850  14.377  1.00  0.00     0.049 A 
ATOM     60  H   UNL     1       6.035  -5.588  12.856  1.00  0.00     0.167 HD
ATOM     61  C   UNL     1       4.858  -8.107  13.427  1.00  0.00     0.074 A 
ATOM     62  C   UNL     1       3.976  -9.255  13.358  1.00  0.00     0.031 C 
ATOM     63  C   UNL     1       5.876  -7.977  14.313  1.00  0.00     0.034 A 
BRANCH  50  64
ATOM     64  C   UNL     1       9.126  -2.752  13.682  1.00  0.00     0.023 A 
ATOM     65  C   UNL     1       8.948  -1.518  14.342  1.00  0.00     0.012 A 
ATOM     66  C   UNL     1      10.431  -3.232  13.459  1.00  0.00     0.148 A 
ATOM     67  C   UNL     1      10.050  -0.759  14.737  1.00  0.00     0.002 A 
ATOM     68  C   UNL     1      11.522  -2.497  13.904  1.00  0.00     0.091 A 
ATOM     69  F   UNL     1      10.581  -4.394  12.807  1.00  0.00    -0.205 F 
ATOM     70  C   UNL     1      11.335  -1.254  14.529  1.00  0.00     0.022 A 
BRANCH  68  71
ATOM     71  S   UNL     1      13.211  -3.088  13.756  1.00  0.00     0.127 S 
ATOM     72  O   UNL     1      13.772  -2.139  12.796  1.00  0.00    -0.237 OA
ATOM     73  O   UNL     1      13.707  -2.938  15.124  1.00  0.00    -0.237 OA
ATOM     74  O   UNL     1      13.119  -4.464  13.289  1.00  0.00    -0.744 OA
ENDBRANCH  68  71
ENDBRANCH  50  64
BRANCH  51  75
ATOM     75  C   UNL     1       1.451  -8.120  10.168  1.00  0.00     0.023 A 
ATOM     76  C   UNL     1       0.333  -8.443  10.961  1.00  0.00     0.012 A 
ATOM     77  C   UNL     1       1.504  -8.573   8.835  1.00  0.00     0.148 A 
ATOM     78  C   UNL     1      -0.695  -9.234  10.448  1.00  0.00     0.002 A 
ATOM     79  C   UNL     1       0.451  -9.310   8.312  1.00  0.00     0.091 A 
ATOM     80  F   UNL     1       2.584  -8.263   8.104  1.00  0.00    -0.205 F 
ATOM     81  C   UNL     1      -0.641  -9.659   9.122  1.00  0.00     0.022 A 
BRANCH  79  82
ATOM     82  S   UNL     1       0.385  -9.808   6.589  1.00  0.00     0.127 S 
ATOM     83  O   UNL     1       0.472 -11.262   6.696  1.00  0.00    -0.237 OA
ATOM     84  O   UNL     1      -0.924  -9.299   6.179  1.00  0.00    -0.237 OA
ATOM     85  O   UNL     1       1.517  -9.160   5.940  1.00  0.00    -0.744 OA
ENDBRANCH  79  82
ENDBRANCH  51  75
BRANCH  63  86
ATOM     86  C   UNL     1       6.056  -9.082  15.325  1.00  0.00     0.023 A 
ATOM     87  C   UNL     1       6.462 -10.369  14.918  1.00  0.00     0.012 A 
ATOM     88  C   UNL     1       5.835  -8.830  16.694  1.00  0.00     0.148 A 
ATOM     89  C   UNL     1       6.579 -11.402  15.847  1.00  0.00     0.002 A 
ATOM     90  C   UNL     1       6.016  -9.847  17.621  1.00  0.00     0.091 A 
ATOM     91  F   UNL     1       5.438  -7.604  17.064  1.00  0.00    -0.205 F 
ATOM     92  C   UNL     1       6.364 -11.140  17.198  1.00  0.00     0.022 A 
BRANCH  90  93
ATOM     93  S   UNL     1       5.863  -9.574  19.389  1.00  0.00     0.127 S 
ATOM     94  O   UNL     1       4.617 -10.276  19.692  1.00  0.00    -0.237 OA
ATOM     95  O   UNL     1       7.070 -10.220  19.906  1.00  0.00    -0.237 OA
ATOM     96  O   UNL     1       5.827  -8.129  19.572  1.00  0.00    -0.744 OA
ENDBRANCH  90  93
ENDBRANCH  63  86
ENDBRANCH  37  38
ENDBRANCH  30  32
ENDBRANCH  29  30
ENDBRANCH  28  29
ENDBRANCH  27  28
ENDBRANCH  26  27
ENDBRANCH  25  26
ENDBRANCH  24  25
ENDBRANCH   1  24
TORSDOF 27
