REMARK SMILES CCn1ncc(NC(=O)[C@@H]2CCCC[C@@H]2C(=O)OCCOCCOCCOCCOC(=O)c2ccc(-c3c4nc(c(-c5cccc(S(=O)(=O)[O-])c5F)c5ccc([nH]5)c(-c5cccc(S(=O)(=O)[O-])c5F)c5nc(c(-c6cccc(S(=O)(=O)[O-])c6F)c6ccc3[nH]6)C=C5)C=C4)cc2)c1C(=O)Nc1cnn(C)c1C
REMARK SMILES IDX 23 1 22 2 21 3 20 4 19 5 18 6 16 7 17 8 15 9 10 10 11 11
REMARK SMILES IDX 12 12 14 13 13 14 8 15 7 16 9 18 6 19 3 20 4 21 96 22 5 23
REMARK SMILES IDX 2 24 1 25 97 26 98 27 99 28 100 30 101 31 105 32 102 33
REMARK SMILES IDX 103 34 106 35 104 36 24 37 25 38 26 39 27 40 28 41 29 42
REMARK SMILES IDX 30 43 31 44 32 45 33 46 34 47 95 48 35 49 94 50 36 51 37 52
REMARK SMILES IDX 38 53 88 54 39 55 93 56 87 57 89 58 40 59 92 60 86 61 85 62
REMARK SMILES IDX 41 64 73 65 53 66 72 67 54 68 57 69 71 70 90 71 55 72 56 73
REMARK SMILES IDX 70 75 91 76 58 77 42 78 43 79 51 80 44 81 46 82 52 83 45 84
REMARK SMILES IDX 47 85 48 86 49 87 50 88 74 89 75 90 83 91 76 92 78 93 84 94
REMARK SMILES IDX 77 95 79 96 80 97 81 98 82 99 59 100 60 101 68 102 61 103
REMARK SMILES IDX 63 104 69 105 62 106 64 107 65 108 66 109 67 110
REMARK H PARENT 7 17 99 29 89 63 57 74
REMARK Flexibility Score: inf
ROOT
ATOM      1  C   UNL     1       1.244   3.943  -2.964  1.00  0.00     0.188 C 
ENDROOT
BRANCH   1   2
ATOM      2  C   UNL     1       1.620   3.792  -4.445  1.00  0.00     0.188 C 
BRANCH   2   3
ATOM      3  O   UNL     1       0.974   2.806  -5.248  1.00  0.00    -0.376 OA
BRANCH   3   4
ATOM      4  C   UNL     1      -0.261   2.278  -4.808  1.00  0.00     0.202 C 
BRANCH   4   5
ATOM      5  C   UNL     1      -0.082   0.931  -4.102  1.00  0.00     0.261 C 
BRANCH   5   6
ATOM      6  O   UNL     1       0.893   0.934  -3.042  1.00  0.00    -0.463 OA
BRANCH   6   7
ATOM      7  C   UNL     1       2.205   0.793  -3.398  1.00  0.00     0.309 C 
ATOM      8  O   UNL     1       2.595   0.623  -4.543  1.00  0.00    -0.252 OA
BRANCH   7   9
ATOM      9  C   UNL     1       3.087   0.742  -2.144  1.00  0.00     0.111 C 
ATOM     10  C   UNL     1       4.291   1.696  -2.031  1.00  0.00     0.093 C 
ATOM     11  C   UNL     1       5.226   1.494  -3.243  1.00  0.00     0.014 C 
ATOM     12  C   UNL     1       5.743   0.058  -3.304  1.00  0.00     0.001 C 
ATOM     13  C   UNL     1       3.627  -0.700  -2.057  1.00  0.00     0.016 C 
ATOM     14  C   UNL     1       4.663  -1.012  -3.145  1.00  0.00     0.001 C 
BRANCH  10  15
ATOM     15  C   UNL     1       4.136   3.186  -1.711  1.00  0.00     0.228 C 
ATOM     16  N   UNL     1       3.531   3.757  -0.638  1.00  0.00    -0.322 N 
ATOM     17  H   UNL     1       3.883   4.660  -0.464  1.00  0.00     0.170 HD
ATOM     18  O   UNL     1       4.646   4.020  -2.478  1.00  0.00    -0.274 OA
BRANCH  16  19
ATOM     19  C   UNL     1       2.552   3.409   0.276  1.00  0.00     0.092 A 
ATOM     20  N   UNL     1       0.828   2.561   1.256  1.00  0.00    -0.258 N 
ATOM     21  N   UNL     1       0.793   3.857   1.651  1.00  0.00    -0.178 NA
ATOM     22  C   UNL     1       2.108   2.217   0.855  1.00  0.00     0.150 A 
ATOM     23  C   UNL     1       1.799   4.392   0.967  1.00  0.00     0.162 A 
BRANCH  20  24
ATOM     24  C   UNL     1      -0.471   2.043   0.845  1.00  0.00     0.142 C 
ATOM     25  C   UNL     1      -0.516   0.920  -0.172  1.00  0.00     0.029 C 
ENDBRANCH  20  24
BRANCH  22  26
ATOM     26  C   UNL     1       2.961   1.095   1.161  1.00  0.00     0.276 C 
ATOM     27  O   UNL     1       4.180   1.190   0.953  1.00  0.00    -0.267 OA
ATOM     28  N   UNL     1       2.670  -0.144   1.645  1.00  0.00    -0.318 N 
ATOM     29  H   UNL     1       3.474  -0.708   1.581  1.00  0.00     0.170 HD
BRANCH  28  30
ATOM     30  C   UNL     1       1.653  -0.881   2.190  1.00  0.00     0.082 A 
ATOM     31  C   UNL     1       0.363  -0.617   2.664  1.00  0.00     0.161 A 
ATOM     32  C   UNL     1       1.843  -2.229   2.473  1.00  0.00     0.059 A 
ATOM     33  N   UNL     1      -0.262  -1.708   3.115  1.00  0.00    -0.179 NA
ATOM     34  N   UNL     1       0.686  -2.657   3.071  1.00  0.00    -0.271 N 
ATOM     35  C   UNL     1       3.033  -3.104   2.286  1.00  0.00     0.068 C 
ATOM     36  C   UNL     1       0.417  -3.927   3.705  1.00  0.00     0.174 C 
ENDBRANCH  28  30
ENDBRANCH  22  26
ENDBRANCH  16  19
ENDBRANCH  10  15
ENDBRANCH   7   9
ENDBRANCH   6   7
ENDBRANCH   5   6
ENDBRANCH   4   5
ENDBRANCH   3   4
ENDBRANCH   2   3
ENDBRANCH   1   2
BRANCH   1  37
ATOM     37  O   UNL     1      -0.076   4.402  -2.732  1.00  0.00    -0.377 OA
BRANCH  37  38
ATOM     38  C   UNL     1      -0.155   5.812  -2.555  1.00  0.00     0.188 C 
BRANCH  38  39
ATOM     39  C   UNL     1      -0.047   6.594  -3.872  1.00  0.00     0.188 C 
BRANCH  39  40
ATOM     40  O   UNL     1       1.214   6.955  -4.444  1.00  0.00    -0.376 OA
BRANCH  40  41
ATOM     41  C   UNL     1       2.423   7.103  -3.712  1.00  0.00     0.202 C 
BRANCH  41  42
ATOM     42  C   UNL     1       2.578   8.306  -2.799  1.00  0.00     0.261 C 
BRANCH  42  43
ATOM     43  O   UNL     1       1.664   8.213  -1.722  1.00  0.00    -0.460 OA
BRANCH  43  44
ATOM     44  C   UNL     1       0.507   8.874  -1.938  1.00  0.00     0.338 C 
ATOM     45  O   UNL     1       0.186   9.491  -2.936  1.00  0.00    -0.246 OA
BRANCH  44  46
ATOM     46  C   UNL     1      -0.302   8.812  -0.717  1.00  0.00     0.060 A 
ATOM     47  C   UNL     1      -1.456   9.590  -0.745  1.00  0.00     0.016 A 
ATOM     48  C   UNL     1       0.268   8.342   0.476  1.00  0.00     0.016 A 
ATOM     49  C   UNL     1      -1.825  10.197   0.426  1.00  0.00     0.010 A 
ATOM     50  C   UNL     1      -0.107   8.945   1.649  1.00  0.00     0.010 A 
ATOM     51  C   UNL     1      -1.053   9.960   1.568  1.00  0.00    -0.014 A 
BRANCH  51  52
ATOM     52  C   UNL     1      -1.214  10.898   2.649  1.00  0.00     0.031 A 
ATOM     53  C   UNL     1      -2.438  10.709   3.434  1.00  0.00     0.074 A 
ATOM     54  C   UNL     1      -0.305  11.852   2.914  1.00  0.00     0.049 A 
ATOM     55  N   UNL     1      -3.463  11.489   3.490  1.00  0.00    -0.248 NA
ATOM     56  C   UNL     1      -2.585   9.429   4.135  1.00  0.00     0.031 C 
ATOM     57  C   UNL     1       1.071  11.950   2.420  1.00  0.00     0.029 A 
ATOM     58  N   UNL     1      -0.394  12.867   3.814  1.00  0.00    -0.354 N 
ATOM     59  C   UNL     1      -4.298  10.900   4.427  1.00  0.00     0.074 A 
ATOM     60  C   UNL     1      -3.804   9.565   4.653  1.00  0.00     0.031 C 
ATOM     61  C   UNL     1       1.757  12.800   3.217  1.00  0.00     0.029 A 
ATOM     62  C   UNL     1       0.837  13.389   4.176  1.00  0.00     0.049 A 
ATOM     63  H   UNL     1      -1.249  13.199   4.173  1.00  0.00     0.167 HD
ATOM     64  C   UNL     1      -5.183  11.634   5.147  1.00  0.00     0.034 A 
ATOM     65  C   UNL     1       1.080  14.165   5.258  1.00  0.00     0.034 A 
ATOM     66  C   UNL     1      -5.442  12.924   4.570  1.00  0.00     0.049 A 
ATOM     67  C   UNL     1      -0.212  14.744   5.699  1.00  0.00     0.074 A 
ATOM     68  C   UNL     1      -5.906  13.376   3.350  1.00  0.00     0.029 A 
ATOM     69  N   UNL     1      -4.893  14.017   5.194  1.00  0.00    -0.354 N 
ATOM     70  N   UNL     1      -0.877  15.650   5.038  1.00  0.00    -0.248 NA
ATOM     71  C   UNL     1      -0.962  14.057   6.740  1.00  0.00     0.031 C 
ATOM     72  C   UNL     1      -5.237  14.614   3.126  1.00  0.00     0.029 A 
ATOM     73  C   UNL     1      -4.401  14.846   4.220  1.00  0.00     0.049 A 
ATOM     74  H   UNL     1      -4.859  14.176   6.165  1.00  0.00     0.167 HD
ATOM     75  C   UNL     1      -2.213  15.356   5.282  1.00  0.00     0.074 A 
ATOM     76  C   UNL     1      -2.196  14.470   6.441  1.00  0.00     0.031 C 
ATOM     77  C   UNL     1      -3.180  15.618   4.351  1.00  0.00     0.034 A 
BRANCH  64  78
ATOM     78  C   UNL     1      -5.553  11.292   6.560  1.00  0.00     0.023 A 
ATOM     79  C   UNL     1      -6.707  11.886   7.104  1.00  0.00     0.012 A 
ATOM     80  C   UNL     1      -4.700  10.596   7.448  1.00  0.00     0.148 A 
ATOM     81  C   UNL     1      -6.996  11.791   8.469  1.00  0.00     0.002 A 
ATOM     82  C   UNL     1      -5.045  10.417   8.779  1.00  0.00     0.091 A 
ATOM     83  F   UNL     1      -3.481  10.210   7.049  1.00  0.00    -0.205 F 
ATOM     84  C   UNL     1      -6.178  11.036   9.304  1.00  0.00     0.022 A 
BRANCH  82  85
ATOM     85  S   UNL     1      -4.053   9.351   9.827  1.00  0.00     0.127 S 
ATOM     86  O   UNL     1      -3.077  10.289  10.370  1.00  0.00    -0.237 OA
ATOM     87  O   UNL     1      -5.037   8.852  10.789  1.00  0.00    -0.237 OA
ATOM     88  O   UNL     1      -3.545   8.328   8.918  1.00  0.00    -0.744 OA
ENDBRANCH  82  85
ENDBRANCH  64  78
BRANCH  65  89
ATOM     89  C   UNL     1       2.309  14.270   6.074  1.00  0.00     0.023 A 
ATOM     90  C   UNL     1       2.497  15.401   6.889  1.00  0.00     0.012 A 
ATOM     91  C   UNL     1       3.179  13.170   6.250  1.00  0.00     0.148 A 
ATOM     92  C   UNL     1       3.499  15.429   7.865  1.00  0.00     0.002 A 
ATOM     93  C   UNL     1       4.190  13.211   7.205  1.00  0.00     0.091 A 
ATOM     94  F   UNL     1       2.960  12.045   5.555  1.00  0.00    -0.205 F 
ATOM     95  C   UNL     1       4.345  14.335   8.024  1.00  0.00     0.022 A 
BRANCH  93  96
ATOM     96  S   UNL     1       5.320  11.831   7.434  1.00  0.00     0.127 S 
ATOM     97  O   UNL     1       6.583  12.507   7.736  1.00  0.00    -0.237 OA
ATOM     98  O   UNL     1       4.719  11.128   8.563  1.00  0.00    -0.237 OA
ATOM     99  O   UNL     1       5.321  11.121   6.160  1.00  0.00    -0.744 OA
ENDBRANCH  93  96
ENDBRANCH  65  89
BRANCH  77 100
ATOM    100  C   UNL     1      -2.828  16.516   3.187  1.00  0.00     0.023 A 
ATOM    101  C   UNL     1      -1.795  16.183   2.285  1.00  0.00     0.012 A 
ATOM    102  C   UNL     1      -3.648  17.620   2.892  1.00  0.00     0.148 A 
ATOM    103  C   UNL     1      -1.560  16.951   1.143  1.00  0.00     0.002 A 
ATOM    104  C   UNL     1      -3.441  18.356   1.728  1.00  0.00     0.091 A 
ATOM    105  F   UNL     1      -4.638  17.928   3.745  1.00  0.00    -0.205 F 
ATOM    106  C   UNL     1      -2.390  18.031   0.857  1.00  0.00     0.022 A 
BRANCH 104 107
ATOM    107  S   UNL     1      -4.567  19.669   1.241  1.00  0.00     0.127 S 
ATOM    108  O   UNL     1      -3.897  20.859   1.758  1.00  0.00    -0.237 OA
ATOM    109  O   UNL     1      -4.579  19.561  -0.219  1.00  0.00    -0.237 OA
ATOM    110  O   UNL     1      -5.843  19.335   1.865  1.00  0.00    -0.744 OA
ENDBRANCH 104 107
ENDBRANCH  77 100
ENDBRANCH  51  52
ENDBRANCH  44  46
ENDBRANCH  43  44
ENDBRANCH  42  43
ENDBRANCH  41  42
ENDBRANCH  40  41
ENDBRANCH  39  40
ENDBRANCH  38  39
ENDBRANCH  37  38
ENDBRANCH   1  37
TORSDOF 28
