REMARK SMILES O=C(OCCOCCOCCOCCOC(=O)c1ccccc1/C=N/n1cnnc1SCc1ccccc1)c1ccc(-c2c3nc(c(-c4cccc(S(=O)(=O)[O-])c4F)c4ccc([nH]4)c(-c4cccc(S(=O)(=O)[O-])c4F)c4nc(c(-c5cccc(S(=O)(=O)[O-])c5F)c5ccc2[nH]5)C=C4)C=C3)cc1
REMARK SMILES IDX 10 1 9 2 8 3 7 4 6 5 5 6 4 7 3 8 2 9 1 10 39 11 40 12 101 13
REMARK SMILES IDX 41 14 100 15 42 16 43 17 44 18 94 19 45 20 99 21 93 22 95 23
REMARK SMILES IDX 46 24 98 25 92 26 91 27 47 29 79 30 59 31 78 32 60 33 63 34
REMARK SMILES IDX 77 35 96 36 61 37 62 38 76 40 97 41 64 42 48 43 49 44 57 45
REMARK SMILES IDX 50 46 52 47 58 48 51 49 53 50 54 51 55 52 56 53 80 54 81 55
REMARK SMILES IDX 89 56 82 57 84 58 90 59 83 60 85 61 86 62 87 63 88 64 65 65
REMARK SMILES IDX 66 66 74 67 67 68 69 69 75 70 68 71 70 72 71 73 72 74 73 75
REMARK SMILES IDX 11 76 12 77 13 78 14 79 15 80 16 81 17 82 18 83 19 84 23 85
REMARK SMILES IDX 20 86 22 87 21 88 24 89 25 90 26 91 27 92 30 93 28 94 29 95
REMARK SMILES IDX 31 96 32 97 33 98 34 99 38 100 35 101 37 102 36 103
REMARK H PARENT 95 28 63 39
REMARK Flexibility Score: inf
ROOT
ATOM      1  C   UNL     1       4.148   2.881   1.606  1.00  0.00     0.188 C 
ENDROOT
BRANCH   1   2
ATOM      2  O   UNL     1       2.813   2.669   1.998  1.00  0.00    -0.377 OA
BRANCH   2   3
ATOM      3  C   UNL     1       2.235   1.520   1.400  1.00  0.00     0.188 C 
BRANCH   3   4
ATOM      4  C   UNL     1       2.970   0.172   1.564  1.00  0.00     0.188 C 
BRANCH   4   5
ATOM      5  O   UNL     1       4.277  -0.154   1.109  1.00  0.00    -0.376 OA
BRANCH   5   6
ATOM      6  C   UNL     1       5.026   0.253  -0.016  1.00  0.00     0.202 C 
BRANCH   6   7
ATOM      7  C   UNL     1       4.478   0.423  -1.429  1.00  0.00     0.261 C 
BRANCH   7   8
ATOM      8  O   UNL     1       3.114   0.791  -1.508  1.00  0.00    -0.460 OA
BRANCH   8   9
ATOM      9  C   UNL     1       2.050  -0.032  -1.436  1.00  0.00     0.338 C 
ATOM     10  O   UNL     1       0.934   0.463  -1.592  1.00  0.00    -0.246 OA
BRANCH   9  11
ATOM     11  C   UNL     1       2.132  -1.478  -1.089  1.00  0.00     0.060 A 
ATOM     12  C   UNL     1       3.270  -2.288  -1.145  1.00  0.00     0.016 A 
ATOM     13  C   UNL     1       0.910  -2.050  -0.684  1.00  0.00     0.016 A 
ATOM     14  C   UNL     1       3.144  -3.653  -1.068  1.00  0.00     0.010 A 
ATOM     15  C   UNL     1       0.783  -3.414  -0.555  1.00  0.00     0.010 A 
ATOM     16  C   UNL     1       1.879  -4.193  -0.879  1.00  0.00    -0.014 A 
BRANCH  16  17
ATOM     17  C   UNL     1       1.760  -5.615  -1.084  1.00  0.00     0.031 A 
ATOM     18  C   UNL     1       2.529  -6.409  -0.101  1.00  0.00     0.074 A 
ATOM     19  C   UNL     1       1.040  -6.070  -2.128  1.00  0.00     0.049 A 
ATOM     20  N   UNL     1       3.592  -7.112  -0.315  1.00  0.00    -0.248 NA
ATOM     21  C   UNL     1       2.222  -6.206   1.323  1.00  0.00     0.031 C 
ATOM     22  C   UNL     1       0.113  -5.318  -2.984  1.00  0.00     0.029 A 
ATOM     23  N   UNL     1       0.878  -7.343  -2.560  1.00  0.00    -0.354 N 
ATOM     24  C   UNL     1       3.921  -7.661   0.923  1.00  0.00     0.074 A 
ATOM     25  C   UNL     1       3.209  -6.889   1.902  1.00  0.00     0.031 C 
ATOM     26  C   UNL     1      -0.719  -6.187  -3.599  1.00  0.00     0.029 A 
ATOM     27  C   UNL     1      -0.287  -7.538  -3.292  1.00  0.00     0.049 A 
ATOM     28  H   UNL     1       1.524  -8.062  -2.374  1.00  0.00     0.167 HD
ATOM     29  C   UNL     1       4.492  -8.895   0.997  1.00  0.00     0.034 A 
ATOM     30  C   UNL     1      -0.901  -8.727  -3.513  1.00  0.00     0.034 A 
ATOM     31  C   UNL     1       5.123  -9.240  -0.255  1.00  0.00     0.049 A 
ATOM     32  C   UNL     1       0.107  -9.788  -3.267  1.00  0.00     0.074 A 
ATOM     33  C   UNL     1       6.131  -8.690  -1.023  1.00  0.00     0.029 A 
ATOM     34  N   UNL     1       4.429 -10.085  -1.088  1.00  0.00    -0.354 N 
ATOM     35  N   UNL     1       1.171  -9.944  -4.007  1.00  0.00    -0.248 NA
ATOM     36  C   UNL     1       0.192 -10.338  -1.922  1.00  0.00     0.031 C 
ATOM     37  C   UNL     1       5.704  -8.868  -2.371  1.00  0.00     0.029 A 
ATOM     38  C   UNL     1       4.505  -9.585  -2.359  1.00  0.00     0.049 A 
ATOM     39  H   UNL     1       3.960 -10.906  -0.818  1.00  0.00     0.167 HD
ATOM     40  C   UNL     1       2.193 -10.176  -3.094  1.00  0.00     0.074 A 
ATOM     41  C   UNL     1       1.516 -10.504  -1.838  1.00  0.00     0.031 C 
ATOM     42  C   UNL     1       3.474  -9.778  -3.355  1.00  0.00     0.034 A 
BRANCH  29  43
ATOM     43  C   UNL     1       4.070  -9.965   1.993  1.00  0.00     0.023 A 
ATOM     44  C   UNL     1       4.705 -11.223   1.871  1.00  0.00     0.012 A 
ATOM     45  C   UNL     1       2.907  -9.921   2.798  1.00  0.00     0.148 A 
ATOM     46  C   UNL     1       4.144 -12.387   2.407  1.00  0.00     0.002 A 
ATOM     47  C   UNL     1       2.378 -11.072   3.370  1.00  0.00     0.091 A 
ATOM     48  F   UNL     1       2.227  -8.787   2.952  1.00  0.00    -0.205 F 
ATOM     49  C   UNL     1       2.971 -12.314   3.145  1.00  0.00     0.022 A 
BRANCH  47  50
ATOM     50  S   UNL     1       0.871 -11.030   4.353  1.00  0.00     0.127 S 
ATOM     51  O   UNL     1      -0.067 -11.720   3.471  1.00  0.00    -0.237 OA
ATOM     52  O   UNL     1       1.275 -11.781   5.541  1.00  0.00    -0.237 OA
ATOM     53  O   UNL     1       0.591  -9.622   4.601  1.00  0.00    -0.744 OA
ENDBRANCH  47  50
ENDBRANCH  29  43
BRANCH  30  54
ATOM     54  C   UNL     1      -2.357  -9.011  -3.556  1.00  0.00     0.023 A 
ATOM     55  C   UNL     1      -2.820 -10.206  -4.141  1.00  0.00     0.012 A 
ATOM     56  C   UNL     1      -3.270  -8.249  -2.791  1.00  0.00     0.148 A 
ATOM     57  C   UNL     1      -4.141 -10.636  -3.953  1.00  0.00     0.002 A 
ATOM     58  C   UNL     1      -4.583  -8.675  -2.615  1.00  0.00     0.091 A 
ATOM     59  F   UNL     1      -2.828  -7.156  -2.157  1.00  0.00    -0.205 F 
ATOM     60  C   UNL     1      -5.020  -9.876  -3.186  1.00  0.00     0.022 A 
BRANCH  58  61
ATOM     61  S   UNL     1      -5.765  -7.754  -1.620  1.00  0.00     0.127 S 
ATOM     62  O   UNL     1      -6.912  -7.661  -2.524  1.00  0.00    -0.237 OA
ATOM     63  O   UNL     1      -5.956  -8.643  -0.477  1.00  0.00    -0.237 OA
ATOM     64  O   UNL     1      -5.129  -6.476  -1.326  1.00  0.00    -0.744 OA
ENDBRANCH  58  61
ENDBRANCH  30  54
BRANCH  42  65
ATOM     65  C   UNL     1       3.797  -9.286  -4.743  1.00  0.00     0.023 A 
ATOM     66  C   UNL     1       3.255  -8.097  -5.277  1.00  0.00     0.012 A 
ATOM     67  C   UNL     1       4.817  -9.943  -5.446  1.00  0.00     0.148 A 
ATOM     68  C   UNL     1       3.713  -7.587  -6.497  1.00  0.00     0.002 A 
ATOM     69  C   UNL     1       5.303  -9.409  -6.632  1.00  0.00     0.091 A 
ATOM     70  F   UNL     1       5.325 -11.067  -4.918  1.00  0.00    -0.205 F 
ATOM     71  C   UNL     1       4.747  -8.236  -7.168  1.00  0.00     0.022 A 
BRANCH  69  72
ATOM     72  S   UNL     1       6.719 -10.125  -7.466  1.00  0.00     0.127 S 
ATOM     73  O   UNL     1       6.100 -10.762  -8.626  1.00  0.00    -0.237 OA
ATOM     74  O   UNL     1       7.530  -8.945  -7.774  1.00  0.00    -0.237 OA
ATOM     75  O   UNL     1       7.335 -11.033  -6.505  1.00  0.00    -0.744 OA
ENDBRANCH  69  72
ENDBRANCH  42  65
ENDBRANCH  16  17
ENDBRANCH   9  11
ENDBRANCH   8   9
ENDBRANCH   7   8
ENDBRANCH   6   7
ENDBRANCH   5   6
ENDBRANCH   4   5
ENDBRANCH   3   4
ENDBRANCH   2   3
ENDBRANCH   1   2
BRANCH   1  76
ATOM     76  C   UNL     1       5.175   2.320   2.616  1.00  0.00     0.188 C 
BRANCH  76  77
ATOM     77  O   UNL     1       4.773   1.588   3.760  1.00  0.00    -0.376 OA
BRANCH  77  78
ATOM     78  C   UNL     1       3.660   1.974   4.548  1.00  0.00     0.202 C 
BRANCH  78  79
ATOM     79  C   UNL     1       3.351   3.442   4.869  1.00  0.00     0.261 C 
BRANCH  79  80
ATOM     80  O   UNL     1       3.843   4.412   3.944  1.00  0.00    -0.460 OA
BRANCH  80  81
ATOM     81  C   UNL     1       5.037   4.981   4.207  1.00  0.00     0.338 C 
ATOM     82  O   UNL     1       5.776   4.788   5.158  1.00  0.00    -0.246 OA
BRANCH  81  83
ATOM     83  C   UNL     1       5.330   5.893   3.088  1.00  0.00     0.068 A 
ATOM     84  C   UNL     1       6.394   5.603   2.213  1.00  0.00     0.016 A 
ATOM     85  C   UNL     1       4.516   7.002   2.861  1.00  0.00     0.009 A 
ATOM     86  C   UNL     1       6.638   6.415   1.106  1.00  0.00     0.001 A 
ATOM     87  C   UNL     1       4.841   7.855   1.812  1.00  0.00     0.010 A 
ATOM     88  C   UNL     1       5.883   7.566   0.927  1.00  0.00     0.001 A 
BRANCH  85  89
ATOM     89  C   UNL     1       3.316   7.241   3.697  1.00  0.00     0.143 C 
ATOM     90  N   UNL     1       2.398   8.115   3.424  1.00  0.00    -0.172 NA
BRANCH  90  91
ATOM     91  N   UNL     1       1.360   8.178   4.338  1.00  0.00    -0.195 N 
ATOM     92  C   UNL     1       1.347   7.764   5.658  1.00  0.00     0.251 A 
ATOM     93  C   UNL     1       0.086   8.700   4.161  1.00  0.00     0.212 A 
ATOM     94  N   UNL     1       0.171   7.944   6.205  1.00  0.00    -0.136 NA
ATOM     95  N   UNL     1      -0.623   8.533   5.262  1.00  0.00    -0.122 NA
BRANCH  93  96
ATOM     96  S   UNL     1      -0.629   9.395   2.743  1.00  0.00    -0.080 SA
BRANCH  96  97
ATOM     97  C   UNL     1       0.678   9.741   1.561  1.00  0.00     0.113 C 
BRANCH  97  98
ATOM     98  C   UNL     1       1.723  10.770   1.930  1.00  0.00    -0.038 A 
ATOM     99  C   UNL     1       1.550  11.764   2.900  1.00  0.00     0.004 A 
ATOM    100  C   UNL     1       2.952  10.720   1.257  1.00  0.00     0.004 A 
ATOM    101  C   UNL     1       2.624  12.569   3.291  1.00  0.00     0.000 A 
ATOM    102  C   UNL     1       4.039  11.490   1.675  1.00  0.00     0.000 A 
ATOM    103  C   UNL     1       3.879  12.401   2.711  1.00  0.00     0.000 A 
ENDBRANCH  97  98
ENDBRANCH  96  97
ENDBRANCH  93  96
ENDBRANCH  90  91
ENDBRANCH  85  89
ENDBRANCH  81  83
ENDBRANCH  80  81
ENDBRANCH  79  80
ENDBRANCH  78  79
ENDBRANCH  77  78
ENDBRANCH  76  77
ENDBRANCH   1  76
TORSDOF 28
