REMARK SMILES O=C(C[C@H](C(=O)OCCOCCOCCOCCOC(=O)c1ccc(-c2c3nc(c(-c4cccc(S(=O)(=O)[O-])c4F)c4ccc([nH]4)c(-c4cccc(S(=O)(=O)[O-])c4F)c4nc(c(-c5cccc(S(=O)(=O)[O-])c5F)c5ccc2[nH]5)C=C4)C=C3)cc1)c1ccccc1)Nc1ccc(Cl)cc1Cl
REMARK SMILES IDX 13 1 12 2 11 3 10 4 9 5 8 6 7 7 5 8 6 9 4 10 3 11 2 12 1 13
REMARK SMILES IDX 91 14 92 16 93 17 98 18 94 19 97 20 99 21 95 22 96 23 85 24
REMARK SMILES IDX 86 25 90 26 87 27 89 28 88 29 14 30 15 31 16 32 17 33 18 34
REMARK SMILES IDX 19 35 20 36 21 37 22 38 23 39 84 40 24 41 83 42 25 43 26 44
REMARK SMILES IDX 27 45 77 46 28 47 82 48 76 49 78 50 29 51 81 52 75 53 74 54
REMARK SMILES IDX 30 56 62 57 42 58 61 59 43 60 46 61 60 62 79 63 44 64 45 65
REMARK SMILES IDX 59 67 80 68 47 69 31 70 32 71 40 72 33 73 35 74 41 75 34 76
REMARK SMILES IDX 36 77 37 78 38 79 39 80 63 81 64 82 72 83 65 84 67 85 73 86
REMARK SMILES IDX 66 87 68 88 69 89 70 90 71 91 48 92 49 93 57 94 50 95 52 96
REMARK SMILES IDX 58 97 51 98 53 99 54 100 55 101 56 102
REMARK H PARENT 91 15 78 55 46 66
REMARK Flexibility Score: inf
ROOT
ATOM      1  O   UNL     1       4.227  -0.528  -2.080  1.00  0.00    -0.377 OA
ENDROOT
BRANCH   1   2
ATOM      2  C   UNL     1       3.503  -0.526  -0.871  1.00  0.00     0.188 C 
BRANCH   2   3
ATOM      3  C   UNL     1       1.979  -0.378  -0.897  1.00  0.00     0.188 C 
BRANCH   3   4
ATOM      4  O   UNL     1       1.575   0.724  -1.685  1.00  0.00    -0.376 OA
BRANCH   4   5
ATOM      5  C   UNL     1       1.228   1.955  -1.089  1.00  0.00     0.202 C 
BRANCH   5   6
ATOM      6  C   UNL     1       2.196   2.739  -0.182  1.00  0.00     0.261 C 
BRANCH   6   7
ATOM      7  O   UNL     1       3.170   2.038   0.610  1.00  0.00    -0.463 OA
BRANCH   7   8
ATOM      8  C   UNL     1       2.752   1.505   1.788  1.00  0.00     0.314 C 
ATOM      9  O   UNL     1       1.573   1.421   2.109  1.00  0.00    -0.252 OA
BRANCH   8  10
ATOM     10  C   UNL     1       3.918   1.094   2.694  1.00  0.00     0.138 C 
BRANCH  10  11
ATOM     11  C   UNL     1       4.895   0.056   2.116  1.00  0.00     0.120 C 
BRANCH  11  12
ATOM     12  C   UNL     1       6.185   0.538   1.446  1.00  0.00     0.225 C 
ATOM     13  O   UNL     1       7.254   0.051   1.812  1.00  0.00    -0.275 OA
ATOM     14  N   UNL     1       6.042   1.501   0.468  1.00  0.00    -0.325 N 
ATOM     15  H   UNL     1       5.135   1.848   0.306  1.00  0.00     0.169 HD
BRANCH  14  16
ATOM     16  C   UNL     1       7.095   2.033  -0.324  1.00  0.00     0.060 A 
ATOM     17  C   UNL     1       7.018   3.411  -0.589  1.00  0.00     0.029 A 
ATOM     18  C   UNL     1       8.185   1.311  -0.847  1.00  0.00     0.066 A 
ATOM     19  C   UNL     1       8.060   4.074  -1.247  1.00  0.00     0.023 A 
ATOM     20  C   UNL     1       9.223   1.978  -1.509  1.00  0.00     0.043 A 
ATOM     21  Cl  UNL     1       8.237  -0.419  -0.915  1.00  0.00    -0.082 Cl
ATOM     22  C   UNL     1       9.167   3.356  -1.687  1.00  0.00     0.042 A 
ATOM     23  Cl  UNL     1      10.461   4.148  -2.492  1.00  0.00    -0.084 Cl
ENDBRANCH  14  16
ENDBRANCH  11  12
ENDBRANCH  10  11
BRANCH  10  24
ATOM     24  C   UNL     1       4.628   2.233   3.401  1.00  0.00    -0.033 A 
ATOM     25  C   UNL     1       5.502   1.919   4.458  1.00  0.00     0.004 A 
ATOM     26  C   UNL     1       4.490   3.575   3.024  1.00  0.00     0.004 A 
ATOM     27  C   UNL     1       6.233   2.913   5.101  1.00  0.00     0.000 A 
ATOM     28  C   UNL     1       5.222   4.570   3.672  1.00  0.00     0.000 A 
ATOM     29  C   UNL     1       6.094   4.238   4.705  1.00  0.00     0.000 A 
ENDBRANCH  10  24
ENDBRANCH   8  10
ENDBRANCH   7   8
ENDBRANCH   6   7
ENDBRANCH   5   6
ENDBRANCH   4   5
ENDBRANCH   3   4
ENDBRANCH   2   3
ENDBRANCH   1   2
BRANCH   1  30
ATOM     30  C   UNL     1       3.916   0.505  -2.994  1.00  0.00     0.188 C 
BRANCH  30  31
ATOM     31  C   UNL     1       2.970   0.027  -4.110  1.00  0.00     0.188 C 
BRANCH  31  32
ATOM     32  O   UNL     1       2.501  -1.315  -4.158  1.00  0.00    -0.376 OA
BRANCH  32  33
ATOM     33  C   UNL     1       3.286  -2.406  -3.705  1.00  0.00     0.202 C 
BRANCH  33  34
ATOM     34  C   UNL     1       4.782  -2.588  -4.042  1.00  0.00     0.261 C 
BRANCH  34  35
ATOM     35  O   UNL     1       5.559  -1.426  -4.335  1.00  0.00    -0.460 OA
BRANCH  35  36
ATOM     36  C   UNL     1       5.567  -1.029  -5.623  1.00  0.00     0.338 C 
ATOM     37  O   UNL     1       4.973  -1.544  -6.559  1.00  0.00    -0.246 OA
BRANCH  36  38
ATOM     38  C   UNL     1       6.284   0.259  -5.704  1.00  0.00     0.060 A 
ATOM     39  C   UNL     1       5.602   1.375  -6.210  1.00  0.00     0.016 A 
ATOM     40  C   UNL     1       7.618   0.363  -5.305  1.00  0.00     0.016 A 
ATOM     41  C   UNL     1       6.262   2.591  -6.359  1.00  0.00     0.010 A 
ATOM     42  C   UNL     1       8.292   1.572  -5.494  1.00  0.00     0.010 A 
ATOM     43  C   UNL     1       7.626   2.673  -6.064  1.00  0.00    -0.014 A 
BRANCH  43  44
ATOM     44  C   UNL     1       8.413   3.800  -6.611  1.00  0.00     0.031 A 
ATOM     45  C   UNL     1       9.113   3.580  -7.925  1.00  0.00     0.074 A 
ATOM     46  C   UNL     1       8.507   4.978  -5.969  1.00  0.00     0.049 A 
ATOM     47  N   UNL     1       9.945   4.358  -8.561  1.00  0.00    -0.248 NA
ATOM     48  C   UNL     1       8.829   2.309  -8.619  1.00  0.00     0.031 C 
ATOM     49  C   UNL     1       7.821   5.324  -4.727  1.00  0.00     0.029 A 
ATOM     50  N   UNL     1       9.259   6.088  -6.260  1.00  0.00    -0.354 N 
ATOM     51  C   UNL     1      10.317   3.658  -9.702  1.00  0.00     0.074 A 
ATOM     52  C   UNL     1       9.615   2.396  -9.681  1.00  0.00     0.031 C 
ATOM     53  C   UNL     1       8.239   6.538  -4.323  1.00  0.00     0.029 A 
ATOM     54  C   UNL     1       9.240   7.036  -5.263  1.00  0.00     0.049 A 
ATOM     55  H   UNL     1       9.763   6.196  -7.099  1.00  0.00     0.167 HD
ATOM     56  C   UNL     1      11.166   4.037 -10.682  1.00  0.00     0.034 A 
ATOM     57  C   UNL     1       9.982   8.152  -5.113  1.00  0.00     0.034 A 
ATOM     58  C   UNL     1      11.845   5.302 -10.701  1.00  0.00     0.049 A 
ATOM     59  C   UNL     1      10.970   8.520  -6.193  1.00  0.00     0.074 A 
ATOM     60  C   UNL     1      12.690   5.806 -11.672  1.00  0.00     0.029 A 
ATOM     61  N   UNL     1      11.770   6.251  -9.696  1.00  0.00    -0.354 N 
ATOM     62  N   UNL     1      11.234   7.900  -7.317  1.00  0.00    -0.248 NA
ATOM     63  C   UNL     1      11.735   9.762  -6.003  1.00  0.00     0.031 C 
ATOM     64  C   UNL     1      13.161   7.045 -11.233  1.00  0.00     0.029 A 
ATOM     65  C   UNL     1      12.567   7.334 -10.015  1.00  0.00     0.049 A 
ATOM     66  H   UNL     1      11.230   6.167  -8.877  1.00  0.00     0.167 HD
ATOM     67  C   UNL     1      12.145   8.705  -7.994  1.00  0.00     0.074 A 
ATOM     68  C   UNL     1      12.386   9.859  -7.154  1.00  0.00     0.031 C 
ATOM     69  C   UNL     1      12.730   8.508  -9.200  1.00  0.00     0.034 A 
BRANCH  56  70
ATOM     70  C   UNL     1      11.418   3.083 -11.815  1.00  0.00     0.023 A 
ATOM     71  C   UNL     1      10.431   2.878 -12.799  1.00  0.00     0.012 A 
ATOM     72  C   UNL     1      12.674   2.459 -11.951  1.00  0.00     0.148 A 
ATOM     73  C   UNL     1      10.685   2.055 -13.895  1.00  0.00     0.002 A 
ATOM     74  C   UNL     1      12.936   1.679 -13.069  1.00  0.00     0.091 A 
ATOM     75  F   UNL     1      13.588   2.651 -10.990  1.00  0.00    -0.205 F 
ATOM     76  C   UNL     1      11.940   1.468 -14.037  1.00  0.00     0.022 A 
BRANCH  74  77
ATOM     77  S   UNL     1      14.547   0.952 -13.388  1.00  0.00     0.127 S 
ATOM     78  O   UNL     1      14.246  -0.477 -13.311  1.00  0.00    -0.237 OA
ATOM     79  O   UNL     1      14.841   1.442 -14.734  1.00  0.00    -0.237 OA
ATOM     80  O   UNL     1      15.432   1.454 -12.346  1.00  0.00    -0.744 OA
ENDBRANCH  74  77
ENDBRANCH  56  70
BRANCH  57  81
ATOM     81  C   UNL     1       9.829   9.014  -3.905  1.00  0.00     0.023 A 
ATOM     82  C   UNL     1       9.312  10.318  -4.036  1.00  0.00     0.012 A 
ATOM     83  C   UNL     1      10.224   8.562  -2.631  1.00  0.00     0.148 A 
ATOM     84  C   UNL     1       9.240  11.170  -2.933  1.00  0.00     0.002 A 
ATOM     85  C   UNL     1      10.088   9.393  -1.525  1.00  0.00     0.091 A 
ATOM     86  F   UNL     1      10.742   7.332  -2.525  1.00  0.00    -0.205 F 
ATOM     87  C   UNL     1       9.619  10.706  -1.677  1.00  0.00     0.022 A 
BRANCH  85  88
ATOM     88  S   UNL     1      10.410   8.821   0.147  1.00  0.00     0.127 S 
ATOM     89  O   UNL     1      11.674   9.484   0.455  1.00  0.00    -0.237 OA
ATOM     90  O   UNL     1       9.248   9.338   0.872  1.00  0.00    -0.237 OA
ATOM     91  O   UNL     1      10.450   7.368   0.059  1.00  0.00    -0.744 OA
ENDBRANCH  85  88
ENDBRANCH  57  81
BRANCH  69  92
ATOM     92  C   UNL     1      13.616   9.596  -9.745  1.00  0.00     0.023 A 
ATOM     93  C   UNL     1      14.897   9.810  -9.205  1.00  0.00     0.012 A 
ATOM     94  C   UNL     1      13.207  10.330 -10.878  1.00  0.00     0.148 A 
ATOM     95  C   UNL     1      15.750  10.758  -9.769  1.00  0.00     0.002 A 
ATOM     96  C   UNL     1      14.082  11.231 -11.467  1.00  0.00     0.091 A 
ATOM     97  F   UNL     1      11.976  10.118 -11.365  1.00  0.00    -0.205 F 
ATOM     98  C   UNL     1      15.350  11.457 -10.907  1.00  0.00     0.022 A 
BRANCH  96  99
ATOM     99  S   UNL     1      13.693  12.093 -12.995  1.00  0.00     0.127 S 
ATOM    100  O   UNL     1      13.559  13.473 -12.531  1.00  0.00    -0.237 OA
ATOM    101  O   UNL     1      14.883  11.834 -13.806  1.00  0.00    -0.237 OA
ATOM    102  O   UNL     1      12.469  11.487 -13.502  1.00  0.00    -0.744 OA
ENDBRANCH  96  99
ENDBRANCH  69  92
ENDBRANCH  43  44
ENDBRANCH  36  38
ENDBRANCH  35  36
ENDBRANCH  34  35
ENDBRANCH  33  34
ENDBRANCH  32  33
ENDBRANCH  31  32
ENDBRANCH  30  31
ENDBRANCH   1  30
TORSDOF 27
