REMARK SMILES CC1=C2C(=O)N(C[C@H]3CCCO3)C(=O)N=C2S[C@@H]1C(=O)OCCOCCOCCOCCOC(=O)c1ccc(-c2c3nc(c(-c4cccc(S(=O)(=O)[O-])c4F)c4ccc([nH]4)c(-c4cccc(S(=O)(=O)[O-])c4F)c4nc(c(-c5cccc(S(=O)(=O)[O-])c5F)c5ccc2[nH]5)C=C4)C=C3)cc1
REMARK SMILES IDX 28 1 27 2 26 3 25 4 24 5 23 6 22 7 21 8 19 9 20 10 18 11
REMARK SMILES IDX 1 12 2 13 3 14 4 15 16 16 17 17 5 18 6 19 15 20 13 21 14 22
REMARK SMILES IDX 7 23 8 24 9 25 12 26 10 27 11 28 29 29 30 30 31 31 32 32
REMARK SMILES IDX 33 33 34 34 35 35 36 36 37 37 98 38 38 39 97 40 39 41 40 42
REMARK SMILES IDX 41 43 91 44 42 45 96 46 90 47 92 48 43 49 95 50 89 51 88 52
REMARK SMILES IDX 44 54 76 55 56 56 75 57 57 58 60 59 74 60 93 61 58 62 59 63
REMARK SMILES IDX 73 65 94 66 61 67 45 68 46 69 54 70 47 71 49 72 55 73 48 74
REMARK SMILES IDX 50 75 51 76 52 77 53 78 77 79 78 80 86 81 79 82 81 83 87 84
REMARK SMILES IDX 80 85 82 86 83 87 84 88 85 89 62 90 63 91 71 92 64 93 66 94
REMARK SMILES IDX 72 95 65 96 67 97 68 98 69 99 70 100
REMARK H PARENT 92 53 60 64
REMARK Flexibility Score: inf
ROOT
ATOM      1  C   UNL     1       7.601  -5.545   6.254  1.00  0.00     0.188 C 
ENDROOT
BRANCH   1   2
ATOM      2  O   UNL     1       6.317  -5.724   5.668  1.00  0.00    -0.377 OA
BRANCH   2   3
ATOM      3  C   UNL     1       5.563  -6.821   6.130  1.00  0.00     0.188 C 
BRANCH   3   4
ATOM      4  C   UNL     1       5.490  -8.004   5.154  1.00  0.00     0.188 C 
BRANCH   4   5
ATOM      5  O   UNL     1       6.176  -8.045   3.906  1.00  0.00    -0.376 OA
BRANCH   5   6
ATOM      6  C   UNL     1       6.586  -6.880   3.205  1.00  0.00     0.202 C 
BRANCH   6   7
ATOM      7  C   UNL     1       5.532  -5.946   2.604  1.00  0.00     0.261 C 
BRANCH   7   8
ATOM      8  O   UNL     1       4.643  -5.355   3.555  1.00  0.00    -0.462 OA
BRANCH   8   9
ATOM      9  C   UNL     1       3.465  -5.990   3.724  1.00  0.00     0.323 C 
ATOM     10  O   UNL     1       3.123  -7.001   3.112  1.00  0.00    -0.251 OA
BRANCH   9  11
ATOM     11  C   UNL     1       2.521  -5.306   4.696  1.00  0.00     0.189 C 
ATOM     12  C   UNL     1       0.787  -5.100   2.803  1.00  0.00     0.042 C 
ATOM     13  C   UNL     1       1.521  -4.471   3.946  1.00  0.00    -0.033 C 
ATOM     14  C   UNL     1       1.331  -3.241   4.444  1.00  0.00     0.073 C 
ATOM     15  C   UNL     1       0.377  -2.217   4.061  1.00  0.00     0.264 C 
ATOM     16  C   UNL     1       2.027  -3.001   5.689  1.00  0.00     0.116 C 
ATOM     17  S   UNL     1       3.277  -4.166   5.914  1.00  0.00    -0.086 SA
ATOM     18  O   UNL     1       0.124  -1.966   2.894  1.00  0.00    -0.268 OA
ATOM     19  N   UNL     1      -0.211  -1.681   5.184  1.00  0.00    -0.256 N 
ATOM     20  N   UNL     1       1.705  -2.119   6.560  1.00  0.00    -0.186 NA
ATOM     21  C   UNL     1       0.524  -1.439   6.355  1.00  0.00     0.351 C 
ATOM     22  O   UNL     1       0.078  -0.705   7.235  1.00  0.00    -0.246 OA
BRANCH  19  23
ATOM     23  C   UNL     1      -1.657  -1.503   5.255  1.00  0.00     0.163 C 
BRANCH  23  24
ATOM     24  C   UNL     1      -2.497  -1.416   3.971  1.00  0.00     0.138 C 
ATOM     25  C   UNL     1      -2.533  -2.662   3.085  1.00  0.00     0.036 C 
ATOM     26  O   UNL     1      -3.872  -1.200   4.384  1.00  0.00    -0.376 OA
ATOM     27  C   UNL     1      -3.842  -3.328   3.389  1.00  0.00     0.031 C 
ATOM     28  C   UNL     1      -4.715  -2.153   3.730  1.00  0.00     0.160 C 
ENDBRANCH  23  24
ENDBRANCH  19  23
ENDBRANCH   9  11
ENDBRANCH   8   9
ENDBRANCH   7   8
ENDBRANCH   6   7
ENDBRANCH   5   6
ENDBRANCH   4   5
ENDBRANCH   3   4
ENDBRANCH   2   3
ENDBRANCH   1   2
BRANCH   1  29
ATOM     29  C   UNL     1       8.457  -6.815   6.399  1.00  0.00     0.188 C 
BRANCH  29  30
ATOM     30  O   UNL     1       7.886  -7.778   7.285  1.00  0.00    -0.376 OA
BRANCH  30  31
ATOM     31  C   UNL     1       8.338  -7.762   8.636  1.00  0.00     0.202 C 
BRANCH  31  32
ATOM     32  C   UNL     1       7.921  -6.546   9.482  1.00  0.00     0.261 C 
BRANCH  32  33
ATOM     33  O   UNL     1       8.500  -5.282   9.112  1.00  0.00    -0.460 OA
BRANCH  33  34
ATOM     34  C   UNL     1       9.839  -5.199   8.971  1.00  0.00     0.338 C 
ATOM     35  O   UNL     1      10.659  -6.060   9.229  1.00  0.00    -0.246 OA
BRANCH  34  36
ATOM     36  C   UNL     1      10.141  -3.952   8.238  1.00  0.00     0.060 A 
ATOM     37  C   UNL     1      10.902  -4.034   7.064  1.00  0.00     0.016 A 
ATOM     38  C   UNL     1       9.695  -2.715   8.708  1.00  0.00     0.016 A 
ATOM     39  C   UNL     1      11.266  -2.871   6.386  1.00  0.00     0.010 A 
ATOM     40  C   UNL     1      10.076  -1.550   8.039  1.00  0.00     0.010 A 
ATOM     41  C   UNL     1      10.898  -1.621   6.901  1.00  0.00    -0.014 A 
BRANCH  41  42
ATOM     42  C   UNL     1      11.553  -0.396   6.384  1.00  0.00     0.031 A 
ATOM     43  C   UNL     1      12.759   0.126   7.117  1.00  0.00     0.074 A 
ATOM     44  C   UNL     1      11.093   0.243   5.294  1.00  0.00     0.049 A 
ATOM     45  N   UNL     1      13.483   1.186   6.876  1.00  0.00    -0.248 NA
ATOM     46  C   UNL     1      13.208  -0.656   8.283  1.00  0.00     0.031 C 
ATOM     47  C   UNL     1       9.940  -0.167   4.496  1.00  0.00     0.029 A 
ATOM     48  N   UNL     1      11.533   1.393   4.689  1.00  0.00    -0.354 N 
ATOM     49  C   UNL     1      14.454   1.214   7.869  1.00  0.00     0.074 A 
ATOM     50  C   UNL     1      14.222   0.072   8.725  1.00  0.00     0.031 C 
ATOM     51  C   UNL     1       9.745   0.738   3.520  1.00  0.00     0.029 A 
ATOM     52  C   UNL     1      10.744   1.799   3.639  1.00  0.00     0.049 A 
ATOM     53  H   UNL     1      12.338   1.881   4.979  1.00  0.00     0.167 HD
ATOM     54  C   UNL     1      15.461   2.101   8.046  1.00  0.00     0.034 A 
ATOM     55  C   UNL     1      10.811   2.911   2.879  1.00  0.00     0.034 A 
ATOM     56  C   UNL     1      15.699   3.231   7.192  1.00  0.00     0.049 A 
ATOM     57  C   UNL     1      11.922   3.903   3.118  1.00  0.00     0.074 A 
ATOM     58  C   UNL     1      16.716   4.165   7.265  1.00  0.00     0.029 A 
ATOM     59  N   UNL     1      14.902   3.588   6.116  1.00  0.00    -0.354 N 
ATOM     60  N   UNL     1      12.906   3.852   3.984  1.00  0.00    -0.248 NA
ATOM     61  C   UNL     1      11.951   5.092   2.252  1.00  0.00     0.031 C 
ATOM     62  C   UNL     1      16.518   5.104   6.248  1.00  0.00     0.029 A 
ATOM     63  C   UNL     1      15.395   4.737   5.523  1.00  0.00     0.049 A 
ATOM     64  H   UNL     1      14.102   3.098   5.818  1.00  0.00     0.167 HD
ATOM     65  C   UNL     1      13.689   4.977   3.743  1.00  0.00     0.074 A 
ATOM     66  C   UNL     1      13.075   5.682   2.636  1.00  0.00     0.031 C 
ATOM     67  C   UNL     1      14.807   5.396   4.386  1.00  0.00     0.034 A 
BRANCH  54  68
ATOM     68  C   UNL     1      16.397   1.867   9.201  1.00  0.00     0.023 A 
ATOM     69  C   UNL     1      17.333   0.814   9.136  1.00  0.00     0.012 A 
ATOM     70  C   UNL     1      16.380   2.710  10.329  1.00  0.00     0.148 A 
ATOM     71  C   UNL     1      18.218   0.586  10.189  1.00  0.00     0.002 A 
ATOM     72  C   UNL     1      17.294   2.502  11.355  1.00  0.00     0.091 A 
ATOM     73  F   UNL     1      15.465   3.688  10.383  1.00  0.00    -0.205 F 
ATOM     74  C   UNL     1      18.205   1.435  11.292  1.00  0.00     0.022 A 
BRANCH  72  75
ATOM     75  S   UNL     1      17.407   3.586  12.783  1.00  0.00     0.127 S 
ATOM     76  O   UNL     1      16.872   2.732  13.843  1.00  0.00    -0.237 OA
ATOM     77  O   UNL     1      18.846   3.833  12.868  1.00  0.00    -0.237 OA
ATOM     78  O   UNL     1      16.607   4.759  12.461  1.00  0.00    -0.744 OA
ENDBRANCH  72  75
ENDBRANCH  54  68
BRANCH  55  79
ATOM     79  C   UNL     1       9.815   3.134   1.792  1.00  0.00     0.023 A 
ATOM     80  C   UNL     1      10.229   3.072   0.447  1.00  0.00     0.012 A 
ATOM     81  C   UNL     1       8.463   3.398   2.083  1.00  0.00     0.148 A 
ATOM     82  C   UNL     1       9.321   3.300  -0.588  1.00  0.00     0.002 A 
ATOM     83  C   UNL     1       7.553   3.570   1.047  1.00  0.00     0.091 A 
ATOM     84  F   UNL     1       8.093   3.472   3.370  1.00  0.00    -0.205 F 
ATOM     85  C   UNL     1       7.982   3.539  -0.289  1.00  0.00     0.022 A 
BRANCH  83  86
ATOM     86  S   UNL     1       5.789   3.758   1.332  1.00  0.00     0.127 S 
ATOM     87  O   UNL     1       5.570   5.148   0.940  1.00  0.00    -0.237 OA
ATOM     88  O   UNL     1       5.231   2.762   0.417  1.00  0.00    -0.237 OA
ATOM     89  O   UNL     1       5.585   3.459   2.743  1.00  0.00    -0.744 OA
ENDBRANCH  83  86
ENDBRANCH  55  79
BRANCH  67  90
ATOM     90  C   UNL     1      15.474   6.655   3.893  1.00  0.00     0.023 A 
ATOM     91  C   UNL     1      14.880   7.908   4.141  1.00  0.00     0.012 A 
ATOM     92  C   UNL     1      16.733   6.599   3.261  1.00  0.00     0.148 A 
ATOM     93  C   UNL     1      15.515   9.084   3.742  1.00  0.00     0.002 A 
ATOM     94  C   UNL     1      17.381   7.777   2.910  1.00  0.00     0.091 A 
ATOM     95  F   UNL     1      17.274   5.397   3.018  1.00  0.00    -0.205 F 
ATOM     96  C   UNL     1      16.769   9.020   3.138  1.00  0.00     0.022 A 
BRANCH  94  97
ATOM     97  S   UNL     1      19.040   7.794   2.218  1.00  0.00     0.127 S 
ATOM     98  O   UNL     1      18.778   8.145   0.824  1.00  0.00    -0.237 OA
ATOM     99  O   UNL     1      19.692   8.845   2.999  1.00  0.00    -0.237 OA
ATOM    100  O   UNL     1      19.578   6.458   2.436  1.00  0.00    -0.744 OA
ENDBRANCH  94  97
ENDBRANCH  67  90
ENDBRANCH  41  42
ENDBRANCH  34  36
ENDBRANCH  33  34
ENDBRANCH  32  33
ENDBRANCH  31  32
ENDBRANCH  30  31
ENDBRANCH  29  30
ENDBRANCH   1  29
TORSDOF 25
