REMARK SMILES CCN(CC)C(=O)/C(C#N)=C\c1ccc(O[C@H](C)C(=O)OCCOCCOCCOCCOC(=O)c2ccc(-c3c4nc(c(-c5cccc(S(=O)(=O)[O-])c5F)c5ccc([nH]5)c(-c5cccc(S(=O)(=O)[O-])c5F)c5nc(c(-c6cccc(S(=O)(=O)[O-])c6F)c6ccc3[nH]6)C=C5)C=C4)cc2)cc1
REMARK SMILES IDX 26 1 25 2 24 3 23 4 22 5 21 6 19 7 20 8 17 9 18 10 16 11
REMARK SMILES IDX 15 12 12 13 13 14 100 15 14 16 99 17 11 18 8 19 6 20 3 21
REMARK SMILES IDX 7 22 2 23 1 24 4 25 5 26 9 27 10 28 27 29 28 30 29 31 30 32
REMARK SMILES IDX 31 33 32 34 33 35 34 36 35 37 36 38 37 39 98 40 38 41 97 42
REMARK SMILES IDX 39 43 40 44 41 45 91 46 42 47 96 48 90 49 92 50 43 51 95 52
REMARK SMILES IDX 89 53 88 54 44 56 76 57 56 58 75 59 57 60 60 61 74 62 93 63
REMARK SMILES IDX 58 64 59 65 73 67 94 68 61 69 45 70 46 71 54 72 47 73 49 74
REMARK SMILES IDX 55 75 48 76 50 77 51 78 52 79 53 80 77 81 78 82 86 83 79 84
REMARK SMILES IDX 81 85 87 86 80 87 82 88 83 89 84 90 85 91 62 92 63 93 71 94
REMARK SMILES IDX 64 95 66 96 72 97 65 98 67 99 68 100 69 101 70 102
REMARK H PARENT 92 55 60 66
REMARK Flexibility Score: inf
ROOT
ATOM      1  C   UNL     1       9.370   1.136  -0.107  1.00  0.00     0.188 C 
ENDROOT
BRANCH   1   2
ATOM      2  C   UNL     1       9.805   0.809  -1.546  1.00  0.00     0.188 C 
BRANCH   2   3
ATOM      3  O   UNL     1       9.352   1.574  -2.656  1.00  0.00    -0.376 OA
BRANCH   3   4
ATOM      4  C   UNL     1       8.043   2.122  -2.688  1.00  0.00     0.202 C 
BRANCH   4   5
ATOM      5  C   UNL     1       6.799   1.269  -2.388  1.00  0.00     0.261 C 
BRANCH   5   6
ATOM      6  O   UNL     1       6.967   0.172  -1.484  1.00  0.00    -0.461 OA
BRANCH   6   7
ATOM      7  C   UNL     1       7.266  -1.014  -2.072  1.00  0.00     0.347 C 
ATOM      8  O   UNL     1       7.518  -1.159  -3.265  1.00  0.00    -0.248 OA
BRANCH   7   9
ATOM      9  C   UNL     1       7.204  -2.175  -1.093  1.00  0.00     0.279 C 
ATOM     10  C   UNL     1       8.216  -2.198   0.041  1.00  0.00     0.066 C 
BRANCH   9  11
ATOM     11  O   UNL     1       5.825  -2.367  -0.837  1.00  0.00    -0.479 OA
BRANCH  11  12
ATOM     12  C   UNL     1       5.164  -2.205   0.327  1.00  0.00     0.120 A 
ATOM     13  C   UNL     1       3.620  -2.494   2.612  1.00  0.00    -0.024 A 
ATOM     14  C   UNL     1       4.833  -1.819   2.684  1.00  0.00     0.012 A 
ATOM     15  C   UNL     1       3.084  -2.842   1.375  1.00  0.00     0.012 A 
ATOM     16  C   UNL     1       5.590  -1.645   1.526  1.00  0.00     0.047 A 
ATOM     17  C   UNL     1       3.873  -2.725   0.245  1.00  0.00     0.047 A 
BRANCH  13  18
ATOM     18  C   UNL     1       2.963  -2.928   3.830  1.00  0.00     0.033 C 
ATOM     19  C   UNL     1       2.701  -4.219   4.107  1.00  0.00     0.117 C 
BRANCH  19  20
ATOM     20  C   UNL     1       3.043  -5.433   3.249  1.00  0.00     0.264 C 
ATOM     21  N   UNL     1       2.265  -6.605   3.263  1.00  0.00    -0.339 N 
ATOM     22  O   UNL     1       4.018  -5.377   2.494  1.00  0.00    -0.268 OA
BRANCH  21  23
ATOM     23  C   UNL     1       2.424  -7.519   2.126  1.00  0.00     0.116 C 
ATOM     24  C   UNL     1       1.659  -7.021   0.906  1.00  0.00     0.027 C 
ENDBRANCH  21  23
BRANCH  21  25
ATOM     25  C   UNL     1       1.375  -7.095   4.325  1.00  0.00     0.116 C 
ATOM     26  C   UNL     1       2.177  -7.622   5.512  1.00  0.00     0.027 C 
ENDBRANCH  21  25
ENDBRANCH  19  20
BRANCH  19  27
ATOM     27  C   UNL     1       1.878  -4.468   5.361  1.00  0.00     0.105 C 
ATOM     28  N   UNL     1       1.195  -4.675   6.401  1.00  0.00    -0.192 NA
ENDBRANCH  19  27
ENDBRANCH  13  18
ENDBRANCH  11  12
ENDBRANCH   9  11
ENDBRANCH   7   9
ENDBRANCH   6   7
ENDBRANCH   5   6
ENDBRANCH   4   5
ENDBRANCH   3   4
ENDBRANCH   2   3
ENDBRANCH   1   2
BRANCH   1  29
ATOM     29  O   UNL     1       8.359   2.113  -0.001  1.00  0.00    -0.377 OA
BRANCH  29  30
ATOM     30  C   UNL     1       8.792   3.404   0.400  1.00  0.00     0.188 C 
BRANCH  30  31
ATOM     31  C   UNL     1      10.075   3.946  -0.267  1.00  0.00     0.188 C 
BRANCH  31  32
ATOM     32  O   UNL     1      11.188   3.060  -0.218  1.00  0.00    -0.376 OA
BRANCH  32  33
ATOM     33  C   UNL     1      12.149   3.206   0.819  1.00  0.00     0.202 C 
BRANCH  33  34
ATOM     34  C   UNL     1      11.709   2.949   2.273  1.00  0.00     0.261 C 
BRANCH  34  35
ATOM     35  O   UNL     1      10.618   3.742   2.761  1.00  0.00    -0.460 OA
BRANCH  35  36
ATOM     36  C   UNL     1      10.766   5.082   2.747  1.00  0.00     0.338 C 
ATOM     37  O   UNL     1      11.771   5.701   2.433  1.00  0.00    -0.246 OA
BRANCH  36  38
ATOM     38  C   UNL     1       9.436   5.692   2.954  1.00  0.00     0.060 A 
ATOM     39  C   UNL     1       8.931   6.542   1.962  1.00  0.00     0.016 A 
ATOM     40  C   UNL     1       8.686   5.420   4.101  1.00  0.00     0.016 A 
ATOM     41  C   UNL     1       7.692   7.155   2.130  1.00  0.00     0.010 A 
ATOM     42  C   UNL     1       7.455   6.061   4.283  1.00  0.00     0.010 A 
ATOM     43  C   UNL     1       6.973   6.960   3.314  1.00  0.00    -0.014 A 
BRANCH  43  44
ATOM     44  C   UNL     1       5.829   7.852   3.613  1.00  0.00     0.031 A 
ATOM     45  C   UNL     1       6.061   9.037   4.509  1.00  0.00     0.074 A 
ATOM     46  C   UNL     1       4.615   7.635   3.079  1.00  0.00     0.049 A 
ATOM     47  N   UNL     1       5.220   9.955   4.905  1.00  0.00    -0.248 NA
ATOM     48  C   UNL     1       7.428   9.209   5.028  1.00  0.00     0.031 C 
ATOM     49  C   UNL     1       4.268   6.529   2.190  1.00  0.00     0.029 A 
ATOM     50  N   UNL     1       3.441   8.330   3.232  1.00  0.00    -0.354 N 
ATOM     51  C   UNL     1       5.942  10.790   5.748  1.00  0.00     0.074 A 
ATOM     52  C   UNL     1       7.289  10.268   5.811  1.00  0.00     0.031 C 
ATOM     53  C   UNL     1       2.957   6.599   1.903  1.00  0.00     0.029 A 
ATOM     54  C   UNL     1       2.369   7.738   2.608  1.00  0.00     0.049 A 
ATOM     55  H   UNL     1       3.373   9.171   3.740  1.00  0.00     0.167 HD
ATOM     56  C   UNL     1       5.524  11.896   6.407  1.00  0.00     0.034 A 
ATOM     57  C   UNL     1       1.061   8.061   2.631  1.00  0.00     0.034 A 
ATOM     58  C   UNL     1       4.186  12.418   6.336  1.00  0.00     0.049 A 
ATOM     59  C   UNL     1       0.613   9.283   3.389  1.00  0.00     0.074 A 
ATOM     60  C   UNL     1       3.681  13.568   6.915  1.00  0.00     0.029 A 
ATOM     61  N   UNL     1       3.133  11.810   5.670  1.00  0.00    -0.354 N 
ATOM     62  N   UNL     1       1.330  10.136   4.080  1.00  0.00    -0.248 NA
ATOM     63  C   UNL     1      -0.821   9.606   3.343  1.00  0.00     0.031 C 
ATOM     64  C   UNL     1       2.310  13.627   6.643  1.00  0.00     0.029 A 
ATOM     65  C   UNL     1       1.973  12.544   5.848  1.00  0.00     0.049 A 
ATOM     66  H   UNL     1       3.201  10.978   5.147  1.00  0.00     0.167 HD
ATOM     67  C   UNL     1       0.443  11.111   4.526  1.00  0.00     0.074 A 
ATOM     68  C   UNL     1      -0.861  10.754   4.006  1.00  0.00     0.031 C 
ATOM     69  C   UNL     1       0.685  12.199   5.300  1.00  0.00     0.034 A 
BRANCH  56  70
ATOM     70  C   UNL     1       6.527  12.608   7.276  1.00  0.00     0.023 A 
ATOM     71  C   UNL     1       7.597  13.317   6.692  1.00  0.00     0.012 A 
ATOM     72  C   UNL     1       6.387  12.600   8.678  1.00  0.00     0.148 A 
ATOM     73  C   UNL     1       8.534  13.971   7.492  1.00  0.00     0.002 A 
ATOM     74  C   UNL     1       7.295  13.296   9.465  1.00  0.00     0.091 A 
ATOM     75  F   UNL     1       5.378  11.899   9.215  1.00  0.00    -0.205 F 
ATOM     76  C   UNL     1       8.377  13.970   8.875  1.00  0.00     0.022 A 
BRANCH  74  77
ATOM     77  S   UNL     1       7.130  13.422  11.248  1.00  0.00     0.127 S 
ATOM     78  O   UNL     1       8.245  12.595  11.706  1.00  0.00    -0.237 OA
ATOM     79  O   UNL     1       7.303  14.857  11.471  1.00  0.00    -0.237 OA
ATOM     80  O   UNL     1       5.803  12.913  11.566  1.00  0.00    -0.744 OA
ENDBRANCH  74  77
ENDBRANCH  56  70
BRANCH  57  81
ATOM     81  C   UNL     1       0.080   7.208   1.902  1.00  0.00     0.023 A 
ATOM     82  C   UNL     1      -0.565   7.702   0.752  1.00  0.00     0.012 A 
ATOM     83  C   UNL     1      -0.189   5.894   2.333  1.00  0.00     0.148 A 
ATOM     84  C   UNL     1      -1.479   6.909   0.057  1.00  0.00     0.002 A 
ATOM     85  C   UNL     1      -1.056   5.090   1.603  1.00  0.00     0.091 A 
ATOM     86  F   UNL     1       0.425   5.452   3.439  1.00  0.00    -0.205 F 
ATOM     87  C   UNL     1      -1.715   5.601   0.475  1.00  0.00     0.022 A 
BRANCH  85  88
ATOM     88  S   UNL     1      -1.321   3.357   1.992  1.00  0.00     0.127 S 
ATOM     89  O   UNL     1      -2.730   3.349   2.379  1.00  0.00    -0.237 OA
ATOM     90  O   UNL     1      -1.032   2.717   0.708  1.00  0.00    -0.237 OA
ATOM     91  O   UNL     1      -0.376   3.038   3.053  1.00  0.00    -0.744 OA
ENDBRANCH  85  88
ENDBRANCH  57  81
BRANCH  69  92
ATOM     92  C   UNL     1      -0.475  13.112   5.612  1.00  0.00     0.023 A 
ATOM     93  C   UNL     1      -1.497  12.686   6.484  1.00  0.00     0.012 A 
ATOM     94  C   UNL     1      -0.514  14.421   5.092  1.00  0.00     0.148 A 
ATOM     95  C   UNL     1      -2.559  13.534   6.800  1.00  0.00     0.002 A 
ATOM     96  C   UNL     1      -1.546  15.279   5.455  1.00  0.00     0.091 A 
ATOM     97  F   UNL     1       0.459  14.805   4.253  1.00  0.00    -0.205 F 
ATOM     98  C   UNL     1      -2.577  14.832   6.296  1.00  0.00     0.022 A 
BRANCH  96  99
ATOM     99  S   UNL     1      -1.600  16.998   4.935  1.00  0.00     0.127 S 
ATOM    100  O   UNL     1      -2.719  16.989   3.995  1.00  0.00    -0.237 OA
ATOM    101  O   UNL     1      -1.866  17.693   6.195  1.00  0.00    -0.237 OA
ATOM    102  O   UNL     1      -0.296  17.283   4.350  1.00  0.00    -0.744 OA
ENDBRANCH  96  99
ENDBRANCH  69  92
ENDBRANCH  43  44
ENDBRANCH  36  38
ENDBRANCH  35  36
ENDBRANCH  34  35
ENDBRANCH  33  34
ENDBRANCH  32  33
ENDBRANCH  31  32
ENDBRANCH  30  31
ENDBRANCH  29  30
ENDBRANCH   1  29
TORSDOF 30
