REMARK SMILES Cc1ccc(C(=O)N[C@@H]2C=C[C@H](C(=O)OCCOCCOCCOCCOC(=O)c3ccc(-c4c5nc(c(-c6cccc(S(=O)(=O)[O-])c6F)c6ccc([nH]6)c(-c6cccc(S(=O)(=O)[O-])c6F)c6nc(c(-c7cccc(S(=O)(=O)[O-])c7F)c7ccc4[nH]7)C=C6)C=C5)cc3)C2)c(F)c1
REMARK SMILES IDX 22 1 21 2 20 3 19 4 18 5 17 6 16 7 15 8 13 9 14 10 12 11
REMARK SMILES IDX 9 12 10 13 93 14 11 15 8 16 6 17 7 18 5 20 1 21 2 22 3 23
REMARK SMILES IDX 96 24 4 25 94 26 95 27 23 28 24 29 25 30 26 31 27 32 28 33
REMARK SMILES IDX 29 34 30 35 31 36 92 37 32 38 91 39 33 40 34 41 35 42 85 43
REMARK SMILES IDX 36 44 90 45 84 46 86 47 37 48 89 49 83 50 82 51 38 53 70 54
REMARK SMILES IDX 50 55 69 56 51 57 54 58 68 59 87 60 52 61 53 62 67 64 88 65
REMARK SMILES IDX 55 66 39 67 40 68 48 69 41 70 43 71 49 72 42 73 44 74 45 75
REMARK SMILES IDX 46 76 47 77 71 78 72 79 80 80 73 81 75 82 81 83 74 84 76 85
REMARK SMILES IDX 77 86 78 87 79 88 56 89 57 90 65 91 58 92 60 93 66 94 59 95
REMARK SMILES IDX 61 96 62 97 63 98 64 99
REMARK H PARENT 8 19 86 52 54 63
REMARK Flexibility Score: inf
ROOT
ATOM      1  C   UNL     1       2.269 -10.455   0.182  1.00  0.00     0.188 C 
ENDROOT
BRANCH   1   2
ATOM      2  O   UNL     1       2.286  -9.143   0.719  1.00  0.00    -0.377 OA
BRANCH   2   3
ATOM      3  C   UNL     1       1.288  -8.304   0.178  1.00  0.00     0.188 C 
BRANCH   3   4
ATOM      4  C   UNL     1       1.811  -7.252  -0.814  1.00  0.00     0.188 C 
BRANCH   4   5
ATOM      5  O   UNL     1       3.192  -7.166  -1.101  1.00  0.00    -0.376 OA
BRANCH   5   6
ATOM      6  C   UNL     1       4.168  -7.274  -0.080  1.00  0.00     0.202 C 
BRANCH   6   7
ATOM      7  C   UNL     1       3.950  -6.791   1.365  1.00  0.00     0.261 C 
BRANCH   7   8
ATOM      8  O   UNL     1       2.653  -6.306   1.728  1.00  0.00    -0.463 OA
BRANCH   8   9
ATOM      9  C   UNL     1       2.435  -4.980   1.531  1.00  0.00     0.312 C 
ATOM     10  O   UNL     1       3.221  -4.223   0.976  1.00  0.00    -0.252 OA
BRANCH   9  11
ATOM     11  C   UNL     1       1.110  -4.568   2.181  1.00  0.00     0.124 C 
ATOM     12  C   UNL     1      -0.820  -3.978   0.733  1.00  0.00     0.106 C 
ATOM     13  C   UNL     1      -0.076  -2.777   1.208  1.00  0.00    -0.006 C 
ATOM     14  C   UNL     1      -0.154  -5.120   1.512  1.00  0.00     0.048 C 
ATOM     15  C   UNL     1       0.919  -3.090   2.044  1.00  0.00    -0.014 C 
BRANCH  12  16
ATOM     16  N   UNL     1      -0.753  -4.086  -0.713  1.00  0.00    -0.346 N 
ATOM     17  C   UNL     1      -1.380  -4.938  -1.605  1.00  0.00     0.254 C 
ATOM     18  O   UNL     1      -1.306  -4.665  -2.802  1.00  0.00    -0.269 OA
ATOM     19  H   UNL     1      -0.151  -3.433  -1.137  1.00  0.00     0.164 HD
BRANCH  17  20
ATOM     20  C   UNL     1      -2.034  -6.209  -1.175  1.00  0.00     0.075 A 
ATOM     21  C   UNL     1      -2.436 -10.159   0.431  1.00  0.00     0.044 C 
ATOM     22  C   UNL     1      -2.547  -8.795  -0.186  1.00  0.00    -0.048 A 
ATOM     23  C   UNL     1      -2.807  -7.674   0.599  1.00  0.00     0.004 A 
ATOM     24  C   UNL     1      -2.251  -8.602  -1.535  1.00  0.00     0.043 A 
ATOM     25  C   UNL     1      -2.618  -6.390   0.079  1.00  0.00     0.017 A 
ATOM     26  C   UNL     1      -1.953  -7.324  -2.014  1.00  0.00     0.136 A 
ATOM     27  F   UNL     1      -1.493  -7.236  -3.270  1.00  0.00    -0.206 F 
ENDBRANCH  17  20
ENDBRANCH  12  16
ENDBRANCH   9  11
ENDBRANCH   8   9
ENDBRANCH   7   8
ENDBRANCH   6   7
ENDBRANCH   5   6
ENDBRANCH   4   5
ENDBRANCH   3   4
ENDBRANCH   2   3
ENDBRANCH   1   2
BRANCH   1  28
ATOM     28  C   UNL     1       2.801 -10.566  -1.257  1.00  0.00     0.188 C 
BRANCH  28  29
ATOM     29  O   UNL     1       2.104 -10.010  -2.361  1.00  0.00    -0.376 OA
BRANCH  29  30
ATOM     30  C   UNL     1       0.730 -10.217  -2.615  1.00  0.00     0.202 C 
BRANCH  30  31
ATOM     31  C   UNL     1       0.053 -11.586  -2.513  1.00  0.00     0.261 C 
BRANCH  31  32
ATOM     32  O   UNL     1       0.362 -12.297  -1.317  1.00  0.00    -0.460 OA
BRANCH  32  33
ATOM     33  C   UNL     1       1.126 -13.393  -1.518  1.00  0.00     0.338 C 
ATOM     34  O   UNL     1       1.477 -13.868  -2.590  1.00  0.00    -0.246 OA
BRANCH  33  35
ATOM     35  C   UNL     1       1.698 -13.813  -0.236  1.00  0.00     0.060 A 
ATOM     36  C   UNL     1       3.094 -13.893  -0.169  1.00  0.00     0.016 A 
ATOM     37  C   UNL     1       0.896 -14.131   0.863  1.00  0.00     0.016 A 
ATOM     38  C   UNL     1       3.701 -14.340   0.988  1.00  0.00     0.010 A 
ATOM     39  C   UNL     1       1.507 -14.619   2.018  1.00  0.00     0.010 A 
ATOM     40  C   UNL     1       2.904 -14.768   2.054  1.00  0.00    -0.014 A 
BRANCH  40  41
ATOM     41  C   UNL     1       3.556 -15.614   3.069  1.00  0.00     0.031 A 
ATOM     42  C   UNL     1       3.478 -17.103   2.889  1.00  0.00     0.074 A 
ATOM     43  C   UNL     1       4.290 -15.058   4.045  1.00  0.00     0.049 A 
ATOM     44  N   UNL     1       4.038 -18.048   3.592  1.00  0.00    -0.248 NA
ATOM     45  C   UNL     1       2.667 -17.594   1.759  1.00  0.00     0.031 C 
ATOM     46  C   UNL     1       4.449 -13.622   4.268  1.00  0.00     0.029 A 
ATOM     47  N   UNL     1       5.035 -15.643   5.032  1.00  0.00    -0.354 N 
ATOM     48  C   UNL     1       3.623 -19.240   3.014  1.00  0.00     0.074 A 
ATOM     49  C   UNL     1       2.762 -18.906   1.904  1.00  0.00     0.031 C 
ATOM     50  C   UNL     1       5.224 -13.436   5.350  1.00  0.00     0.029 A 
ATOM     51  C   UNL     1       5.590 -14.738   5.903  1.00  0.00     0.049 A 
ATOM     52  H   UNL     1       5.161 -16.616   5.111  1.00  0.00     0.167 HD
ATOM     53  C   UNL     1       3.940 -20.503   3.377  1.00  0.00     0.034 A 
ATOM     54  C   UNL     1       6.289 -14.950   7.034  1.00  0.00     0.034 A 
ATOM     55  C   UNL     1       4.812 -20.814   4.474  1.00  0.00     0.049 A 
ATOM     56  C   UNL     1       6.608 -16.368   7.427  1.00  0.00     0.074 A 
ATOM     57  C   UNL     1       5.240 -22.056   4.904  1.00  0.00     0.029 A 
ATOM     58  N   UNL     1       5.370 -19.875   5.327  1.00  0.00    -0.354 N 
ATOM     59  N   UNL     1       6.298 -17.485   6.811  1.00  0.00    -0.248 NA
ATOM     60  C   UNL     1       7.402 -16.555   8.647  1.00  0.00     0.031 C 
ATOM     61  C   UNL     1       6.016 -21.870   6.051  1.00  0.00     0.029 A 
ATOM     62  C   UNL     1       6.118 -20.510   6.301  1.00  0.00     0.049 A 
ATOM     63  H   UNL     1       5.251 -18.901   5.251  1.00  0.00     0.167 HD
ATOM     64  C   UNL     1       6.886 -18.504   7.551  1.00  0.00     0.074 A 
ATOM     65  C   UNL     1       7.592 -17.867   8.645  1.00  0.00     0.031 C 
ATOM     66  C   UNL     1       6.841 -19.846   7.355  1.00  0.00     0.034 A 
BRANCH  53  67
ATOM     67  C   UNL     1       3.326 -21.635   2.602  1.00  0.00     0.023 A 
ATOM     68  C   UNL     1       3.756 -21.918   1.290  1.00  0.00     0.012 A 
ATOM     69  C   UNL     1       2.356 -22.458   3.206  1.00  0.00     0.148 A 
ATOM     70  C   UNL     1       3.212 -22.992   0.584  1.00  0.00     0.002 A 
ATOM     71  C   UNL     1       1.856 -23.553   2.516  1.00  0.00     0.091 A 
ATOM     72  F   UNL     1       1.939 -22.149   4.442  1.00  0.00    -0.205 F 
ATOM     73  C   UNL     1       2.275 -23.816   1.201  1.00  0.00     0.022 A 
BRANCH  71  74
ATOM     74  S   UNL     1       0.707 -24.718   3.254  1.00  0.00     0.127 S 
ATOM     75  O   UNL     1      -0.493 -24.499   2.447  1.00  0.00    -0.237 OA
ATOM     76  O   UNL     1       1.376 -25.997   3.018  1.00  0.00    -0.237 OA
ATOM     77  O   UNL     1       0.589 -24.338   4.654  1.00  0.00    -0.744 OA
ENDBRANCH  71  74
ENDBRANCH  53  67
BRANCH  54  78
ATOM     78  C   UNL     1       6.720 -13.797   7.871  1.00  0.00     0.023 A 
ATOM     79  C   UNL     1       8.087 -13.495   8.016  1.00  0.00     0.012 A 
ATOM     80  C   UNL     1       5.765 -12.991   8.522  1.00  0.00     0.148 A 
ATOM     81  C   UNL     1       8.496 -12.435   8.827  1.00  0.00     0.002 A 
ATOM     82  C   UNL     1       6.176 -11.901   9.277  1.00  0.00     0.091 A 
ATOM     83  F   UNL     1       4.469 -13.305   8.385  1.00  0.00    -0.205 F 
ATOM     84  C   UNL     1       7.542 -11.633   9.449  1.00  0.00     0.022 A 
BRANCH  82  85
ATOM     85  S   UNL     1       5.010 -10.742   9.999  1.00  0.00     0.127 S 
ATOM     86  O   UNL     1       5.138 -11.036  11.424  1.00  0.00    -0.237 OA
ATOM     87  O   UNL     1       5.566  -9.455   9.581  1.00  0.00    -0.237 OA
ATOM     88  O   UNL     1       3.719 -11.057   9.401  1.00  0.00    -0.744 OA
ENDBRANCH  82  85
ENDBRANCH  54  78
BRANCH  66  89
ATOM     89  C   UNL     1       7.608 -20.713   8.317  1.00  0.00     0.023 A 
ATOM     90  C   UNL     1       7.161 -20.865   9.644  1.00  0.00     0.012 A 
ATOM     91  C   UNL     1       8.738 -21.431   7.879  1.00  0.00     0.148 A 
ATOM     92  C   UNL     1       7.854 -21.685  10.533  1.00  0.00     0.002 A 
ATOM     93  C   UNL     1       9.388 -22.291   8.754  1.00  0.00     0.091 A 
ATOM     94  F   UNL     1       9.154 -21.262   6.616  1.00  0.00    -0.205 F 
ATOM     95  C   UNL     1       8.958 -22.406  10.086  1.00  0.00     0.022 A 
BRANCH  93  96
ATOM     96  S   UNL     1      10.752 -23.338   8.237  1.00  0.00     0.127 S 
ATOM     97  O   UNL     1      11.883 -22.711   8.919  1.00  0.00    -0.237 OA
ATOM     98  O   UNL     1      10.361 -24.642   8.774  1.00  0.00    -0.237 OA
ATOM     99  O   UNL     1      10.785 -23.268   6.782  1.00  0.00    -0.744 OA
ENDBRANCH  93  96
ENDBRANCH  66  89
ENDBRANCH  40  41
ENDBRANCH  33  35
ENDBRANCH  32  33
ENDBRANCH  31  32
ENDBRANCH  30  31
ENDBRANCH  29  30
ENDBRANCH  28  29
ENDBRANCH   1  28
TORSDOF 25
