REMARK SMILES C[C@H]1[C@@H](C(=O)OCCOCCOCCOCCOC(=O)c2ccc(-c3c4nc(c(-c5cccc(S(=O)(=O)[O-])c5F)c5ccc([nH]5)c(-c5cccc(S(=O)(=O)[O-])c5F)c5nc(c(-c6cccc(S(=O)(=O)[O-])c6F)c6ccc3[nH]6)C=C5)C=C4)cc2)CCN1C(=O)N[C@@H]1CC[N@H+]2CCCC[C@H]12
REMARK SMILES IDX 13 1 12 2 11 3 10 4 9 5 8 6 7 7 6 8 4 9 5 10 3 11 1 12 2 13
REMARK SMILES IDX 86 14 84 15 85 16 87 17 88 18 89 19 90 21 91 22 98 23 92 24
REMARK SMILES IDX 93 25 97 26 94 27 96 29 95 30 14 31 15 32 16 33 17 34 18 35
REMARK SMILES IDX 19 36 20 37 21 38 22 39 83 40 23 41 82 42 24 43 25 44 26 45
REMARK SMILES IDX 76 46 27 47 81 48 75 49 77 50 28 51 80 52 74 53 73 54 29 56
REMARK SMILES IDX 61 57 41 58 60 59 42 60 45 61 59 62 78 63 43 64 44 65 58 67
REMARK SMILES IDX 79 68 46 69 30 70 31 71 39 72 32 73 34 74 40 75 33 76 35 77
REMARK SMILES IDX 36 78 37 79 38 80 62 81 63 82 71 83 64 84 66 85 72 86 65 87
REMARK SMILES IDX 67 88 68 89 69 90 70 91 47 92 48 93 56 94 49 95 51 96 57 97
REMARK SMILES IDX 50 98 52 99 53 100 54 101 55 102
REMARK H PARENT 89 20 93 28 77 55 45 66
REMARK Flexibility Score: inf
ROOT
ATOM      1  C   UNL     1      -3.821  -2.231  -1.982  1.00  0.00     0.188 C 
ENDROOT
BRANCH   1   2
ATOM      2  O   UNL     1      -2.990  -2.703  -0.933  1.00  0.00    -0.377 OA
BRANCH   2   3
ATOM      3  C   UNL     1      -1.587  -2.714  -1.149  1.00  0.00     0.188 C 
BRANCH   3   4
ATOM      4  C   UNL     1      -0.991  -2.601  -2.575  1.00  0.00     0.188 C 
BRANCH   4   5
ATOM      5  O   UNL     1      -1.850  -3.019  -3.621  1.00  0.00    -0.376 OA
BRANCH   5   6
ATOM      6  C   UNL     1      -1.433  -4.178  -4.322  1.00  0.00     0.202 C 
BRANCH   6   7
ATOM      7  C   UNL     1      -1.515  -5.481  -3.516  1.00  0.00     0.261 C 
BRANCH   7   8
ATOM      8  O   UNL     1      -0.937  -5.419  -2.195  1.00  0.00    -0.463 OA
BRANCH   8   9
ATOM      9  C   UNL     1       0.404  -5.578  -2.031  1.00  0.00     0.311 C 
ATOM     10  O   UNL     1       1.197  -5.785  -2.936  1.00  0.00    -0.252 OA
BRANCH   9  11
ATOM     11  C   UNL     1       0.759  -5.433  -0.552  1.00  0.00     0.123 C 
ATOM     12  C   UNL     1       1.890  -3.133  -1.164  1.00  0.00     0.032 C 
ATOM     13  C   UNL     1       1.572  -4.181  -0.104  1.00  0.00     0.098 C 
ATOM     14  N   UNL     1       2.823  -4.692   0.444  1.00  0.00    -0.321 N 
ATOM     15  C   UNL     1       1.586  -6.624  -0.068  1.00  0.00     0.039 C 
ATOM     16  C   UNL     1       2.995  -6.072   0.021  1.00  0.00     0.122 C 
BRANCH  14  17
ATOM     17  C   UNL     1       3.858  -4.028   1.034  1.00  0.00     0.318 C 
ATOM     18  O   UNL     1       4.955  -4.573   1.189  1.00  0.00    -0.249 OA
ATOM     19  N   UNL     1       3.779  -2.744   1.445  1.00  0.00    -0.329 N 
ATOM     20  H   UNL     1       4.673  -2.372   1.626  1.00  0.00     0.165 HD
BRANCH  19  21
ATOM     21  C   UNL     1       2.729  -1.749   1.697  1.00  0.00     0.147 C 
ATOM     22  C   UNL     1       2.790  -0.573   0.695  1.00  0.00     0.092 C 
ATOM     23  C   UNL     1       2.862  -1.031   3.064  1.00  0.00     0.207 C 
ATOM     24  C   UNL     1       2.811   0.702   1.531  1.00  0.00     0.264 C 
ATOM     25  N   UNL     1       3.498   0.256   2.733  1.00  0.00    -0.331 N 
ATOM     26  C   UNL     1       3.657  -1.714   4.170  1.00  0.00     0.067 C 
ATOM     27  C   UNL     1       3.418   1.193   3.850  1.00  0.00     0.262 C 
ATOM     28  H   UNL     1       4.500   0.178   2.564  1.00  0.00     0.348 HD
ATOM     29  C   UNL     1       3.678  -0.811   5.407  1.00  0.00     0.012 C 
ATOM     30  C   UNL     1       4.150   0.607   5.063  1.00  0.00     0.062 C 
ENDBRANCH  19  21
ENDBRANCH  14  17
ENDBRANCH   9  11
ENDBRANCH   8   9
ENDBRANCH   7   8
ENDBRANCH   6   7
ENDBRANCH   5   6
ENDBRANCH   4   5
ENDBRANCH   3   4
ENDBRANCH   2   3
ENDBRANCH   1   2
BRANCH   1  31
ATOM     31  C   UNL     1      -3.468  -0.838  -2.546  1.00  0.00     0.188 C 
BRANCH  31  32
ATOM     32  O   UNL     1      -2.342  -0.236  -1.915  1.00  0.00    -0.376 OA
BRANCH  32  33
ATOM     33  C   UNL     1      -2.575   0.741  -0.917  1.00  0.00     0.202 C 
BRANCH  33  34
ATOM     34  C   UNL     1      -3.389   0.357   0.329  1.00  0.00     0.261 C 
BRANCH  34  35
ATOM     35  O   UNL     1      -4.653  -0.278   0.106  1.00  0.00    -0.460 OA
BRANCH  35  36
ATOM     36  C   UNL     1      -5.604   0.425  -0.543  1.00  0.00     0.338 C 
ATOM     37  O   UNL     1      -5.521   1.578  -0.937  1.00  0.00    -0.246 OA
BRANCH  36  38
ATOM     38  C   UNL     1      -6.681  -0.521  -0.906  1.00  0.00     0.060 A 
ATOM     39  C   UNL     1      -7.005  -0.685  -2.261  1.00  0.00     0.016 A 
ATOM     40  C   UNL     1      -7.320  -1.286   0.074  1.00  0.00     0.016 A 
ATOM     41  C   UNL     1      -8.002  -1.581  -2.635  1.00  0.00     0.010 A 
ATOM     42  C   UNL     1      -8.347  -2.156  -0.298  1.00  0.00     0.010 A 
ATOM     43  C   UNL     1      -8.722  -2.266  -1.649  1.00  0.00    -0.014 A 
BRANCH  43  44
ATOM     44  C   UNL     1     -10.032  -2.846  -2.019  1.00  0.00     0.031 A 
ATOM     45  C   UNL     1     -11.252  -1.991  -1.806  1.00  0.00     0.074 A 
ATOM     46  C   UNL     1     -10.136  -4.060  -2.585  1.00  0.00     0.049 A 
ATOM     47  N   UNL     1     -12.502  -2.241  -2.089  1.00  0.00    -0.248 NA
ATOM     48  C   UNL     1     -11.028  -0.669  -1.191  1.00  0.00     0.031 C 
ATOM     49  C   UNL     1      -9.025  -4.968  -2.857  1.00  0.00     0.029 A 
ATOM     50  N   UNL     1     -11.245  -4.739  -3.022  1.00  0.00    -0.354 N 
ATOM     51  C   UNL     1     -13.213  -1.125  -1.666  1.00  0.00     0.074 A 
ATOM     52  C   UNL     1     -12.262  -0.203  -1.090  1.00  0.00     0.031 C 
ATOM     53  C   UNL     1      -9.512  -6.100  -3.397  1.00  0.00     0.029 A 
ATOM     54  C   UNL     1     -10.968  -6.001  -3.490  1.00  0.00     0.049 A 
ATOM     55  H   UNL     1     -12.153  -4.359  -3.001  1.00  0.00     0.167 HD
ATOM     56  C   UNL     1     -14.540  -0.879  -1.763  1.00  0.00     0.034 A 
ATOM     57  C   UNL     1     -11.802  -6.966  -3.927  1.00  0.00     0.034 A 
ATOM     58  C   UNL     1     -15.481  -1.794  -2.343  1.00  0.00     0.049 A 
ATOM     59  C   UNL     1     -13.281  -6.679  -3.997  1.00  0.00     0.074 A 
ATOM     60  C   UNL     1     -16.843  -1.631  -2.519  1.00  0.00     0.029 A 
ATOM     61  N   UNL     1     -15.162  -3.054  -2.826  1.00  0.00    -0.354 N 
ATOM     62  N   UNL     1     -13.928  -5.580  -3.692  1.00  0.00    -0.248 NA
ATOM     63  C   UNL     1     -14.141  -7.755  -4.510  1.00  0.00     0.031 C 
ATOM     64  C   UNL     1     -17.353  -2.809  -3.074  1.00  0.00     0.029 A 
ATOM     65  C   UNL     1     -16.302  -3.686  -3.289  1.00  0.00     0.049 A 
ATOM     66  H   UNL     1     -14.257  -3.442  -2.837  1.00  0.00     0.167 HD
ATOM     67  C   UNL     1     -15.260  -5.816  -4.016  1.00  0.00     0.074 A 
ATOM     68  C   UNL     1     -15.322  -7.157  -4.560  1.00  0.00     0.031 C 
ATOM     69  C   UNL     1     -16.337  -5.003  -3.870  1.00  0.00     0.034 A 
BRANCH  56  70
ATOM     70  C   UNL     1     -15.044   0.435  -1.228  1.00  0.00     0.023 A 
ATOM     71  C   UNL     1     -14.739   1.635  -1.902  1.00  0.00     0.012 A 
ATOM     72  C   UNL     1     -15.847   0.476  -0.073  1.00  0.00     0.148 A 
ATOM     73  C   UNL     1     -15.197   2.859  -1.415  1.00  0.00     0.002 A 
ATOM     74  C   UNL     1     -16.342   1.693   0.378  1.00  0.00     0.091 A 
ATOM     75  F   UNL     1     -16.101  -0.673   0.570  1.00  0.00    -0.205 F 
ATOM     76  C   UNL     1     -16.007   2.886  -0.283  1.00  0.00     0.022 A 
BRANCH  74  77
ATOM     77  S   UNL     1     -17.459   1.825   1.778  1.00  0.00     0.127 S 
ATOM     78  O   UNL     1     -16.619   2.506   2.762  1.00  0.00    -0.237 OA
ATOM     79  O   UNL     1     -18.541   2.643   1.229  1.00  0.00    -0.237 OA
ATOM     80  O   UNL     1     -17.839   0.462   2.120  1.00  0.00    -0.744 OA
ENDBRANCH  74  77
ENDBRANCH  56  70
BRANCH  57  81
ATOM     81  C   UNL     1     -11.260  -8.285  -4.360  1.00  0.00     0.023 A 
ATOM     82  C   UNL     1     -11.335  -8.665  -5.714  1.00  0.00     0.012 A 
ATOM     83  C   UNL     1     -10.673  -9.167  -3.432  1.00  0.00     0.148 A 
ATOM     84  C   UNL     1     -10.870  -9.913  -6.130  1.00  0.00     0.002 A 
ATOM     85  C   UNL     1     -10.159 -10.384  -3.862  1.00  0.00     0.091 A 
ATOM     86  F   UNL     1     -10.625  -8.794  -2.145  1.00  0.00    -0.205 F 
ATOM     87  C   UNL     1     -10.274 -10.768  -5.207  1.00  0.00     0.022 A 
BRANCH  85  88
ATOM     88  S   UNL     1      -9.263 -11.493  -2.769  1.00  0.00     0.127 S 
ATOM     89  O   UNL     1     -10.171 -12.634  -2.692  1.00  0.00    -0.237 OA
ATOM     90  O   UNL     1      -8.035 -11.731  -3.528  1.00  0.00    -0.237 OA
ATOM     91  O   UNL     1      -9.070 -10.755  -1.529  1.00  0.00    -0.744 OA
ENDBRANCH  85  88
ENDBRANCH  57  81
BRANCH  69  92
ATOM     92  C   UNL     1     -17.670  -5.515  -4.356  1.00  0.00     0.023 A 
ATOM     93  C   UNL     1     -18.322  -6.561  -3.672  1.00  0.00     0.012 A 
ATOM     94  C   UNL     1     -18.302  -4.917  -5.465  1.00  0.00     0.148 A 
ATOM     95  C   UNL     1     -19.557  -7.035  -4.114  1.00  0.00     0.002 A 
ATOM     96  C   UNL     1     -19.558  -5.355  -5.864  1.00  0.00     0.091 A 
ATOM     97  F   UNL     1     -17.661  -3.932  -6.113  1.00  0.00    -0.205 F 
ATOM     98  C   UNL     1     -20.179  -6.426  -5.201  1.00  0.00     0.022 A 
BRANCH  96  99
ATOM     99  S   UNL     1     -20.477  -4.561  -7.187  1.00  0.00     0.127 S 
ATOM    100  O   UNL     1     -20.369  -5.549  -8.259  1.00  0.00    -0.237 OA
ATOM    101  O   UNL     1     -21.814  -4.437  -6.604  1.00  0.00    -0.237 OA
ATOM    102  O   UNL     1     -19.807  -3.292  -7.435  1.00  0.00    -0.744 OA
ENDBRANCH  96  99
ENDBRANCH  69  92
ENDBRANCH  43  44
ENDBRANCH  36  38
ENDBRANCH  35  36
ENDBRANCH  34  35
ENDBRANCH  33  34
ENDBRANCH  32  33
ENDBRANCH  31  32
ENDBRANCH   1  31
TORSDOF 25
