REMARK SMILES O=C(OCCOCCOCCOCCOC(=O)[C@]12C[NH2+]C[C@H]1CN(C(=O)c1ccccc1-n1cncn1)C2)c1ccc(-c2c3nc(c(-c4cccc(S(=O)(=O)[O-])c4F)c4ccc([nH]4)c(-c4cccc(S(=O)(=O)[O-])c4F)c4nc(c(-c5cccc(S(=O)(=O)[O-])c5F)c5ccc2[nH]5)C=C4)C=C3)cc1
REMARK SMILES IDX 9 1 8 2 7 3 6 4 5 5 4 6 3 7 2 8 1 9 39 10 40 11 101 12 41 13
REMARK SMILES IDX 100 14 42 15 43 16 44 17 94 18 45 19 99 20 93 21 95 22 46 23
REMARK SMILES IDX 98 24 92 25 91 26 47 28 79 29 59 30 78 31 60 32 63 33 77 34
REMARK SMILES IDX 96 35 61 36 62 37 76 39 97 40 64 41 48 42 49 43 57 44 50 45
REMARK SMILES IDX 52 46 58 47 51 48 53 49 54 50 55 51 56 52 80 53 81 54 89 55
REMARK SMILES IDX 82 56 84 57 90 58 83 59 85 60 86 61 87 62 88 63 65 64 66 65
REMARK SMILES IDX 74 66 67 67 69 68 75 69 68 70 70 71 71 72 72 73 73 74 10 75
REMARK SMILES IDX 11 76 12 77 13 78 14 79 15 80 16 81 17 82 18 83 19 84 22 85
REMARK SMILES IDX 38 86 20 87 21 88 23 89 24 90 25 93 26 94 27 95 28 96 32 97
REMARK SMILES IDX 29 98 31 99 30 100 33 101 34 102 37 103 35 104 36 105
REMARK H PARENT 95 27 63 38 20 91 20 92
REMARK Flexibility Score: inf
ROOT
ATOM      1  O   UNL     1       3.158   1.429  -2.518  1.00  0.00    -0.377 OA
ENDROOT
BRANCH   1   2
ATOM      2  C   UNL     1       2.537   1.866  -1.327  1.00  0.00     0.188 C 
BRANCH   2   3
ATOM      3  C   UNL     1       3.333   1.935  -0.011  1.00  0.00     0.188 C 
BRANCH   3   4
ATOM      4  O   UNL     1       4.733   1.733  -0.102  1.00  0.00    -0.376 OA
BRANCH   4   5
ATOM      5  C   UNL     1       5.316   0.539   0.402  1.00  0.00     0.202 C 
BRANCH   5   6
ATOM      6  C   UNL     1       4.841  -0.827  -0.128  1.00  0.00     0.261 C 
BRANCH   6   7
ATOM      7  O   UNL     1       3.435  -0.919  -0.363  1.00  0.00    -0.460 OA
BRANCH   7   8
ATOM      8  C   UNL     1       2.703  -1.537   0.573  1.00  0.00     0.338 C 
ATOM      9  O   UNL     1       2.034  -2.551   0.399  1.00  0.00    -0.246 OA
BRANCH   8  10
ATOM     10  C   UNL     1       2.574  -0.815   1.822  1.00  0.00     0.060 A 
ATOM     11  C   UNL     1       3.569  -1.011   2.775  1.00  0.00     0.016 A 
ATOM     12  C   UNL     1       1.318  -0.254   2.111  1.00  0.00     0.016 A 
ATOM     13  C   UNL     1       3.218  -0.862   4.079  1.00  0.00     0.010 A 
ATOM     14  C   UNL     1       0.969  -0.099   3.426  1.00  0.00     0.010 A 
ATOM     15  C   UNL     1       1.890  -0.529   4.369  1.00  0.00    -0.014 A 
BRANCH  15  16
ATOM     16  C   UNL     1       1.524  -0.689   5.746  1.00  0.00     0.031 A 
ATOM     17  C   UNL     1       2.169   0.329   6.584  1.00  0.00     0.074 A 
ATOM     18  C   UNL     1       0.787  -1.739   6.137  1.00  0.00     0.049 A 
ATOM     19  N   UNL     1       3.239   0.185   7.291  1.00  0.00    -0.248 NA
ATOM     20  C   UNL     1       1.774   1.722   6.344  1.00  0.00     0.031 C 
ATOM     21  C   UNL     1      -0.056  -2.622   5.327  1.00  0.00     0.029 A 
ATOM     22  N   UNL     1       0.536  -2.143   7.401  1.00  0.00    -0.354 N 
ATOM     23  C   UNL     1       3.492   1.452   7.801  1.00  0.00     0.074 A 
ATOM     24  C   UNL     1       2.764   2.362   6.963  1.00  0.00     0.031 C 
ATOM     25  C   UNL     1      -0.937  -3.242   6.146  1.00  0.00     0.029 A 
ATOM     26  C   UNL     1      -0.618  -2.898   7.522  1.00  0.00     0.049 A 
ATOM     27  H   UNL     1       1.118  -1.921   8.163  1.00  0.00     0.167 HD
ATOM     28  C   UNL     1       3.984   1.591   9.061  1.00  0.00     0.034 A 
ATOM     29  C   UNL     1      -1.304  -3.076   8.675  1.00  0.00     0.034 A 
ATOM     30  C   UNL     1       4.608   0.360   9.500  1.00  0.00     0.049 A 
ATOM     31  C   UNL     1      -0.376  -2.752   9.794  1.00  0.00     0.074 A 
ATOM     32  C   UNL     1       5.651  -0.419   9.040  1.00  0.00     0.029 A 
ATOM     33  N   UNL     1       3.868  -0.448  10.335  1.00  0.00    -0.354 N 
ATOM     34  N   UNL     1       0.687  -3.457  10.073  1.00  0.00    -0.248 NA
ATOM     35  C   UNL     1      -0.358  -1.383  10.296  1.00  0.00     0.031 C 
ATOM     36  C   UNL     1       5.243  -1.766   9.273  1.00  0.00     0.029 A 
ATOM     37  C   UNL     1       4.005  -1.744   9.918  1.00  0.00     0.049 A 
ATOM     38  H   UNL     1       3.331  -0.144  11.102  1.00  0.00     0.167 HD
ATOM     39  C   UNL     1       1.668  -2.516  10.370  1.00  0.00     0.074 A 
ATOM     40  C   UNL     1       0.939  -1.270  10.601  1.00  0.00     0.031 C 
ATOM     41  C   UNL     1       2.986  -2.760  10.097  1.00  0.00     0.034 A 
BRANCH  28  42
ATOM     42  C   UNL     1       3.466   2.622  10.052  1.00  0.00     0.023 A 
ATOM     43  C   UNL     1       3.997   2.550  11.358  1.00  0.00     0.012 A 
ATOM     44  C   UNL     1       2.308   3.420   9.886  1.00  0.00     0.148 A 
ATOM     45  C   UNL     1       3.331   3.109  12.453  1.00  0.00     0.002 A 
ATOM     46  C   UNL     1       1.664   4.000  10.970  1.00  0.00     0.091 A 
ATOM     47  F   UNL     1       1.749   3.583   8.691  1.00  0.00    -0.205 F 
ATOM     48  C   UNL     1       2.151   3.816  12.262  1.00  0.00     0.022 A 
BRANCH  46  49
ATOM     49  S   UNL     1       0.136   4.932  10.768  1.00  0.00     0.127 S 
ATOM     50  O   UNL     1      -0.829   4.042  11.408  1.00  0.00    -0.237 OA
ATOM     51  O   UNL     1       0.441   6.157  11.507  1.00  0.00    -0.237 OA
ATOM     52  O   UNL     1      -0.037   5.124   9.334  1.00  0.00    -0.744 OA
ENDBRANCH  46  49
ENDBRANCH  28  42
BRANCH  29  53
ATOM     53  C   UNL     1      -2.772  -3.156   8.855  1.00  0.00     0.023 A 
ATOM     54  C   UNL     1      -3.292  -3.692  10.048  1.00  0.00     0.012 A 
ATOM     55  C   UNL     1      -3.659  -2.480   7.985  1.00  0.00     0.148 A 
ATOM     56  C   UNL     1      -4.645  -3.540  10.375  1.00  0.00     0.002 A 
ATOM     57  C   UNL     1      -5.005  -2.344   8.307  1.00  0.00     0.091 A 
ATOM     58  F   UNL     1      -3.169  -1.888   6.888  1.00  0.00    -0.205 F 
ATOM     59  C   UNL     1      -5.500  -2.863   9.509  1.00  0.00     0.022 A 
BRANCH  57  60
ATOM     60  S   UNL     1      -6.162  -1.469   7.243  1.00  0.00     0.127 S 
ATOM     61  O   UNL     1      -7.279  -2.412   7.170  1.00  0.00    -0.237 OA
ATOM     62  O   UNL     1      -6.431  -0.261   8.017  1.00  0.00    -0.237 OA
ATOM     63  O   UNL     1      -5.467  -1.268   5.977  1.00  0.00    -0.744 OA
ENDBRANCH  57  60
ENDBRANCH  29  53
BRANCH  41  64
ATOM     64  C   UNL     1       3.380  -4.164   9.710  1.00  0.00     0.023 A 
ATOM     65  C   UNL     1       2.926  -4.776   8.522  1.00  0.00     0.012 A 
ATOM     66  C   UNL     1       4.374  -4.805  10.467  1.00  0.00     0.148 A 
ATOM     67  C   UNL     1       3.439  -6.011   8.112  1.00  0.00     0.002 A 
ATOM     68  C   UNL     1       4.916  -6.007  10.031  1.00  0.00     0.091 A 
ATOM     69  F   UNL     1       4.799  -4.206  11.590  1.00  0.00    -0.205 F 
ATOM     70  C   UNL     1       4.444  -6.620   8.860  1.00  0.00     0.022 A 
BRANCH  68  71
ATOM     71  S   UNL     1       6.305  -6.765  10.876  1.00  0.00     0.127 S 
ATOM     72  O   UNL     1       5.663  -7.862  11.597  1.00  0.00    -0.237 OA
ATOM     73  O   UNL     1       7.162  -7.181   9.765  1.00  0.00    -0.237 OA
ATOM     74  O   UNL     1       6.884  -5.718  11.710  1.00  0.00    -0.744 OA
ENDBRANCH  68  71
ENDBRANCH  41  64
ENDBRANCH  15  16
ENDBRANCH   8  10
ENDBRANCH   7   8
ENDBRANCH   6   7
ENDBRANCH   5   6
ENDBRANCH   4   5
ENDBRANCH   3   4
ENDBRANCH   2   3
ENDBRANCH   1   2
BRANCH   1  75
ATOM     75  C   UNL     1       4.553   1.574  -2.653  1.00  0.00     0.188 C 
BRANCH  75  76
ATOM     76  C   UNL     1       5.205   2.965  -2.537  1.00  0.00     0.188 C 
BRANCH  76  77
ATOM     77  O   UNL     1       4.404   3.993  -2.004  1.00  0.00    -0.376 OA
BRANCH  77  78
ATOM     78  C   UNL     1       3.592   4.801  -2.846  1.00  0.00     0.202 C 
BRANCH  78  79
ATOM     79  C   UNL     1       3.395   4.609  -4.378  1.00  0.00     0.261 C 
BRANCH  79  80
ATOM     80  O   UNL     1       3.880   3.360  -4.869  1.00  0.00    -0.463 OA
BRANCH  80  81
ATOM     81  C   UNL     1       4.211   3.088  -6.178  1.00  0.00     0.320 C 
ATOM     82  O   UNL     1       4.146   3.869  -7.109  1.00  0.00    -0.251 OA
BRANCH  81  83
ATOM     83  C   UNL     1       4.673   1.624  -6.178  1.00  0.00     0.144 C 
ATOM     84  C   UNL     1       6.076   1.657  -5.549  1.00  0.00     0.281 C 
ATOM     85  C   UNL     1       4.941   0.623  -7.312  1.00  0.00     0.088 C 
ATOM     86  C   UNL     1       3.381   0.958  -5.634  1.00  0.00     0.145 C 
ATOM     87  N   UNL     1       7.021   1.563  -6.667  1.00  0.00    -0.345 N 
ATOM     88  C   UNL     1       6.425   0.674  -7.649  1.00  0.00     0.267 C 
ATOM     89  C   UNL     1       4.614  -0.746  -6.622  1.00  0.00     0.130 C 
ATOM     90  N   UNL     1       3.534  -0.464  -5.700  1.00  0.00    -0.337 N 
ATOM     91  H   UNL     1       7.911   1.182  -6.344  1.00  0.00     0.346 HD
ATOM     92  H   UNL     1       7.205   2.482  -7.070  1.00  0.00     0.346 HD
BRANCH  90  93
ATOM     93  C   UNL     1       2.882  -1.462  -4.976  1.00  0.00     0.256 C 
ATOM     94  O   UNL     1       3.273  -2.629  -5.051  1.00  0.00    -0.269 OA
BRANCH  93  95
ATOM     95  C   UNL     1       1.684  -1.189  -4.092  1.00  0.00     0.065 A 
ATOM     96  C   UNL     1       1.585  -1.954  -2.918  1.00  0.00     0.016 A 
ATOM     97  C   UNL     1       0.631  -0.292  -4.345  1.00  0.00     0.079 A 
ATOM     98  C   UNL     1       0.513  -1.788  -2.027  1.00  0.00     0.001 A 
ATOM     99  C   UNL     1      -0.357  -0.017  -3.372  1.00  0.00     0.029 A 
ATOM    100  C   UNL     1      -0.421  -0.781  -2.216  1.00  0.00     0.002 A 
BRANCH  97 101
ATOM    101  N   UNL     1       0.396   0.237  -5.622  1.00  0.00    -0.220 N 
ATOM    102  C   UNL     1       0.590  -0.367  -6.841  1.00  0.00     0.225 A 
ATOM    103  N   UNL     1      -0.140   1.468  -5.810  1.00  0.00    -0.155 NA
ATOM    104  N   UNL     1       0.325   0.477  -7.812  1.00  0.00    -0.223 NA
ATOM    105  C   UNL     1      -0.102   1.582  -7.137  1.00  0.00     0.246 A 
ENDBRANCH  97 101
ENDBRANCH  93  95
ENDBRANCH  90  93
ENDBRANCH  81  83
ENDBRANCH  80  81
ENDBRANCH  79  80
ENDBRANCH  78  79
ENDBRANCH  77  78
ENDBRANCH  76  77
ENDBRANCH  75  76
ENDBRANCH   1  75
TORSDOF 26
