REMARK SMILES O=C(OCCOCCOCCOCCOC(=O)c1ccccc1OCC[S@@](=O)c1cccc(F)c1)c1ccc(-c2c3nc(c(-c4cccc(S(=O)(=O)[O-])c4F)c4ccc([nH]4)c(-c4cccc(S(=O)(=O)[O-])c4F)c4nc(c(-c5cccc(S(=O)(=O)[O-])c5F)c5ccc2[nH]5)C=C4)C=C3)cc1
REMARK SMILES IDX 10 1 9 2 8 3 7 4 6 5 5 6 4 7 3 8 2 9 1 10 36 11 37 12 98 13
REMARK SMILES IDX 38 14 97 15 39 16 40 17 41 18 91 19 42 20 96 21 90 22 92 23
REMARK SMILES IDX 43 24 95 25 89 26 88 27 44 29 76 30 56 31 75 32 57 33 60 34
REMARK SMILES IDX 74 35 93 36 58 37 59 38 73 40 94 41 61 42 45 43 46 44 54 45
REMARK SMILES IDX 47 46 49 47 55 48 48 49 50 50 51 51 52 52 53 53 77 54 78 55
REMARK SMILES IDX 86 56 79 57 81 58 87 59 80 60 82 61 83 62 84 63 85 64 62 65
REMARK SMILES IDX 63 66 71 67 64 68 66 69 72 70 65 71 67 72 68 73 69 74 70 75
REMARK SMILES IDX 11 76 12 77 13 78 14 79 15 80 16 81 17 82 18 83 19 84 23 85
REMARK SMILES IDX 20 86 22 87 21 88 24 89 25 90 26 91 27 92 28 93 29 94 30 95
REMARK SMILES IDX 35 96 31 97 33 98 32 99 34 100
REMARK H PARENT 92 28 60 39
REMARK Flexibility Score: inf
ROOT
ATOM      1  C   UNL     1       4.878   0.013  -2.994  1.00  0.00     0.188 C 
ENDROOT
BRANCH   1   2
ATOM      2  O   UNL     1       3.714  -0.697  -3.431  1.00  0.00    -0.377 OA
BRANCH   2   3
ATOM      3  C   UNL     1       2.538  -0.454  -2.652  1.00  0.00     0.188 C 
BRANCH   3   4
ATOM      4  C   UNL     1       2.626  -0.688  -1.139  1.00  0.00     0.188 C 
BRANCH   4   5
ATOM      5  O   UNL     1       3.918  -1.125  -0.726  1.00  0.00    -0.376 OA
BRANCH   5   6
ATOM      6  C   UNL     1       3.931  -2.082   0.322  1.00  0.00     0.202 C 
BRANCH   6   7
ATOM      7  C   UNL     1       4.001  -1.456   1.716  1.00  0.00     0.261 C 
BRANCH   7   8
ATOM      8  O   UNL     1       2.746  -0.844   2.062  1.00  0.00    -0.460 OA
BRANCH   8   9
ATOM      9  C   UNL     1       2.295   0.424   1.960  1.00  0.00     0.338 C 
ATOM     10  O   UNL     1       1.119   0.624   2.265  1.00  0.00    -0.246 OA
BRANCH   9  11
ATOM     11  C   UNL     1       3.098   1.608   1.497  1.00  0.00     0.060 A 
ATOM     12  C   UNL     1       4.339   1.579   0.851  1.00  0.00     0.016 A 
ATOM     13  C   UNL     1       2.489   2.868   1.671  1.00  0.00     0.016 A 
ATOM     14  C   UNL     1       4.980   2.755   0.450  1.00  0.00     0.010 A 
ATOM     15  C   UNL     1       3.115   4.048   1.262  1.00  0.00     0.010 A 
ATOM     16  C   UNL     1       4.385   3.994   0.683  1.00  0.00    -0.014 A 
BRANCH  16  17
ATOM     17  C   UNL     1       5.184   5.223   0.511  1.00  0.00     0.031 A 
ATOM     18  C   UNL     1       5.885   5.768   1.721  1.00  0.00     0.074 A 
ATOM     19  C   UNL     1       5.311   5.806  -0.694  1.00  0.00     0.049 A 
ATOM     20  N   UNL     1       6.646   6.821   1.836  1.00  0.00    -0.248 NA
ATOM     21  C   UNL     1       5.715   5.007   2.973  1.00  0.00     0.031 C 
ATOM     22  C   UNL     1       4.711   5.320  -1.936  1.00  0.00     0.029 A 
ATOM     23  N   UNL     1       5.986   6.940  -1.065  1.00  0.00    -0.354 N 
ATOM     24  C   UNL     1       7.026   6.863   3.171  1.00  0.00     0.074 A 
ATOM     25  C   UNL     1       6.415   5.732   3.830  1.00  0.00     0.031 C 
ATOM     26  C   UNL     1       5.030   6.165  -2.932  1.00  0.00     0.029 A 
ATOM     27  C   UNL     1       5.831   7.261  -2.393  1.00  0.00     0.049 A 
ATOM     28  H   UNL     1       6.529   7.473  -0.441  1.00  0.00     0.167 HD
ATOM     29  C   UNL     1       7.820   7.764   3.794  1.00  0.00     0.034 A 
ATOM     30  C   UNL     1       6.277   8.332  -3.080  1.00  0.00     0.034 A 
ATOM     31  C   UNL     1       8.405   8.893   3.131  1.00  0.00     0.049 A 
ATOM     32  C   UNL     1       7.117   9.352  -2.351  1.00  0.00     0.074 A 
ATOM     33  C   UNL     1       9.202   9.889   3.661  1.00  0.00     0.029 A 
ATOM     34  N   UNL     1       8.238   9.181   1.783  1.00  0.00    -0.354 N 
ATOM     35  N   UNL     1       7.532   9.343  -1.106  1.00  0.00    -0.248 NA
ATOM     36  C   UNL     1       7.569  10.519  -3.123  1.00  0.00     0.031 C 
ATOM     37  C   UNL     1       9.499  10.794   2.635  1.00  0.00     0.029 A 
ATOM     38  C   UNL     1       8.907  10.347   1.463  1.00  0.00     0.049 A 
ATOM     39  H   UNL     1       7.719   8.635   1.149  1.00  0.00     0.167 HD
ATOM     40  C   UNL     1       8.313  10.482  -0.952  1.00  0.00     0.074 A 
ATOM     41  C   UNL     1       8.332  11.148  -2.240  1.00  0.00     0.031 C 
ATOM     42  C   UNL     1       8.944  10.951   0.155  1.00  0.00     0.034 A 
BRANCH  29  43
ATOM     43  C   UNL     1       8.070   7.552   5.261  1.00  0.00     0.023 A 
ATOM     44  C   UNL     1       8.938   6.522   5.680  1.00  0.00     0.012 A 
ATOM     45  C   UNL     1       7.423   8.347   6.226  1.00  0.00     0.148 A 
ATOM     46  C   UNL     1       9.127   6.262   7.037  1.00  0.00     0.002 A 
ATOM     47  C   UNL     1       7.644   8.104   7.576  1.00  0.00     0.091 A 
ATOM     48  F   UNL     1       6.577   9.298   5.806  1.00  0.00    -0.205 F 
ATOM     49  C   UNL     1       8.485   7.056   7.984  1.00  0.00     0.022 A 
BRANCH  47  50
ATOM     50  S   UNL     1       6.898   9.099   8.872  1.00  0.00     0.127 S 
ATOM     51  O   UNL     1       5.919   8.168   9.432  1.00  0.00    -0.237 OA
ATOM     52  O   UNL     1       8.041   9.378   9.741  1.00  0.00    -0.237 OA
ATOM     53  O   UNL     1       6.340  10.269   8.208  1.00  0.00    -0.744 OA
ENDBRANCH  47  50
ENDBRANCH  29  43
BRANCH  30  54
ATOM     54  C   UNL     1       5.964   8.480  -4.532  1.00  0.00     0.023 A 
ATOM     55  C   UNL     1       7.000   8.393  -5.482  1.00  0.00     0.012 A 
ATOM     56  C   UNL     1       4.644   8.687  -4.981  1.00  0.00     0.148 A 
ATOM     57  C   UNL     1       6.732   8.534  -6.846  1.00  0.00     0.002 A 
ATOM     58  C   UNL     1       4.376   8.772  -6.343  1.00  0.00     0.091 A 
ATOM     59  F   UNL     1       3.671   8.794  -4.064  1.00  0.00    -0.205 F 
ATOM     60  C   UNL     1       5.421   8.712  -7.277  1.00  0.00     0.022 A 
BRANCH  58  61
ATOM     61  S   UNL     1       2.702   8.876  -6.989  1.00  0.00     0.127 S 
ATOM     62  O   UNL     1       2.637  10.265  -7.434  1.00  0.00    -0.237 OA
ATOM     63  O   UNL     1       2.728   7.884  -8.065  1.00  0.00    -0.237 OA
ATOM     64  O   UNL     1       1.831   8.524  -5.876  1.00  0.00    -0.744 OA
ENDBRANCH  58  61
ENDBRANCH  30  54
BRANCH  42  65
ATOM     65  C   UNL     1       9.723  12.232   0.022  1.00  0.00     0.023 A 
ATOM     66  C   UNL     1       9.036  13.459  -0.053  1.00  0.00     0.012 A 
ATOM     67  C   UNL     1      11.130  12.224   0.082  1.00  0.00     0.148 A 
ATOM     68  C   UNL     1       9.741  14.661  -0.088  1.00  0.00     0.002 A 
ATOM     69  C   UNL     1      11.823  13.428   0.096  1.00  0.00     0.091 A 
ATOM     70  F   UNL     1      11.762  11.043   0.134  1.00  0.00    -0.205 F 
ATOM     71  C   UNL     1      11.131  14.646   0.001  1.00  0.00     0.022 A 
BRANCH  69  72
ATOM     72  S   UNL     1      13.604  13.502   0.315  1.00  0.00     0.127 S 
ATOM     73  O   UNL     1      14.058  13.810  -1.040  1.00  0.00    -0.237 OA
ATOM     74  O   UNL     1      13.756  14.597   1.274  1.00  0.00    -0.237 OA
ATOM     75  O   UNL     1      13.997  12.196   0.828  1.00  0.00    -0.744 OA
ENDBRANCH  69  72
ENDBRANCH  42  65
ENDBRANCH  16  17
ENDBRANCH   9  11
ENDBRANCH   8   9
ENDBRANCH   7   8
ENDBRANCH   6   7
ENDBRANCH   5   6
ENDBRANCH   4   5
ENDBRANCH   3   4
ENDBRANCH   2   3
ENDBRANCH   1   2
BRANCH   1  76
ATOM     76  C   UNL     1       5.604   0.760  -4.115  1.00  0.00     0.188 C 
BRANCH  76  77
ATOM     77  O   UNL     1       4.974   1.957  -4.561  1.00  0.00    -0.376 OA
BRANCH  77  78
ATOM     78  C   UNL     1       3.691   1.834  -5.174  1.00  0.00     0.202 C 
BRANCH  78  79
ATOM     79  C   UNL     1       3.645   0.999  -6.458  1.00  0.00     0.261 C 
BRANCH  79  80
ATOM     80  O   UNL     1       3.933  -0.388  -6.191  1.00  0.00    -0.460 OA
BRANCH  80  81
ATOM     81  C   UNL     1       4.590  -1.057  -7.159  1.00  0.00     0.342 C 
ATOM     82  O   UNL     1       4.885  -0.643  -8.273  1.00  0.00    -0.246 OA
BRANCH  81  83
ATOM     83  C   UNL     1       5.068  -2.358  -6.658  1.00  0.00     0.102 A 
ATOM     84  C   UNL     1       6.418  -2.416  -6.264  1.00  0.00     0.019 A 
ATOM     85  C   UNL     1       4.338  -3.541  -6.803  1.00  0.00     0.133 A 
ATOM     86  C   UNL     1       7.050  -3.644  -6.072  1.00  0.00     0.001 A 
ATOM     87  C   UNL     1       5.009  -4.766  -6.698  1.00  0.00     0.047 A 
ATOM     88  C   UNL     1       6.356  -4.820  -6.332  1.00  0.00     0.004 A 
BRANCH  85  89
ATOM     89  O   UNL     1       3.022  -3.645  -7.155  1.00  0.00    -0.492 OA
BRANCH  89  90
ATOM     90  C   UNL     1       2.089  -3.009  -6.272  1.00  0.00     0.243 C 
BRANCH  90  91
ATOM     91  C   UNL     1       1.595  -3.914  -5.149  1.00  0.00     0.152 C 
BRANCH  91  92
ATOM     92  S   UNL     1       2.592  -3.776  -3.634  1.00  0.00     0.056 S 
ATOM     93  O   UNL     1       1.671  -4.016  -2.472  1.00  0.00    -0.254 OA
BRANCH  92  94
ATOM     94  C   UNL     1       3.634  -5.238  -3.672  1.00  0.00     0.042 A 
ATOM     95  C   UNL     1       3.165  -6.497  -4.063  1.00  0.00     0.018 A 
ATOM     96  C   UNL     1       4.948  -5.113  -3.206  1.00  0.00     0.057 A 
ATOM     97  C   UNL     1       4.016  -7.607  -4.049  1.00  0.00     0.004 A 
ATOM     98  C   UNL     1       5.779  -6.226  -3.178  1.00  0.00     0.124 A 
ATOM     99  C   UNL     1       5.329  -7.469  -3.606  1.00  0.00     0.039 A 
ATOM    100  F   UNL     1       7.040  -6.100  -2.742  1.00  0.00    -0.207 F 
ENDBRANCH  92  94
ENDBRANCH  91  92
ENDBRANCH  90  91
ENDBRANCH  89  90
ENDBRANCH  85  89
ENDBRANCH  81  83
ENDBRANCH  80  81
ENDBRANCH  79  80
ENDBRANCH  78  79
ENDBRANCH  77  78
ENDBRANCH  76  77
ENDBRANCH   1  76
TORSDOF 28
