REMARK SMILES COc1ccccc1[C@@H]1CN(C(=O)c2cnn3ccccc23)C[C@H]1C(=O)OCCOCCOCCOCCOC(=O)c1ccc(-c2c3nc(c(-c4cccc(S(=O)(=O)[O-])c4F)c4ccc([nH]4)c(-c4cccc(S(=O)(=O)[O-])c4F)c4nc(c(-c5cccc(S(=O)(=O)[O-])c5F)c5ccc2[nH]5)C=C4)C=C3)cc1
REMARK SMILES IDX 34 1 33 2 32 3 31 4 30 5 29 6 28 7 27 8 25 9 26 10 24 11
REMARK SMILES IDX 9 12 10 13 11 14 23 15 8 16 3 17 4 18 5 19 7 20 6 21 2 22
REMARK SMILES IDX 1 23 12 24 13 25 14 26 15 27 22 28 16 29 17 30 21 31 18 32
REMARK SMILES IDX 20 33 19 34 35 35 36 36 37 37 38 38 39 39 40 40 41 41 42 42
REMARK SMILES IDX 43 43 104 44 44 45 103 46 45 47 46 48 47 49 97 50 48 51
REMARK SMILES IDX 102 52 96 53 98 54 49 55 101 56 95 57 94 58 50 60 82 61
REMARK SMILES IDX 62 62 81 63 63 64 66 65 80 66 99 67 64 68 65 69 79 71 100 72
REMARK SMILES IDX 67 73 51 74 52 75 60 76 53 77 55 78 61 79 54 80 56 81 57 82
REMARK SMILES IDX 58 83 59 84 83 85 84 86 92 87 85 88 87 89 93 90 86 91 88 92
REMARK SMILES IDX 89 93 90 94 91 95 68 96 69 97 77 98 70 99 72 100 78 101
REMARK SMILES IDX 71 102 73 103 74 104 75 105 76 106
REMARK H PARENT 98 59 66 70
REMARK Flexibility Score: inf
ROOT
ATOM      1  C   UNL     1       4.561   5.499  -0.777  1.00  0.00     0.188 C 
ENDROOT
BRANCH   1   2
ATOM      2  O   UNL     1       4.245   4.248  -0.195  1.00  0.00    -0.377 OA
BRANCH   2   3
ATOM      3  C   UNL     1       2.927   3.782  -0.402  1.00  0.00     0.188 C 
BRANCH   3   4
ATOM      4  C   UNL     1       1.950   3.933   0.781  1.00  0.00     0.188 C 
BRANCH   4   5
ATOM      5  O   UNL     1       2.371   4.468   2.032  1.00  0.00    -0.376 OA
BRANCH   5   6
ATOM      6  C   UNL     1       3.739   4.420   2.401  1.00  0.00     0.202 C 
BRANCH   6   7
ATOM      7  C   UNL     1       4.435   3.048   2.516  1.00  0.00     0.261 C 
BRANCH   7   8
ATOM      8  O   UNL     1       4.198   2.096   1.449  1.00  0.00    -0.463 OA
BRANCH   8   9
ATOM      9  C   UNL     1       3.239   1.182   1.698  1.00  0.00     0.311 C 
ATOM     10  O   UNL     1       2.652   1.092   2.778  1.00  0.00    -0.252 OA
BRANCH   9  11
ATOM     11  C   UNL     1       2.932   0.178   0.600  1.00  0.00     0.128 C 
ATOM     12  C   UNL     1       3.212   0.274  -0.931  1.00  0.00     0.058 C 
ATOM     13  C   UNL     1       3.477  -1.184  -1.315  1.00  0.00     0.129 C 
ATOM     14  N   UNL     1       4.161  -1.711  -0.158  1.00  0.00    -0.337 N 
ATOM     15  C   UNL     1       3.652  -1.096   1.044  1.00  0.00     0.135 C 
BRANCH  12  16
ATOM     16  C   UNL     1       2.176   0.830  -1.913  1.00  0.00    -0.000 A 
ATOM     17  C   UNL     1       0.806   0.508  -1.942  1.00  0.00     0.122 A 
ATOM     18  C   UNL     1      -0.062   1.129  -2.857  1.00  0.00     0.047 A 
ATOM     19  C   UNL     1       0.436   1.996  -3.831  1.00  0.00     0.004 A 
ATOM     20  C   UNL     1       2.659   1.645  -2.964  1.00  0.00     0.008 A 
ATOM     21  C   UNL     1       1.806   2.210  -3.917  1.00  0.00     0.001 A 
BRANCH  17  22
ATOM     22  O   UNL     1       0.353  -0.657  -1.374  1.00  0.00    -0.496 OA
ATOM     23  C   UNL     1      -0.257  -0.532  -0.100  1.00  0.00     0.278 C 
ENDBRANCH  17  22
ENDBRANCH  12  16
BRANCH  14  24
ATOM     24  C   UNL     1       5.048  -2.762  -0.086  1.00  0.00     0.257 C 
ATOM     25  O   UNL     1       5.338  -3.281   0.991  1.00  0.00    -0.269 OA
BRANCH  24  26
ATOM     26  C   UNL     1       5.601  -3.266  -1.321  1.00  0.00     0.085 A 
ATOM     27  C   UNL     1       5.671  -4.617  -1.704  1.00  0.00     0.150 A 
ATOM     28  C   UNL     1       6.246  -2.593  -2.344  1.00  0.00     0.079 A 
ATOM     29  N   UNL     1       6.229  -4.801  -2.898  1.00  0.00    -0.176 NA
ATOM     30  N   UNL     1       6.577  -3.552  -3.310  1.00  0.00    -0.240 N 
ATOM     31  C   UNL     1       6.610  -1.236  -2.609  1.00  0.00     0.029 A 
ATOM     32  C   UNL     1       7.182  -3.206  -4.519  1.00  0.00     0.113 A 
ATOM     33  C   UNL     1       7.182  -0.915  -3.784  1.00  0.00     0.004 A 
ATOM     34  C   UNL     1       7.479  -1.924  -4.785  1.00  0.00     0.020 A 
ENDBRANCH  24  26
ENDBRANCH  14  24
ENDBRANCH   9  11
ENDBRANCH   8   9
ENDBRANCH   7   8
ENDBRANCH   6   7
ENDBRANCH   5   6
ENDBRANCH   4   5
ENDBRANCH   3   4
ENDBRANCH   2   3
ENDBRANCH   1   2
BRANCH   1  35
ATOM     35  C   UNL     1       3.540   6.638  -0.568  1.00  0.00     0.188 C 
BRANCH  35  36
ATOM     36  O   UNL     1       2.180   6.266  -0.792  1.00  0.00    -0.376 OA
BRANCH  36  37
ATOM     37  C   UNL     1       1.510   6.675  -1.977  1.00  0.00     0.202 C 
BRANCH  37  38
ATOM     38  C   UNL     1       1.869   5.941  -3.269  1.00  0.00     0.261 C 
BRANCH  38  39
ATOM     39  O   UNL     1       3.259   5.781  -3.471  1.00  0.00    -0.460 OA
BRANCH  39  40
ATOM     40  C   UNL     1       3.951   6.918  -3.606  1.00  0.00     0.338 C 
ATOM     41  O   UNL     1       3.518   8.071  -3.483  1.00  0.00    -0.246 OA
BRANCH  40  42
ATOM     42  C   UNL     1       5.317   6.594  -3.997  1.00  0.00     0.060 A 
ATOM     43  C   UNL     1       6.166   7.686  -4.162  1.00  0.00     0.016 A 
ATOM     44  C   UNL     1       5.566   5.333  -4.567  1.00  0.00     0.016 A 
ATOM     45  C   UNL     1       7.046   7.625  -5.204  1.00  0.00     0.010 A 
ATOM     46  C   UNL     1       6.441   5.276  -5.612  1.00  0.00     0.010 A 
ATOM     47  C   UNL     1       7.053   6.465  -5.985  1.00  0.00    -0.014 A 
BRANCH  47  48
ATOM     48  C   UNL     1       7.698   6.549  -7.263  1.00  0.00     0.031 A 
ATOM     49  C   UNL     1       9.159   6.498  -7.154  1.00  0.00     0.074 A 
ATOM     50  C   UNL     1       6.990   6.639  -8.401  1.00  0.00     0.049 A 
ATOM     51  N   UNL     1       9.974   7.485  -7.301  1.00  0.00    -0.248 NA
ATOM     52  C   UNL     1       9.757   5.280  -6.595  1.00  0.00     0.031 C 
ATOM     53  C   UNL     1       5.550   6.444  -8.600  1.00  0.00     0.029 A 
ATOM     54  N   UNL     1       7.464   6.771  -9.663  1.00  0.00    -0.354 N 
ATOM     55  C   UNL     1      11.228   6.935  -7.096  1.00  0.00     0.074 A 
ATOM     56  C   UNL     1      11.022   5.671  -6.438  1.00  0.00     0.031 C 
ATOM     57  C   UNL     1       5.327   6.189  -9.909  1.00  0.00     0.029 A 
ATOM     58  C   UNL     1       6.582   6.318 -10.632  1.00  0.00     0.049 A 
ATOM     59  H   UNL     1       8.347   7.152  -9.872  1.00  0.00     0.167 HD
ATOM     60  C   UNL     1      12.315   7.419  -7.750  1.00  0.00     0.034 A 
ATOM     61  C   UNL     1       6.924   5.945 -11.889  1.00  0.00     0.034 A 
ATOM     62  C   UNL     1      12.055   8.700  -8.352  1.00  0.00     0.049 A 
ATOM     63  C   UNL     1       8.234   6.576 -12.199  1.00  0.00     0.074 A 
ATOM     64  C   UNL     1      11.646   9.930  -7.876  1.00  0.00     0.029 A 
ATOM     65  N   UNL     1      11.818   8.715  -9.707  1.00  0.00    -0.354 N 
ATOM     66  N   UNL     1       8.391   7.867 -12.318  1.00  0.00    -0.248 NA
ATOM     67  C   UNL     1       9.450   5.831 -11.899  1.00  0.00     0.031 C 
ATOM     68  C   UNL     1      10.769  10.439  -8.876  1.00  0.00     0.029 A 
ATOM     69  C   UNL     1      10.732   9.521  -9.929  1.00  0.00     0.049 A 
ATOM     70  H   UNL     1      12.335   8.233 -10.393  1.00  0.00     0.167 HD
ATOM     71  C   UNL     1       9.585   8.136 -11.658  1.00  0.00     0.074 A 
ATOM     72  C   UNL     1      10.248   6.839 -11.529  1.00  0.00     0.031 C 
ATOM     73  C   UNL     1       9.781   9.320 -11.002  1.00  0.00     0.034 A 
BRANCH  60  74
ATOM     74  C   UNL     1      13.475   6.566  -8.172  1.00  0.00     0.023 A 
ATOM     75  C   UNL     1      14.646   7.229  -8.588  1.00  0.00     0.012 A 
ATOM     76  C   UNL     1      13.383   5.180  -8.433  1.00  0.00     0.148 A 
ATOM     77  C   UNL     1      15.663   6.547  -9.262  1.00  0.00     0.002 A 
ATOM     78  C   UNL     1      14.433   4.491  -9.020  1.00  0.00     0.091 A 
ATOM     79  F   UNL     1      12.224   4.537  -8.255  1.00  0.00    -0.205 F 
ATOM     80  C   UNL     1      15.563   5.175  -9.466  1.00  0.00     0.022 A 
BRANCH  78  81
ATOM     81  S   UNL     1      14.359   2.712  -9.249  1.00  0.00     0.127 S 
ATOM     82  O   UNL     1      14.054   2.612 -10.673  1.00  0.00    -0.237 OA
ATOM     83  O   UNL     1      15.712   2.304  -8.871  1.00  0.00    -0.237 OA
ATOM     84  O   UNL     1      13.322   2.249  -8.334  1.00  0.00    -0.744 OA
ENDBRANCH  78  81
ENDBRANCH  60  74
BRANCH  61  85
ATOM     85  C   UNL     1       6.342   4.843 -12.689  1.00  0.00     0.023 A 
ATOM     86  C   UNL     1       6.538   4.803 -14.082  1.00  0.00     0.012 A 
ATOM     87  C   UNL     1       5.788   3.700 -12.065  1.00  0.00     0.148 A 
ATOM     88  C   UNL     1       6.201   3.662 -14.823  1.00  0.00     0.002 A 
ATOM     89  C   UNL     1       5.432   2.580 -12.807  1.00  0.00     0.091 A 
ATOM     90  F   UNL     1       5.699   3.667 -10.729  1.00  0.00    -0.205 F 
ATOM     91  C   UNL     1       5.646   2.552 -14.188  1.00  0.00     0.022 A 
BRANCH  89  92
ATOM     92  S   UNL     1       4.712   1.125 -12.032  1.00  0.00     0.127 S 
ATOM     93  O   UNL     1       3.620   0.799 -12.950  1.00  0.00    -0.237 OA
ATOM     94  O   UNL     1       5.831   0.187 -12.051  1.00  0.00    -0.237 OA
ATOM     95  O   UNL     1       4.270   1.558 -10.712  1.00  0.00    -0.744 OA
ENDBRANCH  89  92
ENDBRANCH  61  85
BRANCH  73  96
ATOM     96  C   UNL     1       8.756  10.415 -11.189  1.00  0.00     0.023 A 
ATOM     97  C   UNL     1       7.412  10.255 -10.787  1.00  0.00     0.012 A 
ATOM     98  C   UNL     1       9.191  11.689 -11.590  1.00  0.00     0.148 A 
ATOM     99  C   UNL     1       6.518  11.327 -10.812  1.00  0.00     0.002 A 
ATOM    100  C   UNL     1       8.312  12.766 -11.568  1.00  0.00     0.091 A 
ATOM    101  F   UNL     1      10.474  11.835 -11.956  1.00  0.00    -0.205 F 
ATOM    102  C   UNL     1       6.971  12.587 -11.190  1.00  0.00     0.022 A 
BRANCH 100 103
ATOM    103  S   UNL     1       8.866  14.438 -11.910  1.00  0.00     0.127 S 
ATOM    104  O   UNL     1       8.361  14.655 -13.264  1.00  0.00    -0.237 OA
ATOM    105  O   UNL     1       8.187  15.215 -10.871  1.00  0.00    -0.237 OA
ATOM    106  O   UNL     1      10.318  14.411 -11.776  1.00  0.00    -0.744 OA
ENDBRANCH 100 103
ENDBRANCH  73  96
ENDBRANCH  47  48
ENDBRANCH  40  42
ENDBRANCH  39  40
ENDBRANCH  38  39
ENDBRANCH  37  38
ENDBRANCH  36  37
ENDBRANCH  35  36
ENDBRANCH   1  35
TORSDOF 27
