REMARK SMILES CC[NH2+][C@@]1(C(=O)OCCOCCOCCOCCOC(=O)c2ccc(-c3c4nc(c(-c5cccc(S(=O)(=O)[O-])c5F)c5ccc([nH]5)c(-c5cccc(S(=O)(=O)[O-])c5F)c5nc(c(-c6cccc(S(=O)(=O)[O-])c6F)c6ccc3[nH]6)C=C5)C=C4)cc2)CC[C@@H](SCC2CCCC2)C1
REMARK SMILES IDX 13 1 12 2 11 3 10 4 9 5 8 6 7 7 5 8 6 9 4 10 85 11 95 12
REMARK SMILES IDX 86 13 87 14 3 15 2 18 1 19 88 20 89 21 90 22 91 23 94 24
REMARK SMILES IDX 92 25 93 26 14 27 15 28 16 29 17 30 18 31 19 32 20 33 21 34
REMARK SMILES IDX 22 35 23 36 84 37 24 38 83 39 25 40 26 41 27 42 77 43 28 44
REMARK SMILES IDX 82 45 76 46 78 47 29 48 81 49 75 50 74 51 30 53 62 54 42 55
REMARK SMILES IDX 61 56 43 57 46 58 60 59 79 60 44 61 45 62 59 64 80 65 47 66
REMARK SMILES IDX 31 67 32 68 40 69 33 70 35 71 41 72 34 73 36 74 37 75 38 76
REMARK SMILES IDX 39 77 63 78 64 79 72 80 65 81 67 82 73 83 66 84 68 85 69 86
REMARK SMILES IDX 70 87 71 88 48 89 49 90 57 91 50 92 52 93 58 94 51 95 53 96
REMARK SMILES IDX 54 97 55 98 56 99
REMARK H PARENT 3 16 3 17 78 52 46 63
REMARK Flexibility Score: inf
ROOT
ATOM      1  O   UNL     1      -1.060  -0.660  -5.730  1.00  0.00    -0.377 OA
ENDROOT
BRANCH   1   2
ATOM      2  C   UNL     1      -0.885  -1.425  -4.550  1.00  0.00     0.188 C 
BRANCH   2   3
ATOM      3  C   UNL     1      -2.007  -1.418  -3.503  1.00  0.00     0.188 C 
BRANCH   3   4
ATOM      4  O   UNL     1      -3.313  -1.259  -4.004  1.00  0.00    -0.376 OA
BRANCH   4   5
ATOM      5  C   UNL     1      -3.919   0.015  -4.155  1.00  0.00     0.202 C 
BRANCH   5   6
ATOM      6  C   UNL     1      -3.188   1.365  -4.285  1.00  0.00     0.261 C 
BRANCH   6   7
ATOM      7  O   UNL     1      -1.762   1.343  -4.334  1.00  0.00    -0.459 OA
BRANCH   7   8
ATOM      8  C   UNL     1      -1.154   1.555  -3.147  1.00  0.00     0.368 C 
ATOM      9  O   UNL     1      -1.791   1.755  -2.112  1.00  0.00    -0.245 OA
BRANCH   8  10
ATOM     10  C   UNL     1       0.412   1.624  -3.222  1.00  0.00     0.195 C 
ATOM     11  C   UNL     1       0.677   3.126  -3.118  1.00  0.00     0.082 C 
ATOM     12  C   UNL     1       1.196   1.322  -4.542  1.00  0.00     0.095 C 
ATOM     13  C   UNL     1       0.389   3.586  -4.559  1.00  0.00     0.022 C 
ATOM     14  C   UNL     1       1.108   2.569  -5.428  1.00  0.00     0.053 C 
BRANCH  10  15
ATOM     15  N   UNL     1       0.993   0.736  -2.172  1.00  0.00    -0.332 N 
ATOM     16  H   UNL     1       0.641  -0.208  -2.336  1.00  0.00     0.347 HD
ATOM     17  H   UNL     1       2.004   0.835  -2.265  1.00  0.00     0.347 HD
BRANCH  15  18
ATOM     18  C   UNL     1       0.700   1.082  -0.784  1.00  0.00     0.257 C 
ATOM     19  C   UNL     1       1.327   0.038   0.131  1.00  0.00     0.071 C 
ENDBRANCH  15  18
ENDBRANCH  10  15
BRANCH  14  20
ATOM     20  S   UNL     1       2.699   3.128  -6.207  1.00  0.00    -0.158 SA
BRANCH  20  21
ATOM     21  C   UNL     1       3.887   3.387  -4.834  1.00  0.00     0.073 C 
BRANCH  21  22
ATOM     22  C   UNL     1       3.953   4.741  -4.098  1.00  0.00    -0.001 C 
ATOM     23  C   UNL     1       4.950   5.749  -4.677  1.00  0.00     0.004 C 
ATOM     24  C   UNL     1       2.700   5.597  -4.054  1.00  0.00     0.004 C 
ATOM     25  C   UNL     1       4.607   7.056  -3.954  1.00  0.00     0.000 C 
ATOM     26  C   UNL     1       3.125   6.984  -3.629  1.00  0.00     0.000 C 
ENDBRANCH  21  22
ENDBRANCH  20  21
ENDBRANCH  14  20
ENDBRANCH   8  10
ENDBRANCH   7   8
ENDBRANCH   6   7
ENDBRANCH   5   6
ENDBRANCH   4   5
ENDBRANCH   3   4
ENDBRANCH   2   3
ENDBRANCH   1   2
BRANCH   1  27
ATOM     27  C   UNL     1      -2.043  -1.015  -6.694  1.00  0.00     0.188 C 
BRANCH  27  28
ATOM     28  C   UNL     1      -2.770  -2.367  -6.596  1.00  0.00     0.188 C 
BRANCH  28  29
ATOM     29  O   UNL     1      -2.034  -3.396  -5.965  1.00  0.00    -0.376 OA
BRANCH  29  30
ATOM     30  C   UNL     1      -1.220  -4.240  -6.762  1.00  0.00     0.202 C 
BRANCH  30  31
ATOM     31  C   UNL     1      -0.210  -3.617  -7.738  1.00  0.00     0.261 C 
BRANCH  31  32
ATOM     32  O   UNL     1      -0.730  -2.751  -8.762  1.00  0.00    -0.460 OA
BRANCH  32  33
ATOM     33  C   UNL     1      -1.726  -3.188  -9.558  1.00  0.00     0.338 C 
ATOM     34  O   UNL     1      -2.232  -4.300  -9.568  1.00  0.00    -0.246 OA
BRANCH  33  35
ATOM     35  C   UNL     1      -2.252  -2.011 -10.284  1.00  0.00     0.060 A 
ATOM     36  C   UNL     1      -3.565  -1.578 -10.045  1.00  0.00     0.016 A 
ATOM     37  C   UNL     1      -1.432  -1.315 -11.173  1.00  0.00     0.016 A 
ATOM     38  C   UNL     1      -4.061  -0.448 -10.698  1.00  0.00     0.010 A 
ATOM     39  C   UNL     1      -1.941  -0.204 -11.849  1.00  0.00     0.010 A 
ATOM     40  C   UNL     1      -3.262   0.226 -11.628  1.00  0.00    -0.014 A 
BRANCH  40  41
ATOM     41  C   UNL     1      -3.831   1.298 -12.480  1.00  0.00     0.031 A 
ATOM     42  C   UNL     1      -4.251   0.954 -13.882  1.00  0.00     0.074 A 
ATOM     43  C   UNL     1      -3.919   2.566 -12.037  1.00  0.00     0.049 A 
ATOM     44  N   UNL     1      -4.644   1.744 -14.845  1.00  0.00    -0.248 NA
ATOM     45  C   UNL     1      -4.219  -0.473 -14.248  1.00  0.00     0.031 C 
ATOM     46  C   UNL     1      -3.568   3.019 -10.692  1.00  0.00     0.029 A 
ATOM     47  N   UNL     1      -4.291   3.715 -12.693  1.00  0.00    -0.354 N 
ATOM     48  C   UNL     1      -4.857   0.921 -15.944  1.00  0.00     0.074 A 
ATOM     49  C   UNL     1      -4.569  -0.433 -15.526  1.00  0.00     0.031 C 
ATOM     50  C   UNL     1      -3.698   4.356 -10.635  1.00  0.00     0.029 A 
ATOM     51  C   UNL     1      -4.098   4.856 -11.949  1.00  0.00     0.049 A 
ATOM     52  H   UNL     1      -4.660   3.720 -13.605  1.00  0.00     0.167 HD
ATOM     53  C   UNL     1      -5.251   1.267 -17.191  1.00  0.00     0.034 A 
ATOM     54  C   UNL     1      -4.185   6.155 -12.305  1.00  0.00     0.034 A 
ATOM     55  C   UNL     1      -5.556   2.611 -17.598  1.00  0.00     0.049 A 
ATOM     56  C   UNL     1      -4.573   6.507 -13.721  1.00  0.00     0.074 A 
ATOM     57  C   UNL     1      -6.037   3.047 -18.820  1.00  0.00     0.029 A 
ATOM     58  N   UNL     1      -5.380   3.736 -16.811  1.00  0.00    -0.354 N 
ATOM     59  N   UNL     1      -4.910   5.714 -14.710  1.00  0.00    -0.248 NA
ATOM     60  C   UNL     1      -4.610   7.937 -14.067  1.00  0.00     0.031 C 
ATOM     61  C   UNL     1      -6.101   4.442 -18.790  1.00  0.00     0.029 A 
ATOM     62  C   UNL     1      -5.705   4.871 -17.534  1.00  0.00     0.049 A 
ATOM     63  H   UNL     1      -5.070   3.730 -15.877  1.00  0.00     0.167 HD
ATOM     64  C   UNL     1      -5.229   6.548 -15.778  1.00  0.00     0.074 A 
ATOM     65  C   UNL     1      -5.072   7.907 -15.309  1.00  0.00     0.031 C 
ATOM     66  C   UNL     1      -5.599   6.219 -17.040  1.00  0.00     0.034 A 
BRANCH  53  67
ATOM     67  C   UNL     1      -5.374   0.182 -18.226  1.00  0.00     0.023 A 
ATOM     68  C   UNL     1      -6.462  -0.712 -18.186  1.00  0.00     0.012 A 
ATOM     69  C   UNL     1      -4.464   0.123 -19.300  1.00  0.00     0.148 A 
ATOM     70  C   UNL     1      -6.634  -1.659 -19.195  1.00  0.00     0.002 A 
ATOM     71  C   UNL     1      -4.668  -0.792 -20.324  1.00  0.00     0.091 A 
ATOM     72  F   UNL     1      -3.426   0.971 -19.304  1.00  0.00    -0.205 F 
ATOM     73  C   UNL     1      -5.747  -1.690 -20.269  1.00  0.00     0.022 A 
BRANCH  71  74
ATOM     74  S   UNL     1      -3.632  -0.855 -21.790  1.00  0.00     0.127 S 
ATOM     75  O   UNL     1      -3.007  -2.170 -21.652  1.00  0.00    -0.237 OA
ATOM     76  O   UNL     1      -4.620  -0.758 -22.864  1.00  0.00    -0.237 OA
ATOM     77  O   UNL     1      -2.721   0.276 -21.691  1.00  0.00    -0.744 OA
ENDBRANCH  71  74
ENDBRANCH  53  67
BRANCH  54  78
ATOM     78  C   UNL     1      -3.888   7.237 -11.321  1.00  0.00     0.023 A 
ATOM     79  C   UNL     1      -4.915   8.118 -10.928  1.00  0.00     0.012 A 
ATOM     80  C   UNL     1      -2.591   7.426 -10.805  1.00  0.00     0.148 A 
ATOM     81  C   UNL     1      -4.646   9.194 -10.080  1.00  0.00     0.002 A 
ATOM     82  C   UNL     1      -2.344   8.463  -9.912  1.00  0.00     0.091 A 
ATOM     83  F   UNL     1      -1.620   6.593 -11.205  1.00  0.00    -0.205 F 
ATOM     84  C   UNL     1      -3.364   9.361  -9.566  1.00  0.00     0.022 A 
BRANCH  82  85
ATOM     85  S   UNL     1      -0.754   8.682  -9.105  1.00  0.00     0.127 S 
ATOM     86  O   UNL     1      -0.261   9.900  -9.741  1.00  0.00    -0.237 OA
ATOM     87  O   UNL     1      -1.148   8.834  -7.703  1.00  0.00    -0.237 OA
ATOM     88  O   UNL     1      -0.001   7.468  -9.388  1.00  0.00    -0.744 OA
ENDBRANCH  82  85
ENDBRANCH  54  78
BRANCH  66  89
ATOM     89  C   UNL     1      -5.900   7.337 -18.005  1.00  0.00     0.023 A 
ATOM     90  C   UNL     1      -4.849   8.121 -18.521  1.00  0.00     0.012 A 
ATOM     91  C   UNL     1      -7.213   7.548 -18.473  1.00  0.00     0.148 A 
ATOM     92  C   UNL     1      -5.104   9.116 -19.464  1.00  0.00     0.002 A 
ATOM     93  C   UNL     1      -7.451   8.504 -19.452  1.00  0.00     0.091 A 
ATOM     94  F   UNL     1      -8.200   6.797 -17.963  1.00  0.00    -0.205 F 
ATOM     95  C   UNL     1      -6.401   9.298 -19.939  1.00  0.00     0.022 A 
BRANCH  93  96
ATOM     96  S   UNL     1      -9.068   8.748 -20.196  1.00  0.00     0.127 S 
ATOM     97  O   UNL     1      -9.408  10.094 -19.738  1.00  0.00    -0.237 OA
ATOM     98  O   UNL     1      -8.768   8.647 -21.624  1.00  0.00    -0.237 OA
ATOM     99  O   UNL     1      -9.918   7.685 -19.677  1.00  0.00    -0.744 OA
ENDBRANCH  93  96
ENDBRANCH  66  89
ENDBRANCH  40  41
ENDBRANCH  33  35
ENDBRANCH  32  33
ENDBRANCH  31  32
ENDBRANCH  30  31
ENDBRANCH  29  30
ENDBRANCH  28  29
ENDBRANCH  27  28
ENDBRANCH   1  27
TORSDOF 28
