REMARK SMILES COc1cc([C@@H]2[NH2+][C@H](C(=O)OCCOCCOCCOCCOC(=O)c3ccc(-c4c5nc(c(-c6cccc(S(=O)(=O)[O-])c6F)c6ccc([nH]6)c(-c6cccc(S(=O)(=O)[O-])c6F)c6nc(c(-c7cccc(S(=O)(=O)[O-])c7F)c7ccc4[nH]7)C=C6)C=C5)cc3)CS2)ccc1OCc1ccc(Cl)cc1
REMARK SMILES IDX 16 1 15 2 14 3 13 4 12 5 11 6 9 7 10 8 8 9 6 10 7 11 90 12
REMARK SMILES IDX 89 15 5 16 3 17 4 18 93 19 92 20 91 21 2 22 1 23 94 24 95 25
REMARK SMILES IDX 96 26 97 27 102 28 98 29 101 30 99 31 100 32 17 33 18 34
REMARK SMILES IDX 19 35 20 36 21 37 22 38 23 39 24 40 25 41 26 42 27 43 88 44
REMARK SMILES IDX 28 45 87 46 29 47 30 48 31 49 81 50 32 51 86 52 80 53 82 54
REMARK SMILES IDX 33 55 85 56 79 57 78 58 34 60 66 61 46 62 65 63 47 64 50 65
REMARK SMILES IDX 64 66 83 67 48 68 49 69 63 71 84 72 51 73 35 74 36 75 44 76
REMARK SMILES IDX 37 77 39 78 45 79 38 80 40 81 41 82 42 83 43 84 67 85 68 86
REMARK SMILES IDX 76 87 69 88 71 89 77 90 70 91 72 92 73 93 74 94 75 95 52 96
REMARK SMILES IDX 53 97 61 98 54 99 56 100 62 101 55 102 57 103 58 104 59 105
REMARK SMILES IDX 60 106
REMARK H PARENT 7 13 7 14 82 59 50 70
REMARK Flexibility Score: inf
ROOT
ATOM      1  C   UNL     1       1.201  -6.137   5.121  1.00  0.00     0.188 C 
ENDROOT
BRANCH   1   2
ATOM      2  C   UNL     1       2.018  -7.417   5.363  1.00  0.00     0.188 C 
BRANCH   2   3
ATOM      3  O   UNL     1       3.432  -7.370   5.535  1.00  0.00    -0.376 OA
BRANCH   3   4
ATOM      4  C   UNL     1       4.241  -6.594   4.656  1.00  0.00     0.202 C 
BRANCH   4   5
ATOM      5  C   UNL     1       4.069  -6.667   3.130  1.00  0.00     0.261 C 
BRANCH   5   6
ATOM      6  O   UNL     1       2.714  -6.765   2.676  1.00  0.00    -0.459 OA
BRANCH   6   7
ATOM      7  C   UNL     1       2.350  -7.907   2.055  1.00  0.00     0.365 C 
ATOM      8  O   UNL     1       3.117  -8.834   1.804  1.00  0.00    -0.245 OA
BRANCH   7   9
ATOM      9  C   UNL     1       0.853  -8.008   1.740  1.00  0.00     0.304 C 
ATOM     10  C   UNL     1      -0.373  -6.024   1.077  1.00  0.00     0.274 C 
ATOM     11  N   UNL     1      -0.004  -6.886   2.195  1.00  0.00    -0.319 N 
ATOM     12  S   UNL     1      -0.525  -7.094  -0.365  1.00  0.00    -0.087 SA
ATOM     13  H   UNL     1      -0.852  -7.263   2.618  1.00  0.00     0.348 HD
ATOM     14  H   UNL     1       0.518  -6.332   2.873  1.00  0.00     0.348 HD
ATOM     15  C   UNL     1       0.664  -8.302   0.258  1.00  0.00     0.153 C 
BRANCH  10  16
ATOM     16  C   UNL     1       0.524  -4.814   0.931  1.00  0.00     0.024 A 
ATOM     17  C   UNL     1       0.949  -2.461   1.459  1.00  0.00     0.161 A 
ATOM     18  C   UNL     1       0.153  -3.604   1.561  1.00  0.00     0.061 A 
ATOM     19  C   UNL     1       2.110  -2.502   0.694  1.00  0.00     0.161 A 
ATOM     20  C   UNL     1       2.542  -3.707   0.141  1.00  0.00     0.051 A 
ATOM     21  C   UNL     1       1.752  -4.852   0.254  1.00  0.00     0.015 A 
BRANCH  17  22
ATOM     22  O   UNL     1       0.666  -1.397   2.275  1.00  0.00    -0.493 OA
ATOM     23  C   UNL     1      -0.181  -0.434   1.659  1.00  0.00     0.278 C 
ENDBRANCH  17  22
BRANCH  19  24
ATOM     24  O   UNL     1       2.921  -1.426   0.553  1.00  0.00    -0.485 OA
BRANCH  24  25
ATOM     25  C   UNL     1       2.577  -0.477  -0.478  1.00  0.00     0.265 C 
BRANCH  25  26
ATOM     26  C   UNL     1       1.288  -0.480  -1.286  1.00  0.00    -0.011 A 
ATOM     27  C   UNL     1       0.550   0.718  -1.376  1.00  0.00     0.009 A 
ATOM     28  C   UNL     1       0.880  -1.565  -2.067  1.00  0.00     0.009 A 
ATOM     29  C   UNL     1      -0.580   0.818  -2.185  1.00  0.00     0.021 A 
ATOM     30  C   UNL     1      -0.269  -1.478  -2.859  1.00  0.00     0.021 A 
ATOM     31  C   UNL     1      -0.992  -0.288  -2.915  1.00  0.00     0.041 A 
ATOM     32  Cl  UNL     1      -2.400  -0.182  -3.902  1.00  0.00    -0.084 Cl
ENDBRANCH  25  26
ENDBRANCH  24  25
ENDBRANCH  19  24
ENDBRANCH  10  16
ENDBRANCH   7   9
ENDBRANCH   6   7
ENDBRANCH   5   6
ENDBRANCH   4   5
ENDBRANCH   3   4
ENDBRANCH   2   3
ENDBRANCH   1   2
BRANCH   1  33
ATOM     33  O   UNL     1       1.968  -5.060   4.630  1.00  0.00    -0.377 OA
BRANCH  33  34
ATOM     34  C   UNL     1       2.235  -4.005   5.541  1.00  0.00     0.188 C 
BRANCH  34  35
ATOM     35  C   UNL     1       2.649  -4.399   6.977  1.00  0.00     0.188 C 
BRANCH  35  36
ATOM     36  O   UNL     1       1.773  -5.324   7.615  1.00  0.00    -0.376 OA
BRANCH  36  37
ATOM     37  C   UNL     1       0.788  -4.819   8.505  1.00  0.00     0.202 C 
BRANCH  37  38
ATOM     38  C   UNL     1      -0.334  -3.941   7.923  1.00  0.00     0.261 C 
BRANCH  38  39
ATOM     39  O   UNL     1       0.068  -2.756   7.223  1.00  0.00    -0.460 OA
BRANCH  39  40
ATOM     40  C   UNL     1       0.826  -1.853   7.877  1.00  0.00     0.338 C 
ATOM     41  O   UNL     1       1.169  -1.897   9.048  1.00  0.00    -0.246 OA
BRANCH  40  42
ATOM     42  C   UNL     1       1.346  -0.891   6.881  1.00  0.00     0.060 A 
ATOM     43  C   UNL     1       2.732  -0.719   6.752  1.00  0.00     0.016 A 
ATOM     44  C   UNL     1       0.467  -0.163   6.077  1.00  0.00     0.016 A 
ATOM     45  C   UNL     1       3.244   0.221   5.853  1.00  0.00     0.010 A 
ATOM     46  C   UNL     1       0.979   0.792   5.196  1.00  0.00     0.010 A 
ATOM     47  C   UNL     1       2.367   1.020   5.110  1.00  0.00    -0.014 A 
BRANCH  47  48
ATOM     48  C   UNL     1       2.841   2.275   4.471  1.00  0.00     0.031 A 
ATOM     49  C   UNL     1       2.591   3.559   5.219  1.00  0.00     0.074 A 
ATOM     50  C   UNL     1       3.476   2.301   3.285  1.00  0.00     0.049 A 
ATOM     51  N   UNL     1       2.741   4.795   4.827  1.00  0.00    -0.248 NA
ATOM     52  C   UNL     1       2.115   3.422   6.608  1.00  0.00     0.031 C 
ATOM     53  C   UNL     1       3.931   1.135   2.533  1.00  0.00     0.029 A 
ATOM     54  N   UNL     1       3.834   3.368   2.494  1.00  0.00    -0.354 N 
ATOM     55  C   UNL     1       2.355   5.581   5.907  1.00  0.00     0.074 A 
ATOM     56  C   UNL     1       1.942   4.685   6.963  1.00  0.00     0.031 C 
ATOM     57  C   UNL     1       4.492   1.551   1.381  1.00  0.00     0.029 A 
ATOM     58  C   UNL     1       4.343   2.996   1.269  1.00  0.00     0.049 A 
ATOM     59  H   UNL     1       3.737   4.306   2.776  1.00  0.00     0.167 HD
ATOM     60  C   UNL     1       2.361   6.930   6.015  1.00  0.00     0.034 A 
ATOM     61  C   UNL     1       4.599   3.735   0.170  1.00  0.00     0.034 A 
ATOM     62  C   UNL     1       2.783   7.807   4.959  1.00  0.00     0.049 A 
ATOM     63  C   UNL     1       4.375   5.222   0.234  1.00  0.00     0.074 A 
ATOM     64  C   UNL     1       2.866   9.187   4.965  1.00  0.00     0.029 A 
ATOM     65  N   UNL     1       3.174   7.385   3.696  1.00  0.00    -0.354 N 
ATOM     66  N   UNL     1       4.023   5.957   1.260  1.00  0.00    -0.248 NA
ATOM     67  C   UNL     1       4.617   5.984  -0.999  1.00  0.00     0.031 C 
ATOM     68  C   UNL     1       3.256   9.602   3.688  1.00  0.00     0.029 A 
ATOM     69  C   UNL     1       3.470   8.478   2.904  1.00  0.00     0.049 A 
ATOM     70  H   UNL     1       3.232   6.446   3.408  1.00  0.00     0.167 HD
ATOM     71  C   UNL     1       4.097   7.275   0.825  1.00  0.00     0.074 A 
ATOM     72  C   UNL     1       4.476   7.232  -0.573  1.00  0.00     0.031 C 
ATOM     73  C   UNL     1       3.902   8.415   1.530  1.00  0.00     0.034 A 
BRANCH  60  74
ATOM     74  C   UNL     1       1.883   7.527   7.313  1.00  0.00     0.023 A 
ATOM     75  C   UNL     1       2.646   7.375   8.489  1.00  0.00     0.012 A 
ATOM     76  C   UNL     1       0.675   8.250   7.365  1.00  0.00     0.148 A 
ATOM     77  C   UNL     1       2.191   7.888   9.704  1.00  0.00     0.002 A 
ATOM     78  C   UNL     1       0.253   8.802   8.569  1.00  0.00     0.091 A 
ATOM     79  F   UNL     1      -0.052   8.363   6.245  1.00  0.00    -0.205 F 
ATOM     80  C   UNL     1       1.000   8.608   9.742  1.00  0.00     0.022 A 
BRANCH  78  81
ATOM     81  S   UNL     1      -1.226   9.812   8.698  1.00  0.00     0.127 S 
ATOM     82  O   UNL     1      -2.141   8.908   9.394  1.00  0.00    -0.237 OA
ATOM     83  O   UNL     1      -0.758  10.942   9.501  1.00  0.00    -0.237 OA
ATOM     84  O   UNL     1      -1.599  10.153   7.332  1.00  0.00    -0.744 OA
ENDBRANCH  78  81
ENDBRANCH  60  74
BRANCH  61  85
ATOM     85  C   UNL     1       5.098   3.114  -1.091  1.00  0.00     0.023 A 
ATOM     86  C   UNL     1       6.450   3.249  -1.449  1.00  0.00     0.012 A 
ATOM     87  C   UNL     1       4.231   2.436  -1.967  1.00  0.00     0.148 A 
ATOM     88  C   UNL     1       6.924   2.720  -2.654  1.00  0.00     0.002 A 
ATOM     89  C   UNL     1       4.716   1.873  -3.147  1.00  0.00     0.091 A 
ATOM     90  F   UNL     1       2.940   2.352  -1.631  1.00  0.00    -0.205 F 
ATOM     91  C   UNL     1       6.061   2.026  -3.499  1.00  0.00     0.022 A 
BRANCH  89  92
ATOM     92  S   UNL     1       3.645   0.942  -4.253  1.00  0.00     0.127 S 
ATOM     93  O   UNL     1       4.293   1.108  -5.553  1.00  0.00    -0.237 OA
ATOM     94  O   UNL     1       3.744  -0.404  -3.694  1.00  0.00    -0.237 OA
ATOM     95  O   UNL     1       2.352   1.603  -4.141  1.00  0.00    -0.744 OA
ENDBRANCH  89  92
ENDBRANCH  61  85
BRANCH  73  96
ATOM     96  C   UNL     1       4.210   9.721   0.850  1.00  0.00     0.023 A 
ATOM     97  C   UNL     1       3.342  10.248  -0.124  1.00  0.00     0.012 A 
ATOM     98  C   UNL     1       5.332  10.469   1.262  1.00  0.00     0.148 A 
ATOM     99  C   UNL     1       3.600  11.495  -0.694  1.00  0.00     0.002 A 
ATOM    100  C   UNL     1       5.550  11.733   0.733  1.00  0.00     0.091 A 
ATOM    101  F   UNL     1       6.155   9.934   2.175  1.00  0.00    -0.205 F 
ATOM    102  C   UNL     1       4.693  12.243  -0.255  1.00  0.00     0.022 A 
BRANCH 100 103
ATOM    103  S   UNL     1       6.865  12.806   1.318  1.00  0.00     0.127 S 
ATOM    104  O   UNL     1       7.754  12.849   0.158  1.00  0.00    -0.237 OA
ATOM    105  O   UNL     1       6.147  14.053   1.584  1.00  0.00    -0.237 OA
ATOM    106  O   UNL     1       7.419  12.161   2.501  1.00  0.00    -0.744 OA
ENDBRANCH 100 103
ENDBRANCH  73  96
ENDBRANCH  47  48
ENDBRANCH  40  42
ENDBRANCH  39  40
ENDBRANCH  38  39
ENDBRANCH  37  38
ENDBRANCH  36  37
ENDBRANCH  35  36
ENDBRANCH  34  35
ENDBRANCH  33  34
ENDBRANCH   1  33
TORSDOF 28
