REMARK SMILES O=C(OCCOCCOCCOCCOC(=O)c1ccn(CC(F)(F)F)c1)c1ccc(-c2c3nc(c(-c4cccc(S(=O)(=O)[O-])c4F)c4ccc([nH]4)c(-c4cccc(S(=O)(=O)[O-])c4F)c4nc(c(-c5cccc(S(=O)(=O)[O-])c5F)c5ccc2[nH]5)C=C4)C=C3)cc1
REMARK SMILES IDX 8 1 7 2 6 3 5 4 4 5 3 6 2 7 1 8 28 9 29 10 90 11 30 12 89 13
REMARK SMILES IDX 31 14 32 15 33 16 83 17 34 18 88 19 82 20 84 21 35 22 87 23
REMARK SMILES IDX 81 24 80 25 36 27 68 28 48 29 67 30 49 31 52 32 66 33 85 34
REMARK SMILES IDX 50 35 51 36 65 38 86 39 53 40 37 41 38 42 46 43 39 44 41 45
REMARK SMILES IDX 47 46 40 47 42 48 43 49 44 50 45 51 69 52 70 53 78 54 71 55
REMARK SMILES IDX 73 56 79 57 72 58 74 59 75 60 76 61 77 62 54 63 55 64 63 65
REMARK SMILES IDX 56 66 58 67 64 68 57 69 59 70 60 71 61 72 62 73 9 74 10 75
REMARK SMILES IDX 11 76 12 77 13 78 14 79 15 80 16 81 17 82 18 83 19 84 27 85
REMARK SMILES IDX 20 86 21 87 22 88 23 89 24 90 25 91 26 92
REMARK H PARENT 84 26 52 37
REMARK Flexibility Score: inf
ROOT
ATOM      1  C   UNL     1       2.412  -0.993   1.780  1.00  0.00     0.188 C 
ENDROOT
BRANCH   1   2
ATOM      2  C   UNL     1       3.179  -1.383   0.511  1.00  0.00     0.188 C 
BRANCH   2   3
ATOM      3  O   UNL     1       4.526  -0.966   0.303  1.00  0.00    -0.376 OA
BRANCH   3   4
ATOM      4  C   UNL     1       5.066   0.289   0.688  1.00  0.00     0.202 C 
BRANCH   4   5
ATOM      5  C   UNL     1       4.377   1.627   0.374  1.00  0.00     0.261 C 
BRANCH   5   6
ATOM      6  O   UNL     1       2.953   1.595   0.504  1.00  0.00    -0.460 OA
BRANCH   6   7
ATOM      7  C   UNL     1       2.030   1.395  -0.470  1.00  0.00     0.338 C 
ATOM      8  O   UNL     1       0.845   1.312  -0.162  1.00  0.00    -0.246 OA
BRANCH   7   9
ATOM      9  C   UNL     1       2.433   1.303  -1.893  1.00  0.00     0.060 A 
ATOM     10  C   UNL     1       3.639   0.740  -2.317  1.00  0.00     0.016 A 
ATOM     11  C   UNL     1       1.526   1.775  -2.849  1.00  0.00     0.016 A 
ATOM     12  C   UNL     1       4.041   0.833  -3.629  1.00  0.00     0.010 A 
ATOM     13  C   UNL     1       1.886   1.796  -4.191  1.00  0.00     0.010 A 
ATOM     14  C   UNL     1       3.167   1.377  -4.561  1.00  0.00    -0.014 A 
BRANCH  14  15
ATOM     15  C   UNL     1       3.648   1.404  -5.949  1.00  0.00     0.031 A 
ATOM     16  C   UNL     1       3.701   0.004  -6.564  1.00  0.00     0.074 A 
ATOM     17  C   UNL     1       4.069   2.622  -6.393  1.00  0.00     0.049 A 
ATOM     18  N   UNL     1       4.540  -0.499  -7.421  1.00  0.00    -0.248 NA
ATOM     19  C   UNL     1       2.781  -1.038  -6.030  1.00  0.00     0.031 C 
ATOM     20  C   UNL     1       4.013   3.865  -5.594  1.00  0.00     0.029 A 
ATOM     21  N   UNL     1       4.637   3.073  -7.564  1.00  0.00    -0.354 N 
ATOM     22  C   UNL     1       4.087  -1.808  -7.703  1.00  0.00     0.074 A 
ATOM     23  C   UNL     1       3.136  -2.142  -6.689  1.00  0.00     0.031 C 
ATOM     24  C   UNL     1       4.561   4.894  -6.268  1.00  0.00     0.029 A 
ATOM     25  C   UNL     1       4.992   4.441  -7.577  1.00  0.00     0.049 A 
ATOM     26  H   UNL     1       4.786   2.483  -8.338  1.00  0.00     0.167 HD
ATOM     27  C   UNL     1       4.385  -2.473  -8.856  1.00  0.00     0.034 A 
ATOM     28  C   UNL     1       5.615   5.165  -8.555  1.00  0.00     0.034 A 
ATOM     29  C   UNL     1       5.167  -1.641  -9.714  1.00  0.00     0.049 A 
ATOM     30  C   UNL     1       5.752   4.262  -9.711  1.00  0.00     0.074 A 
ATOM     31  C   UNL     1       6.494  -1.315  -9.777  1.00  0.00     0.029 A 
ATOM     32  N   UNL     1       4.452  -0.787 -10.520  1.00  0.00    -0.354 N 
ATOM     33  N   UNL     1       4.763   3.861 -10.455  1.00  0.00    -0.248 NA
ATOM     34  C   UNL     1       7.058   3.653  -9.995  1.00  0.00     0.031 C 
ATOM     35  C   UNL     1       6.518  -0.042 -10.390  1.00  0.00     0.029 A 
ATOM     36  C   UNL     1       5.214   0.336 -10.732  1.00  0.00     0.049 A 
ATOM     37  H   UNL     1       3.551  -0.952 -10.883  1.00  0.00     0.167 HD
ATOM     38  C   UNL     1       5.263   2.712 -11.023  1.00  0.00     0.074 A 
ATOM     39  C   UNL     1       6.701   2.829 -10.975  1.00  0.00     0.031 C 
ATOM     40  C   UNL     1       4.519   1.575 -11.019  1.00  0.00     0.034 A 
BRANCH  27  41
ATOM     41  C   UNL     1       3.862  -3.757  -9.456  1.00  0.00     0.023 A 
ATOM     42  C   UNL     1       4.694  -4.355 -10.444  1.00  0.00     0.012 A 
ATOM     43  C   UNL     1       2.558  -4.268  -9.323  1.00  0.00     0.148 A 
ATOM     44  C   UNL     1       4.235  -5.342 -11.316  1.00  0.00     0.002 A 
ATOM     45  C   UNL     1       2.119  -5.296 -10.165  1.00  0.00     0.091 A 
ATOM     46  F   UNL     1       1.711  -3.706  -8.456  1.00  0.00    -0.205 F 
ATOM     47  C   UNL     1       2.941  -5.809 -11.179  1.00  0.00     0.022 A 
BRANCH  45  48
ATOM     48  S   UNL     1       0.486  -6.034 -10.014  1.00  0.00     0.127 S 
ATOM     49  O   UNL     1      -0.259  -5.348 -11.066  1.00  0.00    -0.237 OA
ATOM     50  O   UNL     1       0.759  -7.447 -10.289  1.00  0.00    -0.237 OA
ATOM     51  O   UNL     1       0.072  -5.773  -8.642  1.00  0.00    -0.744 OA
ENDBRANCH  45  48
ENDBRANCH  27  41
BRANCH  28  52
ATOM     52  C   UNL     1       6.238   6.539  -8.634  1.00  0.00     0.023 A 
ATOM     53  C   UNL     1       6.000   7.564  -7.705  1.00  0.00     0.012 A 
ATOM     54  C   UNL     1       7.186   6.841  -9.653  1.00  0.00     0.148 A 
ATOM     55  C   UNL     1       6.743   8.759  -7.714  1.00  0.00     0.002 A 
ATOM     56  C   UNL     1       7.992   7.974  -9.604  1.00  0.00     0.091 A 
ATOM     57  F   UNL     1       7.294   6.040 -10.718  1.00  0.00    -0.205 F 
ATOM     58  C   UNL     1       7.770   8.946  -8.633  1.00  0.00     0.022 A 
BRANCH  56  59
ATOM     59  S   UNL     1       9.429   8.164 -10.674  1.00  0.00     0.127 S 
ATOM     60  O   UNL     1       9.135   9.415 -11.369  1.00  0.00    -0.237 OA
ATOM     61  O   UNL     1      10.514   8.244  -9.695  1.00  0.00    -0.237 OA
ATOM     62  O   UNL     1       9.470   6.977 -11.519  1.00  0.00    -0.744 OA
ENDBRANCH  56  59
ENDBRANCH  28  52
BRANCH  40  63
ATOM     63  C   UNL     1       3.012   1.821 -10.928  1.00  0.00     0.023 A 
ATOM     64  C   UNL     1       2.401   2.547 -11.969  1.00  0.00     0.012 A 
ATOM     65  C   UNL     1       2.204   1.492  -9.815  1.00  0.00     0.148 A 
ATOM     66  C   UNL     1       1.062   2.945 -11.896  1.00  0.00     0.002 A 
ATOM     67  C   UNL     1       0.872   1.902  -9.730  1.00  0.00     0.091 A 
ATOM     68  F   UNL     1       2.742   0.771  -8.838  1.00  0.00    -0.205 F 
ATOM     69  C   UNL     1       0.299   2.629 -10.777  1.00  0.00     0.022 A 
BRANCH  67  70
ATOM     70  S   UNL     1      -0.181   1.604  -8.295  1.00  0.00     0.127 S 
ATOM     71  O   UNL     1      -0.601   2.957  -7.926  1.00  0.00    -0.237 OA
ATOM     72  O   UNL     1      -1.244   0.779  -8.862  1.00  0.00    -0.237 OA
ATOM     73  O   UNL     1       0.652   0.950  -7.294  1.00  0.00    -0.744 OA
ENDBRANCH  67  70
ENDBRANCH  40  63
ENDBRANCH  14  15
ENDBRANCH   7   9
ENDBRANCH   6   7
ENDBRANCH   5   6
ENDBRANCH   4   5
ENDBRANCH   3   4
ENDBRANCH   2   3
ENDBRANCH   1   2
BRANCH   1  74
ATOM     74  O   UNL     1       2.770  -1.725   2.943  1.00  0.00    -0.377 OA
BRANCH  74  75
ATOM     75  C   UNL     1       4.045  -1.421   3.474  1.00  0.00     0.188 C 
BRANCH  75  76
ATOM     76  C   UNL     1       5.177  -2.374   3.043  1.00  0.00     0.188 C 
BRANCH  76  77
ATOM     77  O   UNL     1       5.017  -3.792   3.014  1.00  0.00    -0.376 OA
BRANCH  77  78
ATOM     78  C   UNL     1       3.720  -4.360   3.058  1.00  0.00     0.202 C 
BRANCH  78  79
ATOM     79  C   UNL     1       3.264  -4.683   4.488  1.00  0.00     0.261 C 
BRANCH  79  80
ATOM     80  O   UNL     1       3.530  -3.646   5.449  1.00  0.00    -0.460 OA
BRANCH  80  81
ATOM     81  C   UNL     1       4.779  -3.649   6.001  1.00  0.00     0.339 C 
ATOM     82  O   UNL     1       5.610  -4.541   5.876  1.00  0.00    -0.246 OA
BRANCH  81  83
ATOM     83  C   UNL     1       5.071  -2.391   6.689  1.00  0.00     0.077 A 
ATOM     84  C   UNL     1       4.223  -1.594   7.508  1.00  0.00     0.035 A 
ATOM     85  C   UNL     1       6.266  -1.694   6.588  1.00  0.00     0.101 A 
ATOM     86  C   UNL     1       4.924  -0.464   7.875  1.00  0.00     0.087 A 
ATOM     87  N   UNL     1       6.141  -0.498   7.249  1.00  0.00    -0.344 N 
BRANCH  87  88
ATOM     88  C   UNL     1       7.178   0.519   7.271  1.00  0.00     0.236 C 
BRANCH  88  89
ATOM     89  C   UNL     1       6.716   1.955   7.410  1.00  0.00     0.406 C 
ATOM     90  F   UNL     1       6.143   2.196   8.610  1.00  0.00    -0.169 F 
ATOM     91  F   UNL     1       7.781   2.790   7.313  1.00  0.00    -0.169 F 
ATOM     92  F   UNL     1       5.844   2.312   6.444  1.00  0.00    -0.169 F 
ENDBRANCH  88  89
ENDBRANCH  87  88
ENDBRANCH  81  83
ENDBRANCH  80  81
ENDBRANCH  79  80
ENDBRANCH  78  79
ENDBRANCH  77  78
ENDBRANCH  76  77
ENDBRANCH  75  76
ENDBRANCH  74  75
ENDBRANCH   1  74
TORSDOF 25
