REMARK SMILES Cc1ccccc1[C@@H]1[NH2+][C@H](C(=O)OCCOCCOCCOCCOC(=O)c2ccc(-c3c4nc(c(-c5cccc(S(=O)(=O)[O-])c5F)c5ccc([nH]5)c(-c5cccc(S(=O)(=O)[O-])c5F)c5nc(c(-c6cccc(S(=O)(=O)[O-])c6F)c6ccc3[nH]6)C=C5)C=C4)cc2)CC2=c3ccccc3=N[C@@H]21
REMARK SMILES IDX 20 1 19 2 18 3 17 4 16 5 15 6 14 7 13 8 11 9 12 10 10 11
REMARK SMILES IDX 8 12 9 13 100 14 92 17 99 18 91 19 93 20 98 21 94 22 97 23
REMARK SMILES IDX 95 24 96 25 7 26 1 27 2 28 3 29 4 30 6 31 5 32 21 33 22 34
REMARK SMILES IDX 23 35 24 36 25 37 26 38 27 39 28 40 29 41 90 42 30 43 89 44
REMARK SMILES IDX 31 45 32 46 33 47 83 48 34 49 88 50 82 51 84 52 35 53 87 54
REMARK SMILES IDX 81 55 80 56 36 58 68 59 48 60 67 61 49 62 52 63 66 64 85 65
REMARK SMILES IDX 50 66 51 67 65 69 86 70 53 71 37 72 38 73 46 74 39 75 41 76
REMARK SMILES IDX 47 77 40 78 42 79 43 80 44 81 45 82 69 83 70 84 78 85 71 86
REMARK SMILES IDX 73 87 79 88 72 89 74 90 75 91 76 92 77 93 54 94 55 95 63 96
REMARK SMILES IDX 56 97 58 98 64 99 57 100 59 101 60 102 61 103 62 104
REMARK H PARENT 9 15 9 16 84 57 52 68
REMARK Flexibility Score: inf
ROOT
ATOM      1  C   UNL     1       0.476   0.183   2.256  1.00  0.00     0.188 C 
ENDROOT
BRANCH   1   2
ATOM      2  O   UNL     1      -0.400   1.247   2.767  1.00  0.00    -0.377 OA
BRANCH   2   3
ATOM      3  C   UNL     1      -0.707   2.669   2.293  1.00  0.00     0.188 C 
BRANCH   3   4
ATOM      4  C   UNL     1      -0.861   3.578   0.623  1.00  0.00     0.188 C 
BRANCH   4   5
ATOM      5  O   UNL     1       0.213   3.631  -0.956  1.00  0.00    -0.376 OA
BRANCH   5   6
ATOM      6  C   UNL     1       0.330   4.856  -2.482  1.00  0.00     0.202 C 
BRANCH   6   7
ATOM      7  C   UNL     1       0.065   6.703  -2.001  1.00  0.00     0.261 C 
BRANCH   7   8
ATOM      8  O   UNL     1      -0.277   7.111  -0.194  1.00  0.00    -0.459 OA
BRANCH   8   9
ATOM      9  C   UNL     1      -0.141   6.682   1.293  1.00  0.00     0.365 C 
ATOM     10  O   UNL     1      -0.640   7.445   2.140  1.00  0.00    -0.245 OA
BRANCH   9  11
ATOM     11  C   UNL     1       0.701   5.173   2.023  1.00  0.00     0.298 C 
ATOM     12  C   UNL     1       1.332   2.564   0.712  1.00  0.00     0.243 C 
ATOM     13  N   UNL     1       1.178   4.050   1.137  1.00  0.00    -0.326 N 
ATOM     14  C   UNL     1       2.703   2.625   1.890  1.00  0.00     0.196 C 
ATOM     15  H   UNL     1       0.770   4.391   0.267  1.00  0.00     0.347 HD
ATOM     16  H   UNL     1       1.937   3.899   1.802  1.00  0.00     0.347 HD
ATOM     17  C   UNL     1       2.958   4.101   2.690  1.00  0.00    -0.024 C 
ATOM     18  N   UNL     1       4.071   2.419   1.343  1.00  0.00    -0.270 NA
ATOM     19  C   UNL     1       1.819   5.105   3.085  1.00  0.00     0.111 C 
ATOM     20  C   UNL     1       4.203   4.529   2.488  1.00  0.00     0.002 A 
ATOM     21  C   UNL     1       4.776   3.478   1.642  1.00  0.00     0.066 A 
ATOM     22  C   UNL     1       4.832   5.811   2.659  1.00  0.00     0.010 A 
ATOM     23  C   UNL     1       6.131   3.811   1.088  1.00  0.00     0.028 A 
ATOM     24  C   UNL     1       5.975   6.076   2.006  1.00  0.00     0.001 A 
ATOM     25  C   UNL     1       6.624   5.057   1.208  1.00  0.00     0.002 A 
BRANCH  12  26
ATOM     26  C   UNL     1       0.213   1.710  -0.688  1.00  0.00     0.015 A 
ATOM     27  C   UNL     1      -2.330   1.411   0.648  1.00  0.00     0.045 C 
ATOM     28  C   UNL     1      -1.691   1.534  -0.735  1.00  0.00    -0.042 A 
ATOM     29  C   UNL     1      -2.723   1.813  -2.490  1.00  0.00     0.004 A 
ATOM     30  C   UNL     1      -1.853   2.460  -3.926  1.00  0.00     0.000 A 
ATOM     31  C   UNL     1       0.852   2.243  -2.334  1.00  0.00     0.010 A 
ATOM     32  C   UNL     1      -0.120   2.662  -3.816  1.00  0.00     0.001 A 
ENDBRANCH  12  26
ENDBRANCH   9  11
ENDBRANCH   8   9
ENDBRANCH   7   8
ENDBRANCH   6   7
ENDBRANCH   5   6
ENDBRANCH   4   5
ENDBRANCH   3   4
ENDBRANCH   2   3
ENDBRANCH   1   2
BRANCH   1  33
ATOM     33  C   UNL     1      -0.104  -0.846   1.287  1.00  0.00     0.188 C 
BRANCH  33  34
ATOM     34  O   UNL     1      -1.485  -0.873   1.219  1.00  0.00    -0.376 OA
BRANCH  34  35
ATOM     35  C   UNL     1      -2.295  -1.017   2.366  1.00  0.00     0.202 C 
BRANCH  35  36
ATOM     36  C   UNL     1      -3.238  -2.050   1.785  1.00  0.00     0.261 C 
BRANCH  36  37
ATOM     37  O   UNL     1      -4.026  -1.352   0.719  1.00  0.00    -0.460 OA
BRANCH  37  38
ATOM     38  C   UNL     1      -3.572  -1.424  -0.581  1.00  0.00     0.338 C 
ATOM     39  O   UNL     1      -3.134  -2.466  -1.060  1.00  0.00    -0.246 OA
BRANCH  38  40
ATOM     40  C   UNL     1      -3.394  -0.063  -1.316  1.00  0.00     0.060 A 
ATOM     41  C   UNL     1      -1.922  -0.138  -2.157  1.00  0.00     0.016 A 
ATOM     42  C   UNL     1      -4.123   1.489  -0.837  1.00  0.00     0.016 A 
ATOM     43  C   UNL     1      -0.974   1.360  -2.409  1.00  0.00     0.010 A 
ATOM     44  C   UNL     1      -3.293   3.086  -1.018  1.00  0.00     0.010 A 
ATOM     45  C   UNL     1      -1.598   3.203  -1.760  1.00  0.00    -0.014 A 
BRANCH  45  46
ATOM     46  C   UNL     1      -1.013   4.976  -1.054  1.00  0.00     0.031 A 
ATOM     47  C   UNL     1      -2.256   5.913  -1.405  1.00  0.00     0.074 A 
ATOM     48  C   UNL     1       0.697   5.398  -0.573  1.00  0.00     0.049 A 
ATOM     49  N   UNL     1      -2.237   7.136  -1.043  1.00  0.00    -0.248 NA
ATOM     50  C   UNL     1      -3.416   5.696  -2.292  1.00  0.00     0.031 C 
ATOM     51  C   UNL     1       1.871   6.586  -0.086  1.00  0.00     0.029 A 
ATOM     52  N   UNL     1       2.040   4.555  -0.902  1.00  0.00    -0.354 N 
ATOM     53  C   UNL     1      -3.141   7.887  -1.673  1.00  0.00     0.074 A 
ATOM     54  C   UNL     1      -3.972   6.923  -2.343  1.00  0.00     0.031 C 
ATOM     55  C   UNL     1       3.172   6.265  -0.270  1.00  0.00     0.029 A 
ATOM     56  C   UNL     1       3.297   5.045  -1.021  1.00  0.00     0.049 A 
ATOM     57  H   UNL     1       1.931   3.584  -1.028  1.00  0.00     0.167 HD
ATOM     58  C   UNL     1      -3.060   9.174  -1.272  1.00  0.00     0.034 A 
ATOM     59  C   UNL     1       4.040   4.755  -2.136  1.00  0.00     0.034 A 
ATOM     60  C   UNL     1      -1.596   9.597  -0.994  1.00  0.00     0.049 A 
ATOM     61  C   UNL     1       3.853   6.179  -2.830  1.00  0.00     0.074 A 
ATOM     62  C   UNL     1      -0.868   9.915   0.145  1.00  0.00     0.029 A 
ATOM     63  N   UNL     1      -0.576   9.450  -1.993  1.00  0.00    -0.354 N 
ATOM     64  N   UNL     1       2.729   6.894  -2.801  1.00  0.00    -0.248 NA
ATOM     65  C   UNL     1       4.987   7.072  -3.057  1.00  0.00     0.031 C 
ATOM     66  C   UNL     1       0.562   9.826  -0.153  1.00  0.00     0.029 A 
ATOM     67  C   UNL     1       0.777   9.429  -1.490  1.00  0.00     0.049 A 
ATOM     68  H   UNL     1      -0.784   9.370  -2.952  1.00  0.00     0.167 HD
ATOM     69  C   UNL     1       2.952   8.291  -2.716  1.00  0.00     0.074 A 
ATOM     70  C   UNL     1       4.421   8.300  -2.961  1.00  0.00     0.031 C 
ATOM     71  C   UNL     1       2.060   9.379  -2.409  1.00  0.00     0.034 A 
BRANCH  58  72
ATOM     72  C   UNL     1      -4.356   9.795  -0.765  1.00  0.00     0.023 A 
ATOM     73  C   UNL     1      -4.269  11.060  -0.170  1.00  0.00     0.012 A 
ATOM     74  C   UNL     1      -5.655   9.182  -0.741  1.00  0.00     0.148 A 
ATOM     75  C   UNL     1      -5.399  11.715   0.342  1.00  0.00     0.002 A 
ATOM     76  C   UNL     1      -6.792   9.871  -0.315  1.00  0.00     0.091 A 
ATOM     77  F   UNL     1      -5.808   7.886  -1.030  1.00  0.00    -0.205 F 
ATOM     78  C   UNL     1      -6.663  11.143   0.234  1.00  0.00     0.022 A 
BRANCH  76  79
ATOM     79  S   UNL     1      -8.468   9.216  -0.504  1.00  0.00     0.127 S 
ATOM     80  O   UNL     1      -8.939   9.143   0.879  1.00  0.00    -0.237 OA
ATOM     81  O   UNL     1      -9.112  10.254  -1.310  1.00  0.00    -0.237 OA
ATOM     82  O   UNL     1      -8.341   7.927  -1.177  1.00  0.00    -0.744 OA
ENDBRANCH  76  79
ENDBRANCH  58  72
BRANCH  59  83
ATOM     83  C   UNL     1       4.077   3.174  -2.560  1.00  0.00     0.023 A 
ATOM     84  C   UNL     1       4.372   2.277  -1.488  1.00  0.00     0.012 A 
ATOM     85  C   UNL     1       3.641   2.435  -3.697  1.00  0.00     0.148 A 
ATOM     86  C   UNL     1       3.950   0.924  -1.339  1.00  0.00     0.002 A 
ATOM     87  C   UNL     1       3.256   1.019  -3.595  1.00  0.00     0.091 A 
ATOM     88  F   UNL     1       3.451   3.098  -4.841  1.00  0.00    -0.205 F 
ATOM     89  C   UNL     1       3.321   0.307  -2.385  1.00  0.00     0.022 A 
BRANCH  87  90
ATOM     90  S   UNL     1       2.351   0.107  -4.895  1.00  0.00     0.127 S 
ATOM     91  O   UNL     1       3.409  -0.735  -5.448  1.00  0.00    -0.237 OA
ATOM     92  O   UNL     1       1.330  -0.640  -4.156  1.00  0.00    -0.237 OA
ATOM     93  O   UNL     1       1.833   1.143  -5.774  1.00  0.00    -0.744 OA
ENDBRANCH  87  90
ENDBRANCH  59  83
BRANCH  71  94
ATOM     94  C   UNL     1       2.198  10.676  -3.226  1.00  0.00     0.023 A 
ATOM     95  C   UNL     1       3.125  10.798  -4.270  1.00  0.00     0.012 A 
ATOM     96  C   UNL     1       1.207  11.700  -3.152  1.00  0.00     0.148 A 
ATOM     97  C   UNL     1       3.078  11.848  -5.185  1.00  0.00     0.002 A 
ATOM     98  C   UNL     1       1.062  12.638  -4.159  1.00  0.00     0.091 A 
ATOM     99  F   UNL     1       0.398  11.815  -2.094  1.00  0.00    -0.205 F 
ATOM    100  C   UNL     1       2.016  12.736  -5.162  1.00  0.00     0.022 A 
BRANCH  98 101
ATOM    101  S   UNL     1      -0.427  13.637  -4.295  1.00  0.00     0.127 S 
ATOM    102  O   UNL     1       0.038  14.923  -3.782  1.00  0.00    -0.237 OA
ATOM    103  O   UNL     1      -0.679  13.604  -5.737  1.00  0.00    -0.237 OA
ATOM    104  O   UNL     1      -1.438  12.954  -3.500  1.00  0.00    -0.744 OA
ENDBRANCH  98 101
ENDBRANCH  71  94
ENDBRANCH  45  46
ENDBRANCH  38  40
ENDBRANCH  37  38
ENDBRANCH  36  37
ENDBRANCH  35  36
ENDBRANCH  34  35
ENDBRANCH  33  34
ENDBRANCH   1  33
TORSDOF 24
