REMARK SMILES CCCCc1cc(S(F)(F)(F)(F)F)cc2c1O[C@@H](C(F)(F)F)C(C(=O)OCCOCCOCCOCCOC(=O)c1ccc(-c3c4nc(c(-c5cccc(S(=O)(=O)[O-])c5F)c5ccc([nH]5)c(-c5cccc(S(=O)(=O)[O-])c5F)c5nc(c(-c6cccc(S(=O)(=O)[O-])c6F)c6ccc3[nH]6)C=C5)C=C4)cc1)=C2
REMARK SMILES IDX 32 1 31 2 30 3 29 4 28 5 27 6 26 7 24 8 25 9 23 10 5 11 6 12
REMARK SMILES IDX 16 13 7 14 15 15 17 16 14 17 104 18 18 19 4 20 3 21 2 22
REMARK SMILES IDX 1 23 8 24 9 25 10 26 11 27 12 28 13 29 19 30 20 31 21 32
REMARK SMILES IDX 22 33 33 34 34 35 35 36 36 37 37 38 38 39 39 40 40 41 41 42
REMARK SMILES IDX 42 43 103 44 43 45 102 46 44 47 45 48 46 49 96 50 47 51
REMARK SMILES IDX 101 52 95 53 97 54 48 55 100 56 94 57 93 58 49 60 81 61
REMARK SMILES IDX 61 62 80 63 62 64 65 65 79 66 98 67 63 68 64 69 78 71 99 72
REMARK SMILES IDX 66 73 50 74 51 75 59 76 52 77 54 78 60 79 53 80 55 81 56 82
REMARK SMILES IDX 57 83 58 84 82 85 83 86 91 87 84 88 86 89 92 90 85 91 87 92
REMARK SMILES IDX 88 93 89 94 90 95 67 96 68 97 76 98 69 99 71 100 77 101
REMARK SMILES IDX 70 102 72 103 73 104 74 105 75 106
REMARK H PARENT 97 59 65 70
REMARK Flexibility Score: inf
ROOT
ATOM      1  O   UNL     1      -5.763  -7.024  -3.683  1.00  0.00    -0.377 OA
ENDROOT
BRANCH   1   2
ATOM      2  C   UNL     1      -4.392  -7.259  -3.967  1.00  0.00     0.188 C 
BRANCH   2   3
ATOM      3  C   UNL     1      -3.725  -7.894  -2.758  1.00  0.00     0.188 C 
BRANCH   3   4
ATOM      4  O   UNL     1      -4.364  -9.126  -2.457  1.00  0.00    -0.376 OA
BRANCH   4   5
ATOM      5  C   UNL     1      -5.736  -8.891  -2.173  1.00  0.00     0.202 C 
BRANCH   5   6
ATOM      6  C   UNL     1      -5.853  -7.955  -0.981  1.00  0.00     0.261 C 
BRANCH   6   7
ATOM      7  O   UNL     1      -5.214  -6.723  -1.281  1.00  0.00    -0.460 OA
BRANCH   7   8
ATOM      8  C   UNL     1      -3.830  -6.701  -1.600  1.00  0.00     0.338 C 
ATOM      9  O   UNL     1      -3.164  -7.783  -1.617  1.00  0.00    -0.246 OA
BRANCH   8  10
ATOM     10  C   UNL     1      -3.146  -5.382  -1.922  1.00  0.00     0.087 C 
ATOM     11  C   UNL     1      -1.097  -1.764  -2.322  1.00  0.00    -0.004 A 
ATOM     12  C   UNL     1      -1.802  -0.588  -2.506  1.00  0.00     0.032 A 
ATOM     13  C   UNL     1      -1.798  -2.932  -2.140  1.00  0.00     0.131 A 
ATOM     14  C   UNL     1      -3.172  -0.580  -2.502  1.00  0.00     0.108 A 
ATOM     15  C   UNL     1      -3.180  -2.965  -2.149  1.00  0.00     0.019 A 
ATOM     16  O   UNL     1      -1.087  -4.070  -1.847  1.00  0.00    -0.475 OA
ATOM     17  C   UNL     1      -3.858  -1.765  -2.331  1.00  0.00     0.036 A 
ATOM     18  C   UNL     1      -3.828  -4.243  -1.908  1.00  0.00     0.027 C 
ATOM     19  C   UNL     1      -1.663  -5.338  -2.267  1.00  0.00     0.316 C 
BRANCH  11  20
ATOM     20  C   UNL     1       0.423  -1.764  -2.322  1.00  0.00     0.039 C 
BRANCH  20  21
ATOM     21  C   UNL     1       0.929  -0.339  -2.478  1.00  0.00     0.005 C 
BRANCH  21  22
ATOM     22  C   UNL     1       0.423   0.508  -1.322  1.00  0.00    -0.003 C 
ATOM     23  C   UNL     1       0.929  -0.070  -0.010  1.00  0.00     0.004 C 
ENDBRANCH  21  22
ENDBRANCH  20  21
ENDBRANCH  11  20
BRANCH  14  24
ATOM     24  S   UNL     1      -4.076   0.973  -2.720  1.00  0.00     0.310 S 
ATOM     25  F   UNL     1      -4.546   0.991  -1.206  1.00  0.00    -0.094 F 
ATOM     26  F   UNL     1      -5.383   0.154  -3.044  1.00  0.00    -0.094 F 
ATOM     27  F   UNL     1      -4.837   2.316  -2.909  1.00  0.00    -0.094 F 
ATOM     28  F   UNL     1      -2.796   1.773  -2.256  1.00  0.00    -0.094 F 
ATOM     29  F   UNL     1      -3.321  -0.383  -2.415  1.00  0.00    -0.094 F 
ENDBRANCH  14  24
BRANCH  19  30
ATOM     30  C   UNL     1      -0.952  -6.470  -1.543  1.00  0.00     0.430 C 
ATOM     31  F   UNL     1      -1.470  -7.634  -1.923  1.00  0.00    -0.167 F 
ATOM     32  F   UNL     1       0.343  -6.442  -1.841  1.00  0.00    -0.167 F 
ATOM     33  F   UNL     1      -1.108  -6.324  -0.230  1.00  0.00    -0.167 F 
ENDBRANCH  19  30
ENDBRANCH   8  10
ENDBRANCH   7   8
ENDBRANCH   6   7
ENDBRANCH   5   6
ENDBRANCH   4   5
ENDBRANCH   3   4
ENDBRANCH   2   3
ENDBRANCH   1   2
BRANCH   1  34
ATOM     34  C   UNL     1      -6.402  -8.256  -3.382  1.00  0.00     0.188 C 
BRANCH  34  35
ATOM     35  C   UNL     1      -6.285  -9.191  -4.575  1.00  0.00     0.188 C 
BRANCH  35  36
ATOM     36  O   UNL     1      -4.914  -9.427  -4.859  1.00  0.00    -0.376 OA
BRANCH  36  37
ATOM     37  C   UNL     1      -4.275  -8.195  -5.159  1.00  0.00     0.202 C 
BRANCH  37  38
ATOM     38  C   UNL     1      -4.942  -7.560  -6.369  1.00  0.00     0.261 C 
BRANCH  38  39
ATOM     39  O   UNL     1      -6.313  -7.325  -6.085  1.00  0.00    -0.460 OA
BRANCH  39  40
ATOM     40  C   UNL     1      -7.166  -8.411  -5.753  1.00  0.00     0.338 C 
ATOM     41  O   UNL     1      -6.702  -9.593  -5.712  1.00  0.00    -0.246 OA
BRANCH  40  42
ATOM     42  C   UNL     1      -8.633  -8.159  -5.449  1.00  0.00     0.060 A 
ATOM     43  C   UNL     1      -9.216  -8.781  -4.357  1.00  0.00     0.016 A 
ATOM     44  C   UNL     1      -9.333  -7.350  -6.235  1.00  0.00     0.016 A 
ATOM     45  C   UNL     1     -10.629  -8.711  -4.343  1.00  0.00     0.010 A 
ATOM     46  C   UNL     1     -10.693  -7.226  -6.079  1.00  0.00     0.010 A 
ATOM     47  C   UNL     1     -11.344  -7.859  -5.056  1.00  0.00    -0.014 A 
BRANCH  47  48
ATOM     48  C   UNL     1     -12.810  -7.596  -4.756  1.00  0.00     0.031 A 
ATOM     49  C   UNL     1     -13.745  -7.869  -5.756  1.00  0.00     0.074 A 
ATOM     50  C   UNL     1     -13.137  -7.103  -3.505  1.00  0.00     0.049 A 
ATOM     51  N   UNL     1     -15.071  -7.744  -5.687  1.00  0.00    -0.248 NA
ATOM     52  C   UNL     1     -13.397  -8.361  -7.098  1.00  0.00     0.031 C 
ATOM     53  C   UNL     1     -12.201  -6.833  -2.487  1.00  0.00     0.029 A 
ATOM     54  N   UNL     1     -14.388  -6.788  -3.021  1.00  0.00    -0.354 N 
ATOM     55  C   UNL     1     -15.631  -8.119  -6.839  1.00  0.00     0.074 A 
ATOM     56  C   UNL     1     -14.561  -8.515  -7.765  1.00  0.00     0.031 C 
ATOM     57  C   UNL     1     -12.876  -6.352  -1.410  1.00  0.00     0.029 A 
ATOM     58  C   UNL     1     -14.245  -6.314  -1.736  1.00  0.00     0.049 A 
ATOM     59  H   UNL     1     -15.237  -6.885  -3.509  1.00  0.00     0.167 HD
ATOM     60  C   UNL     1     -16.991  -8.148  -7.153  1.00  0.00     0.034 A 
ATOM     61  C   UNL     1     -15.240  -5.866  -0.881  1.00  0.00     0.034 A 
ATOM     62  C   UNL     1     -17.989  -7.741  -6.282  1.00  0.00     0.049 A 
ATOM     63  C   UNL     1     -16.596  -5.840  -1.216  1.00  0.00     0.074 A 
ATOM     64  C   UNL     1     -19.365  -7.771  -6.580  1.00  0.00     0.029 A 
ATOM     65  N   UNL     1     -17.844  -7.243  -5.006  1.00  0.00    -0.354 N 
ATOM     66  N   UNL     1     -17.158  -6.252  -2.353  1.00  0.00    -0.248 NA
ATOM     67  C   UNL     1     -17.654  -5.338  -0.330  1.00  0.00     0.031 C 
ATOM     68  C   UNL     1     -20.040  -7.289  -5.502  1.00  0.00     0.029 A 
ATOM     69  C   UNL     1     -19.096  -6.950  -4.513  1.00  0.00     0.049 A 
ATOM     70  H   UNL     1     -16.992  -7.119  -4.528  1.00  0.00     0.167 HD
ATOM     71  C   UNL     1     -18.481  -6.087  -2.297  1.00  0.00     0.074 A 
ATOM     72  C   UNL     1     -18.819  -5.490  -0.998  1.00  0.00     0.031 C 
ATOM     73  C   UNL     1     -19.421  -6.415  -3.276  1.00  0.00     0.034 A 
BRANCH  60  74
ATOM     74  C   UNL     1     -17.399  -8.654  -8.526  1.00  0.00     0.023 A 
ATOM     75  C   UNL     1     -17.186  -9.973  -8.892  1.00  0.00     0.012 A 
ATOM     76  C   UNL     1     -18.065  -7.819  -9.316  1.00  0.00     0.148 A 
ATOM     77  C   UNL     1     -17.468 -10.243 -10.252  1.00  0.00     0.002 A 
ATOM     78  C   UNL     1     -18.429  -8.197 -10.585  1.00  0.00     0.091 A 
ATOM     79  F   UNL     1     -18.383  -6.606  -8.873  1.00  0.00    -0.205 F 
ATOM     80  C   UNL     1     -18.197  -9.468 -11.034  1.00  0.00     0.022 A 
BRANCH  78  81
ATOM     81  S   UNL     1     -19.227  -6.997 -11.680  1.00  0.00     0.127 S 
ATOM     82  O   UNL     1     -18.372  -6.802 -12.934  1.00  0.00    -0.237 OA
ATOM     83  O   UNL     1     -20.611  -7.513 -12.081  1.00  0.00    -0.237 OA
ATOM     84  O   UNL     1     -19.390  -5.503 -10.864  1.00  0.00    -0.744 OA
ENDBRANCH  78  81
ENDBRANCH  60  74
BRANCH  61  85
ATOM     85  C   UNL     1     -14.832  -5.376   0.499  1.00  0.00     0.023 A 
ATOM     86  C   UNL     1     -15.421  -5.923   1.627  1.00  0.00     0.012 A 
ATOM     87  C   UNL     1     -13.996  -4.348   0.588  1.00  0.00     0.148 A 
ATOM     88  C   UNL     1     -15.288  -5.125   2.788  1.00  0.00     0.002 A 
ATOM     89  C   UNL     1     -13.810  -3.700   1.785  1.00  0.00     0.091 A 
ATOM     90  F   UNL     1     -13.332  -3.943  -0.490  1.00  0.00    -0.205 F 
ATOM     91  C   UNL     1     -14.408  -4.150   2.929  1.00  0.00     0.022 A 
BRANCH  89  92
ATOM     92  S   UNL     1     -12.758  -2.228   1.849  1.00  0.00     0.127 S 
ATOM     93  O   UNL     1     -13.580  -1.034   2.339  1.00  0.00    -0.237 OA
ATOM     94  O   UNL     1     -11.593  -2.474   2.811  1.00  0.00    -0.237 OA
ATOM     95  O   UNL     1     -12.147  -1.897   0.286  1.00  0.00    -0.744 OA
ENDBRANCH  89  92
ENDBRANCH  61  85
BRANCH  73  96
ATOM     96  C   UNL     1     -20.889  -6.170  -2.967  1.00  0.00     0.023 A 
ATOM     97  C   UNL     1     -21.316  -4.884  -2.680  1.00  0.00     0.012 A 
ATOM     98  C   UNL     1     -21.737  -7.191  -2.977  1.00  0.00     0.148 A 
ATOM     99  C   UNL     1     -22.617  -4.822  -2.127  1.00  0.00     0.002 A 
ATOM    100  C   UNL     1     -23.033  -7.028  -2.550  1.00  0.00     0.091 A 
ATOM    101  F   UNL     1     -21.328  -8.383  -3.402  1.00  0.00    -0.205 F 
ATOM    102  C   UNL     1     -23.506  -5.796  -2.195  1.00  0.00     0.022 A 
BRANCH 100 103
ATOM    103  S   UNL     1     -24.129  -8.466  -2.459  1.00  0.00     0.127 S 
ATOM    104  O   UNL     1     -24.610  -8.649  -1.018  1.00  0.00    -0.237 OA
ATOM    105  O   UNL     1     -25.335  -8.247  -3.376  1.00  0.00    -0.237 OA
ATOM    106  O   UNL     1     -23.279  -9.863  -2.959  1.00  0.00    -0.744 OA
ENDBRANCH 100 103
ENDBRANCH  73  96
ENDBRANCH  47  48
ENDBRANCH  40  42
ENDBRANCH  39  40
ENDBRANCH  38  39
ENDBRANCH  37  38
ENDBRANCH  36  37
ENDBRANCH  35  36
ENDBRANCH  34  35
ENDBRANCH   1  34
TORSDOF 28
