REMARK SMILES CC(C)(C)SCC(=O)NC1(CC(=O)OCCOCCOCCOCCOC(=O)c2ccc(-c3c4nc(c(-c5cccc(S(=O)(=O)[O-])c5F)c5ccc([nH]5)c(-c5cccc(S(=O)(=O)[O-])c5F)c5nc(c(-c6cccc(S(=O)(=O)[O-])c6F)c6ccc3[nH]6)C=C5)C=C4)cc2)CCC1
REMARK SMILES IDX 19 1 18 2 17 3 16 4 15 5 14 6 12 7 13 8 11 9 10 10 92 11
REMARK SMILES IDX 94 12 93 13 9 14 7 15 8 16 6 18 5 19 2 20 1 21 3 22 4 23
REMARK SMILES IDX 20 24 21 25 22 26 23 27 24 28 25 29 26 30 27 31 28 32 29 33
REMARK SMILES IDX 30 34 91 35 31 36 90 37 32 38 33 39 34 40 84 41 35 42 89 43
REMARK SMILES IDX 83 44 85 45 36 46 88 47 82 48 81 49 37 51 69 52 49 53 68 54
REMARK SMILES IDX 50 55 53 56 67 57 86 58 51 59 52 60 66 62 87 63 54 64 38 65
REMARK SMILES IDX 39 66 47 67 40 68 42 69 48 70 41 71 43 72 44 73 45 74 46 75
REMARK SMILES IDX 70 76 71 77 79 78 72 79 74 80 80 81 73 82 75 83 76 84 77 85
REMARK SMILES IDX 78 86 55 87 56 88 64 89 57 90 59 91 65 92 58 93 60 94 61 95
REMARK SMILES IDX 62 96 63 97
REMARK H PARENT 9 17 85 50 53 61
REMARK Flexibility Score: inf
ROOT
ATOM      1  C   UNL     1       2.303  -7.134   0.539  1.00  0.00     0.188 C 
ENDROOT
BRANCH   1   2
ATOM      2  C   UNL     1       1.088  -7.600  -0.275  1.00  0.00     0.188 C 
BRANCH   2   3
ATOM      3  O   UNL     1       1.103  -8.864  -0.886  1.00  0.00    -0.376 OA
BRANCH   3   4
ATOM      4  C   UNL     1       2.034  -9.191  -1.894  1.00  0.00     0.202 C 
BRANCH   4   5
ATOM      5  C   UNL     1       2.864  -8.203  -2.733  1.00  0.00     0.261 C 
BRANCH   5   6
ATOM      6  O   UNL     1       3.219  -6.919  -2.202  1.00  0.00    -0.463 OA
BRANCH   6   7
ATOM      7  C   UNL     1       2.511  -5.862  -2.679  1.00  0.00     0.308 C 
ATOM      8  O   UNL     1       1.503  -5.969  -3.371  1.00  0.00    -0.252 OA
BRANCH   7   9
ATOM      9  C   UNL     1       3.130  -4.519  -2.372  1.00  0.00     0.151 C 
BRANCH   9  10
ATOM     10  C   UNL     1       3.461  -4.091  -0.934  1.00  0.00     0.051 C 
ATOM     11  C   UNL     1       4.186  -2.707  -0.819  1.00  0.00     0.029 C 
ATOM     12  C   UNL     1       4.809  -4.702  -0.389  1.00  0.00     0.029 C 
ATOM     13  C   UNL     1       5.534  -3.445  -0.892  1.00  0.00     0.005 C 
BRANCH  10  14
ATOM     14  N   UNL     1       2.387  -4.213   0.093  1.00  0.00    -0.349 N 
ATOM     15  C   UNL     1       1.028  -4.109   0.102  1.00  0.00     0.230 C 
ATOM     16  O   UNL     1       0.433  -4.529   1.102  1.00  0.00    -0.274 OA
ATOM     17  H   UNL     1       2.749  -4.419   0.985  1.00  0.00     0.164 HD
BRANCH  15  18
ATOM     18  C   UNL     1       0.255  -3.517  -1.039  1.00  0.00     0.169 C 
BRANCH  18  19
ATOM     19  S   UNL     1       0.714  -1.784  -1.325  1.00  0.00    -0.146 SA
BRANCH  19  20
ATOM     20  C   UNL     1       0.196  -0.924   0.235  1.00  0.00     0.008 C 
ATOM     21  C   UNL     1       0.665   0.523   0.022  1.00  0.00     0.022 C 
ATOM     22  C   UNL     1       0.855  -1.436   1.524  1.00  0.00     0.022 C 
ATOM     23  C   UNL     1      -1.329  -0.971   0.376  1.00  0.00     0.022 C 
ENDBRANCH  19  20
ENDBRANCH  18  19
ENDBRANCH  15  18
ENDBRANCH  10  14
ENDBRANCH   9  10
ENDBRANCH   7   9
ENDBRANCH   6   7
ENDBRANCH   5   6
ENDBRANCH   4   5
ENDBRANCH   3   4
ENDBRANCH   2   3
ENDBRANCH   1   2
BRANCH   1  24
ATOM     24  O   UNL     1       3.355  -7.946   0.998  1.00  0.00    -0.377 OA
BRANCH  24  25
ATOM     25  C   UNL     1       3.093  -9.274   1.362  1.00  0.00     0.188 C 
BRANCH  25  26
ATOM     26  C   UNL     1       1.865  -9.585   2.223  1.00  0.00     0.188 C 
BRANCH  26  27
ATOM     27  O   UNL     1       0.985  -8.491   2.417  1.00  0.00    -0.376 OA
BRANCH  27  28
ATOM     28  C   UNL     1       0.965  -7.879   3.698  1.00  0.00     0.202 C 
BRANCH  28  29
ATOM     29  C   UNL     1       2.214  -7.104   4.151  1.00  0.00     0.261 C 
BRANCH  29  30
ATOM     30  O   UNL     1       3.462  -7.804   4.070  1.00  0.00    -0.460 OA
BRANCH  30  31
ATOM     31  C   UNL     1       3.634  -8.862   4.889  1.00  0.00     0.338 C 
ATOM     32  O   UNL     1       2.836  -9.309   5.696  1.00  0.00    -0.246 OA
BRANCH  31  33
ATOM     33  C   UNL     1       4.896  -9.513   4.493  1.00  0.00     0.060 A 
ATOM     34  C   UNL     1       4.847 -10.807   3.956  1.00  0.00     0.016 A 
ATOM     35  C   UNL     1       6.111  -8.831   4.597  1.00  0.00     0.016 A 
ATOM     36  C   UNL     1       6.014 -11.415   3.501  1.00  0.00     0.010 A 
ATOM     37  C   UNL     1       7.287  -9.461   4.186  1.00  0.00     0.010 A 
ATOM     38  C   UNL     1       7.242 -10.763   3.655  1.00  0.00    -0.014 A 
BRANCH  38  39
ATOM     39  C   UNL     1       8.489 -11.539   3.483  1.00  0.00     0.031 A 
ATOM     40  C   UNL     1       9.085 -12.176   4.705  1.00  0.00     0.074 A 
ATOM     41  C   UNL     1       9.065 -11.692   2.279  1.00  0.00     0.049 A 
ATOM     42  N   UNL     1      10.172 -12.889   4.824  1.00  0.00    -0.248 NA
ATOM     43  C   UNL     1       8.351 -11.979   5.968  1.00  0.00     0.031 C 
ATOM     44  C   UNL     1       8.565 -11.136   1.023  1.00  0.00     0.029 A 
ATOM     45  N   UNL     1      10.218 -12.347   1.925  1.00  0.00    -0.354 N 
ATOM     46  C   UNL     1      10.267 -13.203   6.173  1.00  0.00     0.074 A 
ATOM     47  C   UNL     1       9.136 -12.594   6.836  1.00  0.00     0.031 C 
ATOM     48  C   UNL     1       9.427 -11.446   0.038  1.00  0.00     0.029 A 
ATOM     49  C   UNL     1      10.549 -12.197   0.600  1.00  0.00     0.049 A 
ATOM     50  H   UNL     1      10.756 -12.873   2.560  1.00  0.00     0.167 HD
ATOM     51  C   UNL     1      11.208 -13.942   6.804  1.00  0.00     0.034 A 
ATOM     52  C   UNL     1      11.649 -12.597  -0.070  1.00  0.00     0.034 A 
ATOM     53  C   UNL     1      12.333 -14.538   6.140  1.00  0.00     0.049 A 
ATOM     54  C   UNL     1      12.709 -13.380   0.662  1.00  0.00     0.074 A 
ATOM     55  C   UNL     1      13.329 -15.331   6.679  1.00  0.00     0.029 A 
ATOM     56  N   UNL     1      12.625 -14.386   4.793  1.00  0.00    -0.354 N 
ATOM     57  N   UNL     1      12.737 -13.761   1.917  1.00  0.00    -0.248 NA
ATOM     58  C   UNL     1      13.874 -13.817  -0.121  1.00  0.00     0.031 C 
ATOM     59  C   UNL     1      14.247 -15.623   5.665  1.00  0.00     0.029 A 
ATOM     60  C   UNL     1      13.796 -15.055   4.484  1.00  0.00     0.049 A 
ATOM     61  H   UNL     1      12.079 -13.877   4.151  1.00  0.00     0.167 HD
ATOM     62  C   UNL     1      13.899 -14.512   2.065  1.00  0.00     0.074 A 
ATOM     63  C   UNL     1      14.539 -14.545   0.766  1.00  0.00     0.031 C 
ATOM     64  C   UNL     1      14.396 -15.114   3.175  1.00  0.00     0.034 A 
BRANCH  51  65
ATOM     65  C   UNL     1      11.055 -14.133   8.290  1.00  0.00     0.023 A 
ATOM     66  C   UNL     1      10.014 -14.939   8.794  1.00  0.00     0.012 A 
ATOM     67  C   UNL     1      11.955 -13.525   9.186  1.00  0.00     0.148 A 
ATOM     68  C   UNL     1       9.845 -15.103  10.168  1.00  0.00     0.002 A 
ATOM     69  C   UNL     1      11.811 -13.734  10.552  1.00  0.00     0.091 A 
ATOM     70  F   UNL     1      12.920 -12.739   8.689  1.00  0.00    -0.205 F 
ATOM     71  C   UNL     1      10.749 -14.509  11.046  1.00  0.00     0.022 A 
BRANCH  69  72
ATOM     72  S   UNL     1      12.969 -13.079  11.757  1.00  0.00     0.127 S 
ATOM     73  O   UNL     1      12.157 -12.064  12.426  1.00  0.00    -0.237 OA
ATOM     74  O   UNL     1      13.264 -14.259  12.571  1.00  0.00    -0.237 OA
ATOM     75  O   UNL     1      14.100 -12.570  10.994  1.00  0.00    -0.744 OA
ENDBRANCH  69  72
ENDBRANCH  51  65
BRANCH  52  76
ATOM     76  C   UNL     1      11.796 -12.275  -1.519  1.00  0.00     0.023 A 
ATOM     77  C   UNL     1      11.746 -13.307  -2.475  1.00  0.00     0.012 A 
ATOM     78  C   UNL     1      11.968 -10.946  -1.952  1.00  0.00     0.148 A 
ATOM     79  C   UNL     1      11.892 -13.025  -3.834  1.00  0.00     0.002 A 
ATOM     80  C   UNL     1      12.055 -10.665  -3.310  1.00  0.00     0.091 A 
ATOM     81  F   UNL     1      12.028  -9.980  -1.025  1.00  0.00    -0.205 F 
ATOM     82  C   UNL     1      12.036 -11.704  -4.252  1.00  0.00     0.022 A 
BRANCH  80  83
ATOM     83  S   UNL     1      12.114  -8.987  -3.948  1.00  0.00     0.127 S 
ATOM     84  O   UNL     1      13.446  -8.939  -4.545  1.00  0.00    -0.237 OA
ATOM     85  O   UNL     1      11.008  -8.994  -4.907  1.00  0.00    -0.237 OA
ATOM     86  O   UNL     1      11.909  -8.117  -2.798  1.00  0.00    -0.744 OA
ENDBRANCH  80  83
ENDBRANCH  52  76
BRANCH  64  87
ATOM     87  C   UNL     1      15.671 -15.906   3.034  1.00  0.00     0.023 A 
ATOM     88  C   UNL     1      16.899 -15.245   2.835  1.00  0.00     0.012 A 
ATOM     89  C   UNL     1      15.657 -17.308   3.182  1.00  0.00     0.148 A 
ATOM     90  C   UNL     1      18.088 -15.969   2.750  1.00  0.00     0.002 A 
ATOM     91  C   UNL     1      16.851 -18.017   3.151  1.00  0.00     0.091 A 
ATOM     92  F   UNL     1      14.477 -17.920   3.356  1.00  0.00    -0.205 F 
ATOM     93  C   UNL     1      18.065 -17.352   2.920  1.00  0.00     0.022 A 
BRANCH  91  94
ATOM     94  S   UNL     1      16.931 -19.785   3.462  1.00  0.00     0.127 S 
ATOM     95  O   UNL     1      17.273 -20.304   2.139  1.00  0.00    -0.237 OA
ATOM     96  O   UNL     1      18.006 -19.876   4.450  1.00  0.00    -0.237 OA
ATOM     97  O   UNL     1      15.617 -20.167   3.960  1.00  0.00    -0.744 OA
ENDBRANCH  91  94
ENDBRANCH  64  87
ENDBRANCH  38  39
ENDBRANCH  31  33
ENDBRANCH  30  31
ENDBRANCH  29  30
ENDBRANCH  28  29
ENDBRANCH  27  28
ENDBRANCH  26  27
ENDBRANCH  25  26
ENDBRANCH  24  25
ENDBRANCH   1  24
TORSDOF 28
