REMARK SMILES Nc1ccc([C@H]([NH3+])C(=O)OCCOCCOCCOCCOC(=O)c2ccc(-c3c4nc(c(-c5cccc(S(=O)(=O)[O-])c5F)c5ccc([nH]5)c(-c5cccc(S(=O)(=O)[O-])c5F)c5nc(c(-c6cccc(S(=O)(=O)[O-])c6F)c6ccc3[nH]6)C=C5)C=C4)cc2)cc1C(F)(F)F
REMARK SMILES IDX 17 1 16 2 15 3 14 4 13 5 12 6 11 7 10 8 8 9 9 10 6 11 5 12
REMARK SMILES IDX 2 13 3 14 89 15 4 16 88 17 1 18 90 21 91 22 92 23 93 24 7 25
REMARK SMILES IDX 18 29 19 30 20 31 21 32 22 33 23 34 24 35 25 36 26 37 87 38
REMARK SMILES IDX 27 39 86 40 28 41 29 42 30 43 80 44 31 45 85 46 79 47 81 48
REMARK SMILES IDX 32 49 84 50 78 51 77 52 33 54 65 55 45 56 64 57 46 58 49 59
REMARK SMILES IDX 63 60 82 61 47 62 48 63 62 65 83 66 50 67 34 68 35 69 43 70
REMARK SMILES IDX 36 71 38 72 44 73 37 74 39 75 40 76 41 77 42 78 66 79 67 80
REMARK SMILES IDX 75 81 68 82 70 83 76 84 69 85 71 86 72 87 73 88 74 89 51 90
REMARK SMILES IDX 52 91 60 92 53 93 55 94 61 95 54 96 56 97 57 98 58 99 59 100
REMARK H PARENT 1 19 1 20 7 26 7 27 7 28 81 53 49 64
REMARK Flexibility Score: inf
ROOT
ATOM      1  C   UNL     1      -1.374  -1.922   4.065  1.00  0.00     0.188 C 
ENDROOT
BRANCH   1   2
ATOM      2  O   UNL     1      -2.076  -1.494   2.905  1.00  0.00    -0.377 OA
BRANCH   2   3
ATOM      3  C   UNL     1      -2.245  -0.099   2.776  1.00  0.00     0.188 C 
BRANCH   3   4
ATOM      4  C   UNL     1      -3.655   0.409   3.122  1.00  0.00     0.188 C 
BRANCH   4   5
ATOM      5  O   UNL     1      -4.595  -0.396   3.827  1.00  0.00    -0.376 OA
BRANCH   5   6
ATOM      6  C   UNL     1      -4.725  -1.789   3.580  1.00  0.00     0.202 C 
BRANCH   6   7
ATOM      7  C   UNL     1      -4.875  -2.357   2.161  1.00  0.00     0.261 C 
BRANCH   7   8
ATOM      8  O   UNL     1      -4.124  -1.697   1.138  1.00  0.00    -0.459 OA
BRANCH   8   9
ATOM      9  C   UNL     1      -4.802  -0.751   0.436  1.00  0.00     0.369 C 
ATOM     10  O   UNL     1      -5.982  -0.462   0.617  1.00  0.00    -0.245 OA
BRANCH   9  11
ATOM     11  C   UNL     1      -3.950  -0.118  -0.684  1.00  0.00     0.323 C 
BRANCH  11  12
ATOM     12  C   UNL     1      -4.152  -0.878  -1.962  1.00  0.00     0.021 A 
ATOM     13  C   UNL     1      -4.660  -2.344  -4.304  1.00  0.00     0.044 A 
ATOM     14  C   UNL     1      -4.955  -0.974  -4.224  1.00  0.00     0.026 A 
ATOM     15  C   UNL     1      -4.098  -2.989  -3.194  1.00  0.00     0.079 A 
ATOM     16  C   UNL     1      -4.698  -0.242  -3.070  1.00  0.00     0.013 A 
ATOM     17  C   UNL     1      -3.826  -2.240  -2.040  1.00  0.00     0.025 A 
BRANCH  13  18
ATOM     18  N   UNL     1      -5.051  -3.029  -5.443  1.00  0.00    -0.398 N 
ATOM     19  H   UNL     1      -5.442  -2.538  -6.202  1.00  0.00     0.156 HD
ATOM     20  H   UNL     1      -4.938  -4.005  -5.494  1.00  0.00     0.156 HD
ENDBRANCH  13  18
BRANCH  15  21
ATOM     21  C   UNL     1      -3.774  -4.463  -3.137  1.00  0.00     0.418 C 
ATOM     22  F   UNL     1      -2.460  -4.679  -2.858  1.00  0.00    -0.166 F 
ATOM     23  F   UNL     1      -4.479  -5.095  -2.157  1.00  0.00    -0.166 F 
ATOM     24  F   UNL     1      -4.036  -5.140  -4.290  1.00  0.00    -0.166 F 
ENDBRANCH  15  21
ENDBRANCH  11  12
BRANCH  11  25
ATOM     25  N   UNL     1      -2.509   0.005  -0.408  1.00  0.00    -0.342 N 
ATOM     26  H   UNL     1      -2.098  -0.925  -0.324  1.00  0.00     0.345 HD
ATOM     27  H   UNL     1      -2.372   0.517   0.463  1.00  0.00     0.345 HD
ATOM     28  H   UNL     1      -2.058   0.507  -1.173  1.00  0.00     0.345 HD
ENDBRANCH  11  25
ENDBRANCH   9  11
ENDBRANCH   8   9
ENDBRANCH   7   8
ENDBRANCH   6   7
ENDBRANCH   5   6
ENDBRANCH   4   5
ENDBRANCH   3   4
ENDBRANCH   2   3
ENDBRANCH   1   2
BRANCH   1  29
ATOM     29  C   UNL     1      -1.706  -1.213   5.399  1.00  0.00     0.188 C 
BRANCH  29  30
ATOM     30  O   UNL     1      -1.686   0.208   5.345  1.00  0.00    -0.376 OA
BRANCH  30  31
ATOM     31  C   UNL     1      -0.510   0.904   5.732  1.00  0.00     0.202 C 
BRANCH  31  32
ATOM     32  C   UNL     1       0.784   0.686   4.928  1.00  0.00     0.261 C 
BRANCH  32  33
ATOM     33  O   UNL     1       1.252  -0.664   4.813  1.00  0.00    -0.460 OA
BRANCH  33  34
ATOM     34  C   UNL     1       1.509  -1.339   5.952  1.00  0.00     0.338 C 
ATOM     35  O   UNL     1       1.452  -0.902   7.090  1.00  0.00    -0.246 OA
BRANCH  34  36
ATOM     36  C   UNL     1       1.664  -2.767   5.606  1.00  0.00     0.060 A 
ATOM     37  C   UNL     1       0.806  -3.703   6.202  1.00  0.00     0.016 A 
ATOM     38  C   UNL     1       2.637  -3.181   4.694  1.00  0.00     0.016 A 
ATOM     39  C   UNL     1       0.951  -5.060   5.923  1.00  0.00     0.010 A 
ATOM     40  C   UNL     1       2.798  -4.545   4.436  1.00  0.00     0.010 A 
ATOM     41  C   UNL     1       1.983  -5.491   5.082  1.00  0.00    -0.014 A 
BRANCH  41  42
ATOM     42  C   UNL     1       2.349  -6.927   5.054  1.00  0.00     0.031 A 
ATOM     43  C   UNL     1       3.502  -7.380   5.907  1.00  0.00     0.074 A 
ATOM     44  C   UNL     1       1.675  -7.810   4.298  1.00  0.00     0.049 A 
ATOM     45  N   UNL     1       4.039  -8.566   6.016  1.00  0.00    -0.248 NA
ATOM     46  C   UNL     1       4.139  -6.352   6.749  1.00  0.00     0.031 C 
ATOM     47  C   UNL     1       0.531  -7.496   3.446  1.00  0.00     0.029 A 
ATOM     48  N   UNL     1       1.882  -9.154   4.107  1.00  0.00    -0.354 N 
ATOM     49  C   UNL     1       5.096  -8.422   6.906  1.00  0.00     0.074 A 
ATOM     50  C   UNL     1       5.132  -7.032   7.302  1.00  0.00     0.031 C 
ATOM     51  C   UNL     1       0.156  -8.611   2.795  1.00  0.00     0.029 A 
ATOM     52  C   UNL     1       1.052  -9.707   3.162  1.00  0.00     0.049 A 
ATOM     53  H   UNL     1       2.559  -9.671   4.600  1.00  0.00     0.167 HD
ATOM     54  C   UNL     1       5.956  -9.363   7.360  1.00  0.00     0.034 A 
ATOM     55  C   UNL     1       1.040 -10.947   2.633  1.00  0.00     0.034 A 
ATOM     56  C   UNL     1       5.912 -10.745   6.971  1.00  0.00     0.049 A 
ATOM     57  C   UNL     1       2.031 -11.970   3.127  1.00  0.00     0.074 A 
ATOM     58  C   UNL     1       6.709 -11.787   7.410  1.00  0.00     0.029 A 
ATOM     59  N   UNL     1       5.037 -11.276   6.036  1.00  0.00    -0.354 N 
ATOM     60  N   UNL     1       2.958 -11.847   4.046  1.00  0.00    -0.248 NA
ATOM     61  C   UNL     1       1.954 -13.313   2.532  1.00  0.00     0.031 C 
ATOM     62  C   UNL     1       6.345 -12.939   6.706  1.00  0.00     0.029 A 
ATOM     63  C   UNL     1       5.286 -12.627   5.869  1.00  0.00     0.049 A 
ATOM     64  H   UNL     1       4.340 -10.767   5.561  1.00  0.00     0.167 HD
ATOM     65  C   UNL     1       3.545 -13.102   4.170  1.00  0.00     0.074 A 
ATOM     66  C   UNL     1       2.858 -13.976   3.241  1.00  0.00     0.031 C 
ATOM     67  C   UNL     1       4.562 -13.496   4.976  1.00  0.00     0.034 A 
BRANCH  54  68
ATOM     68  C   UNL     1       7.021  -8.924   8.330  1.00  0.00     0.023 A 
ATOM     69  C   UNL     1       6.672  -8.560   9.647  1.00  0.00     0.012 A 
ATOM     70  C   UNL     1       8.377  -8.913   7.947  1.00  0.00     0.148 A 
ATOM     71  C   UNL     1       7.650  -8.155  10.554  1.00  0.00     0.002 A 
ATOM     72  C   UNL     1       9.351  -8.557   8.871  1.00  0.00     0.091 A 
ATOM     73  F   UNL     1       8.686  -9.238   6.684  1.00  0.00    -0.205 F 
ATOM     74  C   UNL     1       8.989  -8.164  10.170  1.00  0.00     0.022 A 
BRANCH  72  75
ATOM     75  S   UNL     1      11.106  -8.616   8.498  1.00  0.00     0.127 S 
ATOM     76  O   UNL     1      11.453  -7.196   8.487  1.00  0.00    -0.237 OA
ATOM     77  O   UNL     1      11.636  -9.364   9.638  1.00  0.00    -0.237 OA
ATOM     78  O   UNL     1      11.223  -9.296   7.216  1.00  0.00    -0.744 OA
ENDBRANCH  72  75
ENDBRANCH  54  68
BRANCH  55  79
ATOM     79  C   UNL     1       0.043 -11.299   1.582  1.00  0.00     0.023 A 
ATOM     80  C   UNL     1      -0.984 -12.218   1.872  1.00  0.00     0.012 A 
ATOM     81  C   UNL     1       0.107 -10.722   0.299  1.00  0.00     0.148 A 
ATOM     82  C   UNL     1      -1.912 -12.579   0.894  1.00  0.00     0.002 A 
ATOM     83  C   UNL     1      -0.853 -11.043  -0.653  1.00  0.00     0.091 A 
ATOM     84  F   UNL     1       1.101  -9.861   0.040  1.00  0.00    -0.205 F 
ATOM     85  C   UNL     1      -1.853 -11.985  -0.364  1.00  0.00     0.022 A 
BRANCH  83  86
ATOM     86  S   UNL     1      -0.926 -10.243  -2.260  1.00  0.00     0.127 S 
ATOM     87  O   UNL     1      -0.621 -11.352  -3.160  1.00  0.00    -0.237 OA
ATOM     88  O   UNL     1      -2.314  -9.782  -2.299  1.00  0.00    -0.237 OA
ATOM     89  O   UNL     1       0.065  -9.177  -2.216  1.00  0.00    -0.744 OA
ENDBRANCH  83  86
ENDBRANCH  55  79
BRANCH  67  90
ATOM     90  C   UNL     1       4.968 -14.948   4.943  1.00  0.00     0.023 A 
ATOM     91  C   UNL     1       5.647 -15.471   3.825  1.00  0.00     0.012 A 
ATOM     92  C   UNL     1       4.747 -15.774   6.064  1.00  0.00     0.148 A 
ATOM     93  C   UNL     1       6.066 -16.802   3.809  1.00  0.00     0.002 A 
ATOM     94  C   UNL     1       5.216 -17.081   6.064  1.00  0.00     0.091 A 
ATOM     95  F   UNL     1       4.087 -15.262   7.114  1.00  0.00    -0.205 F 
ATOM     96  C   UNL     1       5.863 -17.602   4.932  1.00  0.00     0.022 A 
BRANCH  94  97
ATOM     97  S   UNL     1       5.090 -18.152   7.500  1.00  0.00     0.127 S 
ATOM     98  O   UNL     1       4.107 -19.137   7.053  1.00  0.00    -0.237 OA
ATOM     99  O   UNL     1       6.455 -18.665   7.623  1.00  0.00    -0.237 OA
ATOM    100  O   UNL     1       4.662 -17.301   8.602  1.00  0.00    -0.744 OA
ENDBRANCH  94  97
ENDBRANCH  67  90
ENDBRANCH  41  42
ENDBRANCH  34  36
ENDBRANCH  33  34
ENDBRANCH  32  33
ENDBRANCH  31  32
ENDBRANCH  30  31
ENDBRANCH  29  30
ENDBRANCH   1  29
TORSDOF 27
