REMARK SMILES C#CC[N@H+](CC(=O)OCCOCCOCCOCCOC(=O)c1ccc(-c2c3nc(c(-c4cccc(S(=O)(=O)[O-])c4F)c4ccc([nH]4)c(-c4cccc(S(=O)(=O)[O-])c4F)c4nc(c(-c5cccc(S(=O)(=O)[O-])c5F)c5ccc2[nH]5)C=C4)C=C3)cc1)[C@H](C)C(=O)NCCC
REMARK SMILES IDX 13 1 12 2 11 3 10 4 9 5 8 6 6 7 7 8 5 9 4 10 3 12 2 13 1 14
REMARK SMILES IDX 86 15 87 16 88 17 89 18 90 19 91 21 92 22 93 23 14 24 15 25
REMARK SMILES IDX 16 26 17 27 18 28 19 29 20 30 21 31 22 32 23 33 24 34 85 35
REMARK SMILES IDX 25 36 84 37 26 38 27 39 28 40 78 41 29 42 83 43 77 44 79 45
REMARK SMILES IDX 30 46 82 47 76 48 75 49 31 51 63 52 43 53 62 54 44 55 47 56
REMARK SMILES IDX 61 57 80 58 45 59 46 60 60 62 81 63 48 64 32 65 33 66 41 67
REMARK SMILES IDX 34 68 36 69 42 70 35 71 37 72 38 73 39 74 40 75 64 76 65 77
REMARK SMILES IDX 73 78 66 79 68 80 74 81 67 82 69 83 70 84 71 85 72 86 49 87
REMARK SMILES IDX 50 88 58 89 51 90 53 91 59 92 52 93 54 94 55 95 56 96 57 97
REMARK H PARENT 4 11 90 20 79 50 47 61
REMARK Flexibility Score: inf
ROOT
ATOM      1  C   UNL     1      -2.915   4.524  -2.906  1.00  0.00     0.188 C 
ENDROOT
BRANCH   1   2
ATOM      2  C   UNL     1      -4.404   4.795  -3.143  1.00  0.00     0.188 C 
BRANCH   2   3
ATOM      3  O   UNL     1      -4.966   5.942  -2.545  1.00  0.00    -0.376 OA
BRANCH   3   4
ATOM      4  C   UNL     1      -5.446   5.943  -1.210  1.00  0.00     0.202 C 
BRANCH   4   5
ATOM      5  C   UNL     1      -5.402   4.763  -0.223  1.00  0.00     0.261 C 
BRANCH   5   6
ATOM      6  O   UNL     1      -4.524   3.686  -0.533  1.00  0.00    -0.459 OA
BRANCH   6   7
ATOM      7  C   UNL     1      -5.079   2.532  -0.953  1.00  0.00     0.361 C 
ATOM      8  O   UNL     1      -6.288   2.385  -1.129  1.00  0.00    -0.245 OA
BRANCH   7   9
ATOM      9  C   UNL     1      -4.113   1.369  -1.161  1.00  0.00     0.387 C 
BRANCH   9  10
ATOM     10  N   UNL     1      -2.649   1.584  -1.360  1.00  0.00    -0.306 N 
ATOM     11  H   UNL     1      -2.511   2.236  -2.132  1.00  0.00     0.350 HD
BRANCH  10  12
ATOM     12  C   UNL     1      -1.991   2.335  -0.286  1.00  0.00     0.355 C 
BRANCH  12  13
ATOM     13  C   UNL     1      -0.659   2.851  -0.666  1.00  0.00    -0.047 C 
ATOM     14  C   UNL     1       0.438   3.264  -0.955  1.00  0.00     0.010 C 
ENDBRANCH  12  13
ENDBRANCH  10  12
BRANCH  10  15
ATOM     15  C   UNL     1      -2.002   0.293  -1.796  1.00  0.00     0.272 C 
ATOM     16  C   UNL     1      -2.595  -1.028  -1.276  1.00  0.00     0.086 C 
BRANCH  15  17
ATOM     17  C   UNL     1      -0.455   0.206  -1.812  1.00  0.00     0.278 C 
ATOM     18  O   UNL     1       0.167   0.289  -2.878  1.00  0.00    -0.268 OA
ATOM     19  N   UNL     1       0.271  -0.079  -0.682  1.00  0.00    -0.351 N 
ATOM     20  H   UNL     1       1.182  -0.417  -0.835  1.00  0.00     0.163 HD
BRANCH  19  21
ATOM     21  C   UNL     1      -0.126   0.053   0.708  1.00  0.00     0.116 C 
BRANCH  21  22
ATOM     22  C   UNL     1       0.675  -0.775   1.693  1.00  0.00     0.018 C 
ATOM     23  C   UNL     1       2.082  -0.229   1.878  1.00  0.00     0.006 C 
ENDBRANCH  21  22
ENDBRANCH  19  21
ENDBRANCH  15  17
ENDBRANCH  10  15
ENDBRANCH   9  10
ENDBRANCH   7   9
ENDBRANCH   6   7
ENDBRANCH   5   6
ENDBRANCH   4   5
ENDBRANCH   3   4
ENDBRANCH   2   3
ENDBRANCH   1   2
BRANCH   1  24
ATOM     24  O   UNL     1      -2.337   4.975  -1.702  1.00  0.00    -0.377 OA
BRANCH  24  25
ATOM     25  C   UNL     1      -2.211   6.347  -1.391  1.00  0.00     0.188 C 
BRANCH  25  26
ATOM     26  C   UNL     1      -2.363   7.434  -2.468  1.00  0.00     0.188 C 
BRANCH  26  27
ATOM     27  O   UNL     1      -2.362   6.972  -3.805  1.00  0.00    -0.376 OA
BRANCH  27  28
ATOM     28  C   UNL     1      -1.140   7.016  -4.528  1.00  0.00     0.202 C 
BRANCH  28  29
ATOM     29  C   UNL     1       0.102   6.286  -3.978  1.00  0.00     0.261 C 
BRANCH  29  30
ATOM     30  O   UNL     1       0.479   6.571  -2.623  1.00  0.00    -0.460 OA
BRANCH  30  31
ATOM     31  C   UNL     1       0.892   7.825  -2.351  1.00  0.00     0.338 C 
ATOM     32  O   UNL     1       0.979   8.754  -3.134  1.00  0.00    -0.246 OA
BRANCH  31  33
ATOM     33  C   UNL     1       1.060   7.949  -0.888  1.00  0.00     0.060 A 
ATOM     34  C   UNL     1       0.208   8.812  -0.186  1.00  0.00     0.016 A 
ATOM     35  C   UNL     1       2.070   7.253  -0.220  1.00  0.00     0.016 A 
ATOM     36  C   UNL     1       0.402   9.028   1.176  1.00  0.00     0.010 A 
ATOM     37  C   UNL     1       2.276   7.489   1.145  1.00  0.00     0.010 A 
ATOM     38  C   UNL     1       1.475   8.416   1.835  1.00  0.00    -0.014 A 
BRANCH  38  39
ATOM     39  C   UNL     1       1.873   8.921   3.173  1.00  0.00     0.031 A 
ATOM     40  C   UNL     1       3.042   9.867   3.263  1.00  0.00     0.074 A 
ATOM     41  C   UNL     1       1.184   8.594   4.280  1.00  0.00     0.049 A 
ATOM     42  N   UNL     1       3.562  10.444   4.314  1.00  0.00    -0.248 NA
ATOM     43  C   UNL     1       3.714  10.209   1.998  1.00  0.00     0.031 C 
ATOM     44  C   UNL     1       0.024   7.707   4.323  1.00  0.00     0.029 A 
ATOM     45  N   UNL     1       1.377   8.961   5.589  1.00  0.00    -0.354 N 
ATOM     46  C   UNL     1       4.642  11.183   3.845  1.00  0.00     0.074 A 
ATOM     47  C   UNL     1       4.708  10.978   2.416  1.00  0.00     0.031 C 
ATOM     48  C   UNL     1      -0.376   7.575   5.600  1.00  0.00     0.029 A 
ATOM     49  C   UNL     1       0.517   8.343   6.466  1.00  0.00     0.049 A 
ATOM     50  H   UNL     1       2.066   9.605   5.873  1.00  0.00     0.167 HD
ATOM     51  C   UNL     1       5.499  11.968   4.540  1.00  0.00     0.034 A 
ATOM     52  C   UNL     1       0.477   8.370   7.813  1.00  0.00     0.034 A 
ATOM     53  C   UNL     1       5.427  12.180   5.960  1.00  0.00     0.049 A 
ATOM     54  C   UNL     1       1.461   9.231   8.564  1.00  0.00     0.074 A 
ATOM     55  C   UNL     1       6.221  12.996   6.747  1.00  0.00     0.029 A 
ATOM     56  N   UNL     1       4.529  11.556   6.810  1.00  0.00    -0.354 N 
ATOM     57  N   UNL     1       2.413  10.001   8.097  1.00  0.00    -0.248 NA
ATOM     58  C   UNL     1       1.337   9.256  10.029  1.00  0.00     0.031 C 
ATOM     59  C   UNL     1       5.841  12.819   8.080  1.00  0.00     0.029 A 
ATOM     60  C   UNL     1       4.761  11.952   8.116  1.00  0.00     0.049 A 
ATOM     61  H   UNL     1       3.828  10.925   6.527  1.00  0.00     0.167 HD
ATOM     62  C   UNL     1       2.969  10.636   9.203  1.00  0.00     0.074 A 
ATOM     63  C   UNL     1       2.233  10.175  10.361  1.00  0.00     0.031 C 
ATOM     64  C   UNL     1       3.998  11.519   9.257  1.00  0.00     0.034 A 
BRANCH  51  65
ATOM     65  C   UNL     1       6.607  12.648   3.778  1.00  0.00     0.023 A 
ATOM     66  C   UNL     1       6.320  13.710   2.898  1.00  0.00     0.012 A 
ATOM     67  C   UNL     1       7.947  12.271   3.993  1.00  0.00     0.148 A 
ATOM     68  C   UNL     1       7.347  14.367   2.221  1.00  0.00     0.002 A 
ATOM     69  C   UNL     1       8.968  12.964   3.357  1.00  0.00     0.091 A 
ATOM     70  F   UNL     1       8.197  11.243   4.817  1.00  0.00    -0.205 F 
ATOM     71  C   UNL     1       8.670  14.003   2.461  1.00  0.00     0.022 A 
BRANCH  69  72
ATOM     72  S   UNL     1      10.705  12.628   3.666  1.00  0.00     0.127 S 
ATOM     73  O   UNL     1      11.143  12.120   2.366  1.00  0.00    -0.237 OA
ATOM     74  O   UNL     1      11.216  13.956   4.006  1.00  0.00    -0.237 OA
ATOM     75  O   UNL     1      10.743  11.661   4.754  1.00  0.00    -0.744 OA
ENDBRANCH  69  72
ENDBRANCH  51  65
BRANCH  52  76
ATOM     76  C   UNL     1      -0.528   7.553   8.550  1.00  0.00     0.023 A 
ATOM     77  C   UNL     1      -1.543   8.182   9.298  1.00  0.00     0.012 A 
ATOM     78  C   UNL     1      -0.466   6.146   8.527  1.00  0.00     0.148 A 
ATOM     79  C   UNL     1      -2.446   7.426  10.047  1.00  0.00     0.002 A 
ATOM     80  C   UNL     1      -1.407   5.398   9.223  1.00  0.00     0.091 A 
ATOM     81  F   UNL     1       0.515   5.566   7.821  1.00  0.00    -0.205 F 
ATOM     82  C   UNL     1      -2.384   6.035  10.002  1.00  0.00     0.022 A 
BRANCH  80  83
ATOM     83  S   UNL     1      -1.481   3.608   9.117  1.00  0.00     0.127 S 
ATOM     84  O   UNL     1      -1.121   3.212  10.476  1.00  0.00    -0.237 OA
ATOM     85  O   UNL     1      -2.883   3.388   8.760  1.00  0.00    -0.237 OA
ATOM     86  O   UNL     1      -0.532   3.231   8.078  1.00  0.00    -0.744 OA
ENDBRANCH  80  83
ENDBRANCH  52  76
BRANCH  64  87
ATOM     87  C   UNL     1       4.344  12.110  10.602  1.00  0.00     0.023 A 
ATOM     88  C   UNL     1       4.906  11.309  11.617  1.00  0.00     0.012 A 
ATOM     89  C   UNL     1       4.144  13.485  10.841  1.00  0.00     0.148 A 
ATOM     90  C   UNL     1       5.206  11.855  12.865  1.00  0.00     0.002 A 
ATOM     91  C   UNL     1       4.503  14.034  12.066  1.00  0.00     0.091 A 
ATOM     92  F   UNL     1       3.597  14.231   9.870  1.00  0.00    -0.205 F 
ATOM     93  C   UNL     1       5.014  13.217  13.086  1.00  0.00     0.022 A 
BRANCH  91  94
ATOM     94  S   UNL     1       4.387  15.794  12.401  1.00  0.00     0.127 S 
ATOM     95  O   UNL     1       3.269  15.844  13.343  1.00  0.00    -0.237 OA
ATOM     96  O   UNL     1       5.694  16.083  12.991  1.00  0.00    -0.237 OA
ATOM     97  O   UNL     1       4.148  16.435  11.115  1.00  0.00    -0.744 OA
ENDBRANCH  91  94
ENDBRANCH  64  87
ENDBRANCH  38  39
ENDBRANCH  31  33
ENDBRANCH  30  31
ENDBRANCH  29  30
ENDBRANCH  28  29
ENDBRANCH  27  28
ENDBRANCH  26  27
ENDBRANCH  25  26
ENDBRANCH  24  25
ENDBRANCH   1  24
TORSDOF 30
