REMARK SMILES Cc1c(NC(=S)NC(=O)CSc2ccc(Cl)cc2)cccc1C(=O)OCCOCCOCCOCCOC(=O)c1ccc(-c2c3nc(c(-c4cccc(S(=O)(=O)[O-])c4F)c4ccc([nH]4)c(-c4cccc(S(=O)(=O)[O-])c4F)c4nc(c(-c5cccc(S(=O)(=O)[O-])c5F)c5ccc2[nH]5)C=C4)C=C3)cc1
REMARK SMILES IDX 29 1 28 2 27 3 26 4 25 5 23 6 24 7 22 8 1 9 2 10 3 11 19 12
REMARK SMILES IDX 21 13 20 14 4 15 5 17 6 18 7 19 8 20 9 22 10 23 11 24 12 25
REMARK SMILES IDX 13 26 18 27 14 28 17 29 15 30 16 31 30 32 31 33 32 34 33 35
REMARK SMILES IDX 34 36 35 37 36 38 37 39 38 40 39 41 40 42 41 43 102 44 42 45
REMARK SMILES IDX 101 46 43 47 44 48 45 49 95 50 46 51 100 52 94 53 96 54
REMARK SMILES IDX 47 55 99 56 93 57 92 58 48 60 80 61 60 62 79 63 61 64 64 65
REMARK SMILES IDX 78 66 97 67 62 68 63 69 77 71 98 72 65 73 49 74 50 75 58 76
REMARK SMILES IDX 51 77 53 78 59 79 52 80 54 81 55 82 56 83 57 84 81 85 82 86
REMARK SMILES IDX 90 87 83 88 85 89 91 90 84 91 86 92 87 93 88 94 89 95 66 96
REMARK SMILES IDX 67 97 75 98 68 99 70 100 76 101 69 102 71 103 72 104 73 105
REMARK SMILES IDX 74 106
REMARK H PARENT 4 16 7 21 96 59 64 70
REMARK Flexibility Score: inf
ROOT
ATOM      1  C   UNL     1      -1.196   3.095  -2.230  1.00  0.00     0.188 C 
ENDROOT
BRANCH   1   2
ATOM      2  O   UNL     1      -0.757   4.327  -1.671  1.00  0.00    -0.376 OA
BRANCH   2   3
ATOM      3  C   UNL     1       0.245   4.257  -0.661  1.00  0.00     0.202 C 
BRANCH   3   4
ATOM      4  C   UNL     1      -0.184   3.635   0.644  1.00  0.00     0.261 C 
BRANCH   4   5
ATOM      5  O   UNL     1       0.051   2.235   0.531  1.00  0.00    -0.460 OA
BRANCH   5   6
ATOM      6  C   UNL     1      -0.975   1.480   0.955  1.00  0.00     0.338 C 
ATOM      7  O   UNL     1      -1.840   1.758   1.725  1.00  0.00    -0.246 OA
BRANCH   6   8
ATOM      8  C   UNL     1      -1.075   0.388  -0.038  1.00  0.00     0.065 A 
ATOM      9  C   UNL     1       1.383  -0.335   0.021  1.00  0.00     0.047 C 
ATOM     10  C   UNL     1      -0.054  -0.510  -0.383  1.00  0.00    -0.013 A 
ATOM     11  C   UNL     1      -0.476  -1.650  -1.071  1.00  0.00     0.044 A 
ATOM     12  C   UNL     1      -1.692  -1.666  -1.770  1.00  0.00     0.026 A 
ATOM     13  C   UNL     1      -2.336   0.333  -0.660  1.00  0.00     0.016 A 
ATOM     14  C   UNL     1      -2.604  -0.633  -1.613  1.00  0.00     0.003 A 
BRANCH  11  15
ATOM     15  N   UNL     1       0.268  -2.823  -0.905  1.00  0.00    -0.332 N 
ATOM     16  H   UNL     1       1.244  -2.725  -0.981  1.00  0.00     0.169 HD
BRANCH  15  17
ATOM     17  C   UNL     1      -0.177  -4.071  -0.656  1.00  0.00     0.177 C 
ATOM     18  S   UNL     1       0.885  -5.351  -0.844  1.00  0.00    -0.040 S 
BRANCH  17  19
ATOM     19  N   UNL     1      -1.454  -4.356  -0.237  1.00  0.00    -0.302 N 
ATOM     20  C   UNL     1      -2.563  -3.769   0.357  1.00  0.00     0.236 C 
ATOM     21  H   UNL     1      -1.650  -5.302  -0.421  1.00  0.00     0.172 HD
ATOM     22  O   UNL     1      -3.658  -4.281   0.078  1.00  0.00    -0.274 OA
BRANCH  20  23
ATOM     23  C   UNL     1      -2.526  -2.587   1.309  1.00  0.00     0.175 C 
BRANCH  23  24
ATOM     24  S   UNL     1      -1.014  -2.388   2.289  1.00  0.00    -0.116 SA
BRANCH  24  25
ATOM     25  C   UNL     1      -1.771  -1.885   3.816  1.00  0.00     0.008 A 
ATOM     26  C   UNL     1      -2.032  -0.553   4.152  1.00  0.00     0.016 A 
ATOM     27  C   UNL     1      -2.172  -2.905   4.679  1.00  0.00     0.016 A 
ATOM     28  C   UNL     1      -2.728  -0.248   5.328  1.00  0.00     0.021 A 
ATOM     29  C   UNL     1      -2.863  -2.605   5.849  1.00  0.00     0.021 A 
ATOM     30  C   UNL     1      -3.148  -1.279   6.165  1.00  0.00     0.041 A 
ATOM     31  Cl  UNL     1      -4.037  -0.930   7.595  1.00  0.00    -0.084 Cl
ENDBRANCH  24  25
ENDBRANCH  23  24
ENDBRANCH  20  23
ENDBRANCH  17  19
ENDBRANCH  15  17
ENDBRANCH  11  15
ENDBRANCH   6   8
ENDBRANCH   5   6
ENDBRANCH   4   5
ENDBRANCH   3   4
ENDBRANCH   2   3
ENDBRANCH   1   2
BRANCH   1  32
ATOM     32  C   UNL     1      -0.118   2.071  -2.617  1.00  0.00     0.188 C 
BRANCH  32  33
ATOM     33  O   UNL     1       0.681   2.370  -3.738  1.00  0.00    -0.377 OA
BRANCH  33  34
ATOM     34  C   UNL     1       1.077   3.718  -3.861  1.00  0.00     0.188 C 
BRANCH  34  35
ATOM     35  C   UNL     1       0.206   4.494  -4.864  1.00  0.00     0.188 C 
BRANCH  35  36
ATOM     36  O   UNL     1      -0.514   3.714  -5.788  1.00  0.00    -0.376 OA
BRANCH  36  37
ATOM     37  C   UNL     1       0.269   2.703  -6.402  1.00  0.00     0.202 C 
BRANCH  37  38
ATOM     38  C   UNL     1       1.848   2.798  -6.499  1.00  0.00     0.261 C 
BRANCH  38  39
ATOM     39  O   UNL     1       2.530   4.151  -6.662  1.00  0.00    -0.460 OA
BRANCH  39  40
ATOM     40  C   UNL     1       3.522   4.997  -6.190  1.00  0.00     0.338 C 
ATOM     41  O   UNL     1       4.359   5.401  -7.003  1.00  0.00    -0.246 OA
BRANCH  40  42
ATOM     42  C   UNL     1       3.559   5.720  -4.845  1.00  0.00     0.060 A 
ATOM     43  C   UNL     1       4.769   5.942  -4.186  1.00  0.00     0.016 A 
ATOM     44  C   UNL     1       2.486   6.334  -4.223  1.00  0.00     0.016 A 
ATOM     45  C   UNL     1       4.812   6.194  -2.793  1.00  0.00     0.010 A 
ATOM     46  C   UNL     1       2.479   6.456  -2.827  1.00  0.00     0.010 A 
ATOM     47  C   UNL     1       3.632   6.205  -2.079  1.00  0.00    -0.014 A 
BRANCH  47  48
ATOM     48  C   UNL     1       3.482   5.770  -0.665  1.00  0.00     0.031 A 
ATOM     49  C   UNL     1       2.612   6.587   0.286  1.00  0.00     0.074 A 
ATOM     50  C   UNL     1       3.709   4.447  -0.389  1.00  0.00     0.049 A 
ATOM     51  N   UNL     1       2.191   6.203   1.451  1.00  0.00    -0.248 NA
ATOM     52  C   UNL     1       2.070   7.904  -0.050  1.00  0.00     0.031 C 
ATOM     53  C   UNL     1       3.004   3.727   0.658  1.00  0.00     0.029 A 
ATOM     54  N   UNL     1       4.487   3.416  -0.956  1.00  0.00    -0.354 N 
ATOM     55  C   UNL     1       1.114   6.983   1.834  1.00  0.00     0.074 A 
ATOM     56  C   UNL     1       1.144   8.085   0.904  1.00  0.00     0.031 C 
ATOM     57  C   UNL     1       3.293   2.427   0.659  1.00  0.00     0.029 A 
ATOM     58  C   UNL     1       4.528   2.321  -0.063  1.00  0.00     0.049 A 
ATOM     59  H   UNL     1       4.931   3.453  -1.834  1.00  0.00     0.167 HD
ATOM     60  C   UNL     1       0.260   6.547   2.817  1.00  0.00     0.034 A 
ATOM     61  C   UNL     1       5.609   1.804   0.603  1.00  0.00     0.034 A 
ATOM     62  C   UNL     1       0.761   5.318   3.502  1.00  0.00     0.049 A 
ATOM     63  C   UNL     1       5.539   2.074   2.118  1.00  0.00     0.074 A 
ATOM     64  C   UNL     1       0.212   4.087   3.838  1.00  0.00     0.029 A 
ATOM     65  N   UNL     1       2.112   5.221   3.863  1.00  0.00    -0.354 N 
ATOM     66  N   UNL     1       4.701   2.947   2.628  1.00  0.00    -0.248 NA
ATOM     67  C   UNL     1       6.259   1.377   3.182  1.00  0.00     0.031 C 
ATOM     68  C   UNL     1       1.279   3.203   4.189  1.00  0.00     0.029 A 
ATOM     69  C   UNL     1       2.465   3.925   4.204  1.00  0.00     0.049 A 
ATOM     70  H   UNL     1       2.736   5.983   3.872  1.00  0.00     0.167 HD
ATOM     71  C   UNL     1       4.667   2.884   3.982  1.00  0.00     0.074 A 
ATOM     72  C   UNL     1       5.718   1.928   4.293  1.00  0.00     0.031 C 
ATOM     73  C   UNL     1       3.792   3.614   4.741  1.00  0.00     0.034 A 
BRANCH  60  74
ATOM     74  C   UNL     1      -1.136   7.135   3.143  1.00  0.00     0.023 A 
ATOM     75  C   UNL     1      -1.766   6.683   4.331  1.00  0.00     0.012 A 
ATOM     76  C   UNL     1      -1.913   8.035   2.360  1.00  0.00     0.148 A 
ATOM     77  C   UNL     1      -3.061   7.069   4.715  1.00  0.00     0.002 A 
ATOM     78  C   UNL     1      -3.181   8.484   2.784  1.00  0.00     0.091 A 
ATOM     79  F   UNL     1      -1.474   8.418   1.157  1.00  0.00    -0.205 F 
ATOM     80  C   UNL     1      -3.764   7.985   3.951  1.00  0.00     0.022 A 
BRANCH  78  81
ATOM     81  S   UNL     1      -4.144   9.744   1.914  1.00  0.00     0.127 S 
ATOM     82  O   UNL     1      -5.363   9.018   1.558  1.00  0.00    -0.237 OA
ATOM     83  O   UNL     1      -4.330  10.764   2.947  1.00  0.00    -0.237 OA
ATOM     84  O   UNL     1      -3.329  10.170   0.783  1.00  0.00    -0.744 OA
ENDBRANCH  78  81
ENDBRANCH  60  74
BRANCH  61  85
ATOM     85  C   UNL     1       6.729   1.385  -0.275  1.00  0.00     0.023 A 
ATOM     86  C   UNL     1       6.452   0.266  -1.110  1.00  0.00     0.012 A 
ATOM     87  C   UNL     1       7.576   2.387  -0.747  1.00  0.00     0.148 A 
ATOM     88  C   UNL     1       6.815   0.266  -2.460  1.00  0.00     0.002 A 
ATOM     89  C   UNL     1       7.811   2.443  -2.115  1.00  0.00     0.091 A 
ATOM     90  F   UNL     1       7.903   3.388   0.081  1.00  0.00    -0.205 F 
ATOM     91  C   UNL     1       7.443   1.387  -2.975  1.00  0.00     0.022 A 
BRANCH  89  92
ATOM     92  S   UNL     1       7.763   4.054  -2.909  1.00  0.00     0.127 S 
ATOM     93  O   UNL     1       8.882   4.016  -3.841  1.00  0.00    -0.237 OA
ATOM     94  O   UNL     1       6.441   3.922  -3.511  1.00  0.00    -0.237 OA
ATOM     95  O   UNL     1       7.857   5.037  -1.841  1.00  0.00    -0.744 OA
ENDBRANCH  89  92
ENDBRANCH  61  85
BRANCH  73  96
ATOM     96  C   UNL     1       4.145   4.155   6.108  1.00  0.00     0.023 A 
ATOM     97  C   UNL     1       5.492   4.290   6.494  1.00  0.00     0.012 A 
ATOM     98  C   UNL     1       3.171   4.804   6.912  1.00  0.00     0.148 A 
ATOM     99  C   UNL     1       5.857   5.012   7.631  1.00  0.00     0.002 A 
ATOM    100  C   UNL     1       3.550   5.614   7.975  1.00  0.00     0.091 A 
ATOM    101  F   UNL     1       1.866   4.648   6.650  1.00  0.00    -0.205 F 
ATOM    102  C   UNL     1       4.891   5.699   8.354  1.00  0.00     0.022 A 
BRANCH 100 103
ATOM    103  S   UNL     1       2.373   6.713   8.779  1.00  0.00     0.127 S 
ATOM    104  O   UNL     1       2.029   5.954   9.979  1.00  0.00    -0.237 OA
ATOM    105  O   UNL     1       3.184   7.908   9.023  1.00  0.00    -0.237 OA
ATOM    106  O   UNL     1       1.300   6.908   7.814  1.00  0.00    -0.744 OA
ENDBRANCH 100 103
ENDBRANCH  73  96
ENDBRANCH  47  48
ENDBRANCH  40  42
ENDBRANCH  39  40
ENDBRANCH  38  39
ENDBRANCH  37  38
ENDBRANCH  36  37
ENDBRANCH  35  36
ENDBRANCH  34  35
ENDBRANCH  33  34
ENDBRANCH  32  33
ENDBRANCH   1  32
TORSDOF 29
