REMARK SMILES COC(=O)[C@@H](CC(=O)OCCOCCOCCOCCOC(=O)c1ccc(-c2c3nc(c(-c4cccc(S(=O)(=O)[O-])c4F)c4ccc([nH]4)c(-c4cccc(S(=O)(=O)[O-])c4F)c4nc(c(-c5cccc(S(=O)(=O)[O-])c5F)c5ccc2[nH]5)C=C4)C=C3)cc1)C1CCCCC1
REMARK SMILES IDX 15 1 14 2 13 3 12 4 11 5 10 6 9 7 7 8 8 9 6 10 5 11 3 12
REMARK SMILES IDX 4 13 2 14 1 15 87 16 88 17 92 18 89 19 91 20 90 21 16 22
REMARK SMILES IDX 17 23 18 24 19 25 20 26 21 27 22 28 23 29 24 30 25 31 86 32
REMARK SMILES IDX 26 33 85 34 27 35 28 36 29 37 79 38 30 39 84 40 78 41 80 42
REMARK SMILES IDX 31 43 83 44 77 45 76 46 32 48 64 49 44 50 63 51 45 52 48 53
REMARK SMILES IDX 62 54 81 55 46 56 47 57 61 59 82 60 49 61 33 62 34 63 42 64
REMARK SMILES IDX 35 65 37 66 43 67 36 68 38 69 39 70 40 71 41 72 65 73 66 74
REMARK SMILES IDX 74 75 67 76 69 77 75 78 68 79 70 80 71 81 72 82 73 83 50 84
REMARK SMILES IDX 51 85 59 86 52 87 54 88 60 89 53 90 55 91 56 92 57 93 58 94
REMARK H PARENT 80 47 48 58
REMARK Flexibility Score: inf
ROOT
ATOM      1  O   UNL     1      -1.720  -0.733  -2.800  1.00  0.00    -0.377 OA
ENDROOT
BRANCH   1   2
ATOM      2  C   UNL     1      -2.159  -0.457  -4.113  1.00  0.00     0.188 C 
BRANCH   2   3
ATOM      3  C   UNL     1      -1.436  -1.303  -5.170  1.00  0.00     0.188 C 
BRANCH   3   4
ATOM      4  O   UNL     1      -1.159  -2.655  -4.826  1.00  0.00    -0.376 OA
BRANCH   4   5
ATOM      5  C   UNL     1      -0.280  -2.879  -3.717  1.00  0.00     0.202 C 
BRANCH   5   6
ATOM      6  C   UNL     1       1.013  -2.041  -3.630  1.00  0.00     0.261 C 
BRANCH   6   7
ATOM      7  O   UNL     1       0.799  -0.618  -3.416  1.00  0.00    -0.463 OA
BRANCH   7   8
ATOM      8  C   UNL     1       1.552   0.225  -4.154  1.00  0.00     0.306 C 
ATOM      9  O   UNL     1       2.328  -0.154  -5.031  1.00  0.00    -0.252 OA
BRANCH   8  10
ATOM     10  C   UNL     1       1.254   1.715  -4.012  1.00  0.00     0.138 C 
BRANCH  10  11
ATOM     11  C   UNL     1       0.927   2.525  -2.737  1.00  0.00     0.113 C 
BRANCH  11  12
ATOM     12  C   UNL     1       1.573   2.078  -1.441  1.00  0.00     0.309 C 
ATOM     13  O   UNL     1       2.008   2.875  -0.619  1.00  0.00    -0.252 OA
BRANCH  12  14
ATOM     14  O   UNL     1       1.446   0.748  -1.245  1.00  0.00    -0.469 OA
ATOM     15  C   UNL     1       1.617   0.308   0.104  1.00  0.00     0.282 C 
ENDBRANCH  12  14
ENDBRANCH  11  12
BRANCH  11  16
ATOM     16  C   UNL     1      -0.588   2.893  -2.556  1.00  0.00     0.004 C 
ATOM     17  C   UNL     1      -1.255   2.208  -1.355  1.00  0.00     0.004 C 
ATOM     18  C   UNL     1      -0.811   4.420  -2.393  1.00  0.00     0.004 C 
ATOM     19  C   UNL     1      -2.743   2.519  -1.319  1.00  0.00     0.000 C 
ATOM     20  C   UNL     1      -2.296   4.793  -2.248  1.00  0.00     0.000 C 
ATOM     21  C   UNL     1      -3.002   4.003  -1.152  1.00  0.00     0.000 C 
ENDBRANCH  11  16
ENDBRANCH  10  11
ENDBRANCH   8  10
ENDBRANCH   7   8
ENDBRANCH   6   7
ENDBRANCH   5   6
ENDBRANCH   4   5
ENDBRANCH   3   4
ENDBRANCH   2   3
ENDBRANCH   1   2
BRANCH   1  22
ATOM     22  C   UNL     1      -2.632  -1.107  -1.778  1.00  0.00     0.188 C 
BRANCH  22  23
ATOM     23  C   UNL     1      -3.847  -1.959  -2.153  1.00  0.00     0.188 C 
BRANCH  23  24
ATOM     24  O   UNL     1      -4.912  -1.341  -2.884  1.00  0.00    -0.376 OA
BRANCH  24  25
ATOM     25  C   UNL     1      -5.174   0.045  -2.675  1.00  0.00     0.202 C 
BRANCH  25  26
ATOM     26  C   UNL     1      -5.928   0.412  -1.401  1.00  0.00     0.261 C 
BRANCH  26  27
ATOM     27  O   UNL     1      -5.092   0.265  -0.242  1.00  0.00    -0.460 OA
BRANCH  27  28
ATOM     28  C   UNL     1      -5.463  -0.728   0.596  1.00  0.00     0.338 C 
ATOM     29  O   UNL     1      -6.458  -1.423   0.507  1.00  0.00    -0.246 OA
BRANCH  28  30
ATOM     30  C   UNL     1      -4.395  -1.006   1.575  1.00  0.00     0.060 A 
ATOM     31  C   UNL     1      -4.037  -2.349   1.715  1.00  0.00     0.016 A 
ATOM     32  C   UNL     1      -3.862  -0.034   2.428  1.00  0.00     0.016 A 
ATOM     33  C   UNL     1      -3.241  -2.746   2.779  1.00  0.00     0.010 A 
ATOM     34  C   UNL     1      -3.053  -0.439   3.502  1.00  0.00     0.010 A 
ATOM     35  C   UNL     1      -2.805  -1.806   3.721  1.00  0.00    -0.014 A 
BRANCH  35  36
ATOM     36  C   UNL     1      -2.296  -2.339   5.011  1.00  0.00     0.031 A 
ATOM     37  C   UNL     1      -3.213  -2.365   6.207  1.00  0.00     0.074 A 
ATOM     38  C   UNL     1      -1.103  -2.958   5.068  1.00  0.00     0.049 A 
ATOM     39  N   UNL     1      -3.057  -2.970   7.356  1.00  0.00    -0.248 NA
ATOM     40  C   UNL     1      -4.481  -1.626   6.089  1.00  0.00     0.031 C 
ATOM     41  C   UNL     1      -0.137  -3.031   3.973  1.00  0.00     0.029 A 
ATOM     42  N   UNL     1      -0.515  -3.667   6.085  1.00  0.00    -0.354 N 
ATOM     43  C   UNL     1      -4.194  -2.676   8.100  1.00  0.00     0.074 A 
ATOM     44  C   UNL     1      -5.023  -1.818   7.282  1.00  0.00     0.031 C 
ATOM     45  C   UNL     1       0.921  -3.755   4.373  1.00  0.00     0.029 A 
ATOM     46  C   UNL     1       0.717  -4.181   5.757  1.00  0.00     0.049 A 
ATOM     47  H   UNL     1      -0.936  -3.796   6.966  1.00  0.00     0.167 HD
ATOM     48  C   UNL     1      -4.534  -3.097   9.342  1.00  0.00     0.034 A 
ATOM     49  C   UNL     1       1.581  -4.911   6.489  1.00  0.00     0.034 A 
ATOM     50  C   UNL     1      -3.720  -3.962  10.153  1.00  0.00     0.049 A 
ATOM     51  C   UNL     1       1.194  -5.339   7.879  1.00  0.00     0.074 A 
ATOM     52  C   UNL     1      -3.990  -4.463  11.415  1.00  0.00     0.029 A 
ATOM     53  N   UNL     1      -2.471  -4.442   9.794  1.00  0.00    -0.354 N 
ATOM     54  N   UNL     1       0.071  -5.136   8.526  1.00  0.00    -0.248 NA
ATOM     55  C   UNL     1       2.179  -6.136   8.624  1.00  0.00     0.031 C 
ATOM     56  C   UNL     1      -2.886  -5.213  11.834  1.00  0.00     0.029 A 
ATOM     57  C   UNL     1      -1.950  -5.221  10.814  1.00  0.00     0.049 A 
ATOM     58  H   UNL     1      -2.020  -4.257   8.938  1.00  0.00     0.167 HD
ATOM     59  C   UNL     1       0.201  -5.811   9.736  1.00  0.00     0.074 A 
ATOM     60  C   UNL     1       1.500  -6.450   9.719  1.00  0.00     0.031 C 
ATOM     61  C   UNL     1      -0.672  -5.886  10.772  1.00  0.00     0.034 A 
BRANCH  48  62
ATOM     62  C   UNL     1      -5.853  -2.628   9.901  1.00  0.00     0.023 A 
ATOM     63  C   UNL     1      -7.061  -3.134   9.380  1.00  0.00     0.012 A 
ATOM     64  C   UNL     1      -5.893  -1.719  10.977  1.00  0.00     0.148 A 
ATOM     65  C   UNL     1      -8.288  -2.717   9.897  1.00  0.00     0.002 A 
ATOM     66  C   UNL     1      -7.117  -1.345  11.518  1.00  0.00     0.091 A 
ATOM     67  F   UNL     1      -4.735  -1.230  11.443  1.00  0.00    -0.205 F 
ATOM     68  C   UNL     1      -8.315  -1.831  10.971  1.00  0.00     0.022 A 
BRANCH  66  69
ATOM     69  S   UNL     1      -7.253  -0.273  12.953  1.00  0.00     0.127 S 
ATOM     70  O   UNL     1      -7.814   0.941  12.362  1.00  0.00    -0.237 OA
ATOM     71  O   UNL     1      -8.179  -1.020  13.806  1.00  0.00    -0.237 OA
ATOM     72  O   UNL     1      -5.905  -0.142  13.487  1.00  0.00    -0.744 OA
ENDBRANCH  66  69
ENDBRANCH  48  62
BRANCH  49  73
ATOM     73  C   UNL     1       2.895  -5.308   5.909  1.00  0.00     0.023 A 
ATOM     74  C   UNL     1       3.175  -6.662   5.646  1.00  0.00     0.012 A 
ATOM     75  C   UNL     1       3.871  -4.335   5.615  1.00  0.00     0.148 A 
ATOM     76  C   UNL     1       4.416  -7.045   5.135  1.00  0.00     0.002 A 
ATOM     77  C   UNL     1       5.080  -4.716   5.048  1.00  0.00     0.091 A 
ATOM     78  F   UNL     1       3.590  -3.053   5.889  1.00  0.00    -0.205 F 
ATOM     79  C   UNL     1       5.364  -6.072   4.826  1.00  0.00     0.022 A 
BRANCH  77  80
ATOM     80  S   UNL     1       6.298  -3.520   4.495  1.00  0.00     0.127 S 
ATOM     81  O   UNL     1       7.390  -3.747   5.438  1.00  0.00    -0.237 OA
ATOM     82  O   UNL     1       6.558  -3.970   3.127  1.00  0.00    -0.237 OA
ATOM     83  O   UNL     1       5.645  -2.221   4.585  1.00  0.00    -0.744 OA
ENDBRANCH  77  80
ENDBRANCH  49  73
BRANCH  61  84
ATOM     84  C   UNL     1      -0.273  -6.728  11.960  1.00  0.00     0.023 A 
ATOM     85  C   UNL     1       0.779  -6.312  12.802  1.00  0.00     0.012 A 
ATOM     86  C   UNL     1      -0.967  -7.917  12.261  1.00  0.00     0.148 A 
ATOM     87  C   UNL     1       1.169  -7.094  13.890  1.00  0.00     0.002 A 
ATOM     88  C   UNL     1      -0.609  -8.662  13.379  1.00  0.00     0.091 A 
ATOM     89  F   UNL     1      -1.954  -8.308  11.443  1.00  0.00    -0.205 F 
ATOM     90  C   UNL     1       0.470  -8.262  14.183  1.00  0.00     0.022 A 
BRANCH  88  91
ATOM     91  S   UNL     1      -1.519 -10.124  13.889  1.00  0.00     0.127 S 
ATOM     92  O   UNL     1      -0.605 -11.195  13.496  1.00  0.00    -0.237 OA
ATOM     93  O   UNL     1      -1.641  -9.927  15.334  1.00  0.00    -0.237 OA
ATOM     94  O   UNL     1      -2.783 -10.080  13.167  1.00  0.00    -0.744 OA
ENDBRANCH  88  91
ENDBRANCH  61  84
ENDBRANCH  35  36
ENDBRANCH  28  30
ENDBRANCH  27  28
ENDBRANCH  26  27
ENDBRANCH  25  26
ENDBRANCH  24  25
ENDBRANCH  23  24
ENDBRANCH  22  23
ENDBRANCH   1  22
TORSDOF 27
