REMARK SMILES CC(C)CCn1nc(C(=O)OCCOCCOCCOCCOC(=O)c2ccc(-c3c4nc(c(-c5cccc(S(=O)(=O)[O-])c5F)c5ccc([nH]5)c(-c5cccc(S(=O)(=O)[O-])c5F)c5nc(c(-c6cccc(S(=O)(=O)[O-])c6F)c6ccc3[nH]6)C=C5)C=C4)cc2)c2c1CCN(C(=O)[C@@H]1CCc3nn(C)c(=O)n3C1)C2
REMARK SMILES IDX 17 1 16 2 15 3 14 4 13 5 12 6 11 7 9 8 10 9 8 10 6 11 7 12
REMARK SMILES IDX 90 13 89 14 91 15 107 16 92 17 93 18 5 19 4 20 2 21 1 22
REMARK SMILES IDX 3 23 94 24 95 25 96 26 97 27 106 28 98 29 105 30 99 31
REMARK SMILES IDX 103 32 100 33 101 34 104 35 102 36 18 37 19 38 20 39 21 40
REMARK SMILES IDX 22 41 23 42 24 43 25 44 26 45 27 46 88 47 28 48 87 49 29 50
REMARK SMILES IDX 30 51 31 52 81 53 32 54 86 55 80 56 82 57 33 58 85 59 79 60
REMARK SMILES IDX 78 61 34 63 66 64 46 65 65 66 47 67 50 68 64 69 83 70 48 71
REMARK SMILES IDX 49 72 63 74 84 75 51 76 35 77 36 78 44 79 37 80 39 81 45 82
REMARK SMILES IDX 38 83 40 84 41 85 42 86 43 87 67 88 68 89 76 90 69 91 71 92
REMARK SMILES IDX 77 93 70 94 72 95 73 96 74 97 75 98 52 99 53 100 61 101
REMARK SMILES IDX 54 102 56 103 62 104 55 105 57 106 58 107 59 108 60 109
REMARK H PARENT 82 62 50 73
REMARK Flexibility Score: inf
ROOT
ATOM      1  O   UNL     1      -1.057   8.208  -2.151  1.00  0.00    -0.377 OA
ENDROOT
BRANCH   1   2
ATOM      2  C   UNL     1      -2.030   7.203  -1.950  1.00  0.00     0.188 C 
BRANCH   2   3
ATOM      3  C   UNL     1      -2.907   7.425  -0.697  1.00  0.00     0.188 C 
BRANCH   3   4
ATOM      4  O   UNL     1      -2.992   8.678  -0.021  1.00  0.00    -0.376 OA
BRANCH   4   5
ATOM      5  C   UNL     1      -1.873   9.501   0.265  1.00  0.00     0.202 C 
BRANCH   5   6
ATOM      6  C   UNL     1      -0.608   8.963   0.936  1.00  0.00     0.261 C 
BRANCH   6   7
ATOM      7  O   UNL     1      -0.213   7.670   0.509  1.00  0.00    -0.458 OA
BRANCH   7   8
ATOM      8  C   UNL     1      -0.659   6.624   1.254  1.00  0.00     0.359 C 
ATOM      9  O   UNL     1      -1.252   6.735   2.327  1.00  0.00    -0.244 OA
BRANCH   8  10
ATOM     10  C   UNL     1      -0.387   5.356   0.570  1.00  0.00     0.175 A 
ATOM     11  N   UNL     1      -0.475   3.271   0.042  1.00  0.00    -0.268 N 
ATOM     12  N   UNL     1      -1.048   4.208   0.842  1.00  0.00    -0.165 NA
ATOM     13  C   UNL     1       0.650   3.774  -0.529  1.00  0.00     0.046 A 
ATOM     14  C   UNL     1       0.571   5.149  -0.453  1.00  0.00     0.028 A 
ATOM     15  C   UNL     1       1.850   3.108  -1.060  1.00  0.00     0.078 C 
ATOM     16  C   UNL     1       1.522   6.099  -1.143  1.00  0.00     0.159 C 
ATOM     17  C   UNL     1       2.978   4.146  -1.049  1.00  0.00     0.126 C 
ATOM     18  N   UNL     1       2.580   5.314  -1.818  1.00  0.00    -0.338 N 
BRANCH  11  19
ATOM     19  C   UNL     1      -1.094   1.955   0.012  1.00  0.00     0.145 C 
BRANCH  19  20
ATOM     20  C   UNL     1      -0.894   0.989  -1.179  1.00  0.00     0.027 C 
BRANCH  20  21
ATOM     21  C   UNL     1       0.447   0.238  -1.298  1.00  0.00    -0.016 C 
ATOM     22  C   UNL     1       0.915  -0.422  -0.006  1.00  0.00     0.007 C 
ATOM     23  C   UNL     1       0.453  -0.761  -2.456  1.00  0.00     0.007 C 
ENDBRANCH  20  21
ENDBRANCH  19  20
ENDBRANCH  11  19
BRANCH  18  24
ATOM     24  C   UNL     1       3.000   5.691  -3.079  1.00  0.00     0.227 C 
ATOM     25  O   UNL     1       2.509   6.703  -3.599  1.00  0.00    -0.274 OA
BRANCH  24  26
ATOM     26  C   UNL     1       4.049   4.921  -3.926  1.00  0.00     0.099 C 
ATOM     27  C   UNL     1       3.525   3.743  -4.761  1.00  0.00     0.023 C 
ATOM     28  C   UNL     1       5.409   4.634  -3.298  1.00  0.00     0.142 C 
ATOM     29  C   UNL     1       3.675   2.352  -4.155  1.00  0.00     0.078 C 
ATOM     30  N   UNL     1       5.532   3.280  -2.801  1.00  0.00    -0.278 N 
ATOM     31  C   UNL     1       4.719   2.245  -3.088  1.00  0.00     0.133 A 
ATOM     32  C   UNL     1       6.230   2.918  -1.673  1.00  0.00     0.345 A 
ATOM     33  N   UNL     1       4.821   1.229  -2.279  1.00  0.00    -0.155 NA
ATOM     34  N   UNL     1       5.776   1.629  -1.370  1.00  0.00    -0.216 N 
ATOM     35  O   UNL     1       6.954   3.624  -0.988  1.00  0.00    -0.246 OA
ATOM     36  C   UNL     1       5.971   0.964  -0.111  1.00  0.00     0.179 C 
ENDBRANCH  24  26
ENDBRANCH  18  24
ENDBRANCH   8  10
ENDBRANCH   7   8
ENDBRANCH   6   7
ENDBRANCH   5   6
ENDBRANCH   4   5
ENDBRANCH   3   4
ENDBRANCH   2   3
ENDBRANCH   1   2
BRANCH   1  37
ATOM     37  C   UNL     1      -1.408   9.274  -3.033  1.00  0.00     0.188 C 
BRANCH  37  38
ATOM     38  C   UNL     1      -2.862   9.825  -3.041  1.00  0.00     0.188 C 
BRANCH  38  39
ATOM     39  O   UNL     1      -3.878   8.871  -2.761  1.00  0.00    -0.376 OA
BRANCH  39  40
ATOM     40  C   UNL     1      -4.783   8.413  -3.752  1.00  0.00     0.202 C 
BRANCH  40  41
ATOM     41  C   UNL     1      -4.221   7.565  -4.889  1.00  0.00     0.261 C 
BRANCH  41  42
ATOM     42  O   UNL     1      -2.978   8.036  -5.364  1.00  0.00    -0.460 OA
BRANCH  42  43
ATOM     43  C   UNL     1      -3.046   9.202  -6.022  1.00  0.00     0.338 C 
ATOM     44  O   UNL     1      -4.016   9.954  -6.098  1.00  0.00    -0.246 OA
BRANCH  43  45
ATOM     45  C   UNL     1      -1.796   9.391  -6.749  1.00  0.00     0.060 A 
ATOM     46  C   UNL     1      -1.710  10.576  -7.476  1.00  0.00     0.016 A 
ATOM     47  C   UNL     1      -1.037   8.248  -7.048  1.00  0.00     0.016 A 
ATOM     48  C   UNL     1      -1.132  10.501  -8.712  1.00  0.00     0.010 A 
ATOM     49  C   UNL     1      -0.485   8.166  -8.294  1.00  0.00     0.010 A 
ATOM     50  C   UNL     1      -0.649   9.258  -9.137  1.00  0.00    -0.014 A 
BRANCH  50  51
ATOM     51  C   UNL     1      -0.281   9.143 -10.519  1.00  0.00     0.031 A 
ATOM     52  C   UNL     1       1.029   9.750 -10.789  1.00  0.00     0.074 A 
ATOM     53  C   UNL     1      -1.057   8.509 -11.413  1.00  0.00     0.049 A 
ATOM     54  N   UNL     1       1.254  10.867 -11.392  1.00  0.00    -0.248 NA
ATOM     55  C   UNL     1       2.195   9.171 -10.109  1.00  0.00     0.031 C 
ATOM     56  C   UNL     1      -2.211   7.641 -11.166  1.00  0.00     0.029 A 
ATOM     57  N   UNL     1      -0.861   8.396 -12.749  1.00  0.00    -0.354 N 
ATOM     58  C   UNL     1       2.636  10.993 -11.386  1.00  0.00     0.074 A 
ATOM     59  C   UNL     1       3.126  10.083 -10.385  1.00  0.00     0.031 C 
ATOM     60  C   UNL     1      -2.428   6.887 -12.269  1.00  0.00     0.029 A 
ATOM     61  C   UNL     1      -1.511   7.310 -13.315  1.00  0.00     0.049 A 
ATOM     62  H   UNL     1      -0.310   9.025 -13.268  1.00  0.00     0.167 HD
ATOM     63  C   UNL     1       3.279  11.601 -12.415  1.00  0.00     0.034 A 
ATOM     64  C   UNL     1      -1.198   6.742 -14.505  1.00  0.00     0.034 A 
ATOM     65  C   UNL     1       2.376  12.392 -13.213  1.00  0.00     0.049 A 
ATOM     66  C   UNL     1      -0.421   7.744 -15.283  1.00  0.00     0.074 A 
ATOM     67  C   UNL     1       1.506  13.432 -12.951  1.00  0.00     0.029 A 
ATOM     68  N   UNL     1       1.985  11.866 -14.423  1.00  0.00    -0.354 N 
ATOM     69  N   UNL     1      -0.929   8.863 -15.724  1.00  0.00    -0.248 NA
ATOM     70  C   UNL     1       1.030   7.723 -15.169  1.00  0.00     0.031 C 
ATOM     71  C   UNL     1       0.368  13.176 -13.771  1.00  0.00     0.029 A 
ATOM     72  C   UNL     1       0.630  12.032 -14.527  1.00  0.00     0.049 A 
ATOM     73  H   UNL     1       2.574  11.447 -15.092  1.00  0.00     0.167 HD
ATOM     74  C   UNL     1       0.065   9.809 -15.501  1.00  0.00     0.074 A 
ATOM     75  C   UNL     1       1.281   9.033 -15.263  1.00  0.00     0.031 C 
ATOM     76  C   UNL     1      -0.244  11.112 -15.226  1.00  0.00     0.034 A 
BRANCH  63  77
ATOM     77  C   UNL     1       4.627  11.167 -12.929  1.00  0.00     0.023 A 
ATOM     78  C   UNL     1       5.243  11.998 -13.886  1.00  0.00     0.012 A 
ATOM     79  C   UNL     1       5.187   9.881 -12.738  1.00  0.00     0.148 A 
ATOM     80  C   UNL     1       6.324  11.552 -14.651  1.00  0.00     0.002 A 
ATOM     81  C   UNL     1       6.316   9.476 -13.434  1.00  0.00     0.091 A 
ATOM     82  F   UNL     1       4.557   8.971 -11.991  1.00  0.00    -0.205 F 
ATOM     83  C   UNL     1       6.869  10.294 -14.419  1.00  0.00     0.022 A 
BRANCH  81  84
ATOM     84  S   UNL     1       7.082   7.881 -13.123  1.00  0.00     0.127 S 
ATOM     85  O   UNL     1       6.651   7.117 -14.289  1.00  0.00    -0.237 OA
ATOM     86  O   UNL     1       8.502   8.230 -13.098  1.00  0.00    -0.237 OA
ATOM     87  O   UNL     1       6.557   7.440 -11.836  1.00  0.00    -0.744 OA
ENDBRANCH  81  84
ENDBRANCH  63  77
BRANCH  64  88
ATOM     88  C   UNL     1      -1.239   5.307 -14.871  1.00  0.00     0.023 A 
ATOM     89  C   UNL     1      -1.215   4.932 -16.228  1.00  0.00     0.012 A 
ATOM     90  C   UNL     1      -1.048   4.296 -13.900  1.00  0.00     0.148 A 
ATOM     91  C   UNL     1      -0.990   3.601 -16.604  1.00  0.00     0.002 A 
ATOM     92  C   UNL     1      -0.845   2.973 -14.277  1.00  0.00     0.091 A 
ATOM     93  F   UNL     1      -0.967   4.642 -12.609  1.00  0.00    -0.205 F 
ATOM     94  C   UNL     1      -0.803   2.623 -15.630  1.00  0.00     0.022 A 
BRANCH  92  95
ATOM     95  S   UNL     1      -0.591   1.668 -13.066  1.00  0.00     0.127 S 
ATOM     96  O   UNL     1      -1.475   0.613 -13.564  1.00  0.00    -0.237 OA
ATOM     97  O   UNL     1       0.835   1.391 -13.210  1.00  0.00    -0.237 OA
ATOM     98  O   UNL     1      -1.001   2.229 -11.784  1.00  0.00    -0.744 OA
ENDBRANCH  92  95
ENDBRANCH  64  88
BRANCH  76  99
ATOM     99  C   UNL     1      -1.674  11.563 -15.400  1.00  0.00     0.023 A 
ATOM    100  C   UNL     1      -2.732  11.017 -14.642  1.00  0.00     0.012 A 
ATOM    101  C   UNL     1      -1.927  12.691 -16.199  1.00  0.00     0.148 A 
ATOM    102  C   UNL     1      -4.015  11.569 -14.697  1.00  0.00     0.002 A 
ATOM    103  C   UNL     1      -3.193  13.266 -16.214  1.00  0.00     0.091 A 
ATOM    104  F   UNL     1      -0.912  13.206 -16.909  1.00  0.00    -0.205 F 
ATOM    105  C   UNL     1      -4.242  12.702 -15.472  1.00  0.00     0.022 A 
BRANCH 103 106
ATOM    106  S   UNL     1      -3.514  14.801 -17.086  1.00  0.00     0.127 S 
ATOM    107  O   UNL     1      -4.243  14.336 -18.264  1.00  0.00    -0.237 OA
ATOM    108  O   UNL     1      -4.323  15.549 -16.122  1.00  0.00    -0.237 OA
ATOM    109  O   UNL     1      -2.208  15.393 -17.348  1.00  0.00    -0.744 OA
ENDBRANCH 103 106
ENDBRANCH  76  99
ENDBRANCH  50  51
ENDBRANCH  43  45
ENDBRANCH  42  43
ENDBRANCH  41  42
ENDBRANCH  40  41
ENDBRANCH  39  40
ENDBRANCH  38  39
ENDBRANCH  37  38
ENDBRANCH   1  37
TORSDOF 28
