REMARK SMILES CCC(CC)NC(=O)N[C@@H]1C=C[C@@H](C(=O)OCCOCCOCCOCCOC(=O)c2ccc(-c3c4nc(c(-c5cccc(S(=O)(=O)[O-])c5F)c5ccc([nH]5)c(-c5cccc(S(=O)(=O)[O-])c5F)c5nc(c(-c6cccc(S(=O)(=O)[O-])c6F)c6ccc3[nH]6)C=C5)C=C4)cc2)C1
REMARK SMILES IDX 22 1 21 2 20 3 19 4 18 5 17 6 16 7 14 8 15 9 13 10 10 11
REMARK SMILES IDX 11 12 94 13 12 14 9 15 6 16 7 17 8 19 3 21 2 22 1 23 4 24
REMARK SMILES IDX 5 25 23 26 24 27 25 28 26 29 27 30 28 31 29 32 30 33 31 34
REMARK SMILES IDX 32 35 93 36 33 37 92 38 34 39 35 40 36 41 86 42 37 43 91 44
REMARK SMILES IDX 85 45 87 46 38 47 90 48 84 49 83 50 39 52 71 53 51 54 70 55
REMARK SMILES IDX 52 56 55 57 69 58 88 59 53 60 54 61 68 63 89 64 56 65 40 66
REMARK SMILES IDX 41 67 49 68 42 69 44 70 50 71 43 72 45 73 46 74 47 75 48 76
REMARK SMILES IDX 72 77 73 78 81 79 74 80 76 81 82 82 75 83 77 84 78 85 79 86
REMARK SMILES IDX 80 87 57 88 58 89 66 90 59 91 61 92 67 93 60 94 62 95 63 96
REMARK SMILES IDX 64 97 65 98
REMARK H PARENT 6 18 9 20 87 51 55 62
REMARK Flexibility Score: inf
ROOT
ATOM      1  O   UNL     1      -0.912  -2.128  -0.221  1.00  0.00    -0.377 OA
ENDROOT
BRANCH   1   2
ATOM      2  C   UNL     1      -0.104  -2.076   0.935  1.00  0.00     0.188 C 
BRANCH   2   3
ATOM      3  C   UNL     1      -0.092  -0.717   1.653  1.00  0.00     0.188 C 
BRANCH   3   4
ATOM      4  O   UNL     1      -1.128   0.231   1.443  1.00  0.00    -0.376 OA
BRANCH   4   5
ATOM      5  C   UNL     1      -1.553   0.577   0.129  1.00  0.00     0.202 C 
BRANCH   5   6
ATOM      6  C   UNL     1      -0.567   0.799  -1.032  1.00  0.00     0.261 C 
BRANCH   6   7
ATOM      7  O   UNL     1       0.564  -0.081  -1.058  1.00  0.00    -0.463 OA
BRANCH   7   8
ATOM      8  C   UNL     1       1.788   0.473  -0.884  1.00  0.00     0.312 C 
ATOM      9  O   UNL     1       1.987   1.675  -0.735  1.00  0.00    -0.252 OA
BRANCH   8  10
ATOM     10  C   UNL     1       2.900  -0.574  -0.746  1.00  0.00     0.124 C 
ATOM     11  C   UNL     1       3.757  -2.471  -2.112  1.00  0.00     0.107 C 
ATOM     12  C   UNL     1       4.520  -1.206  -2.334  1.00  0.00    -0.006 C 
ATOM     13  C   UNL     1       2.616  -2.016  -1.197  1.00  0.00     0.048 C 
ATOM     14  C   UNL     1       4.067  -0.187  -1.598  1.00  0.00    -0.014 C 
BRANCH  11  15
ATOM     15  N   UNL     1       4.640  -3.419  -1.461  1.00  0.00    -0.332 N 
ATOM     16  N   UNL     1       3.651  -5.553  -1.753  1.00  0.00    -0.335 N 
ATOM     17  C   UNL     1       4.641  -4.753  -1.337  1.00  0.00     0.315 C 
ATOM     18  H   UNL     1       3.868  -6.509  -1.666  1.00  0.00     0.165 HD
ATOM     19  O   UNL     1       5.619  -5.278  -0.797  1.00  0.00    -0.249 OA
ATOM     20  H   UNL     1       5.404  -2.989  -1.013  1.00  0.00     0.165 HD
BRANCH  16  21
ATOM     21  C   UNL     1       2.319  -5.319  -2.306  1.00  0.00     0.083 C 
BRANCH  21  22
ATOM     22  C   UNL     1       2.343  -5.459  -3.835  1.00  0.00     0.021 C 
ATOM     23  C   UNL     1       1.094  -4.884  -4.488  1.00  0.00     0.006 C 
ENDBRANCH  21  22
BRANCH  21  24
ATOM     24  C   UNL     1       1.271  -6.196  -1.587  1.00  0.00     0.021 C 
ATOM     25  C   UNL     1       1.310  -7.683  -1.915  1.00  0.00     0.006 C 
ENDBRANCH  21  24
ENDBRANCH  16  21
ENDBRANCH  11  15
ENDBRANCH   8  10
ENDBRANCH   7   8
ENDBRANCH   6   7
ENDBRANCH   5   6
ENDBRANCH   4   5
ENDBRANCH   3   4
ENDBRANCH   2   3
ENDBRANCH   1   2
BRANCH   1  26
ATOM     26  C   UNL     1      -2.200  -2.715  -0.082  1.00  0.00     0.188 C 
BRANCH  26  27
ATOM     27  C   UNL     1      -2.956  -2.521   1.250  1.00  0.00     0.188 C 
BRANCH  27  28
ATOM     28  O   UNL     1      -2.193  -2.824   2.412  1.00  0.00    -0.376 OA
BRANCH  28  29
ATOM     29  C   UNL     1      -2.328  -4.110   2.999  1.00  0.00     0.202 C 
BRANCH  29  30
ATOM     30  C   UNL     1      -1.862  -5.330   2.184  1.00  0.00     0.261 C 
BRANCH  30  31
ATOM     31  O   UNL     1      -2.502  -5.539   0.916  1.00  0.00    -0.460 OA
BRANCH  31  32
ATOM     32  C   UNL     1      -3.843  -5.673   0.897  1.00  0.00     0.338 C 
ATOM     33  O   UNL     1      -4.591  -5.702   1.863  1.00  0.00    -0.246 OA
BRANCH  32  34
ATOM     34  C   UNL     1      -4.288  -5.567  -0.508  1.00  0.00     0.060 A 
ATOM     35  C   UNL     1      -5.184  -4.548  -0.859  1.00  0.00     0.016 A 
ATOM     36  C   UNL     1      -3.820  -6.460  -1.474  1.00  0.00     0.016 A 
ATOM     37  C   UNL     1      -5.648  -4.445  -2.170  1.00  0.00     0.010 A 
ATOM     38  C   UNL     1      -4.303  -6.370  -2.782  1.00  0.00     0.010 A 
ATOM     39  C   UNL     1      -5.248  -5.386  -3.126  1.00  0.00    -0.014 A 
BRANCH  39  40
ATOM     40  C   UNL     1      -5.964  -5.469  -4.422  1.00  0.00     0.031 A 
ATOM     41  C   UNL     1      -7.030  -6.518  -4.581  1.00  0.00     0.074 A 
ATOM     42  C   UNL     1      -5.669  -4.647  -5.444  1.00  0.00     0.049 A 
ATOM     43  N   UNL     1      -7.741  -6.826  -5.633  1.00  0.00    -0.248 NA
ATOM     44  C   UNL     1      -7.328  -7.334  -3.392  1.00  0.00     0.031 C 
ATOM     45  C   UNL     1      -4.665  -3.587  -5.412  1.00  0.00     0.029 A 
ATOM     46  N   UNL     1      -6.168  -4.606  -6.723  1.00  0.00    -0.354 N 
ATOM     47  C   UNL     1      -8.535  -7.900  -5.250  1.00  0.00     0.074 A 
ATOM     48  C   UNL     1      -8.220  -8.189  -3.868  1.00  0.00     0.031 C 
ATOM     49  C   UNL     1      -4.589  -3.025  -6.631  1.00  0.00     0.029 A 
ATOM     50  C   UNL     1      -5.515  -3.709  -7.534  1.00  0.00     0.049 A 
ATOM     51  H   UNL     1      -6.919  -5.164  -7.028  1.00  0.00     0.167 HD
ATOM     52  C   UNL     1      -9.448  -8.582  -5.979  1.00  0.00     0.034 A 
ATOM     53  C   UNL     1      -5.623  -3.493  -8.861  1.00  0.00     0.034 A 
ATOM     54  C   UNL     1      -9.769  -8.285  -7.348  1.00  0.00     0.049 A 
ATOM     55  C   UNL     1      -6.630  -4.279  -9.662  1.00  0.00     0.074 A 
ATOM     56  C   UNL     1     -10.728  -8.874  -8.153  1.00  0.00     0.029 A 
ATOM     57  N   UNL     1      -9.120  -7.338  -8.126  1.00  0.00    -0.354 N 
ATOM     58  N   UNL     1      -7.463  -5.207  -9.257  1.00  0.00    -0.248 NA
ATOM     59  C   UNL     1      -6.735  -3.966 -11.095  1.00  0.00     0.031 C 
ATOM     60  C   UNL     1     -10.623  -8.320  -9.432  1.00  0.00     0.029 A 
ATOM     61  C   UNL     1      -9.638  -7.346  -9.409  1.00  0.00     0.049 A 
ATOM     62  H   UNL     1      -8.398  -6.748  -7.811  1.00  0.00     0.167 HD
ATOM     63  C   UNL     1      -8.213  -5.564 -10.374  1.00  0.00     0.074 A 
ATOM     64  C   UNL     1      -7.745  -4.740 -11.469  1.00  0.00     0.031 C 
ATOM     65  C   UNL     1      -9.194  -6.493 -10.483  1.00  0.00     0.034 A 
BRANCH  52  66
ATOM     66  C   UNL     1     -10.156  -9.732  -5.312  1.00  0.00     0.023 A 
ATOM     67  C   UNL     1     -11.101  -9.491  -4.295  1.00  0.00     0.012 A 
ATOM     68  C   UNL     1      -9.906 -11.055  -5.724  1.00  0.00     0.148 A 
ATOM     69  C   UNL     1     -11.756 -10.552  -3.670  1.00  0.00     0.002 A 
ATOM     70  C   UNL     1     -10.600 -12.103  -5.133  1.00  0.00     0.091 A 
ATOM     71  F   UNL     1      -8.985 -11.266  -6.676  1.00  0.00    -0.205 F 
ATOM     72  C   UNL     1     -11.514 -11.855  -4.096  1.00  0.00     0.022 A 
BRANCH  70  73
ATOM     73  S   UNL     1     -10.418 -13.806  -5.671  1.00  0.00     0.127 S 
ATOM     74  O   UNL     1      -9.711 -14.399  -4.537  1.00  0.00    -0.237 OA
ATOM     75  O   UNL     1     -11.811 -14.233  -5.812  1.00  0.00    -0.237 OA
ATOM     76  O   UNL     1      -9.669 -13.757  -6.918  1.00  0.00    -0.744 OA
ENDBRANCH  70  73
ENDBRANCH  52  66
BRANCH  53  77
ATOM     77  C   UNL     1      -4.745  -2.484  -9.518  1.00  0.00     0.023 A 
ATOM     78  C   UNL     1      -5.296  -1.290 -10.019  1.00  0.00     0.012 A 
ATOM     79  C   UNL     1      -3.356  -2.697  -9.619  1.00  0.00     0.148 A 
ATOM     80  C   UNL     1      -4.483  -0.336 -10.633  1.00  0.00     0.002 A 
ATOM     81  C   UNL     1      -2.544  -1.718 -10.177  1.00  0.00     0.091 A 
ATOM     82  F   UNL     1      -2.855  -3.848  -9.149  1.00  0.00    -0.205 F 
ATOM     83  C   UNL     1      -3.107  -0.544 -10.701  1.00  0.00     0.022 A 
BRANCH  81  84
ATOM     84  S   UNL     1      -0.752  -1.840 -10.183  1.00  0.00     0.127 S 
ATOM     85  O   UNL     1      -0.464  -1.930 -11.613  1.00  0.00    -0.237 OA
ATOM     86  O   UNL     1      -0.367  -0.577  -9.553  1.00  0.00    -0.237 OA
ATOM     87  O   UNL     1      -0.432  -3.026  -9.401  1.00  0.00    -0.744 OA
ENDBRANCH  81  84
ENDBRANCH  53  77
BRANCH  65  88
ATOM     88  C   UNL     1      -9.876  -6.650 -11.820  1.00  0.00     0.023 A 
ATOM     89  C   UNL     1      -9.195  -7.244 -12.900  1.00  0.00     0.012 A 
ATOM     90  C   UNL     1     -11.230  -6.285 -11.973  1.00  0.00     0.148 A 
ATOM     91  C   UNL     1      -9.840  -7.444 -14.121  1.00  0.00     0.002 A 
ATOM     92  C   UNL     1     -11.881  -6.537 -13.174  1.00  0.00     0.091 A 
ATOM     93  F   UNL     1     -11.857  -5.708 -10.938  1.00  0.00    -0.205 F 
ATOM     94  C   UNL     1     -11.185  -7.103 -14.254  1.00  0.00     0.022 A 
BRANCH  92  95
ATOM     95  S   UNL     1     -13.636  -6.225 -13.405  1.00  0.00     0.127 S 
ATOM     96  O   UNL     1     -13.618  -5.111 -14.351  1.00  0.00    -0.237 OA
ATOM     97  O   UNL     1     -14.103  -7.494 -13.964  1.00  0.00    -0.237 OA
ATOM     98  O   UNL     1     -14.167  -5.912 -12.085  1.00  0.00    -0.744 OA
ENDBRANCH  92  95
ENDBRANCH  65  88
ENDBRANCH  39  40
ENDBRANCH  32  34
ENDBRANCH  31  32
ENDBRANCH  30  31
ENDBRANCH  29  30
ENDBRANCH  28  29
ENDBRANCH  27  28
ENDBRANCH  26  27
ENDBRANCH   1  26
TORSDOF 27
