REMARK SMILES CC(=O)N1CC2(CC[NH+](C(=O)COCc3ccccc3)CC2)C[C@H]1C(=O)OCCOCCOCCOCCOC(=O)c1ccc(-c2c3nc(c(-c4cccc(S(=O)(=O)[O-])c4F)c4ccc([nH]4)c(-c4cccc(S(=O)(=O)[O-])c4F)c4nc(c(-c5cccc(S(=O)(=O)[O-])c5F)c5ccc2[nH]5)C=C4)C=C3)cc1
REMARK SMILES IDX 32 1 31 2 30 3 29 4 28 5 27 6 25 7 26 8 24 9 4 10 5 11 6 12
REMARK SMILES IDX 23 13 7 14 22 15 8 16 21 17 9 18 2 20 1 21 3 22 10 23 11 24
REMARK SMILES IDX 12 25 13 26 14 27 15 28 16 29 20 30 17 31 19 32 18 33 33 34
REMARK SMILES IDX 34 35 35 36 36 37 37 38 38 39 39 40 40 41 41 42 42 43 43 44
REMARK SMILES IDX 104 45 44 46 103 47 45 48 46 49 47 50 97 51 48 52 102 53
REMARK SMILES IDX 96 54 98 55 49 56 101 57 95 58 94 59 50 61 82 62 62 63 81 64
REMARK SMILES IDX 63 65 66 66 80 67 99 68 64 69 65 70 79 72 100 73 67 74 51 75
REMARK SMILES IDX 52 76 60 77 53 78 55 79 61 80 54 81 56 82 57 83 58 84 59 85
REMARK SMILES IDX 83 86 84 87 92 88 85 89 87 90 93 91 86 92 88 93 89 94 90 95
REMARK SMILES IDX 91 96 68 97 69 98 77 99 70 100 72 101 78 102 71 103 73 104
REMARK SMILES IDX 74 105 75 106 76 107
REMARK H PARENT 9 19 98 60 66 71
REMARK Flexibility Score: inf
ROOT
ATOM      1  C   UNL     1       0.329   4.165  -1.771  1.00  0.00     0.188 C 
ENDROOT
BRANCH   1   2
ATOM      2  C   UNL     1      -1.022   4.903  -1.695  1.00  0.00     0.188 C 
BRANCH   2   3
ATOM      3  O   UNL     1      -1.094   6.324  -1.770  1.00  0.00    -0.376 OA
BRANCH   3   4
ATOM      4  C   UNL     1      -0.039   7.138  -1.282  1.00  0.00     0.202 C 
BRANCH   4   5
ATOM      5  C   UNL     1       0.547   6.921   0.126  1.00  0.00     0.261 C 
BRANCH   5   6
ATOM      6  O   UNL     1       0.577   5.567   0.609  1.00  0.00    -0.462 OA
BRANCH   6   7
ATOM      7  C   UNL     1      -0.434   5.196   1.431  1.00  0.00     0.328 C 
ATOM      8  O   UNL     1      -1.304   5.961   1.839  1.00  0.00    -0.250 OA
BRANCH   7   9
ATOM      9  C   UNL     1      -0.326   3.734   1.929  1.00  0.00     0.195 C 
ATOM     10  N   UNL     1       0.532   2.712   1.314  1.00  0.00    -0.329 N 
ATOM     11  C   UNL     1       1.900   2.870   1.747  1.00  0.00     0.128 C 
ATOM     12  C   UNL     1       1.774   3.450   3.167  1.00  0.00     0.001 C 
ATOM     13  C   UNL     1       0.268   3.800   3.332  1.00  0.00     0.046 C 
ATOM     14  C   UNL     1       2.676   4.696   3.310  1.00  0.00     0.071 C 
ATOM     15  C   UNL     1       2.142   2.376   4.218  1.00  0.00     0.071 C 
ATOM     16  C   UNL     1       4.158   4.315   3.350  1.00  0.00     0.270 C 
ATOM     17  C   UNL     1       3.635   2.081   4.240  1.00  0.00     0.270 C 
ATOM     18  N   UNL     1       4.356   3.326   4.410  1.00  0.00    -0.270 N 
ATOM     19  H   UNL     1       4.389   3.549   5.368  1.00  0.00     0.356 HD
BRANCH  10  20
ATOM     20  C   UNL     1       0.029   1.652   0.589  1.00  0.00     0.220 C 
ATOM     21  C   UNL     1       0.982   0.522   0.260  1.00  0.00     0.114 C 
ATOM     22  O   UNL     1      -1.152   1.590   0.249  1.00  0.00    -0.275 OA
ENDBRANCH  10  20
BRANCH  18  23
ATOM     23  C   UNL     1       4.972   3.586   5.628  1.00  0.00     0.337 C 
ATOM     24  O   UNL     1       4.890   2.804   6.579  1.00  0.00    -0.228 OA
BRANCH  23  25
ATOM     25  C   UNL     1       5.741   4.901   5.755  1.00  0.00     0.305 C 
BRANCH  25  26
ATOM     26  O   UNL     1       6.734   5.120   4.769  1.00  0.00    -0.363 OA
BRANCH  26  27
ATOM     27  C   UNL     1       7.764   4.127   4.715  1.00  0.00     0.196 C 
BRANCH  27  28
ATOM     28  C   UNL     1       8.494   3.993   6.027  1.00  0.00    -0.022 A 
ATOM     29  C   UNL     1       8.629   2.748   6.653  1.00  0.00     0.006 A 
ATOM     30  C   UNL     1       9.003   5.137   6.656  1.00  0.00     0.006 A 
ATOM     31  C   UNL     1       9.223   2.657   7.911  1.00  0.00     0.000 A 
ATOM     32  C   UNL     1       9.580   5.047   7.920  1.00  0.00     0.000 A 
ATOM     33  C   UNL     1       9.685   3.808   8.550  1.00  0.00     0.000 A 
ENDBRANCH  27  28
ENDBRANCH  26  27
ENDBRANCH  25  26
ENDBRANCH  23  25
ENDBRANCH  18  23
ENDBRANCH   7   9
ENDBRANCH   6   7
ENDBRANCH   5   6
ENDBRANCH   4   5
ENDBRANCH   3   4
ENDBRANCH   2   3
ENDBRANCH   1   2
BRANCH   1  34
ATOM     34  O   UNL     1       1.459   4.993  -1.951  1.00  0.00    -0.377 OA
BRANCH  34  35
ATOM     35  C   UNL     1       1.940   5.142  -3.274  1.00  0.00     0.188 C 
BRANCH  35  36
ATOM     36  C   UNL     1       0.902   5.232  -4.407  1.00  0.00     0.188 C 
BRANCH  36  37
ATOM     37  O   UNL     1      -0.086   4.208  -4.381  1.00  0.00    -0.376 OA
BRANCH  37  38
ATOM     38  C   UNL     1       0.078   3.064  -5.205  1.00  0.00     0.202 C 
BRANCH  38  39
ATOM     39  C   UNL     1       1.206   2.079  -4.854  1.00  0.00     0.261 C 
BRANCH  39  40
ATOM     40  O   UNL     1       2.536   2.612  -4.819  1.00  0.00    -0.460 OA
BRANCH  40  41
ATOM     41  C   UNL     1       3.014   3.190  -5.941  1.00  0.00     0.338 C 
ATOM     42  O   UNL     1       2.451   3.271  -7.020  1.00  0.00    -0.246 OA
BRANCH  41  43
ATOM     43  C   UNL     1       4.262   3.896  -5.584  1.00  0.00     0.060 A 
ATOM     44  C   UNL     1       4.331   5.283  -5.774  1.00  0.00     0.016 A 
ATOM     45  C   UNL     1       5.344   3.200  -5.039  1.00  0.00     0.016 A 
ATOM     46  C   UNL     1       5.499   5.974  -5.450  1.00  0.00     0.010 A 
ATOM     47  C   UNL     1       6.522   3.890  -4.741  1.00  0.00     0.010 A 
ATOM     48  C   UNL     1       6.615   5.273  -4.978  1.00  0.00    -0.014 A 
BRANCH  48  49
ATOM     49  C   UNL     1       7.937   5.943  -4.941  1.00  0.00     0.031 A 
ATOM     50  C   UNL     1       8.863   5.738  -6.111  1.00  0.00     0.074 A 
ATOM     51  C   UNL     1       8.308   6.718  -3.907  1.00  0.00     0.049 A 
ATOM     52  N   UNL     1      10.083   6.170  -6.288  1.00  0.00    -0.248 NA
ATOM     53  C   UNL     1       8.340   4.935  -7.231  1.00  0.00     0.031 C 
ATOM     54  C   UNL     1       7.495   7.007  -2.728  1.00  0.00     0.029 A 
ATOM     55  N   UNL     1       9.486   7.385  -3.676  1.00  0.00    -0.354 N 
ATOM     56  C   UNL     1      10.481   5.676  -7.525  1.00  0.00     0.074 A 
ATOM     57  C   UNL     1       9.381   4.899  -8.049  1.00  0.00     0.031 C 
ATOM     58  C   UNL     1       8.213   7.763  -1.878  1.00  0.00     0.029 A 
ATOM     59  C   UNL     1       9.544   7.988  -2.441  1.00  0.00     0.049 A 
ATOM     60  H   UNL     1      10.220   7.427  -4.331  1.00  0.00     0.167 HD
ATOM     61  C   UNL     1      11.652   5.865  -8.175  1.00  0.00     0.034 A 
ATOM     62  C   UNL     1      10.566   8.618  -1.827  1.00  0.00     0.034 A 
ATOM     63  C   UNL     1      12.743   6.642  -7.656  1.00  0.00     0.049 A 
ATOM     64  C   UNL     1      11.880   8.770  -2.554  1.00  0.00     0.074 A 
ATOM     65  C   UNL     1      13.964   6.911  -8.248  1.00  0.00     0.029 A 
ATOM     66  N   UNL     1      12.751   7.266  -6.419  1.00  0.00    -0.354 N 
ATOM     67  N   UNL     1      12.208   8.381  -3.762  1.00  0.00    -0.248 NA
ATOM     68  C   UNL     1      12.958   9.475  -1.842  1.00  0.00     0.031 C 
ATOM     69  C   UNL     1      14.723   7.672  -7.355  1.00  0.00     0.029 A 
ATOM     70  C   UNL     1      13.958   7.912  -6.225  1.00  0.00     0.049 A 
ATOM     71  H   UNL     1      12.008   7.250  -5.774  1.00  0.00     0.167 HD
ATOM     72  C   UNL     1      13.507   8.833  -3.971  1.00  0.00     0.074 A 
ATOM     73  C   UNL     1      13.900   9.541  -2.771  1.00  0.00     0.031 C 
ATOM     74  C   UNL     1      14.310   8.667  -5.051  1.00  0.00     0.034 A 
BRANCH  61  75
ATOM     75  C   UNL     1      11.809   5.237  -9.533  1.00  0.00     0.023 A 
ATOM     76  C   UNL     1      11.111   5.773 -10.634  1.00  0.00     0.012 A 
ATOM     77  C   UNL     1      12.700   4.165  -9.732  1.00  0.00     0.148 A 
ATOM     78  C   UNL     1      11.279   5.235 -11.909  1.00  0.00     0.002 A 
ATOM     79  C   UNL     1      12.897   3.665 -11.013  1.00  0.00     0.091 A 
ATOM     80  F   UNL     1      13.336   3.658  -8.667  1.00  0.00    -0.205 F 
ATOM     81  C   UNL     1      12.180   4.191 -12.101  1.00  0.00     0.022 A 
BRANCH  79  82
ATOM     82  S   UNL     1      14.091   2.375 -11.379  1.00  0.00     0.127 S 
ATOM     83  O   UNL     1      13.221   1.281 -11.810  1.00  0.00    -0.237 OA
ATOM     84  O   UNL     1      14.881   2.985 -12.449  1.00  0.00    -0.237 OA
ATOM     85  O   UNL     1      14.819   2.135 -10.141  1.00  0.00    -0.744 OA
ENDBRANCH  79  82
ENDBRANCH  61  75
BRANCH  62  86
ATOM     86  C   UNL     1      10.408   9.153  -0.444  1.00  0.00     0.023 A 
ATOM     87  C   UNL     1      10.465  10.542  -0.213  1.00  0.00     0.012 A 
ATOM     88  C   UNL     1      10.240   8.284   0.650  1.00  0.00     0.148 A 
ATOM     89  C   UNL     1      10.403  11.050   1.086  1.00  0.00     0.002 A 
ATOM     90  C   UNL     1      10.120   8.801   1.935  1.00  0.00     0.091 A 
ATOM     91  F   UNL     1      10.208   6.965   0.412  1.00  0.00    -0.205 F 
ATOM     92  C   UNL     1      10.223  10.182   2.159  1.00  0.00     0.022 A 
BRANCH  90  93
ATOM     93  S   UNL     1       9.763   7.762   3.352  1.00  0.00     0.127 S 
ATOM     94  O   UNL     1      11.018   7.821   4.095  1.00  0.00    -0.237 OA
ATOM     95  O   UNL     1       8.647   8.475   3.974  1.00  0.00    -0.237 OA
ATOM     96  O   UNL     1       9.418   6.462   2.795  1.00  0.00    -0.744 OA
ENDBRANCH  90  93
ENDBRANCH  62  86
BRANCH  74  97
ATOM     97  C   UNL     1      15.671   9.313  -5.023  1.00  0.00     0.023 A 
ATOM     98  C   UNL     1      16.683   8.798  -4.188  1.00  0.00     0.012 A 
ATOM     99  C   UNL     1      15.967  10.387  -5.886  1.00  0.00     0.148 A 
ATOM    100  C   UNL     1      17.957   9.366  -4.187  1.00  0.00     0.002 A 
ATOM    101  C   UNL     1      17.252  10.912  -5.919  1.00  0.00     0.091 A 
ATOM    102  F   UNL     1      14.987  10.871  -6.662  1.00  0.00    -0.205 F 
ATOM    103  C   UNL     1      18.244  10.414  -5.059  1.00  0.00     0.022 A 
BRANCH 101 104
ATOM    104  S   UNL     1      17.742  12.193  -7.080  1.00  0.00     0.127 S 
ATOM    105  O   UNL     1      17.926  13.342  -6.194  1.00  0.00    -0.237 OA
ATOM    106  O   UNL     1      18.980  11.647  -7.637  1.00  0.00    -0.237 OA
ATOM    107  O   UNL     1      16.648  12.311  -8.034  1.00  0.00    -0.744 OA
ENDBRANCH 101 104
ENDBRANCH  74  97
ENDBRANCH  48  49
ENDBRANCH  41  43
ENDBRANCH  40  41
ENDBRANCH  39  40
ENDBRANCH  38  39
ENDBRANCH  37  38
ENDBRANCH  36  37
ENDBRANCH  35  36
ENDBRANCH  34  35
ENDBRANCH   1  34
TORSDOF 29
