REMARK SMILES C[C@H](Nc1ccc2c(c1)Cc1ccccc1-2)[C@@H](C)C(=O)OCCOCCOCCOCCOC(=O)c1ccc(-c2c3nc(c(-c4cccc(S(=O)(=O)[O-])c4F)c4ccc([nH]4)c(-c4cccc(S(=O)(=O)[O-])c4F)c4nc(c(-c5cccc(S(=O)(=O)[O-])c5F)c5ccc2[nH]5)C=C4)C=C3)cc1
REMARK SMILES IDX 27 1 26 2 25 3 24 4 23 5 22 6 21 7 19 8 20 9 17 10 18 11
REMARK SMILES IDX 2 12 1 13 3 14 4 16 5 17 9 18 6 19 8 20 7 21 10 22 16 23
REMARK SMILES IDX 11 24 15 25 12 26 14 27 13 28 28 29 29 30 30 31 31 32 32 33
REMARK SMILES IDX 33 34 34 35 35 36 36 37 37 38 98 39 38 40 97 41 39 42 40 43
REMARK SMILES IDX 41 44 91 45 42 46 96 47 90 48 92 49 43 50 95 51 89 52 88 53
REMARK SMILES IDX 44 55 76 56 56 57 75 58 57 59 60 60 74 61 93 62 58 63 59 64
REMARK SMILES IDX 73 66 94 67 61 68 45 69 46 70 54 71 47 72 49 73 55 74 48 75
REMARK SMILES IDX 50 76 51 77 52 78 53 79 77 80 78 81 86 82 79 83 81 84 87 85
REMARK SMILES IDX 80 86 82 87 83 88 84 89 85 90 62 91 63 92 71 93 64 94 66 95
REMARK SMILES IDX 72 96 65 97 67 98 68 99 69 100 70 101
REMARK H PARENT 3 15 92 54 60 65
REMARK Flexibility Score: inf
ROOT
ATOM      1  O   UNL     1      -0.217  -4.512   0.774  1.00  0.00    -0.377 OA
ENDROOT
BRANCH   1   2
ATOM      2  C   UNL     1      -1.090  -4.541   1.890  1.00  0.00     0.188 C 
BRANCH   2   3
ATOM      3  C   UNL     1      -2.568  -4.643   1.520  1.00  0.00     0.188 C 
BRANCH   3   4
ATOM      4  O   UNL     1      -2.954  -5.710   0.672  1.00  0.00    -0.376 OA
BRANCH   4   5
ATOM      5  C   UNL     1      -2.460  -5.725  -0.667  1.00  0.00     0.202 C 
BRANCH   5   6
ATOM      6  C   UNL     1      -2.491  -4.444  -1.528  1.00  0.00     0.261 C 
BRANCH   6   7
ATOM      7  O   UNL     1      -1.558  -3.391  -1.161  1.00  0.00    -0.463 OA
BRANCH   7   8
ATOM      8  C   UNL     1      -2.096  -2.235  -0.701  1.00  0.00     0.310 C 
ATOM      9  O   UNL     1      -3.305  -2.079  -0.521  1.00  0.00    -0.252 OA
BRANCH   8  10
ATOM     10  C   UNL     1      -1.137  -1.065  -0.472  1.00  0.00     0.118 C 
ATOM     11  C   UNL     1      -1.444  -0.071  -1.602  1.00  0.00     0.022 C 
BRANCH  10  12
ATOM     12  C   UNL     1       0.377  -1.349  -0.318  1.00  0.00     0.090 C 
ATOM     13  C   UNL     1       0.786  -1.707   1.126  1.00  0.00     0.031 C 
BRANCH  12  14
ATOM     14  N   UNL     1       1.166  -0.141  -0.651  1.00  0.00    -0.382 N 
ATOM     15  H   UNL     1       0.807   0.767  -0.529  1.00  0.00     0.160 HD
BRANCH  14  16
ATOM     16  C   UNL     1       2.452  -0.371  -1.149  1.00  0.00     0.035 A 
ATOM     17  C   UNL     1       2.614  -1.051  -2.371  1.00  0.00     0.026 A 
ATOM     18  C   UNL     1       3.574  -0.080  -0.358  1.00  0.00     0.030 A 
ATOM     19  C   UNL     1       3.869  -1.470  -2.812  1.00  0.00     0.011 A 
ATOM     20  C   UNL     1       4.816  -0.516  -0.790  1.00  0.00    -0.034 A 
ATOM     21  C   UNL     1       4.961  -1.215  -2.006  1.00  0.00    -0.014 A 
ATOM     22  C   UNL     1       6.160  -0.390  -0.098  1.00  0.00     0.072 C 
ATOM     23  C   UNL     1       6.350  -1.562  -2.184  1.00  0.00    -0.015 A 
ATOM     24  C   UNL     1       7.087  -1.077  -1.082  1.00  0.00    -0.036 A 
ATOM     25  C   UNL     1       6.974  -2.246  -3.212  1.00  0.00     0.009 A 
ATOM     26  C   UNL     1       8.458  -1.251  -1.006  1.00  0.00     0.005 A 
ATOM     27  C   UNL     1       8.356  -2.426  -3.142  1.00  0.00     0.001 A 
ATOM     28  C   UNL     1       9.091  -1.928  -2.052  1.00  0.00     0.000 A 
ENDBRANCH  14  16
ENDBRANCH  12  14
ENDBRANCH  10  12
ENDBRANCH   8  10
ENDBRANCH   7   8
ENDBRANCH   6   7
ENDBRANCH   5   6
ENDBRANCH   4   5
ENDBRANCH   3   4
ENDBRANCH   2   3
ENDBRANCH   1   2
BRANCH   1  29
ATOM     29  C   UNL     1       0.692  -5.588   0.537  1.00  0.00     0.188 C 
BRANCH  29  30
ATOM     30  C   UNL     1       0.743  -6.709   1.576  1.00  0.00     0.188 C 
BRANCH  30  31
ATOM     31  O   UNL     1       1.215  -6.365   2.884  1.00  0.00    -0.376 OA
BRANCH  31  32
ATOM     32  C   UNL     1       2.129  -5.277   3.005  1.00  0.00     0.202 C 
BRANCH  32  33
ATOM     33  C   UNL     1       3.595  -5.604   2.716  1.00  0.00     0.261 C 
BRANCH  33  34
ATOM     34  O   UNL     1       3.815  -6.029   1.365  1.00  0.00    -0.460 OA
BRANCH  34  35
ATOM     35  C   UNL     1       3.875  -7.368   1.182  1.00  0.00     0.338 C 
ATOM     36  O   UNL     1       3.757  -8.241   2.030  1.00  0.00    -0.246 OA
BRANCH  35  37
ATOM     37  C   UNL     1       3.956  -7.646  -0.260  1.00  0.00     0.060 A 
ATOM     38  C   UNL     1       3.019  -8.516  -0.835  1.00  0.00     0.016 A 
ATOM     39  C   UNL     1       4.984  -7.095  -1.025  1.00  0.00     0.016 A 
ATOM     40  C   UNL     1       3.118  -8.852  -2.182  1.00  0.00     0.010 A 
ATOM     41  C   UNL     1       5.095  -7.449  -2.367  1.00  0.00     0.010 A 
ATOM     42  C   UNL     1       4.178  -8.347  -2.942  1.00  0.00    -0.014 A 
BRANCH  42  43
ATOM     43  C   UNL     1       4.433  -8.861  -4.303  1.00  0.00     0.031 A 
ATOM     44  C   UNL     1       5.504  -9.895  -4.489  1.00  0.00     0.074 A 
ATOM     45  C   UNL     1       3.754  -8.371  -5.353  1.00  0.00     0.049 A 
ATOM     46  N   UNL     1       5.996 -10.387  -5.593  1.00  0.00    -0.248 NA
ATOM     47  C   UNL     1       6.108 -10.440  -3.261  1.00  0.00     0.031 C 
ATOM     48  C   UNL     1       2.678  -7.385  -5.276  1.00  0.00     0.029 A 
ATOM     49  N   UNL     1       3.902  -8.611  -6.694  1.00  0.00    -0.354 N 
ATOM     50  C   UNL     1       6.992 -11.272  -5.199  1.00  0.00     0.074 A 
ATOM     51  C   UNL     1       7.039 -11.244  -3.753  1.00  0.00     0.031 C 
ATOM     52  C   UNL     1       2.286  -7.073  -6.524  1.00  0.00     0.029 A 
ATOM     53  C   UNL     1       3.113  -7.806  -7.480  1.00  0.00     0.049 A 
ATOM     54  H   UNL     1       4.513  -9.291  -7.058  1.00  0.00     0.167 HD
ATOM     55  C   UNL     1       7.790 -12.042  -5.974  1.00  0.00     0.034 A 
ATOM     56  C   UNL     1       3.095  -7.652  -8.818  1.00  0.00     0.034 A 
ATOM     57  C   UNL     1       7.734 -12.056  -7.411  1.00  0.00     0.049 A 
ATOM     58  C   UNL     1       4.040  -8.470  -9.659  1.00  0.00     0.074 A 
ATOM     59  C   UNL     1       8.472 -12.821  -8.294  1.00  0.00     0.029 A 
ATOM     60  N   UNL     1       6.904 -11.248  -8.175  1.00  0.00    -0.354 N 
ATOM     61  N   UNL     1       4.912  -9.374  -9.281  1.00  0.00    -0.248 NA
ATOM     62  C   UNL     1       3.984  -8.262 -11.113  1.00  0.00     0.031 C 
ATOM     63  C   UNL     1       8.117 -12.446  -9.595  1.00  0.00     0.029 A 
ATOM     64  C   UNL     1       7.126 -11.480  -9.521  1.00  0.00     0.049 A 
ATOM     65  H   UNL     1       6.253 -10.605  -7.813  1.00  0.00     0.167 HD
ATOM     66  C   UNL     1       5.479  -9.871 -10.450  1.00  0.00     0.074 A 
ATOM     67  C   UNL     1       4.841  -9.176 -11.549  1.00  0.00     0.031 C 
ATOM     68  C   UNL     1       6.446 -10.810 -10.601  1.00  0.00     0.034 A 
BRANCH  55  69
ATOM     69  C   UNL     1       8.790 -12.929  -5.280  1.00  0.00     0.023 A 
ATOM     70  C   UNL     1       8.347 -14.046  -4.543  1.00  0.00     0.012 A 
ATOM     71  C   UNL     1      10.172 -12.673  -5.379  1.00  0.00     0.148 A 
ATOM     72  C   UNL     1       9.258 -14.870  -3.883  1.00  0.00     0.002 A 
ATOM     73  C   UNL     1      11.077 -13.526  -4.759  1.00  0.00     0.091 A 
ATOM     74  F   UNL     1      10.575 -11.593  -6.064  1.00  0.00    -0.205 F 
ATOM     75  C   UNL     1      10.622 -14.616  -3.999  1.00  0.00     0.022 A 
BRANCH  73  76
ATOM     76  S   UNL     1      12.855 -13.330  -4.913  1.00  0.00     0.127 S 
ATOM     77  O   UNL     1      13.225 -12.917  -3.560  1.00  0.00    -0.237 OA
ATOM     78  O   UNL     1      13.282 -14.681  -5.276  1.00  0.00    -0.237 OA
ATOM     79  O   UNL     1      13.062 -12.328  -5.949  1.00  0.00    -0.744 OA
ENDBRANCH  73  76
ENDBRANCH  55  69
BRANCH  56  80
ATOM     80  C   UNL     1       2.140  -6.698  -9.447  1.00  0.00     0.023 A 
ATOM     81  C   UNL     1       1.081  -7.196 -10.230  1.00  0.00     0.012 A 
ATOM     82  C   UNL     1       2.261  -5.307  -9.259  1.00  0.00     0.148 A 
ATOM     83  C   UNL     1       0.177  -6.325 -10.840  1.00  0.00     0.002 A 
ATOM     84  C   UNL     1       1.325  -4.449  -9.823  1.00  0.00     0.091 A 
ATOM     85  F   UNL     1       3.282  -4.853  -8.518  1.00  0.00    -0.205 F 
ATOM     86  C   UNL     1       0.293  -4.954 -10.629  1.00  0.00     0.022 A 
BRANCH  84  87
ATOM     87  S   UNL     1       1.319  -2.681  -9.504  1.00  0.00     0.127 S 
ATOM     88  O   UNL     1       1.629  -2.139 -10.825  1.00  0.00    -0.237 OA
ATOM     89  O   UNL     1      -0.057  -2.465  -9.056  1.00  0.00    -0.237 OA
ATOM     90  O   UNL     1       2.329  -2.461  -8.479  1.00  0.00    -0.744 OA
ENDBRANCH  84  87
ENDBRANCH  56  80
BRANCH  68  91
ATOM     91  C   UNL     1       6.848 -11.183 -12.005  1.00  0.00     0.023 A 
ATOM     92  C   UNL     1       7.606 -10.287 -12.784  1.00  0.00     0.012 A 
ATOM     93  C   UNL     1       6.548 -12.462 -12.517  1.00  0.00     0.148 A 
ATOM     94  C   UNL     1       8.034 -10.647 -14.062  1.00  0.00     0.002 A 
ATOM     95  C   UNL     1       7.024 -12.833 -13.768  1.00  0.00     0.091 A 
ATOM     96  F   UNL     1       5.814 -13.294 -11.764  1.00  0.00    -0.205 F 
ATOM     97  C   UNL     1       7.755 -11.922 -14.547  1.00  0.00     0.022 A 
BRANCH  95  98
ATOM     98  S   UNL     1       6.802 -14.486 -14.435  1.00  0.00     0.127 S 
ATOM     99  O   UNL     1       5.907 -14.233 -15.564  1.00  0.00    -0.237 OA
ATOM    100  O   UNL     1       8.168 -14.851 -14.809  1.00  0.00    -0.237 OA
ATOM    101  O   UNL     1       6.232 -15.284 -13.359  1.00  0.00    -0.744 OA
ENDBRANCH  95  98
ENDBRANCH  68  91
ENDBRANCH  42  43
ENDBRANCH  35  37
ENDBRANCH  34  35
ENDBRANCH  33  34
ENDBRANCH  32  33
ENDBRANCH  31  32
ENDBRANCH  30  31
ENDBRANCH  29  30
ENDBRANCH   1  29
TORSDOF 26
