REMARK SMILES CCOCCCC(=O)N[C@@H]1[C@@H]2CC[C@@H](C2)[C@@H]1C(=O)OCCOCCOCCOCCOC(=O)c1ccc(-c2c3nc(c(-c4cccc(S(=O)(=O)[O-])c4F)c4ccc([nH]4)c(-c4cccc(S(=O)(=O)[O-])c4F)c4nc(c(-c5cccc(S(=O)(=O)[O-])c5F)c5ccc2[nH]5)C=C4)C=C3)cc1
REMARK SMILES IDX 23 1 22 2 21 3 20 4 19 5 17 6 18 7 16 8 10 9 11 10 12 11
REMARK SMILES IDX 15 12 14 13 13 14 9 15 7 16 8 17 6 19 5 20 4 21 3 22 2 23
REMARK SMILES IDX 1 24 24 25 25 26 26 27 27 28 28 29 29 30 30 31 31 32 32 33
REMARK SMILES IDX 33 34 34 35 35 36 96 37 36 38 95 39 37 40 38 41 39 42 89 43
REMARK SMILES IDX 40 44 94 45 88 46 90 47 41 48 93 49 87 50 86 51 42 53 74 54
REMARK SMILES IDX 54 55 73 56 55 57 58 58 72 59 91 60 56 61 57 62 71 64 92 65
REMARK SMILES IDX 59 66 43 67 44 68 52 69 45 70 47 71 53 72 46 73 48 74 49 75
REMARK SMILES IDX 50 76 51 77 75 78 76 79 84 80 77 81 79 82 85 83 78 84 80 85
REMARK SMILES IDX 81 86 82 87 83 88 60 89 61 90 69 91 62 92 64 93 70 94 63 95
REMARK SMILES IDX 65 96 66 97 67 98 68 99
REMARK H PARENT 9 18 90 52 58 63
REMARK Flexibility Score: inf
ROOT
ATOM      1  C   UNL     1       1.988  -3.400   4.439  1.00  0.00     0.188 C 
ENDROOT
BRANCH   1   2
ATOM      2  O   UNL     1       3.270  -3.961   4.634  1.00  0.00    -0.376 OA
BRANCH   2   3
ATOM      3  C   UNL     1       4.473  -3.368   4.138  1.00  0.00     0.202 C 
BRANCH   3   4
ATOM      4  C   UNL     1       4.936  -3.433   2.626  1.00  0.00     0.261 C 
BRANCH   4   5
ATOM      5  O   UNL     1       4.361  -2.504   1.624  1.00  0.00    -0.463 OA
BRANCH   5   6
ATOM      6  C   UNL     1       3.995  -2.952   0.371  1.00  0.00     0.311 C 
ATOM      7  O   UNL     1       4.285  -4.088  -0.009  1.00  0.00    -0.252 OA
BRANCH   6   8
ATOM      8  C   UNL     1       2.907  -2.017  -0.561  1.00  0.00     0.125 C 
ATOM      9  C   UNL     1       1.892  -0.436  -0.252  1.00  0.00     0.099 C 
ATOM     10  C   UNL     1       0.466  -0.931  -0.283  1.00  0.00     0.013 C 
ATOM     11  C   UNL     1      -0.535  -2.316   0.996  1.00  0.00     0.006 C 
ATOM     12  C   UNL     1       0.991  -1.807  -1.929  1.00  0.00     0.010 C 
ATOM     13  C   UNL     1       1.589  -3.235  -1.204  1.00  0.00     0.006 C 
ATOM     14  C   UNL     1       0.196  -4.055   0.070  1.00  0.00     0.005 C 
BRANCH   9  15
ATOM     15  N   UNL     1       1.612   0.686   0.758  1.00  0.00    -0.352 N 
ATOM     16  C   UNL     1       0.398   1.131   1.348  1.00  0.00     0.220 C 
ATOM     17  O   UNL     1       0.467   2.199   1.978  1.00  0.00    -0.275 OA
ATOM     18  H   UNL     1       2.411   1.183   1.047  1.00  0.00     0.163 HD
BRANCH  16  19
ATOM     19  C   UNL     1      -1.016   0.333   1.489  1.00  0.00     0.102 C 
BRANCH  19  20
ATOM     20  C   UNL     1      -2.002  -0.357   0.415  1.00  0.00     0.038 C 
BRANCH  20  21
ATOM     21  C   UNL     1      -1.623  -1.501  -0.759  1.00  0.00     0.160 C 
BRANCH  21  22
ATOM     22  O   UNL     1      -0.182  -2.516  -0.641  1.00  0.00    -0.382 OA
BRANCH  22  23
ATOM     23  C   UNL     1       1.269  -2.589   0.796  1.00  0.00     0.156 C 
ATOM     24  C   UNL     1       1.972  -1.565   1.765  1.00  0.00     0.035 C 
ENDBRANCH  22  23
ENDBRANCH  21  22
ENDBRANCH  20  21
ENDBRANCH  19  20
ENDBRANCH  16  19
ENDBRANCH   9  15
ENDBRANCH   6   8
ENDBRANCH   5   6
ENDBRANCH   4   5
ENDBRANCH   3   4
ENDBRANCH   2   3
ENDBRANCH   1   2
BRANCH   1  25
ATOM     25  C   UNL     1       1.746  -1.905   4.488  1.00  0.00     0.188 C 
BRANCH  25  26
ATOM     26  O   UNL     1       2.861  -1.065   4.370  1.00  0.00    -0.377 OA
BRANCH  26  27
ATOM     27  C   UNL     1       3.211  -0.340   5.536  1.00  0.00     0.188 C 
BRANCH  27  28
ATOM     28  C   UNL     1       2.534  -0.740   6.868  1.00  0.00     0.188 C 
BRANCH  28  29
ATOM     29  O   UNL     1       1.142  -0.997   6.988  1.00  0.00    -0.376 OA
BRANCH  29  30
ATOM     30  C   UNL     1       0.080  -0.114   6.639  1.00  0.00     0.202 C 
BRANCH  30  31
ATOM     31  C   UNL     1       0.206   1.215   5.877  1.00  0.00     0.261 C 
BRANCH  31  32
ATOM     32  O   UNL     1       1.430   1.930   5.971  1.00  0.00    -0.460 OA
BRANCH  32  33
ATOM     33  C   UNL     1       1.815   2.338   7.196  1.00  0.00     0.338 C 
ATOM     34  O   UNL     1       1.212   2.193   8.242  1.00  0.00    -0.246 OA
BRANCH  33  35
ATOM     35  C   UNL     1       3.214   2.791   7.061  1.00  0.00     0.060 A 
ATOM     36  C   UNL     1       4.225   2.068   7.711  1.00  0.00     0.016 A 
ATOM     37  C   UNL     1       3.530   3.885   6.254  1.00  0.00     0.016 A 
ATOM     38  C   UNL     1       5.554   2.422   7.551  1.00  0.00     0.010 A 
ATOM     39  C   UNL     1       4.860   4.291   6.158  1.00  0.00     0.010 A 
ATOM     40  C   UNL     1       5.865   3.573   6.829  1.00  0.00    -0.014 A 
BRANCH  40  41
ATOM     41  C   UNL     1       7.210   4.145   7.000  1.00  0.00     0.031 A 
ATOM     42  C   UNL     1       7.379   5.227   8.024  1.00  0.00     0.074 A 
ATOM     43  C   UNL     1       8.253   3.669   6.304  1.00  0.00     0.049 A 
ATOM     44  N   UNL     1       8.443   5.916   8.327  1.00  0.00    -0.248 NA
ATOM     45  C   UNL     1       6.184   5.580   8.813  1.00  0.00     0.031 C 
ATOM     46  C   UNL     1       8.194   2.575   5.336  1.00  0.00     0.029 A 
ATOM     47  N   UNL     1       9.563   4.066   6.293  1.00  0.00    -0.354 N 
ATOM     48  C   UNL     1       8.040   6.811   9.309  1.00  0.00     0.074 A 
ATOM     49  C   UNL     1       6.634   6.582   9.550  1.00  0.00     0.031 C 
ATOM     50  C   UNL     1       9.412   2.412   4.793  1.00  0.00     0.029 A 
ATOM     51  C   UNL     1      10.317   3.417   5.346  1.00  0.00     0.049 A 
ATOM     52  H   UNL     1       9.927   4.748   6.902  1.00  0.00     0.167 HD
ATOM     53  C   UNL     1       8.783   7.741   9.949  1.00  0.00     0.034 A 
ATOM     54  C   UNL     1      11.582   3.648   4.946  1.00  0.00     0.034 A 
ATOM     55  C   UNL     1      10.177   7.958   9.686  1.00  0.00     0.049 A 
ATOM     56  C   UNL     1      12.365   4.744   5.621  1.00  0.00     0.074 A 
ATOM     57  C   UNL     1      11.035   8.857  10.291  1.00  0.00     0.029 A 
ATOM     58  N   UNL     1      10.911   7.289   8.718  1.00  0.00    -0.354 N 
ATOM     59  N   UNL     1      11.999   5.539   6.598  1.00  0.00    -0.248 NA
ATOM     60  C   UNL     1      13.742   4.959   5.155  1.00  0.00     0.031 C 
ATOM     61  C   UNL     1      12.271   8.777   9.644  1.00  0.00     0.029 A 
ATOM     62  C   UNL     1      12.205   7.775   8.688  1.00  0.00     0.049 A 
ATOM     63  H   UNL     1      10.562   6.574   8.138  1.00  0.00     0.167 HD
ATOM     64  C   UNL     1      13.112   6.319   6.893  1.00  0.00     0.074 A 
ATOM     65  C   UNL     1      14.168   5.888   6.000  1.00  0.00     0.031 C 
ATOM     66  C   UNL     1      13.249   7.304   7.814  1.00  0.00     0.034 A 
BRANCH  53  67
ATOM     67  C   UNL     1       8.092   8.611  10.964  1.00  0.00     0.023 A 
ATOM     68  C   UNL     1       7.637   8.063  12.181  1.00  0.00     0.012 A 
ATOM     69  C   UNL     1       7.927   9.988  10.720  1.00  0.00     0.148 A 
ATOM     70  C   UNL     1       6.996   8.867  13.123  1.00  0.00     0.002 A 
ATOM     71  C   UNL     1       7.336  10.791  11.685  1.00  0.00     0.091 A 
ATOM     72  F   UNL     1       8.345  10.483   9.547  1.00  0.00    -0.205 F 
ATOM     73  C   UNL     1       6.857  10.231  12.880  1.00  0.00     0.022 A 
BRANCH  71  74
ATOM     74  S   UNL     1       7.182  12.570  11.501  1.00  0.00     0.127 S 
ATOM     75  O   UNL     1       5.730  12.735  11.445  1.00  0.00    -0.237 OA
ATOM     76  O   UNL     1       7.805  13.058  12.731  1.00  0.00    -0.237 OA
ATOM     77  O   UNL     1       7.891  12.915  10.277  1.00  0.00    -0.744 OA
ENDBRANCH  71  74
ENDBRANCH  53  67
BRANCH  54  78
ATOM     78  C   UNL     1      12.179   2.840   3.849  1.00  0.00     0.023 A 
ATOM     79  C   UNL     1      13.258   1.978   4.121  1.00  0.00     0.012 A 
ATOM     80  C   UNL     1      11.680   2.924   2.534  1.00  0.00     0.148 A 
ATOM     81  C   UNL     1      13.855   1.244   3.096  1.00  0.00     0.002 A 
ATOM     82  C   UNL     1      12.241   2.147   1.530  1.00  0.00     0.091 A 
ATOM     83  F   UNL     1      10.656   3.756   2.296  1.00  0.00    -0.205 F 
ATOM     84  C   UNL     1      13.342   1.322   1.803  1.00  0.00     0.022 A 
BRANCH  82  85
ATOM     85  S   UNL     1      11.573   2.095  -0.136  1.00  0.00     0.127 S 
ATOM     86  O   UNL     1      12.671   2.662  -0.916  1.00  0.00    -0.237 OA
ATOM     87  O   UNL     1      11.357   0.661  -0.325  1.00  0.00    -0.237 OA
ATOM     88  O   UNL     1      10.353   2.890  -0.102  1.00  0.00    -0.744 OA
ENDBRANCH  82  85
ENDBRANCH  54  78
BRANCH  66  89
ATOM     89  C   UNL     1      14.603   7.951   7.952  1.00  0.00     0.023 A 
ATOM     90  C   UNL     1      15.095   8.800   6.942  1.00  0.00     0.012 A 
ATOM     91  C   UNL     1      15.349   7.774   9.135  1.00  0.00     0.148 A 
ATOM     92  C   UNL     1      16.327   9.436   7.093  1.00  0.00     0.002 A 
ATOM     93  C   UNL     1      16.546   8.457   9.303  1.00  0.00     0.091 A 
ATOM     94  F   UNL     1      14.865   6.954  10.079  1.00  0.00    -0.205 F 
ATOM     95  C   UNL     1      17.044   9.275   8.277  1.00  0.00     0.022 A 
BRANCH  93  96
ATOM     96  S   UNL     1      17.488   8.390  10.829  1.00  0.00     0.127 S 
ATOM     97  O   UNL     1      18.713   7.722  10.392  1.00  0.00    -0.237 OA
ATOM     98  O   UNL     1      17.648   9.807  11.153  1.00  0.00    -0.237 OA
ATOM     99  O   UNL     1      16.678   7.636  11.776  1.00  0.00    -0.744 OA
ENDBRANCH  93  96
ENDBRANCH  66  89
ENDBRANCH  40  41
ENDBRANCH  33  35
ENDBRANCH  32  33
ENDBRANCH  31  32
ENDBRANCH  30  31
ENDBRANCH  29  30
ENDBRANCH  28  29
ENDBRANCH  27  28
ENDBRANCH  26  27
ENDBRANCH  25  26
ENDBRANCH   1  25
TORSDOF 29
