REMARK SMILES CC(C)n1c2c(c3ccccc31)[C@@H](c1ccccc1)N(CC(=O)OCCOCCOCCOCCOC(=O)c1ccc(-c3c4nc(c(-c5cccc(S(=O)(=O)[O-])c5F)c5ccc([nH]5)c(-c5cccc(S(=O)(=O)[O-])c5F)c5nc(c(-c6cccc(S(=O)(=O)[O-])c6F)c6ccc3[nH]6)C=C5)C=C4)cc1)C2=O
REMARK SMILES IDX 31 1 30 2 29 3 28 4 27 5 26 6 25 7 24 8 22 9 23 10 21 11
REMARK SMILES IDX 20 12 4 13 5 14 12 15 6 16 102 17 7 18 11 19 13 20 103 21
REMARK SMILES IDX 8 22 10 23 9 24 2 25 1 26 3 27 14 28 15 29 19 30 16 31 18 32
REMARK SMILES IDX 17 33 32 34 33 35 34 36 35 37 36 38 37 39 38 40 39 41 40 42
REMARK SMILES IDX 101 43 41 44 100 45 42 46 43 47 44 48 94 49 45 50 99 51
REMARK SMILES IDX 93 52 95 53 46 54 98 55 92 56 91 57 47 59 79 60 59 61 78 62
REMARK SMILES IDX 60 63 63 64 77 65 96 66 61 67 62 68 76 70 97 71 64 72 48 73
REMARK SMILES IDX 49 74 57 75 50 76 52 77 58 78 51 79 53 80 54 81 55 82 56 83
REMARK SMILES IDX 80 84 81 85 89 86 82 87 84 88 90 89 83 90 85 91 86 92 87 93
REMARK SMILES IDX 88 94 65 95 66 96 74 97 67 98 69 99 75 100 68 101 70 102
REMARK SMILES IDX 71 103 72 104 73 105
REMARK H PARENT 95 58 63 69
REMARK Flexibility Score: inf
ROOT
ATOM      1  C   UNL     1      -5.776  -2.340   3.507  1.00  0.00     0.188 C 
ENDROOT
BRANCH   1   2
ATOM      2  O   UNL     1      -5.565  -3.567   2.836  1.00  0.00    -0.377 OA
BRANCH   2   3
ATOM      3  C   UNL     1      -6.619  -4.228   2.189  1.00  0.00     0.188 C 
BRANCH   3   4
ATOM      4  C   UNL     1      -7.197  -5.417   2.941  1.00  0.00     0.188 C 
BRANCH   4   5
ATOM      5  O   UNL     1      -7.168  -5.414   4.351  1.00  0.00    -0.376 OA
BRANCH   5   6
ATOM      6  C   UNL     1      -5.931  -5.254   5.044  1.00  0.00     0.202 C 
BRANCH   6   7
ATOM      7  C   UNL     1      -4.616  -5.918   4.573  1.00  0.00     0.261 C 
BRANCH   7   8
ATOM      8  O   UNL     1      -4.024  -5.395   3.348  1.00  0.00    -0.462 OA
BRANCH   8   9
ATOM      9  C   UNL     1      -3.976  -6.229   2.285  1.00  0.00     0.325 C 
ATOM     10  O   UNL     1      -4.342  -7.404   2.331  1.00  0.00    -0.250 OA
BRANCH   9  11
ATOM     11  C   UNL     1      -3.446  -5.654   0.946  1.00  0.00     0.243 C 
BRANCH  11  12
ATOM     12  N   UNL     1      -3.099  -4.274   0.592  1.00  0.00    -0.315 N 
ATOM     13  N   UNL     1      -1.051  -1.328   0.477  1.00  0.00    -0.334 N 
ATOM     14  C   UNL     1      -1.865  -2.417   0.430  1.00  0.00     0.114 A 
ATOM     15  C   UNL     1      -1.865  -0.201   0.367  1.00  0.00     0.049 A 
ATOM     16  C   UNL     1      -3.120  -2.050   0.046  1.00  0.00     0.018 A 
ATOM     17  C   UNL     1      -1.781  -3.811   0.737  1.00  0.00     0.272 C 
ATOM     18  C   UNL     1      -3.138  -0.643  -0.055  1.00  0.00     0.006 A 
ATOM     19  C   UNL     1      -1.629   1.164   0.612  1.00  0.00     0.027 A 
ATOM     20  C   UNL     1      -4.040  -3.229   0.061  1.00  0.00     0.150 C 
ATOM     21  O   UNL     1      -0.803  -4.446   1.054  1.00  0.00    -0.267 OA
ATOM     22  C   UNL     1      -4.115   0.314  -0.389  1.00  0.00     0.011 A 
ATOM     23  C   UNL     1      -2.657   2.082   0.370  1.00  0.00     0.002 A 
ATOM     24  C   UNL     1      -3.874   1.669  -0.155  1.00  0.00     0.001 A 
BRANCH  13  25
ATOM     25  C   UNL     1       0.403  -1.411   0.597  1.00  0.00     0.082 C 
ATOM     26  C   UNL     1       1.180  -0.239  -0.014  1.00  0.00     0.031 C 
ATOM     27  C   UNL     1       0.843  -1.658   2.037  1.00  0.00     0.031 C 
ENDBRANCH  13  25
BRANCH  20  28
ATOM     28  C   UNL     1      -4.650  -3.472  -1.321  1.00  0.00    -0.021 A 
ATOM     29  C   UNL     1      -5.643  -4.466  -1.461  1.00  0.00     0.006 A 
ATOM     30  C   UNL     1      -4.398  -2.693  -2.465  1.00  0.00     0.006 A 
ATOM     31  C   UNL     1      -6.357  -4.658  -2.648  1.00  0.00     0.000 A 
ATOM     32  C   UNL     1      -5.122  -2.870  -3.654  1.00  0.00     0.000 A 
ATOM     33  C   UNL     1      -6.105  -3.849  -3.744  1.00  0.00     0.000 A 
ENDBRANCH  20  28
ENDBRANCH  11  12
ENDBRANCH   9  11
ENDBRANCH   8   9
ENDBRANCH   7   8
ENDBRANCH   6   7
ENDBRANCH   5   6
ENDBRANCH   4   5
ENDBRANCH   3   4
ENDBRANCH   2   3
ENDBRANCH   1   2
BRANCH   1  34
ATOM     34  C   UNL     1      -7.211  -1.915   3.825  1.00  0.00     0.188 C 
BRANCH  34  35
ATOM     35  O   UNL     1      -7.989  -1.769   2.641  1.00  0.00    -0.376 OA
BRANCH  35  36
ATOM     36  C   UNL     1      -8.102  -0.475   2.063  1.00  0.00     0.202 C 
BRANCH  36  37
ATOM     37  C   UNL     1      -6.819   0.270   1.674  1.00  0.00     0.261 C 
BRANCH  37  38
ATOM     38  O   UNL     1      -5.870   0.399   2.736  1.00  0.00    -0.460 OA
BRANCH  38  39
ATOM     39  C   UNL     1      -5.846   1.472   3.549  1.00  0.00     0.338 C 
ATOM     40  O   UNL     1      -6.419   2.530   3.395  1.00  0.00    -0.246 OA
BRANCH  39  41
ATOM     41  C   UNL     1      -5.279   0.925   4.807  1.00  0.00     0.060 A 
ATOM     42  C   UNL     1      -4.055   0.240   4.822  1.00  0.00     0.016 A 
ATOM     43  C   UNL     1      -6.169   0.821   5.883  1.00  0.00     0.016 A 
ATOM     44  C   UNL     1      -3.772  -0.621   5.884  1.00  0.00     0.010 A 
ATOM     45  C   UNL     1      -5.902  -0.074   6.916  1.00  0.00     0.010 A 
ATOM     46  C   UNL     1      -4.722  -0.823   6.902  1.00  0.00    -0.014 A 
BRANCH  46  47
ATOM     47  C   UNL     1      -4.355  -1.653   8.058  1.00  0.00     0.031 A 
ATOM     48  C   UNL     1      -3.295  -1.024   8.894  1.00  0.00     0.074 A 
ATOM     49  C   UNL     1      -4.997  -2.764   8.484  1.00  0.00     0.049 A 
ATOM     50  N   UNL     1      -2.121  -1.482   9.185  1.00  0.00    -0.248 NA
ATOM     51  C   UNL     1      -3.543   0.353   9.353  1.00  0.00     0.031 C 
ATOM     52  C   UNL     1      -6.241  -3.319   7.949  1.00  0.00     0.029 A 
ATOM     53  N   UNL     1      -4.747  -3.568   9.570  1.00  0.00    -0.354 N 
ATOM     54  C   UNL     1      -1.575  -0.539  10.052  1.00  0.00     0.074 A 
ATOM     55  C   UNL     1      -2.403   0.636   9.978  1.00  0.00     0.031 C 
ATOM     56  C   UNL     1      -6.738  -4.230   8.815  1.00  0.00     0.029 A 
ATOM     57  C   UNL     1      -5.831  -4.372   9.939  1.00  0.00     0.049 A 
ATOM     58  H   UNL     1      -3.885  -3.577  10.045  1.00  0.00     0.167 HD
ATOM     59  C   UNL     1      -0.637  -0.858  10.980  1.00  0.00     0.034 A 
ATOM     60  C   UNL     1      -6.020  -5.023  11.118  1.00  0.00     0.034 A 
ATOM     61  C   UNL     1       0.015  -2.105  10.717  1.00  0.00     0.049 A 
ATOM     62  C   UNL     1      -4.697  -5.147  11.768  1.00  0.00     0.074 A 
ATOM     63  C   UNL     1       0.754  -2.619   9.672  1.00  0.00     0.029 A 
ATOM     64  N   UNL     1      -0.354  -3.176  11.489  1.00  0.00    -0.354 N 
ATOM     65  N   UNL     1      -3.731  -5.901  11.330  1.00  0.00    -0.248 NA
ATOM     66  C   UNL     1      -4.319  -4.135  12.740  1.00  0.00     0.031 C 
ATOM     67  C   UNL     1       0.409  -3.999   9.618  1.00  0.00     0.029 A 
ATOM     68  C   UNL     1      -0.489  -4.253  10.657  1.00  0.00     0.049 A 
ATOM     69  H   UNL     1      -0.496  -3.171  12.464  1.00  0.00     0.167 HD
ATOM     70  C   UNL     1      -2.581  -5.181  11.619  1.00  0.00     0.074 A 
ATOM     71  C   UNL     1      -2.995  -4.162  12.577  1.00  0.00     0.031 C 
ATOM     72  C   UNL     1      -1.470  -5.298  10.841  1.00  0.00     0.034 A 
BRANCH  59  73
ATOM     73  C   UNL     1      -0.582  -0.186  12.322  1.00  0.00     0.023 A 
ATOM     74  C   UNL     1       0.618  -0.227  13.055  1.00  0.00     0.012 A 
ATOM     75  C   UNL     1      -1.740   0.284  12.985  1.00  0.00     0.148 A 
ATOM     76  C   UNL     1       0.665   0.207  14.384  1.00  0.00     0.002 A 
ATOM     77  C   UNL     1      -1.669   0.797  14.271  1.00  0.00     0.091 A 
ATOM     78  F   UNL     1      -2.941   0.119  12.414  1.00  0.00    -0.205 F 
ATOM     79  C   UNL     1      -0.472   0.742  14.985  1.00  0.00     0.022 A 
BRANCH  77  80
ATOM     80  S   UNL     1      -3.097   1.557  15.049  1.00  0.00     0.127 S 
ATOM     81  O   UNL     1      -3.517   0.511  15.977  1.00  0.00    -0.237 OA
ATOM     82  O   UNL     1      -2.504   2.741  15.673  1.00  0.00    -0.237 OA
ATOM     83  O   UNL     1      -4.012   1.858  13.955  1.00  0.00    -0.744 OA
ENDBRANCH  77  80
ENDBRANCH  59  73
BRANCH  60  84
ATOM     84  C   UNL     1      -7.272  -5.324  11.876  1.00  0.00     0.023 A 
ATOM     85  C   UNL     1      -7.213  -6.173  13.008  1.00  0.00     0.012 A 
ATOM     86  C   UNL     1      -8.454  -4.574  11.693  1.00  0.00     0.148 A 
ATOM     87  C   UNL     1      -8.257  -6.220  13.944  1.00  0.00     0.002 A 
ATOM     88  C   UNL     1      -9.496  -4.636  12.618  1.00  0.00     0.091 A 
ATOM     89  F   UNL     1      -8.531  -3.714  10.672  1.00  0.00    -0.205 F 
ATOM     90  C   UNL     1      -9.394  -5.443  13.756  1.00  0.00     0.022 A 
BRANCH  88  91
ATOM     91  S   UNL     1     -10.983  -3.643  12.420  1.00  0.00     0.127 S 
ATOM     92  O   UNL     1     -12.032  -4.557  12.876  1.00  0.00    -0.237 OA
ATOM     93  O   UNL     1     -10.719  -2.520  13.314  1.00  0.00    -0.237 OA
ATOM     94  O   UNL     1     -11.051  -3.326  10.998  1.00  0.00    -0.744 OA
ENDBRANCH  88  91
ENDBRANCH  60  84
BRANCH  72  95
ATOM     95  C   UNL     1      -1.373  -6.467   9.902  1.00  0.00     0.023 A 
ATOM     96  C   UNL     1      -2.203  -6.607   8.771  1.00  0.00     0.012 A 
ATOM     97  C   UNL     1      -0.281  -7.335  10.067  1.00  0.00     0.148 A 
ATOM     98  C   UNL     1      -1.941  -7.598   7.821  1.00  0.00     0.002 A 
ATOM     99  C   UNL     1       0.000  -8.290   9.101  1.00  0.00     0.091 A 
ATOM    100  F   UNL     1       0.489  -7.180  11.155  1.00  0.00    -0.205 F 
ATOM    101  C   UNL     1      -0.829  -8.427   7.976  1.00  0.00     0.022 A 
BRANCH  99 102
ATOM    102  S   UNL     1       1.476  -9.306   9.187  1.00  0.00     0.127 S 
ATOM    103  O   UNL     1       0.923 -10.624   9.487  1.00  0.00    -0.237 OA
ATOM    104  O   UNL     1       2.032  -9.165   7.840  1.00  0.00    -0.237 OA
ATOM    105  O   UNL     1       2.306  -8.726  10.237  1.00  0.00    -0.744 OA
ENDBRANCH  99 102
ENDBRANCH  72  95
ENDBRANCH  46  47
ENDBRANCH  39  41
ENDBRANCH  38  39
ENDBRANCH  37  38
ENDBRANCH  36  37
ENDBRANCH  35  36
ENDBRANCH  34  35
ENDBRANCH   1  34
TORSDOF 26
