REMARK SMILES CCC(CC)COc1cc2c(cc1Cl)C=C(C(=O)OCCOCCOCCOCCOC(=O)c1ccc(-c3c4nc(c(-c5cccc(S(=O)(=O)[O-])c5F)c5ccc([nH]5)c(-c5cccc(S(=O)(=O)[O-])c5F)c5nc(c(-c6cccc(S(=O)(=O)[O-])c6F)c6ccc3[nH]6)C=C5)C=C4)cc1)[C@@H](C(F)(F)F)O2
REMARK SMILES IDX 24 1 23 2 22 3 21 4 20 5 19 6 17 7 18 8 16 9 8 10 9 11 13 12
REMARK SMILES IDX 10 13 12 14 14 15 11 16 102 17 15 18 97 19 7 20 6 21 3 22
REMARK SMILES IDX 2 23 1 24 4 25 5 26 98 27 99 28 100 29 101 30 25 31 26 32
REMARK SMILES IDX 27 33 28 34 29 35 30 36 31 37 32 38 33 39 34 40 35 41 96 42
REMARK SMILES IDX 36 43 95 44 37 45 38 46 39 47 89 48 40 49 94 50 88 51 90 52
REMARK SMILES IDX 41 53 93 54 87 55 86 56 42 58 74 59 54 60 73 61 55 62 58 63
REMARK SMILES IDX 72 64 91 65 56 66 57 67 71 69 92 70 59 71 43 72 44 73 52 74
REMARK SMILES IDX 45 75 47 76 53 77 46 78 48 79 49 80 50 81 51 82 75 83 76 84
REMARK SMILES IDX 84 85 77 86 79 87 85 88 78 89 80 90 81 91 82 92 83 93 60 94
REMARK SMILES IDX 61 95 69 96 62 97 64 98 70 99 63 100 65 101 66 102 67 103
REMARK SMILES IDX 68 104
REMARK H PARENT 90 57 58 68
REMARK Flexibility Score: inf
ROOT
ATOM      1  C   UNL     1      -3.574   6.372   0.157  1.00  0.00     0.188 C 
ENDROOT
BRANCH   1   2
ATOM      2  C   UNL     1      -2.861   6.791   1.454  1.00  0.00     0.188 C 
BRANCH   2   3
ATOM      3  O   UNL     1      -3.206   8.095   1.907  1.00  0.00    -0.376 OA
BRANCH   3   4
ATOM      4  C   UNL     1      -2.216   9.109   1.766  1.00  0.00     0.202 C 
BRANCH   4   5
ATOM      5  C   UNL     1      -1.978   9.616   0.334  1.00  0.00     0.261 C 
BRANCH   5   6
ATOM      6  O   UNL     1      -1.581   8.597  -0.599  1.00  0.00    -0.460 OA
BRANCH   6   7
ATOM      7  C   UNL     1      -0.384   8.025  -0.379  1.00  0.00     0.338 C 
ATOM      8  O   UNL     1       0.418   8.333   0.488  1.00  0.00    -0.246 OA
BRANCH   7   9
ATOM      9  C   UNL     1      -0.242   6.837  -1.244  1.00  0.00     0.087 C 
ATOM     10  C   UNL     1       1.091   2.427  -3.197  1.00  0.00     0.141 A 
ATOM     11  C   UNL     1       0.119   3.370  -3.552  1.00  0.00     0.095 A 
ATOM     12  C   UNL     1       1.956   2.688  -2.127  1.00  0.00     0.083 A 
ATOM     13  C   UNL     1      -0.036   4.526  -2.779  1.00  0.00     0.131 A 
ATOM     14  C   UNL     1       1.725   3.781  -1.297  1.00  0.00     0.036 A 
ATOM     15  Cl  UNL     1       3.319   1.690  -1.772  1.00  0.00    -0.080 Cl
ATOM     16  C   UNL     1       0.720   4.693  -1.616  1.00  0.00     0.019 A 
ATOM     17  O   UNL     1      -0.960   5.451  -3.189  1.00  0.00    -0.475 OA
ATOM     18  C   UNL     1       0.480   5.827  -0.746  1.00  0.00     0.027 C 
ATOM     19  C   UNL     1      -0.858   6.799  -2.620  1.00  0.00     0.316 C 
BRANCH  10  20
ATOM     20  O   UNL     1       1.238   1.280  -3.933  1.00  0.00    -0.492 OA
BRANCH  20  21
ATOM     21  C   UNL     1       0.260   0.261  -3.618  1.00  0.00     0.233 C 
BRANCH  21  22
ATOM     22  C   UNL     1       0.643  -0.560  -2.358  1.00  0.00     0.026 C 
BRANCH  22  23
ATOM     23  C   UNL     1       0.006   0.041  -1.083  1.00  0.00     0.003 C 
ATOM     24  C   UNL     1       0.663  -0.449   0.200  1.00  0.00     0.004 C 
ENDBRANCH  22  23
BRANCH  22  25
ATOM     25  C   UNL     1       0.324  -2.064  -2.514  1.00  0.00     0.003 C 
ATOM     26  C   UNL     1      -1.152  -2.421  -2.588  1.00  0.00     0.004 C 
ENDBRANCH  22  25
ENDBRANCH  21  22
ENDBRANCH  20  21
ENDBRANCH  10  20
BRANCH  19  27
ATOM     27  C   UNL     1      -0.102   7.742  -3.568  1.00  0.00     0.430 C 
ATOM     28  F   UNL     1      -0.605   7.697  -4.823  1.00  0.00    -0.167 F 
ATOM     29  F   UNL     1      -0.180   9.026  -3.150  1.00  0.00    -0.167 F 
ATOM     30  F   UNL     1       1.213   7.425  -3.647  1.00  0.00    -0.167 F 
ENDBRANCH  19  27
ENDBRANCH   7   9
ENDBRANCH   6   7
ENDBRANCH   5   6
ENDBRANCH   4   5
ENDBRANCH   3   4
ENDBRANCH   2   3
ENDBRANCH   1   2
BRANCH   1  31
ATOM     31  O   UNL     1      -4.217   7.413  -0.553  1.00  0.00    -0.377 OA
BRANCH  31  32
ATOM     32  C   UNL     1      -5.358   8.046   0.027  1.00  0.00     0.188 C 
BRANCH  32  33
ATOM     33  C   UNL     1      -5.964   7.609   1.381  1.00  0.00     0.188 C 
BRANCH  33  34
ATOM     34  O   UNL     1      -5.861   6.216   1.657  1.00  0.00    -0.376 OA
BRANCH  34  35
ATOM     35  C   UNL     1      -7.079   5.485   1.643  1.00  0.00     0.202 C 
BRANCH  35  36
ATOM     36  C   UNL     1      -7.575   5.155   0.232  1.00  0.00     0.261 C 
BRANCH  36  37
ATOM     37  O   UNL     1      -7.910   6.293  -0.576  1.00  0.00    -0.460 OA
BRANCH  37  38
ATOM     38  C   UNL     1      -8.891   7.114  -0.134  1.00  0.00     0.338 C 
ATOM     39  O   UNL     1      -9.566   6.979   0.870  1.00  0.00    -0.246 OA
BRANCH  38  40
ATOM     40  C   UNL     1      -8.854   8.318  -0.990  1.00  0.00     0.060 A 
ATOM     41  C   UNL     1      -8.909   8.186  -2.380  1.00  0.00     0.016 A 
ATOM     42  C   UNL     1      -8.684   9.576  -0.400  1.00  0.00     0.016 A 
ATOM     43  C   UNL     1      -8.807   9.321  -3.184  1.00  0.00     0.010 A 
ATOM     44  C   UNL     1      -8.568  10.710  -1.209  1.00  0.00     0.010 A 
ATOM     45  C   UNL     1      -8.644  10.590  -2.605  1.00  0.00    -0.014 A 
BRANCH  45  46
ATOM     46  C   UNL     1      -8.749  11.799  -3.455  1.00  0.00     0.031 A 
ATOM     47  C   UNL     1      -7.545  12.537  -3.955  1.00  0.00     0.074 A 
ATOM     48  C   UNL     1      -9.986  12.231  -3.764  1.00  0.00     0.049 A 
ATOM     49  N   UNL     1      -7.500  13.565  -4.762  1.00  0.00    -0.248 NA
ATOM     50  C   UNL     1      -6.228  12.072  -3.495  1.00  0.00     0.031 C 
ATOM     51  C   UNL     1     -11.229  11.612  -3.298  1.00  0.00     0.029 A 
ATOM     52  N   UNL     1     -10.404  13.288  -4.529  1.00  0.00    -0.354 N 
ATOM     53  C   UNL     1      -6.155  13.877  -4.911  1.00  0.00     0.074 A 
ATOM     54  C   UNL     1      -5.415  12.935  -4.097  1.00  0.00     0.031 C 
ATOM     55  C   UNL     1     -12.270  12.301  -3.786  1.00  0.00     0.029 A 
ATOM     56  C   UNL     1     -11.770  13.411  -4.591  1.00  0.00     0.049 A 
ATOM     57  H   UNL     1      -9.785  13.899  -4.990  1.00  0.00     0.167 HD
ATOM     58  C   UNL     1      -5.597  14.848  -5.673  1.00  0.00     0.034 A 
ATOM     59  C   UNL     1     -12.541  14.311  -5.229  1.00  0.00     0.034 A 
ATOM     60  C   UNL     1      -6.341  15.775  -6.488  1.00  0.00     0.049 A 
ATOM     61  C   UNL     1     -11.896  15.367  -6.075  1.00  0.00     0.074 A 
ATOM     62  C   UNL     1      -5.850  16.756  -7.334  1.00  0.00     0.029 A 
ATOM     63  N   UNL     1      -7.723  15.846  -6.556  1.00  0.00    -0.354 N 
ATOM     64  N   UNL     1     -10.621  15.566  -6.303  1.00  0.00    -0.248 NA
ATOM     65  C   UNL     1     -12.788  16.298  -6.779  1.00  0.00     0.031 C 
ATOM     66  C   UNL     1      -6.936  17.428  -7.904  1.00  0.00     0.029 A 
ATOM     67  C   UNL     1      -8.102  16.855  -7.426  1.00  0.00     0.049 A 
ATOM     68  H   UNL     1      -8.344  15.266  -6.060  1.00  0.00     0.167 HD
ATOM     69  C   UNL     1     -10.557  16.624  -7.200  1.00  0.00     0.074 A 
ATOM     70  C   UNL     1     -11.923  17.021  -7.479  1.00  0.00     0.031 C 
ATOM     71  C   UNL     1      -9.462  17.215  -7.735  1.00  0.00     0.034 A 
BRANCH  58  72
ATOM     72  C   UNL     1      -4.097  14.939  -5.730  1.00  0.00     0.023 A 
ATOM     73  C   UNL     1      -3.393  14.050  -6.566  1.00  0.00     0.012 A 
ATOM     74  C   UNL     1      -3.404  15.981  -5.083  1.00  0.00     0.148 A 
ATOM     75  C   UNL     1      -2.019  14.194  -6.756  1.00  0.00     0.002 A 
ATOM     76  C   UNL     1      -2.038  16.134  -5.299  1.00  0.00     0.091 A 
ATOM     77  F   UNL     1      -4.095  16.810  -4.288  1.00  0.00    -0.205 F 
ATOM     78  C   UNL     1      -1.345  15.241  -6.134  1.00  0.00     0.022 A 
BRANCH  76  79
ATOM     79  S   UNL     1      -1.085  17.484  -4.593  1.00  0.00     0.127 S 
ATOM     80  O   UNL     1      -0.191  16.768  -3.684  1.00  0.00    -0.237 OA
ATOM     81  O   UNL     1      -0.431  18.049  -5.773  1.00  0.00    -0.237 OA
ATOM     82  O   UNL     1      -2.048  18.364  -3.947  1.00  0.00    -0.744 OA
ENDBRANCH  76  79
ENDBRANCH  58  72
BRANCH  59  83
ATOM     83  C   UNL     1     -14.018  14.176  -5.146  1.00  0.00     0.023 A 
ATOM     84  C   UNL     1     -14.719  13.629  -6.237  1.00  0.00     0.012 A 
ATOM     85  C   UNL     1     -14.711  14.493  -3.962  1.00  0.00     0.148 A 
ATOM     86  C   UNL     1     -16.092  13.405  -6.153  1.00  0.00     0.002 A 
ATOM     87  C   UNL     1     -16.071  14.230  -3.871  1.00  0.00     0.091 A 
ATOM     88  F   UNL     1     -14.014  15.009  -2.940  1.00  0.00    -0.205 F 
ATOM     89  C   UNL     1     -16.766  13.695  -4.968  1.00  0.00     0.022 A 
BRANCH  87  90
ATOM     90  S   UNL     1     -17.005  14.467  -2.356  1.00  0.00     0.127 S 
ATOM     91  O   UNL     1     -17.951  15.509  -2.748  1.00  0.00    -0.237 OA
ATOM     92  O   UNL     1     -17.593  13.142  -2.158  1.00  0.00    -0.237 OA
ATOM     93  O   UNL     1     -16.030  14.855  -1.345  1.00  0.00    -0.744 OA
ENDBRANCH  87  90
ENDBRANCH  59  83
BRANCH  71  94
ATOM     94  C   UNL     1      -9.673  18.347  -8.701  1.00  0.00     0.023 A 
ATOM     95  C   UNL     1      -9.990  19.628  -8.211  1.00  0.00     0.012 A 
ATOM     96  C   UNL     1      -9.446  18.166 -10.080  1.00  0.00     0.148 A 
ATOM     97  C   UNL     1     -10.088  20.713  -9.081  1.00  0.00     0.002 A 
ATOM     98  C   UNL     1      -9.512  19.258 -10.937  1.00  0.00     0.091 A 
ATOM     99  F   UNL     1      -9.159  16.933 -10.522  1.00  0.00    -0.205 F 
ATOM    100  C   UNL     1      -9.838  20.531 -10.440  1.00  0.00     0.022 A 
BRANCH  98 101
ATOM    101  S   UNL     1      -9.137  19.138 -12.690  1.00  0.00     0.127 S 
ATOM    102  O   UNL     1     -10.446  19.386 -13.292  1.00  0.00    -0.237 OA
ATOM    103  O   UNL     1      -8.167  20.218 -12.872  1.00  0.00    -0.237 OA
ATOM    104  O   UNL     1      -8.602  17.799 -12.898  1.00  0.00    -0.744 OA
ENDBRANCH  98 101
ENDBRANCH  71  94
ENDBRANCH  45  46
ENDBRANCH  38  40
ENDBRANCH  37  38
ENDBRANCH  36  37
ENDBRANCH  35  36
ENDBRANCH  34  35
ENDBRANCH  33  34
ENDBRANCH  32  33
ENDBRANCH  31  32
ENDBRANCH   1  31
TORSDOF 29
