REMARK SMILES Cc1cccc(-n2c(C)cc(/C=N\c3ccc(O)c(C(=O)OCCOCCOCCOCCOC(=O)c4ccc(-c5c6nc(c(-c7cccc(S(=O)(=O)[O-])c7F)c7ccc([nH]7)c(-c7cccc(S(=O)(=O)[O-])c7F)c7nc(c(-c8cccc(S(=O)(=O)[O-])c8F)c8ccc5[nH]8)C=C7)C=C6)cc4)c3)c2C)c1
REMARK SMILES IDX 28 1 27 2 26 3 25 4 24 5 23 6 22 7 20 8 21 9 19 10 14 11
REMARK SMILES IDX 15 12 100 13 16 14 17 15 13 16 12 17 11 18 7 19 8 20 101 21
REMARK SMILES IDX 9 22 10 23 102 24 6 25 1 26 2 27 3 28 103 29 4 30 5 31 18 32
REMARK SMILES IDX 29 34 30 35 31 36 32 37 33 38 34 39 35 40 36 41 37 42 38 43
REMARK SMILES IDX 99 44 39 45 98 46 40 47 41 48 42 49 92 50 43 51 97 52 91 53
REMARK SMILES IDX 93 54 44 55 96 56 90 57 89 58 45 60 77 61 57 62 76 63 58 64
REMARK SMILES IDX 61 65 75 66 94 67 59 68 60 69 74 71 95 72 62 73 46 74 47 75
REMARK SMILES IDX 55 76 48 77 50 78 56 79 49 80 51 81 52 82 53 83 54 84 78 85
REMARK SMILES IDX 79 86 87 87 80 88 82 89 88 90 81 91 83 92 84 93 85 94 86 95
REMARK SMILES IDX 63 96 64 97 72 98 65 99 67 100 73 101 66 102 68 103 69 104
REMARK SMILES IDX 70 105 71 106
REMARK H PARENT 18 33 93 59 61 70
REMARK Flexibility Score: inf
ROOT
ATOM      1  O   UNL     1      -5.745   2.226   7.956  1.00  0.00    -0.377 OA
ENDROOT
BRANCH   1   2
ATOM      2  C   UNL     1      -5.695   2.546   6.585  1.00  0.00     0.188 C 
BRANCH   2   3
ATOM      3  C   UNL     1      -6.975   3.044   5.899  1.00  0.00     0.188 C 
BRANCH   3   4
ATOM      4  O   UNL     1      -8.054   2.128   5.714  1.00  0.00    -0.376 OA
BRANCH   4   5
ATOM      5  C   UNL     1      -7.769   0.785   5.327  1.00  0.00     0.202 C 
BRANCH   5   6
ATOM      6  C   UNL     1      -7.692   0.565   3.837  1.00  0.00     0.261 C 
BRANCH   6   7
ATOM      7  O   UNL     1      -6.298   0.608   3.528  1.00  0.00    -0.460 OA
BRANCH   7   8
ATOM      8  C   UNL     1      -6.019   1.588   2.676  1.00  0.00     0.342 C 
ATOM      9  O   UNL     1      -6.662   1.906   1.683  1.00  0.00    -0.246 OA
BRANCH   8  10
ATOM     10  C   UNL     1      -4.920   2.378   3.252  1.00  0.00     0.103 A 
ATOM     11  C   UNL     1      -3.718   4.413   2.927  1.00  0.00     0.064 A 
ATOM     12  C   UNL     1      -2.754   4.030   3.859  1.00  0.00     0.032 A 
ATOM     13  C   UNL     1      -4.868   3.667   2.755  1.00  0.00     0.048 A 
ATOM     14  C   UNL     1      -2.849   2.776   4.462  1.00  0.00     0.049 A 
ATOM     15  C   UNL     1      -3.886   1.920   4.085  1.00  0.00     0.130 A 
BRANCH  11  16
ATOM     16  N   UNL     1      -3.579   5.501   2.093  1.00  0.00    -0.256 NA
ATOM     17  C   UNL     1      -3.200   5.355   0.855  1.00  0.00     0.121 C 
BRANCH  17  18
ATOM     18  C   UNL     1      -2.606   4.266   0.054  1.00  0.00     0.014 A 
ATOM     19  N   UNL     1      -1.547   2.471  -0.872  1.00  0.00    -0.318 N 
ATOM     20  C   UNL     1      -1.328   3.540  -1.707  1.00  0.00     0.021 A 
ATOM     21  C   UNL     1      -2.368   2.889   0.175  1.00  0.00     0.029 A 
ATOM     22  C   UNL     1      -0.486   3.471  -2.921  1.00  0.00     0.065 C 
ATOM     23  C   UNL     1      -2.036   4.609  -1.212  1.00  0.00     0.033 A 
ATOM     24  C   UNL     1      -2.738   1.885   1.194  1.00  0.00     0.065 C 
BRANCH  19  25
ATOM     25  C   UNL     1      -0.858   1.224  -0.907  1.00  0.00     0.046 A 
ATOM     26  C   UNL     1       2.627  -0.009  -0.017  1.00  0.00     0.044 C 
ATOM     27  C   UNL     1       1.169   0.012  -0.362  1.00  0.00    -0.049 A 
ATOM     28  C   UNL     1       0.442  -1.187  -0.400  1.00  0.00     0.003 A 
ATOM     29  C   UNL     1       0.512   1.221  -0.620  1.00  0.00     0.030 A 
ATOM     30  C   UNL     1      -0.919  -1.184  -0.711  1.00  0.00     0.002 A 
ATOM     31  C   UNL     1      -1.572   0.020  -0.980  1.00  0.00     0.026 A 
ENDBRANCH  19  25
ENDBRANCH  17  18
ENDBRANCH  11  16
BRANCH  15  32
ATOM     32  O   UNL     1      -3.765   0.631   4.511  1.00  0.00    -0.507 OA
ATOM     33  H   UNL     1      -3.051   0.387   5.066  1.00  0.00     0.293 HD
ENDBRANCH  15  32
ENDBRANCH   8  10
ENDBRANCH   7   8
ENDBRANCH   6   7
ENDBRANCH   5   6
ENDBRANCH   4   5
ENDBRANCH   3   4
ENDBRANCH   2   3
ENDBRANCH   1   2
BRANCH   1  34
ATOM     34  C   UNL     1      -6.927   1.594   8.399  1.00  0.00     0.188 C 
BRANCH  34  35
ATOM     35  C   UNL     1      -7.840   2.619   9.069  1.00  0.00     0.188 C 
BRANCH  35  36
ATOM     36  O   UNL     1      -7.170   3.690   9.718  1.00  0.00    -0.376 OA
BRANCH  36  37
ATOM     37  C   UNL     1      -6.048   3.340  10.535  1.00  0.00     0.202 C 
BRANCH  37  38
ATOM     38  C   UNL     1      -5.939   1.920  11.190  1.00  0.00     0.261 C 
BRANCH  38  39
ATOM     39  O   UNL     1      -7.251   1.335  11.462  1.00  0.00    -0.460 OA
BRANCH  39  40
ATOM     40  C   UNL     1      -7.367   0.025  11.855  1.00  0.00     0.338 C 
ATOM     41  O   UNL     1      -7.016  -0.375  12.953  1.00  0.00    -0.246 OA
BRANCH  40  42
ATOM     42  C   UNL     1      -8.043  -0.839  10.806  1.00  0.00     0.060 A 
ATOM     43  C   UNL     1      -7.691  -2.177  10.639  1.00  0.00     0.016 A 
ATOM     44  C   UNL     1      -8.929  -0.322   9.873  1.00  0.00     0.016 A 
ATOM     45  C   UNL     1      -7.869  -2.827   9.398  1.00  0.00     0.010 A 
ATOM     46  C   UNL     1      -9.046  -0.920   8.614  1.00  0.00     0.010 A 
ATOM     47  C   UNL     1      -8.402  -2.129   8.322  1.00  0.00    -0.014 A 
BRANCH  47  48
ATOM     48  C   UNL     1      -8.172  -2.475   6.897  1.00  0.00     0.031 A 
ATOM     49  C   UNL     1      -9.313  -2.495   5.901  1.00  0.00     0.074 A 
ATOM     50  C   UNL     1      -6.899  -2.376   6.410  1.00  0.00     0.049 A 
ATOM     51  N   UNL     1      -9.185  -2.712   4.631  1.00  0.00    -0.248 NA
ATOM     52  C   UNL     1     -10.707  -2.236   6.249  1.00  0.00     0.031 C 
ATOM     53  C   UNL     1      -6.572  -2.125   5.015  1.00  0.00     0.029 A 
ATOM     54  N   UNL     1      -5.624  -2.432   6.999  1.00  0.00    -0.354 N 
ATOM     55  C   UNL     1     -10.318  -2.274   3.977  1.00  0.00     0.074 A 
ATOM     56  C   UNL     1     -11.277  -2.113   5.041  1.00  0.00     0.031 C 
ATOM     57  C   UNL     1      -5.259  -2.036   4.820  1.00  0.00     0.029 A 
ATOM     58  C   UNL     1      -4.660  -2.612   5.986  1.00  0.00     0.049 A 
ATOM     59  H   UNL     1      -5.435  -2.357   7.962  1.00  0.00     0.167 HD
ATOM     60  C   UNL     1     -10.261  -1.986   2.636  1.00  0.00     0.034 A 
ATOM     61  C   UNL     1      -3.808  -3.670   5.835  1.00  0.00     0.034 A 
ATOM     62  C   UNL     1      -8.957  -2.392   2.033  1.00  0.00     0.049 A 
ATOM     63  C   UNL     1      -4.149  -4.526   4.612  1.00  0.00     0.074 A 
ATOM     64  C   UNL     1      -7.964  -1.739   1.315  1.00  0.00     0.029 A 
ATOM     65  N   UNL     1      -8.449  -3.676   2.274  1.00  0.00    -0.354 N 
ATOM     66  N   UNL     1      -5.249  -4.329   3.925  1.00  0.00    -0.248 NA
ATOM     67  C   UNL     1      -3.358  -5.591   4.004  1.00  0.00     0.031 C 
ATOM     68  C   UNL     1      -6.811  -2.581   1.274  1.00  0.00     0.029 A 
ATOM     69  C   UNL     1      -7.120  -3.787   1.887  1.00  0.00     0.049 A 
ATOM     70  H   UNL     1      -8.972  -4.410   2.670  1.00  0.00     0.167 HD
ATOM     71  C   UNL     1      -5.332  -5.132   2.838  1.00  0.00     0.074 A 
ATOM     72  C   UNL     1      -4.130  -5.945   2.949  1.00  0.00     0.031 C 
ATOM     73  C   UNL     1      -6.396  -5.064   1.977  1.00  0.00     0.034 A 
BRANCH  60  74
ATOM     74  C   UNL     1     -11.322  -1.203   1.824  1.00  0.00     0.023 A 
ATOM     75  C   UNL     1     -11.117  -1.069   0.427  1.00  0.00     0.012 A 
ATOM     76  C   UNL     1     -12.479  -0.540   2.318  1.00  0.00     0.148 A 
ATOM     77  C   UNL     1     -11.982  -0.347  -0.414  1.00  0.00     0.002 A 
ATOM     78  C   UNL     1     -13.387   0.116   1.468  1.00  0.00     0.091 A 
ATOM     79  F   UNL     1     -12.691  -0.461   3.632  1.00  0.00    -0.205 F 
ATOM     80  C   UNL     1     -13.131   0.228   0.101  1.00  0.00     0.022 A 
BRANCH  78  81
ATOM     81  S   UNL     1     -14.941   0.836   2.050  1.00  0.00     0.127 S 
ATOM     82  O   UNL     1     -14.801   2.240   1.660  1.00  0.00    -0.237 OA
ATOM     83  O   UNL     1     -15.937   0.091   1.279  1.00  0.00    -0.237 OA
ATOM     84  O   UNL     1     -14.988   0.603   3.488  1.00  0.00    -0.744 OA
ENDBRANCH  78  81
ENDBRANCH  60  74
BRANCH  61  85
ATOM     85  C   UNL     1      -2.948  -3.878   7.023  1.00  0.00     0.023 A 
ATOM     86  C   UNL     1      -1.994  -2.845   7.234  1.00  0.00     0.012 A 
ATOM     87  C   UNL     1      -3.503  -4.525   8.133  1.00  0.00     0.148 A 
ATOM     88  C   UNL     1      -1.764  -2.328   8.511  1.00  0.00     0.002 A 
ATOM     89  C   UNL     1      -3.329  -3.952   9.390  1.00  0.00     0.091 A 
ATOM     90  F   UNL     1      -4.357  -5.534   7.915  1.00  0.00    -0.205 F 
ATOM     91  C   UNL     1      -2.473  -2.850   9.580  1.00  0.00     0.022 A 
BRANCH  89  92
ATOM     92  S   UNL     1      -4.519  -4.223  10.705  1.00  0.00     0.127 S 
ATOM     93  O   UNL     1      -3.713  -4.841  11.750  1.00  0.00    -0.237 OA
ATOM     94  O   UNL     1      -4.923  -2.845  10.968  1.00  0.00    -0.237 OA
ATOM     95  O   UNL     1      -5.556  -5.061  10.120  1.00  0.00    -0.744 OA
ENDBRANCH  89  92
ENDBRANCH  61  85
BRANCH  73  96
ATOM     96  C   UNL     1      -6.872  -6.221   1.123  1.00  0.00     0.023 A 
ATOM     97  C   UNL     1      -6.510  -7.547   1.425  1.00  0.00     0.012 A 
ATOM     98  C   UNL     1      -7.899  -6.038   0.159  1.00  0.00     0.148 A 
ATOM     99  C   UNL     1      -7.121  -8.636   0.799  1.00  0.00     0.002 A 
ATOM    100  C   UNL     1      -8.585  -7.126  -0.368  1.00  0.00     0.091 A 
ATOM    101  F   UNL     1      -8.219  -4.806  -0.259  1.00  0.00    -0.205 F 
ATOM    102  C   UNL     1      -8.182  -8.428  -0.071  1.00  0.00     0.022 A 
BRANCH 100 103
ATOM    103  S   UNL     1     -10.120  -6.901  -1.280  1.00  0.00     0.127 S 
ATOM    104  O   UNL     1      -9.661  -6.978  -2.664  1.00  0.00    -0.237 OA
ATOM    105  O   UNL     1     -10.916  -8.047  -0.834  1.00  0.00    -0.237 OA
ATOM    106  O   UNL     1     -10.638  -5.611  -0.844  1.00  0.00    -0.744 OA
ENDBRANCH 100 103
ENDBRANCH  73  96
ENDBRANCH  47  48
ENDBRANCH  40  42
ENDBRANCH  39  40
ENDBRANCH  38  39
ENDBRANCH  37  38
ENDBRANCH  36  37
ENDBRANCH  35  36
ENDBRANCH  34  35
ENDBRANCH   1  34
TORSDOF 27
