REMARK SMILES C=C(C(=O)OCCOCCOCCOCCOC(=O)c1ccc(-c2c3nc(c(-c4cccc(S(=O)(=O)[O-])c4F)c4ccc([nH]4)c(-c4cccc(S(=O)(=O)[O-])c4F)c4nc(c(-c5cccc(S(=O)(=O)[O-])c5F)c5ccc2[nH]5)C=C4)C=C3)cc1)[C@@H]1CC[C@]2(C)C[C@@H](O)CC(=C)[C@H]2C1
REMARK SMILES IDX 12 1 11 2 10 3 9 4 8 5 7 6 6 7 5 8 3 9 4 10 2 11 1 12 83 13
REMARK SMILES IDX 84 14 95 15 85 16 94 17 86 18 92 19 87 20 88 21 91 22 93 23
REMARK SMILES IDX 89 24 90 25 13 27 14 28 15 29 16 30 17 31 18 32 19 33 20 34
REMARK SMILES IDX 21 35 82 36 22 37 81 38 23 39 24 40 25 41 75 42 26 43 80 44
REMARK SMILES IDX 74 45 76 46 27 47 79 48 73 49 72 50 28 52 60 53 40 54 59 55
REMARK SMILES IDX 41 56 44 57 58 58 77 59 42 60 43 61 57 63 78 64 45 65 29 66
REMARK SMILES IDX 30 67 38 68 31 69 33 70 39 71 32 72 34 73 35 74 36 75 37 76
REMARK SMILES IDX 61 77 62 78 70 79 63 80 65 81 71 82 64 83 66 84 67 85 68 86
REMARK SMILES IDX 69 87 46 88 47 89 55 90 48 91 50 92 56 93 49 94 51 95 52 96
REMARK SMILES IDX 53 97 54 98
REMARK H PARENT 90 26 76 51 44 62
REMARK Flexibility Score: inf
ROOT
ATOM      1  C   UNL     1      -3.461  -1.581  -2.831  1.00  0.00     0.188 C 
ENDROOT
BRANCH   1   2
ATOM      2  O   UNL     1      -2.055  -1.773  -2.752  1.00  0.00    -0.377 OA
BRANCH   2   3
ATOM      3  C   UNL     1      -1.506  -1.530  -1.464  1.00  0.00     0.188 C 
BRANCH   3   4
ATOM      4  C   UNL     1      -2.246  -2.128  -0.255  1.00  0.00     0.188 C 
BRANCH   4   5
ATOM      5  O   UNL     1      -3.558  -1.599  -0.061  1.00  0.00    -0.376 OA
BRANCH   5   6
ATOM      6  C   UNL     1      -3.728  -0.741   1.064  1.00  0.00     0.202 C 
BRANCH   6   7
ATOM      7  C   UNL     1      -2.980   0.592   0.956  1.00  0.00     0.261 C 
BRANCH   7   8
ATOM      8  O   UNL     1      -1.555   0.431   0.854  1.00  0.00    -0.460 OA
BRANCH   8   9
ATOM      9  C   UNL     1      -0.876  -0.085   1.911  1.00  0.00     0.333 C 
ATOM     10  O   UNL     1      -1.343  -0.277   3.020  1.00  0.00    -0.247 OA
BRANCH   9  11
ATOM     11  C   UNL     1       0.482  -0.531   1.444  1.00  0.00     0.033 C 
ATOM     12  C   UNL     1       1.079   0.297   0.559  1.00  0.00     0.020 C 
BRANCH  11  13
ATOM     13  C   UNL     1       1.198  -1.765   2.027  1.00  0.00     0.026 C 
ATOM     14  C   UNL     1       2.029  -2.577   0.990  1.00  0.00     0.009 C 
ATOM     15  C   UNL     1       0.435  -2.747   2.967  1.00  0.00     0.017 C 
ATOM     16  C   UNL     1       1.318  -3.772   0.348  1.00  0.00     0.008 C 
ATOM     17  C   UNL     1      -0.275  -3.930   2.271  1.00  0.00     0.021 C 
ATOM     18  C   UNL     1       0.671  -4.750   1.356  1.00  0.00    -0.024 C 
ATOM     19  C   UNL     1      -1.090  -4.869   3.149  1.00  0.00    -0.071 C 
ATOM     20  C   UNL     1       1.789  -5.462   2.152  1.00  0.00     0.012 C 
ATOM     21  C   UNL     1      -0.150  -5.807   0.544  1.00  0.00     0.039 C 
ATOM     22  C   UNL     1      -1.986  -5.791   2.342  1.00  0.00     0.062 C 
ATOM     23  C   UNL     1      -1.065  -4.908   4.490  1.00  0.00     0.008 C 
ATOM     24  C   UNL     1      -1.175  -6.628   1.344  1.00  0.00     0.119 C 
BRANCH  24  25
ATOM     25  O   UNL     1      -0.528  -7.718   2.005  1.00  0.00    -0.393 OA
ATOM     26  H   UNL     1       0.112  -7.373   2.648  1.00  0.00     0.210 HD
ENDBRANCH  24  25
ENDBRANCH  11  13
ENDBRANCH   9  11
ENDBRANCH   8   9
ENDBRANCH   7   8
ENDBRANCH   6   7
ENDBRANCH   5   6
ENDBRANCH   4   5
ENDBRANCH   3   4
ENDBRANCH   2   3
ENDBRANCH   1   2
BRANCH   1  27
ATOM     27  C   UNL     1      -4.222  -2.908  -2.643  1.00  0.00     0.188 C 
BRANCH  27  28
ATOM     28  O   UNL     1      -3.404  -3.949  -2.120  1.00  0.00    -0.376 OA
BRANCH  28  29
ATOM     29  C   UNL     1      -2.801  -4.870  -3.016  1.00  0.00     0.202 C 
BRANCH  29  30
ATOM     30  C   UNL     1      -1.987  -4.419  -4.243  1.00  0.00     0.261 C 
BRANCH  30  31
ATOM     31  O   UNL     1      -2.508  -3.351  -5.039  1.00  0.00    -0.460 OA
BRANCH  31  32
ATOM     32  C   UNL     1      -3.629  -3.544  -5.762  1.00  0.00     0.338 C 
ATOM     33  O   UNL     1      -4.282  -4.568  -5.853  1.00  0.00    -0.246 OA
BRANCH  32  34
ATOM     34  C   UNL     1      -4.044  -2.195  -6.217  1.00  0.00     0.060 A 
ATOM     35  C   UNL     1      -5.299  -1.705  -5.825  1.00  0.00     0.016 A 
ATOM     36  C   UNL     1      -3.134  -1.362  -6.878  1.00  0.00     0.016 A 
ATOM     37  C   UNL     1      -5.630  -0.369  -6.062  1.00  0.00     0.010 A 
ATOM     38  C   UNL     1      -3.485  -0.040  -7.154  1.00  0.00     0.010 A 
ATOM     39  C   UNL     1      -4.734   0.460  -6.751  1.00  0.00    -0.014 A 
BRANCH  39  40
ATOM     40  C   UNL     1      -5.170   1.790  -7.228  1.00  0.00     0.031 A 
ATOM     41  C   UNL     1      -5.813   1.863  -8.583  1.00  0.00     0.074 A 
ATOM     42  C   UNL     1      -4.945   2.906  -6.511  1.00  0.00     0.049 A 
ATOM     43  N   UNL     1      -6.206   2.908  -9.257  1.00  0.00    -0.248 NA
ATOM     44  C   UNL     1      -6.040   0.579  -9.272  1.00  0.00     0.031 C 
ATOM     45  C   UNL     1      -4.323   2.954  -5.189  1.00  0.00     0.029 A 
ATOM     46  N   UNL     1      -5.179   4.224  -6.821  1.00  0.00    -0.354 N 
ATOM     47  C   UNL     1      -6.697   2.415 -10.459  1.00  0.00     0.074 A 
ATOM     48  C   UNL     1      -6.563   0.976 -10.421  1.00  0.00     0.031 C 
ATOM     49  C   UNL     1      -4.179   4.241  -4.822  1.00  0.00     0.029 A 
ATOM     50  C   UNL     1      -4.672   5.105  -5.894  1.00  0.00     0.049 A 
ATOM     51  H   UNL     1      -5.664   4.510  -7.629  1.00  0.00     0.167 HD
ATOM     52  C   UNL     1      -7.214   3.101 -11.501  1.00  0.00     0.034 A 
ATOM     53  C   UNL     1      -4.583   6.451  -5.932  1.00  0.00     0.034 A 
ATOM     54  C   UNL     1      -7.347   4.529 -11.534  1.00  0.00     0.049 A 
ATOM     55  C   UNL     1      -5.137   7.188  -7.128  1.00  0.00     0.074 A 
ATOM     56  C   UNL     1      -7.923   5.314 -12.516  1.00  0.00     0.029 A 
ATOM     57  N   UNL     1      -6.869   5.388 -10.558  1.00  0.00    -0.354 N 
ATOM     58  N   UNL     1      -5.750   6.710  -8.185  1.00  0.00    -0.248 NA
ATOM     59  C   UNL     1      -5.006   8.654  -7.128  1.00  0.00     0.031 C 
ATOM     60  C   UNL     1      -7.760   6.653 -12.150  1.00  0.00     0.029 A 
ATOM     61  C   UNL     1      -7.110   6.698 -10.927  1.00  0.00     0.049 A 
ATOM     62  H   UNL     1      -6.425   5.107  -9.726  1.00  0.00     0.167 HD
ATOM     63  C   UNL     1      -6.098   7.812  -8.959  1.00  0.00     0.074 A 
ATOM     64  C   UNL     1      -5.657   8.986  -8.235  1.00  0.00     0.031 C 
ATOM     65  C   UNL     1      -6.708   7.854 -10.169  1.00  0.00     0.034 A 
BRANCH  52  66
ATOM     66  C   UNL     1      -7.687   2.318 -12.692  1.00  0.00     0.023 A 
ATOM     67  C   UNL     1      -8.903   1.609 -12.624  1.00  0.00     0.012 A 
ATOM     68  C   UNL     1      -6.966   2.352 -13.901  1.00  0.00     0.148 A 
ATOM     69  C   UNL     1      -9.390   0.935 -13.742  1.00  0.00     0.002 A 
ATOM     70  C   UNL     1      -7.479   1.712 -15.021  1.00  0.00     0.091 A 
ATOM     71  F   UNL     1      -5.798   3.009 -13.929  1.00  0.00    -0.205 F 
ATOM     72  C   UNL     1      -8.686   0.998 -14.942  1.00  0.00     0.022 A 
BRANCH  70  73
ATOM     73  S   UNL     1      -6.688   1.794 -16.631  1.00  0.00     0.127 S 
ATOM     74  O   UNL     1      -6.306   0.398 -16.842  1.00  0.00    -0.237 OA
ATOM     75  O   UNL     1      -7.780   2.263 -17.483  1.00  0.00    -0.237 OA
ATOM     76  O   UNL     1      -5.577   2.724 -16.490  1.00  0.00    -0.744 OA
ENDBRANCH  70  73
ENDBRANCH  52  66
BRANCH  53  77
ATOM     77  C   UNL     1      -3.939   7.202  -4.815  1.00  0.00     0.023 A 
ATOM     78  C   UNL     1      -4.714   8.066  -4.016  1.00  0.00     0.012 A 
ATOM     79  C   UNL     1      -2.559   7.087  -4.557  1.00  0.00     0.148 A 
ATOM     80  C   UNL     1      -4.120   8.832  -3.011  1.00  0.00     0.002 A 
ATOM     81  C   UNL     1      -1.984   7.808  -3.516  1.00  0.00     0.091 A 
ATOM     82  F   UNL     1      -1.829   6.282  -5.342  1.00  0.00    -0.205 F 
ATOM     83  C   UNL     1      -2.758   8.696  -2.754  1.00  0.00     0.022 A 
BRANCH  81  84
ATOM     84  S   UNL     1      -0.266   7.593  -3.037  1.00  0.00     0.127 S 
ATOM     85  O   UNL     1       0.346   8.813  -3.557  1.00  0.00    -0.237 OA
ATOM     86  O   UNL     1      -0.362   7.524  -1.578  1.00  0.00    -0.237 OA
ATOM     87  O   UNL     1       0.159   6.348  -3.664  1.00  0.00    -0.744 OA
ENDBRANCH  81  84
ENDBRANCH  53  77
BRANCH  65  88
ATOM     88  C   UNL     1      -6.957   9.205 -10.787  1.00  0.00     0.023 A 
ATOM     89  C   UNL     1      -5.878   9.936 -11.320  1.00  0.00     0.012 A 
ATOM     90  C   UNL     1      -8.268   9.704 -10.924  1.00  0.00     0.148 A 
ATOM     91  C   UNL     1      -6.096  11.157 -11.957  1.00  0.00     0.002 A 
ATOM     92  C   UNL     1      -8.482  10.897 -11.604  1.00  0.00     0.091 A 
ATOM     93  F   UNL     1      -9.279   8.997 -10.399  1.00  0.00    -0.205 F 
ATOM     94  C   UNL     1      -7.397  11.630 -12.110  1.00  0.00     0.022 A 
BRANCH  92  95
ATOM     95  S   UNL     1     -10.128  11.536 -11.937  1.00  0.00     0.127 S 
ATOM     96  O   UNL     1     -10.173  12.709 -11.065  1.00  0.00    -0.237 OA
ATOM     97  O   UNL     1     -10.059  11.840 -13.366  1.00  0.00    -0.237 OA
ATOM     98  O   UNL     1     -11.054  10.466 -11.589  1.00  0.00    -0.744 OA
ENDBRANCH  92  95
ENDBRANCH  65  88
ENDBRANCH  39  40
ENDBRANCH  32  34
ENDBRANCH  31  32
ENDBRANCH  30  31
ENDBRANCH  29  30
ENDBRANCH  28  29
ENDBRANCH  27  28
ENDBRANCH   1  27
TORSDOF 25
