REMARK SMILES O=C(OCCOCCOCCOCCOC(=O)c1ccc(-c2c3nc(c(-c4cccc(S(=O)(=O)[O-])c4F)c4ccc([nH]4)c(-c4cccc(S(=O)(=O)[O-])c4F)c4nc(c(-c5cccc(S(=O)(=O)[O-])c5F)c5ccc2[nH]5)C=C4)C=C3)cc1)C1=Cc2cc(Cl)cc(C#Cc3ccccc3)c2O[C@@H]1C(F)(F)F
REMARK SMILES IDX 10 1 9 2 8 3 7 4 6 5 5 6 4 7 3 8 2 9 1 10 81 11 82 12 99 13
REMARK SMILES IDX 83 14 98 15 84 16 97 17 85 18 88 19 86 20 87 21 100 22
REMARK SMILES IDX 101 23 102 24 103 25 89 26 90 27 91 28 92 29 96 30 93 31
REMARK SMILES IDX 95 32 94 33 11 34 12 35 13 36 14 37 15 38 16 39 17 40 18 41
REMARK SMILES IDX 19 42 80 43 20 44 79 45 21 46 22 47 23 48 73 49 24 50 78 51
REMARK SMILES IDX 72 52 74 53 25 54 77 55 71 56 70 57 26 59 58 60 38 61 57 62
REMARK SMILES IDX 39 63 42 64 56 65 75 66 40 67 41 68 55 70 76 71 43 72 27 73
REMARK SMILES IDX 28 74 36 75 29 76 31 77 37 78 30 79 32 80 33 81 34 82 35 83
REMARK SMILES IDX 59 84 60 85 68 86 61 87 63 88 69 89 62 90 64 91 65 92 66 93
REMARK SMILES IDX 67 94 44 95 45 96 53 97 46 98 48 99 54 100 47 101 49 102
REMARK SMILES IDX 50 103 51 104 52 105
REMARK H PARENT 74 58 42 69
REMARK Flexibility Score: inf
ROOT
ATOM      1  C   UNL     1       4.110  -0.897   3.786  1.00  0.00     0.188 C 
ENDROOT
BRANCH   1   2
ATOM      2  O   UNL     1       2.762  -1.175   4.096  1.00  0.00    -0.377 OA
BRANCH   2   3
ATOM      3  C   UNL     1       1.902  -0.874   3.024  1.00  0.00     0.188 C 
BRANCH   3   4
ATOM      4  C   UNL     1       2.157  -1.727   1.781  1.00  0.00     0.188 C 
BRANCH   4   5
ATOM      5  O   UNL     1       3.449  -1.815   1.100  1.00  0.00    -0.376 OA
BRANCH   5   6
ATOM      6  C   UNL     1       4.215  -0.878   0.001  1.00  0.00     0.202 C 
BRANCH   6   7
ATOM      7  C   UNL     1       3.480   0.909  -0.999  1.00  0.00     0.261 C 
BRANCH   7   8
ATOM      8  O   UNL     1       2.649   0.953  -2.281  1.00  0.00    -0.460 OA
BRANCH   8   9
ATOM      9  C   UNL     1       2.927  -0.060  -3.109  1.00  0.00     0.338 C 
ATOM     10  O   UNL     1       2.352  -0.396  -4.115  1.00  0.00    -0.246 OA
BRANCH   9  11
ATOM     11  C   UNL     1       3.747  -0.811  -2.178  1.00  0.00     0.087 C 
ATOM     12  C   UNL     1       5.107  -0.266  -2.021  1.00  0.00     0.027 C 
ATOM     13  C   UNL     1       2.404  -0.826  -0.797  1.00  0.00     0.316 C 
ATOM     14  C   UNL     1       5.661   0.668  -0.574  1.00  0.00     0.020 A 
ATOM     15  O   UNL     1       2.932   0.278   0.716  1.00  0.00    -0.474 OA
ATOM     16  C   UNL     1       6.953   1.119  -0.534  1.00  0.00     0.032 A 
ATOM     17  C   UNL     1       4.593   1.056   0.746  1.00  0.00     0.143 A 
ATOM     18  C   UNL     1       7.292   1.849   0.617  1.00  0.00     0.043 A 
ATOM     19  C   UNL     1       5.011   1.833   1.807  1.00  0.00     0.069 A 
ATOM     20  Cl  UNL     1       8.941   2.378   0.741  1.00  0.00    -0.084 Cl
ATOM     21  C   UNL     1       6.388   2.189   1.707  1.00  0.00     0.041 A 
BRANCH  13  22
ATOM     22  C   UNL     1       2.106  -2.446  -0.938  1.00  0.00     0.430 C 
ATOM     23  F   UNL     1       1.192  -2.995  -0.118  1.00  0.00    -0.167 F 
ATOM     24  F   UNL     1       1.584  -2.638  -2.190  1.00  0.00    -0.167 F 
ATOM     25  F   UNL     1       3.211  -3.234  -0.921  1.00  0.00    -0.167 F 
ENDBRANCH  13  22
BRANCH  19  26
ATOM     26  C   UNL     1       4.271   2.265   2.954  1.00  0.00    -0.058 C 
ATOM     27  C   UNL     1       3.796   2.609   4.001  1.00  0.00    -0.062 C 
BRANCH  27  28
ATOM     28  C   UNL     1       3.329   2.938   5.324  1.00  0.00     0.025 A 
ATOM     29  C   UNL     1       3.632   4.169   5.910  1.00  0.00     0.017 A 
ATOM     30  C   UNL     1       2.638   1.982   6.073  1.00  0.00     0.017 A 
ATOM     31  C   UNL     1       3.311   4.416   7.250  1.00  0.00     0.001 A 
ATOM     32  C   UNL     1       2.276   2.245   7.399  1.00  0.00     0.001 A 
ATOM     33  C   UNL     1       2.634   3.454   7.996  1.00  0.00     0.000 A 
ENDBRANCH  27  28
ENDBRANCH  19  26
ENDBRANCH   9  11
ENDBRANCH   8   9
ENDBRANCH   7   8
ENDBRANCH   6   7
ENDBRANCH   5   6
ENDBRANCH   4   5
ENDBRANCH   3   4
ENDBRANCH   2   3
ENDBRANCH   1   2
BRANCH   1  34
ATOM     34  C   UNL     1       5.053  -2.093   3.603  1.00  0.00     0.188 C 
BRANCH  34  35
ATOM     35  O   UNL     1       4.638  -3.442   3.729  1.00  0.00    -0.376 OA
BRANCH  35  36
ATOM     36  C   UNL     1       3.454  -3.777   4.421  1.00  0.00     0.202 C 
BRANCH  36  37
ATOM     37  C   UNL     1       3.297  -3.440   5.913  1.00  0.00     0.261 C 
BRANCH  37  38
ATOM     38  O   UNL     1       3.823  -2.187   6.363  1.00  0.00    -0.460 OA
BRANCH  38  39
ATOM     39  C   UNL     1       5.141  -2.157   6.668  1.00  0.00     0.338 C 
ATOM     40  O   UNL     1       5.929  -3.084   6.628  1.00  0.00    -0.246 OA
BRANCH  39  41
ATOM     41  C   UNL     1       5.520  -0.752   6.944  1.00  0.00     0.060 A 
ATOM     42  C   UNL     1       6.589  -0.147   6.262  1.00  0.00     0.016 A 
ATOM     43  C   UNL     1       4.810  -0.034   7.896  1.00  0.00     0.016 A 
ATOM     44  C   UNL     1       6.990   1.158   6.574  1.00  0.00     0.010 A 
ATOM     45  C   UNL     1       5.214   1.264   8.203  1.00  0.00     0.010 A 
ATOM     46  C   UNL     1       6.345   1.852   7.599  1.00  0.00    -0.014 A 
BRANCH  46  47
ATOM     47  C   UNL     1       6.967   3.037   8.263  1.00  0.00     0.031 A 
ATOM     48  C   UNL     1       7.338   2.885   9.722  1.00  0.00     0.074 A 
ATOM     49  C   UNL     1       7.170   4.223   7.653  1.00  0.00     0.049 A 
ATOM     50  N   UNL     1       7.743   3.783  10.580  1.00  0.00    -0.248 NA
ATOM     51  C   UNL     1       7.174   1.540  10.309  1.00  0.00     0.031 C 
ATOM     52  C   UNL     1       6.883   4.534   6.255  1.00  0.00     0.029 A 
ATOM     53  N   UNL     1       7.633   5.415   8.163  1.00  0.00    -0.354 N 
ATOM     54  C   UNL     1       7.810   3.123  11.801  1.00  0.00     0.074 A 
ATOM     55  C   UNL     1       7.293   1.792  11.599  1.00  0.00     0.031 C 
ATOM     56  C   UNL     1       7.116   5.841   6.033  1.00  0.00     0.029 A 
ATOM     57  C   UNL     1       7.593   6.460   7.267  1.00  0.00     0.049 A 
ATOM     58  H   UNL     1       7.963   5.511   9.086  1.00  0.00     0.167 HD
ATOM     59  C   UNL     1       8.327   3.543  12.977  1.00  0.00     0.034 A 
ATOM     60  C   UNL     1       7.912   7.761   7.423  1.00  0.00     0.034 A 
ATOM     61  C   UNL     1       8.931   4.828  13.159  1.00  0.00     0.049 A 
ATOM     62  C   UNL     1       8.488   8.222   8.741  1.00  0.00     0.074 A 
ATOM     63  C   UNL     1       9.591   5.319  14.270  1.00  0.00     0.029 A 
ATOM     64  N   UNL     1       8.945   5.828  12.203  1.00  0.00    -0.354 N 
ATOM     65  N   UNL     1       8.674   7.543   9.847  1.00  0.00    -0.248 NA
ATOM     66  C   UNL     1       8.968   9.612   8.807  1.00  0.00     0.031 C 
ATOM     67  C   UNL     1       9.953   6.643  14.004  1.00  0.00     0.029 A 
ATOM     68  C   UNL     1       9.587   6.944  12.702  1.00  0.00     0.049 A 
ATOM     69  H   UNL     1       8.556   5.755  11.301  1.00  0.00     0.167 HD
ATOM     70  C   UNL     1       9.366   8.392  10.706  1.00  0.00     0.074 A 
ATOM     71  C   UNL     1       9.556   9.639   9.995  1.00  0.00     0.031 C 
ATOM     72  C   UNL     1       9.817   8.157  11.962  1.00  0.00     0.034 A 
BRANCH  59  73
ATOM     73  C   UNL     1       8.289   2.581  14.135  1.00  0.00     0.023 A 
ATOM     74  C   UNL     1       9.027   1.378  14.091  1.00  0.00     0.012 A 
ATOM     75  C   UNL     1       7.511   2.871  15.270  1.00  0.00     0.148 A 
ATOM     76  C   UNL     1       8.931   0.447  15.124  1.00  0.00     0.002 A 
ATOM     77  C   UNL     1       7.476   1.971  16.326  1.00  0.00     0.091 A 
ATOM     78  F   UNL     1       6.803   4.009  15.286  1.00  0.00    -0.205 F 
ATOM     79  C   UNL     1       8.164   0.749  16.245  1.00  0.00     0.022 A 
BRANCH  77  80
ATOM     80  S   UNL     1       6.596   2.310  17.852  1.00  0.00     0.127 S 
ATOM     81  O   UNL     1       5.540   1.298  17.814  1.00  0.00    -0.237 OA
ATOM     82  O   UNL     1       7.632   2.075  18.856  1.00  0.00    -0.237 OA
ATOM     83  O   UNL     1       6.137   3.688  17.757  1.00  0.00    -0.744 OA
ENDBRANCH  77  80
ENDBRANCH  59  73
BRANCH  60  84
ATOM     84  C   UNL     1       7.813   8.715   6.278  1.00  0.00     0.023 A 
ATOM     85  C   UNL     1       8.996   9.197   5.678  1.00  0.00     0.012 A 
ATOM     86  C   UNL     1       6.570   9.172   5.801  1.00  0.00     0.148 A 
ATOM     87  C   UNL     1       8.946  10.154   4.664  1.00  0.00     0.002 A 
ATOM     88  C   UNL     1       6.526  10.093   4.758  1.00  0.00     0.091 A 
ATOM     89  F   UNL     1       5.457   8.699   6.378  1.00  0.00    -0.205 F 
ATOM     90  C   UNL     1       7.712  10.600   4.202  1.00  0.00     0.022 A 
BRANCH  88  91
ATOM     91  S   UNL     1       4.989  10.664   4.024  1.00  0.00     0.127 S 
ATOM     92  O   UNL     1       5.028  12.095   4.317  1.00  0.00    -0.237 OA
ATOM     93  O   UNL     1       5.187  10.318   2.616  1.00  0.00    -0.237 OA
ATOM     94  O   UNL     1       3.931   9.917   4.690  1.00  0.00    -0.744 OA
ENDBRANCH  88  91
ENDBRANCH  60  84
BRANCH  72  95
ATOM     95  C   UNL     1      10.655   9.218  12.626  1.00  0.00     0.023 A 
ATOM     96  C   UNL     1      10.088  10.440  13.031  1.00  0.00     0.012 A 
ATOM     97  C   UNL     1      12.011   8.954  12.914  1.00  0.00     0.148 A 
ATOM     98  C   UNL     1      10.870  11.404  13.668  1.00  0.00     0.002 A 
ATOM     99  C   UNL     1      12.765   9.891  13.605  1.00  0.00     0.091 A 
ATOM    100  F   UNL     1      12.537   7.790  12.507  1.00  0.00    -0.205 F 
ATOM    101  C   UNL     1      12.202  11.124  13.967  1.00  0.00     0.022 A 
BRANCH  99 102
ATOM    102  S   UNL     1      14.451   9.565  14.130  1.00  0.00     0.127 S 
ATOM    103  O   UNL     1      15.212  10.447  13.247  1.00  0.00    -0.237 OA
ATOM    104  O   UNL     1      14.422   9.982  15.533  1.00  0.00    -0.237 OA
ATOM    105  O   UNL     1      14.669   8.139  13.928  1.00  0.00    -0.744 OA
ENDBRANCH  99 102
ENDBRANCH  72  95
ENDBRANCH  46  47
ENDBRANCH  39  41
ENDBRANCH  38  39
ENDBRANCH  37  38
ENDBRANCH  36  37
ENDBRANCH  35  36
ENDBRANCH  34  35
ENDBRANCH   1  34
TORSDOF 26
