REMARK SMILES C[N@@H+]1[C@@H]2CC[C@H]1CN(C(=O)NC(C)(C)CC(=O)OCCOCCOCCOCCOC(=O)c1ccc(-c3c4nc(c(-c5cccc(S(=O)(=O)[O-])c5F)c5ccc([nH]5)c(-c5cccc(S(=O)(=O)[O-])c5F)c5nc(c(-c6cccc(S(=O)(=O)[O-])c6F)c6ccc3[nH]6)C=C5)C=C4)cc1)CC2
REMARK SMILES IDX 23 1 22 2 21 3 20 4 19 5 18 6 16 7 17 8 15 9 12 10 13 11
REMARK SMILES IDX 14 12 11 13 9 14 10 15 8 17 7 18 6 19 1 20 2 21 3 22 4 24
REMARK SMILES IDX 5 26 96 27 97 28 24 30 25 31 26 32 27 33 28 34 29 35 30 36
REMARK SMILES IDX 31 37 32 38 33 39 34 40 95 41 35 42 94 43 36 44 37 45 38 46
REMARK SMILES IDX 88 47 39 48 93 49 87 50 89 51 40 52 92 53 86 54 85 55 41 57
REMARK SMILES IDX 73 58 53 59 72 60 54 61 57 62 71 63 90 64 55 65 56 66 70 68
REMARK SMILES IDX 91 69 58 70 42 71 43 72 51 73 44 74 46 75 52 76 45 77 47 78
REMARK SMILES IDX 48 79 49 80 50 81 74 82 75 83 83 84 76 85 78 86 84 87 77 88
REMARK SMILES IDX 79 89 80 90 81 91 82 92 59 93 60 94 68 95 61 96 63 97 69 98
REMARK SMILES IDX 62 99 64 100 65 101 66 102 67 103
REMARK H PARENT 11 16 2 23 89 56 57 67
REMARK Flexibility Score: 90.00
ROOT
ATOM      1  C   UNL     1      -0.736  -2.972   6.171  1.00  0.00     0.188 C 
ENDROOT
BRANCH   1   2
ATOM      2  C   UNL     1       0.661  -2.725   5.577  1.00  0.00     0.188 C 
BRANCH   2   3
ATOM      3  O   UNL     1       1.728  -2.991   6.457  1.00  0.00    -0.376 OA
BRANCH   3   4
ATOM      4  C   UNL     1       2.339  -1.899   7.109  1.00  0.00     0.202 C 
BRANCH   4   5
ATOM      5  C   UNL     1       1.524  -0.770   7.771  1.00  0.00     0.261 C 
BRANCH   5   6
ATOM      6  O   UNL     1       0.178  -0.530   7.316  1.00  0.00    -0.463 OA
BRANCH   6   7
ATOM      7  C   UNL     1      -0.030   0.554   6.537  1.00  0.00     0.308 C 
ATOM      8  O   UNL     1       0.878   1.261   6.107  1.00  0.00    -0.252 OA
BRANCH   7   9
ATOM      9  C   UNL     1      -1.492   0.950   6.378  1.00  0.00     0.150 C 
BRANCH   9  10
ATOM     10  C   UNL     1      -2.644   0.076   5.777  1.00  0.00     0.047 C 
ATOM     11  C   UNL     1      -3.731   1.020   5.207  1.00  0.00     0.035 C 
ATOM     12  C   UNL     1      -3.324  -0.645   6.984  1.00  0.00     0.035 C 
BRANCH  10  13
ATOM     13  N   UNL     1      -2.424  -0.956   4.705  1.00  0.00    -0.333 N 
ATOM     14  C   UNL     1      -1.746  -1.320   3.603  1.00  0.00     0.318 C 
ATOM     15  O   UNL     1      -2.095  -2.410   3.131  1.00  0.00    -0.249 OA
ATOM     16  H   UNL     1      -3.055  -1.688   4.893  1.00  0.00     0.165 HD
BRANCH  14  17
ATOM     17  N   UNL     1      -0.688  -0.637   3.088  1.00  0.00    -0.319 N 
BRANCH  17  18
ATOM     18  C   UNL     1       0.264  -1.416   2.258  1.00  0.00     0.186 C 
BRANCH  18  19
ATOM     19  C   UNL     1       1.330  -0.704   1.389  1.00  0.00     0.204 C 
ATOM     20  C   UNL     1       1.363   0.355  -0.796  1.00  0.00     0.333 C 
ATOM     21  N   UNL     1       0.702   0.287   0.501  1.00  0.00    -0.331 N 
ATOM     22  C   UNL     1       0.781   1.560   1.228  1.00  0.00     0.186 CG0
ATOM     23  H   UNL     1      -0.264   0.040   0.284  1.00  0.00     0.348 HD
ATOM     24  C   UNL     1       2.112   1.522   1.978  1.00  0.00     0.071 C 
ATOM     25  G   UNL     1      -0.431   1.676   2.152  1.00  0.00     0.000 G0
ATOM     26  C   UNL     1       2.409   0.041   2.183  1.00  0.00     0.073 C 
ENDBRANCH  18  19
ENDBRANCH  17  18
BRANCH  17  27
ATOM     27  C   UNL     1      -0.419   0.751   3.354  1.00  0.00     0.128 C 
BRANCH  27  28
ATOM     28  C   UNL     1      -0.431   1.676   2.152  1.00  0.00     0.086 CG0
ATOM     29  G   UNL     1       0.781   1.560   1.228  1.00  0.00     0.000 G0
ENDBRANCH  27  28
ENDBRANCH  17  27
ENDBRANCH  14  17
ENDBRANCH  10  13
ENDBRANCH   9  10
ENDBRANCH   7   9
ENDBRANCH   6   7
ENDBRANCH   5   6
ENDBRANCH   4   5
ENDBRANCH   3   4
ENDBRANCH   2   3
ENDBRANCH   1   2
BRANCH   1  30
ATOM     30  O   UNL     1      -0.958  -3.645   7.397  1.00  0.00    -0.377 OA
BRANCH  30  31
ATOM     31  C   UNL     1       0.028  -4.554   7.830  1.00  0.00     0.188 C 
BRANCH  31  32
ATOM     32  C   UNL     1       0.403  -5.686   6.857  1.00  0.00     0.188 C 
BRANCH  32  33
ATOM     33  O   UNL     1      -0.015  -5.464   5.519  1.00  0.00    -0.376 OA
BRANCH  33  34
ATOM     34  C   UNL     1      -1.136  -6.184   5.029  1.00  0.00     0.202 C 
BRANCH  34  35
ATOM     35  C   UNL     1      -2.514  -6.071   5.711  1.00  0.00     0.261 C 
BRANCH  35  36
ATOM     36  O   UNL     1      -2.546  -6.058   7.141  1.00  0.00    -0.460 OA
BRANCH  36  37
ATOM     37  C   UNL     1      -2.287  -7.214   7.793  1.00  0.00     0.338 C 
ATOM     38  O   UNL     1      -2.016  -8.286   7.305  1.00  0.00    -0.246 OA
BRANCH  37  39
ATOM     39  C   UNL     1      -2.168  -6.864   9.230  1.00  0.00     0.060 A 
ATOM     40  C   UNL     1      -0.944  -7.095   9.872  1.00  0.00     0.016 A 
ATOM     41  C   UNL     1      -3.215  -6.227   9.904  1.00  0.00     0.016 A 
ATOM     42  C   UNL     1      -0.752  -6.660  11.182  1.00  0.00     0.010 A 
ATOM     43  C   UNL     1      -3.043  -5.848  11.238  1.00  0.00     0.010 A 
ATOM     44  C   UNL     1      -1.816  -6.080  11.884  1.00  0.00    -0.014 A 
BRANCH  44  45
ATOM     45  C   UNL     1      -1.721  -5.988  13.357  1.00  0.00     0.031 A 
ATOM     46  C   UNL     1      -2.182  -7.182  14.145  1.00  0.00     0.074 A 
ATOM     47  C   UNL     1      -1.218  -4.907  13.978  1.00  0.00     0.049 A 
ATOM     48  N   UNL     1      -2.198  -7.371  15.436  1.00  0.00    -0.248 NA
ATOM     49  C   UNL     1      -2.691  -8.323  13.361  1.00  0.00     0.031 C 
ATOM     50  C   UNL     1      -0.718  -3.703  13.317  1.00  0.00     0.029 A 
ATOM     51  N   UNL     1      -1.064  -4.647  15.317  1.00  0.00    -0.354 N 
ATOM     52  C   UNL     1      -2.734  -8.639  15.620  1.00  0.00     0.074 A 
ATOM     53  C   UNL     1      -3.041  -9.172  14.313  1.00  0.00     0.031 C 
ATOM     54  C   UNL     1      -0.337  -2.818  14.257  1.00  0.00     0.029 A 
ATOM     55  C   UNL     1      -0.590  -3.384  15.582  1.00  0.00     0.049 A 
ATOM     56  H   UNL     1      -1.273  -5.302  16.020  1.00  0.00     0.167 HD
ATOM     57  C   UNL     1      -2.943  -9.308  16.776  1.00  0.00     0.034 A 
ATOM     58  C   UNL     1      -0.405  -2.757  16.762  1.00  0.00     0.034 A 
ATOM     59  C   UNL     1      -2.647  -8.769  18.073  1.00  0.00     0.049 A 
ATOM     60  C   UNL     1      -0.700  -3.504  18.040  1.00  0.00     0.074 A 
ATOM     61  C   UNL     1      -2.803  -9.369  19.308  1.00  0.00     0.029 A 
ATOM     62  N   UNL     1      -2.157  -7.493  18.302  1.00  0.00    -0.354 N 
ATOM     63  N   UNL     1      -1.109  -4.740  18.202  1.00  0.00    -0.248 NA
ATOM     64  C   UNL     1      -0.478  -2.780  19.301  1.00  0.00     0.031 C 
ATOM     65  C   UNL     1      -2.443  -8.440  20.289  1.00  0.00     0.029 A 
ATOM     66  C   UNL     1      -2.017  -7.279  19.661  1.00  0.00     0.049 A 
ATOM     67  H   UNL     1      -1.940  -6.837  17.602  1.00  0.00     0.167 HD
ATOM     68  C   UNL     1      -1.152  -4.955  19.576  1.00  0.00     0.074 A 
ATOM     69  C   UNL     1      -0.712  -3.725  20.202  1.00  0.00     0.031 C 
ATOM     70  C   UNL     1      -1.530  -6.063  20.261  1.00  0.00     0.034 A 
BRANCH  57  71
ATOM     71  C   UNL     1      -3.524 -10.692  16.680  1.00  0.00     0.023 A 
ATOM     72  C   UNL     1      -2.740 -11.750  16.175  1.00  0.00     0.012 A 
ATOM     73  C   UNL     1      -4.838 -10.950  17.114  1.00  0.00     0.148 A 
ATOM     74  C   UNL     1      -3.267 -13.037  16.072  1.00  0.00     0.002 A 
ATOM     75  C   UNL     1      -5.339 -12.243  17.056  1.00  0.00     0.091 A 
ATOM     76  F   UNL     1      -5.575  -9.924  17.562  1.00  0.00    -0.205 F 
ATOM     77  C   UNL     1      -4.561 -13.285  16.523  1.00  0.00     0.022 A 
BRANCH  75  78
ATOM     78  S   UNL     1      -6.963 -12.681  17.684  1.00  0.00     0.127 S 
ATOM     79  O   UNL     1      -7.673 -13.021  16.452  1.00  0.00    -0.237 OA
ATOM     80  O   UNL     1      -6.658 -13.822  18.547  1.00  0.00    -0.237 OA
ATOM     81  O   UNL     1      -7.457 -11.502  18.382  1.00  0.00    -0.744 OA
ENDBRANCH  75  78
ENDBRANCH  57  71
BRANCH  58  82
ATOM     82  C   UNL     1       0.100  -1.354  16.800  1.00  0.00     0.023 A 
ATOM     83  C   UNL     1       1.375  -1.083  17.334  1.00  0.00     0.012 A 
ATOM     84  C   UNL     1      -0.680  -0.286  16.315  1.00  0.00     0.148 A 
ATOM     85  C   UNL     1       1.849   0.228  17.417  1.00  0.00     0.002 A 
ATOM     86  C   UNL     1      -0.179   1.011  16.348  1.00  0.00     0.091 A 
ATOM     87  F   UNL     1      -1.898  -0.560  15.828  1.00  0.00    -0.205 F 
ATOM     88  C   UNL     1       1.077   1.272  16.916  1.00  0.00     0.022 A 
BRANCH  86  89
ATOM     89  S   UNL     1      -1.048   2.402  15.616  1.00  0.00     0.127 S 
ATOM     90  O   UNL     1      -1.387   3.197  16.793  1.00  0.00    -0.237 OA
ATOM     91  O   UNL     1      -0.015   2.980  14.756  1.00  0.00    -0.237 OA
ATOM     92  O   UNL     1      -2.178   1.829  14.896  1.00  0.00    -0.744 OA
ENDBRANCH  86  89
ENDBRANCH  58  82
BRANCH  70  93
ATOM     93  C   UNL     1      -1.437  -6.027  21.765  1.00  0.00     0.023 A 
ATOM     94  C   UNL     1      -2.345  -5.250  22.512  1.00  0.00     0.012 A 
ATOM     95  C   UNL     1      -0.499  -6.834  22.440  1.00  0.00     0.148 A 
ATOM     96  C   UNL     1      -2.296  -5.250  23.906  1.00  0.00     0.002 A 
ATOM     97  C   UNL     1      -0.492  -6.870  23.829  1.00  0.00     0.091 A 
ATOM     98  F   UNL     1       0.365  -7.555  21.711  1.00  0.00    -0.205 F 
ATOM     99  C   UNL     1      -1.380  -6.068  24.563  1.00  0.00     0.022 A 
BRANCH  97 100
ATOM    100  S   UNL     1       0.581  -7.970  24.759  1.00  0.00     0.127 S 
ATOM    101  O   UNL     1       1.521  -7.027  25.363  1.00  0.00    -0.237 OA
ATOM    102  O   UNL     1      -0.353  -8.588  25.701  1.00  0.00    -0.237 OA
ATOM    103  O   UNL     1       1.158  -8.888  23.787  1.00  0.00    -0.744 OA
ENDBRANCH  97 100
ENDBRANCH  70  93
ENDBRANCH  44  45
ENDBRANCH  37  39
ENDBRANCH  36  37
ENDBRANCH  35  36
ENDBRANCH  34  35
ENDBRANCH  33  34
ENDBRANCH  32  33
ENDBRANCH  31  32
ENDBRANCH  30  31
ENDBRANCH   1  30
TORSDOF 26
