REMARK SMILES O=C(OCCOCCOCCOCCOC(=O)c1sccc1[S@](=O)[O-])c1ccc(-c2c3nc(c(-c4cccc(S(=O)(=O)[O-])c4F)c4ccc([nH]4)c(-c4cccc(S(=O)(=O)[O-])c4F)c4nc(c(-c5cccc(S(=O)(=O)[O-])c5F)c5ccc2[nH]5)C=C4)C=C3)cc1
REMARK SMILES IDX 8 1 7 2 6 3 5 4 4 5 3 6 2 7 1 8 26 9 27 10 88 11 28 12 87 13
REMARK SMILES IDX 29 14 30 15 31 16 81 17 32 18 86 19 80 20 82 21 33 22 85 23
REMARK SMILES IDX 79 24 78 25 34 27 66 28 46 29 65 30 47 31 50 32 64 33 83 34
REMARK SMILES IDX 48 35 49 36 63 38 84 39 51 40 35 41 36 42 44 43 37 44 39 45
REMARK SMILES IDX 45 46 38 47 40 48 41 49 42 50 43 51 67 52 68 53 76 54 69 55
REMARK SMILES IDX 71 56 77 57 70 58 72 59 73 60 74 61 75 62 52 63 53 64 61 65
REMARK SMILES IDX 54 66 56 67 62 68 55 69 57 70 58 71 59 72 60 73 9 74 10 75
REMARK SMILES IDX 11 76 12 77 13 78 14 79 15 80 16 81 17 82 18 83 19 84 22 85
REMARK SMILES IDX 20 86 21 87 23 88 25 89 24 90
REMARK H PARENT 82 26 50 37
REMARK Flexibility Score: inf
ROOT
ATOM      1  C   UNL     1       2.645   4.186   2.246  1.00  0.00     0.188 C 
ENDROOT
BRANCH   1   2
ATOM      2  C   UNL     1       1.549   4.583   1.259  1.00  0.00     0.188 C 
BRANCH   2   3
ATOM      3  O   UNL     1       1.078   5.909   1.505  1.00  0.00    -0.376 OA
BRANCH   3   4
ATOM      4  C   UNL     1      -0.330   6.096   1.369  1.00  0.00     0.202 C 
BRANCH   4   5
ATOM      5  C   UNL     1      -0.830   6.216  -0.074  1.00  0.00     0.261 C 
BRANCH   5   6
ATOM      6  O   UNL     1      -0.104   5.375  -0.982  1.00  0.00    -0.460 OA
BRANCH   6   7
ATOM      7  C   UNL     1       0.959   5.717  -1.756  1.00  0.00     0.338 C 
ATOM      8  O   UNL     1       1.384   4.880  -2.552  1.00  0.00    -0.246 OA
BRANCH   7   9
ATOM      9  C   UNL     1       1.641   7.050  -1.703  1.00  0.00     0.060 A 
ATOM     10  C   UNL     1       1.629   7.923  -0.613  1.00  0.00     0.016 A 
ATOM     11  C   UNL     1       2.404   7.421  -2.823  1.00  0.00     0.016 A 
ATOM     12  C   UNL     1       2.266   9.153  -0.649  1.00  0.00     0.010 A 
ATOM     13  C   UNL     1       3.076   8.648  -2.862  1.00  0.00     0.010 A 
ATOM     14  C   UNL     1       2.973   9.531  -1.783  1.00  0.00    -0.014 A 
BRANCH  14  15
ATOM     15  C   UNL     1       3.420  10.930  -1.864  1.00  0.00     0.031 A 
ATOM     16  C   UNL     1       2.616  11.866  -2.715  1.00  0.00     0.074 A 
ATOM     17  C   UNL     1       4.428  11.362  -1.085  1.00  0.00     0.049 A 
ATOM     18  N   UNL     1       2.821  13.125  -2.978  1.00  0.00    -0.248 NA
ATOM     19  C   UNL     1       1.403  11.308  -3.342  1.00  0.00     0.031 C 
ATOM     20  C   UNL     1       5.177  10.533  -0.137  1.00  0.00     0.029 A 
ATOM     21  N   UNL     1       4.987  12.604  -0.958  1.00  0.00    -0.354 N 
ATOM     22  C   UNL     1       1.803  13.493  -3.848  1.00  0.00     0.074 A 
ATOM     23  C   UNL     1       0.965  12.335  -4.051  1.00  0.00     0.031 C 
ATOM     24  C   UNL     1       6.106  11.290   0.468  1.00  0.00     0.029 A 
ATOM     25  C   UNL     1       6.058  12.635  -0.095  1.00  0.00     0.049 A 
ATOM     26  H   UNL     1       4.656  13.398  -1.437  1.00  0.00     0.167 HD
ATOM     27  C   UNL     1       1.598  14.695  -4.429  1.00  0.00     0.034 A 
ATOM     28  C   UNL     1       6.921  13.634   0.166  1.00  0.00     0.034 A 
ATOM     29  C   UNL     1       2.443  15.830  -4.191  1.00  0.00     0.049 A 
ATOM     30  C   UNL     1       6.704  14.947  -0.541  1.00  0.00     0.074 A 
ATOM     31  C   UNL     1       2.372  17.092  -4.745  1.00  0.00     0.029 A 
ATOM     32  N   UNL     1       3.524  15.827  -3.319  1.00  0.00    -0.354 N 
ATOM     33  N   UNL     1       5.737  15.291  -1.361  1.00  0.00    -0.248 NA
ATOM     34  C   UNL     1       7.681  16.011  -0.282  1.00  0.00     0.031 C 
ATOM     35  C   UNL     1       3.431  17.846  -4.229  1.00  0.00     0.029 A 
ATOM     36  C   UNL     1       4.137  17.064  -3.325  1.00  0.00     0.049 A 
ATOM     37  H   UNL     1       3.812  15.057  -2.778  1.00  0.00     0.167 HD
ATOM     38  C   UNL     1       5.973  16.618  -1.694  1.00  0.00     0.074 A 
ATOM     39  C   UNL     1       7.161  17.021  -0.967  1.00  0.00     0.031 C 
ATOM     40  C   UNL     1       5.288  17.430  -2.537  1.00  0.00     0.034 A 
BRANCH  27  41
ATOM     41  C   UNL     1       0.456  14.809  -5.400  1.00  0.00     0.023 A 
ATOM     42  C   UNL     1      -0.874  14.839  -4.934  1.00  0.00     0.012 A 
ATOM     43  C   UNL     1       0.707  14.875  -6.784  1.00  0.00     0.148 A 
ATOM     44  C   UNL     1      -1.938  14.898  -5.835  1.00  0.00     0.002 A 
ATOM     45  C   UNL     1      -0.356  14.975  -7.673  1.00  0.00     0.091 A 
ATOM     46  F   UNL     1       1.978  14.814  -7.205  1.00  0.00    -0.205 F 
ATOM     47  C   UNL     1      -1.679  14.974  -7.202  1.00  0.00     0.022 A 
BRANCH  45  48
ATOM     48  S   UNL     1      -0.127  15.133  -9.447  1.00  0.00     0.127 S 
ATOM     49  O   UNL     1      -0.707  13.882  -9.932  1.00  0.00    -0.237 OA
ATOM     50  O   UNL     1      -0.914  16.328  -9.749  1.00  0.00    -0.237 OA
ATOM     51  O   UNL     1       1.307  15.275  -9.658  1.00  0.00    -0.744 OA
ENDBRANCH  45  48
ENDBRANCH  27  41
BRANCH  28  52
ATOM     52  C   UNL     1       8.062  13.430   1.106  1.00  0.00     0.023 A 
ATOM     53  C   UNL     1       8.125  14.163   2.306  1.00  0.00     0.012 A 
ATOM     54  C   UNL     1       9.088  12.507   0.816  1.00  0.00     0.148 A 
ATOM     55  C   UNL     1       9.202  14.005   3.183  1.00  0.00     0.002 A 
ATOM     56  C   UNL     1      10.128  12.313   1.720  1.00  0.00     0.091 A 
ATOM     57  F   UNL     1       9.031  11.834  -0.342  1.00  0.00    -0.205 F 
ATOM     58  C   UNL     1      10.197  13.074   2.895  1.00  0.00     0.022 A 
BRANCH  56  59
ATOM     59  S   UNL     1      11.380  11.047   1.482  1.00  0.00     0.127 S 
ATOM     60  O   UNL     1      12.542  11.844   1.098  1.00  0.00    -0.237 OA
ATOM     61  O   UNL     1      11.460  10.443   2.812  1.00  0.00    -0.237 OA
ATOM     62  O   UNL     1      10.849  10.161   0.454  1.00  0.00    -0.744 OA
ENDBRANCH  56  59
ENDBRANCH  28  52
BRANCH  40  63
ATOM     63  C   UNL     1       5.778  18.843  -2.680  1.00  0.00     0.023 A 
ATOM     64  C   UNL     1       6.945  19.109  -3.421  1.00  0.00     0.012 A 
ATOM     65  C   UNL     1       5.020  19.910  -2.162  1.00  0.00     0.148 A 
ATOM     66  C   UNL     1       7.366  20.422  -3.622  1.00  0.00     0.002 A 
ATOM     67  C   UNL     1       5.415  21.216  -2.413  1.00  0.00     0.091 A 
ATOM     68  F   UNL     1       3.924  19.627  -1.444  1.00  0.00    -0.205 F 
ATOM     69  C   UNL     1       6.594  21.474  -3.132  1.00  0.00     0.022 A 
BRANCH  67  70
ATOM     70  S   UNL     1       4.421  22.627  -1.919  1.00  0.00     0.127 S 
ATOM     71  O   UNL     1       5.206  23.169  -0.812  1.00  0.00    -0.237 OA
ATOM     72  O   UNL     1       4.425  23.447  -3.130  1.00  0.00    -0.237 OA
ATOM     73  O   UNL     1       3.116  22.091  -1.558  1.00  0.00    -0.744 OA
ENDBRANCH  67  70
ENDBRANCH  40  63
ENDBRANCH  14  15
ENDBRANCH   7   9
ENDBRANCH   6   7
ENDBRANCH   5   6
ENDBRANCH   4   5
ENDBRANCH   3   4
ENDBRANCH   2   3
ENDBRANCH   1   2
BRANCH   1  74
ATOM     74  O   UNL     1       2.229   4.093   3.605  1.00  0.00    -0.377 OA
BRANCH  74  75
ATOM     75  C   UNL     1       1.545   5.215   4.150  1.00  0.00     0.188 C 
BRANCH  75  76
ATOM     76  C   UNL     1       2.212   6.609   4.128  1.00  0.00     0.188 C 
BRANCH  76  77
ATOM     77  O   UNL     1       3.434   6.694   3.411  1.00  0.00    -0.376 OA
BRANCH  77  78
ATOM     78  C   UNL     1       4.601   6.851   4.218  1.00  0.00     0.202 C 
BRANCH  78  79
ATOM     79  C   UNL     1       5.028   5.584   4.970  1.00  0.00     0.261 C 
BRANCH  79  80
ATOM     80  O   UNL     1       4.011   5.054   5.837  1.00  0.00    -0.459 OA
BRANCH  80  81
ATOM     81  C   UNL     1       3.768   5.678   7.018  1.00  0.00     0.349 C 
ATOM     82  O   UNL     1       4.375   6.660   7.427  1.00  0.00    -0.245 OA
BRANCH  81  83
ATOM     83  C   UNL     1       2.546   5.135   7.578  1.00  0.00     0.127 A 
ATOM     84  S   UNL     1       1.241   6.226   7.876  1.00  0.00    -0.136 S 
ATOM     85  C   UNL     1       2.163   3.841   7.869  1.00  0.00     0.050 A 
ATOM     86  C   UNL     1       0.130   4.946   8.104  1.00  0.00     0.067 A 
ATOM     87  C   UNL     1       0.763   3.725   8.135  1.00  0.00     0.029 A 
BRANCH  85  88
ATOM     88  S   UNL     1       3.200   2.451   7.954  1.00  0.00    -0.020 S 
ATOM     89  O   UNL     1       2.366   1.631   6.860  1.00  0.00    -0.768 OA
ATOM     90  O   UNL     1       4.538   2.800   7.393  1.00  0.00    -0.269 OA
ENDBRANCH  85  88
ENDBRANCH  81  83
ENDBRANCH  80  81
ENDBRANCH  79  80
ENDBRANCH  78  79
ENDBRANCH  77  78
ENDBRANCH  76  77
ENDBRANCH  75  76
ENDBRANCH  74  75
ENDBRANCH   1  74
TORSDOF 24
