REMARK SMILES CCCCCCNC(=O)Oc1cccc(-c2ccc([C@@H](C)C(=O)OCCOCCOCCOCCOC(=O)c3ccc(-c4c5nc(c(-c6cccc(S(=O)(=O)[O-])c6F)c6ccc([nH]6)c(-c6cccc(S(=O)(=O)[O-])c6F)c6nc(c(-c7cccc(S(=O)(=O)[O-])c7F)c7ccc4[nH]7)C=C6)C=C5)cc3)cc2F)c1
REMARK SMILES IDX 27 1 26 2 25 3 24 4 22 5 23 6 20 7 21 8 19 9 16 10 17 11
REMARK SMILES IDX 103 12 18 13 102 14 104 15 15 16 11 17 12 18 105 19 13 20
REMARK SMILES IDX 14 21 10 22 8 23 7 24 9 26 6 27 5 28 4 29 3 30 2 31 1 32
REMARK SMILES IDX 28 33 29 34 30 35 31 36 32 37 33 38 34 39 35 40 36 41 37 42
REMARK SMILES IDX 38 43 39 44 40 45 101 46 41 47 100 48 42 49 43 50 44 51
REMARK SMILES IDX 94 52 45 53 99 54 93 55 95 56 46 57 98 58 92 59 91 60 47 62
REMARK SMILES IDX 79 63 59 64 78 65 60 66 63 67 77 68 96 69 61 70 62 71 76 73
REMARK SMILES IDX 97 74 64 75 48 76 49 77 57 78 50 79 52 80 58 81 51 82 53 83
REMARK SMILES IDX 54 84 55 85 56 86 80 87 81 88 89 89 82 90 84 91 90 92 83 93
REMARK SMILES IDX 85 94 86 95 87 96 88 97 65 98 66 99 74 100 67 101 69 102
REMARK SMILES IDX 75 103 68 104 70 105 71 106 72 107 73 108
REMARK H PARENT 7 25 95 61 63 72
REMARK Flexibility Score: inf
ROOT
ATOM      1  O   UNL     1      -0.299  -6.276 -13.400  1.00  0.00    -0.376 OA
ENDROOT
BRANCH   1   2
ATOM      2  C   UNL     1      -0.707  -5.468 -14.497  1.00  0.00     0.202 C 
BRANCH   2   3
ATOM      3  C   UNL     1      -2.142  -5.546 -15.050  1.00  0.00     0.261 C 
BRANCH   3   4
ATOM      4  O   UNL     1      -3.217  -5.382 -14.102  1.00  0.00    -0.463 OA
BRANCH   4   5
ATOM      5  C   UNL     1      -3.908  -6.496 -13.771  1.00  0.00     0.313 C 
ATOM      6  O   UNL     1      -3.657  -7.611 -14.229  1.00  0.00    -0.252 OA
BRANCH   5   7
ATOM      7  C   UNL     1      -5.061  -6.302 -12.786  1.00  0.00     0.126 C 
ATOM      8  C   UNL     1      -6.375  -6.468 -13.540  1.00  0.00     0.025 C 
BRANCH   7   9
ATOM      9  C   UNL     1      -5.104  -5.101 -11.840  1.00  0.00    -0.031 A 
ATOM     10  C   UNL     1      -5.150  -2.923  -9.959  1.00  0.00     0.018 A 
ATOM     11  C   UNL     1      -5.164  -2.705 -11.351  1.00  0.00     0.012 A 
ATOM     12  C   UNL     1      -5.118  -4.255  -9.537  1.00  0.00     0.131 A 
ATOM     13  C   UNL     1      -5.142  -3.772 -12.275  1.00  0.00     0.005 A 
ATOM     14  C   UNL     1      -5.111  -5.321 -10.447  1.00  0.00     0.044 A 
ATOM     15  F   UNL     1      -5.105  -4.550  -8.226  1.00  0.00    -0.206 F 
BRANCH  10  16
ATOM     16  C   UNL     1      -5.216  -1.796  -9.002  1.00  0.00    -0.012 A 
ATOM     17  C   UNL     1      -4.351  -0.519  -7.113  1.00  0.00     0.133 A 
ATOM     18  C   UNL     1      -5.420   0.371  -7.187  1.00  0.00     0.047 A 
ATOM     19  C   UNL     1      -4.250  -1.603  -7.995  1.00  0.00     0.056 A 
ATOM     20  C   UNL     1      -6.388   0.190  -8.170  1.00  0.00     0.004 A 
ATOM     21  C   UNL     1      -6.285  -0.880  -9.066  1.00  0.00     0.009 A 
BRANCH  17  22
ATOM     22  O   UNL     1      -3.451  -0.339  -6.046  1.00  0.00    -0.410 OA
BRANCH  22  23
ATOM     23  C   UNL     1      -2.133  -0.067  -6.378  1.00  0.00     0.412 C 
ATOM     24  N   UNL     1      -1.326   0.177  -5.298  1.00  0.00    -0.321 N 
ATOM     25  H   UNL     1      -0.364   0.270  -5.485  1.00  0.00     0.167 HD
ATOM     26  O   UNL     1      -1.669  -0.033  -7.511  1.00  0.00    -0.224 OA
BRANCH  24  27
ATOM     27  C   UNL     1      -1.728   0.316  -3.914  1.00  0.00     0.119 C 
BRANCH  27  28
ATOM     28  C   UNL     1      -1.091  -0.743  -3.012  1.00  0.00     0.021 C 
BRANCH  28  29
ATOM     29  C   UNL     1       0.439  -0.684  -2.915  1.00  0.00     0.002 C 
BRANCH  29  30
ATOM     30  C   UNL     1       1.024   0.620  -2.359  1.00  0.00    -0.000 C 
BRANCH  30  31
ATOM     31  C   UNL     1       0.566   1.003  -0.949  1.00  0.00    -0.003 C 
ATOM     32  C   UNL     1       0.973  -0.004   0.116  1.00  0.00     0.004 C 
ENDBRANCH  30  31
ENDBRANCH  29  30
ENDBRANCH  28  29
ENDBRANCH  27  28
ENDBRANCH  24  27
ENDBRANCH  22  23
ENDBRANCH  17  22
ENDBRANCH  10  16
ENDBRANCH   7   9
ENDBRANCH   5   7
ENDBRANCH   4   5
ENDBRANCH   3   4
ENDBRANCH   2   3
ENDBRANCH   1   2
BRANCH   1  33
ATOM     33  C   UNL     1      -1.040  -6.278 -12.186  1.00  0.00     0.188 C 
BRANCH  33  34
ATOM     34  C   UNL     1      -1.696  -4.999 -11.648  1.00  0.00     0.188 C 
BRANCH  34  35
ATOM     35  O   UNL     1      -1.657  -3.898 -12.527  1.00  0.00    -0.377 OA
BRANCH  35  36
ATOM     36  C   UNL     1      -0.703  -2.888 -12.249  1.00  0.00     0.188 C 
BRANCH  36  37
ATOM     37  C   UNL     1       0.685  -3.355 -11.769  1.00  0.00     0.188 C 
BRANCH  37  38
ATOM     38  O   UNL     1       0.655  -4.191 -10.615  1.00  0.00    -0.376 OA
BRANCH  38  39
ATOM     39  C   UNL     1       0.824  -3.576  -9.343  1.00  0.00     0.202 C 
BRANCH  39  40
ATOM     40  C   UNL     1      -0.260  -2.595  -8.872  1.00  0.00     0.261 C 
BRANCH  40  41
ATOM     41  O   UNL     1      -0.471  -1.447  -9.703  1.00  0.00    -0.460 OA
BRANCH  41  42
ATOM     42  C   UNL     1       0.555  -0.593  -9.911  1.00  0.00     0.338 C 
ATOM     43  O   UNL     1       1.673  -0.667  -9.455  1.00  0.00    -0.246 OA
BRANCH  42  44
ATOM     44  C   UNL     1       0.137   0.321 -11.003  1.00  0.00     0.060 A 
ATOM     45  C   UNL     1       0.841   0.293 -12.214  1.00  0.00     0.016 A 
ATOM     46  C   UNL     1      -0.954   1.177 -10.844  1.00  0.00     0.016 A 
ATOM     47  C   UNL     1       0.473   1.140 -13.262  1.00  0.00     0.010 A 
ATOM     48  C   UNL     1      -1.303   2.047 -11.883  1.00  0.00     0.010 A 
ATOM     49  C   UNL     1      -0.575   2.051 -13.087  1.00  0.00    -0.014 A 
BRANCH  49  50
ATOM     50  C   UNL     1      -0.804   3.123 -14.088  1.00  0.00     0.031 A 
ATOM     51  C   UNL     1      -0.225   4.485 -13.826  1.00  0.00     0.074 A 
ATOM     52  C   UNL     1      -1.535   2.907 -15.196  1.00  0.00     0.049 A 
ATOM     53  N   UNL     1      -0.361   5.591 -14.509  1.00  0.00    -0.248 NA
ATOM     54  C   UNL     1       0.619   4.616 -12.627  1.00  0.00     0.031 C 
ATOM     55  C   UNL     1      -2.139   1.632 -15.574  1.00  0.00     0.029 A 
ATOM     56  N   UNL     1      -1.925   3.775 -16.188  1.00  0.00    -0.354 N 
ATOM     57  C   UNL     1       0.340   6.560 -13.802  1.00  0.00     0.074 A 
ATOM     58  C   UNL     1       0.907   5.908 -12.640  1.00  0.00     0.031 C 
ATOM     59  C   UNL     1      -2.866   1.811 -16.690  1.00  0.00     0.029 A 
ATOM     60  C   UNL     1      -2.808   3.219 -17.083  1.00  0.00     0.049 A 
ATOM     61  H   UNL     1      -1.605   4.704 -16.250  1.00  0.00     0.167 HD
ATOM     62  C   UNL     1       0.499   7.873 -14.091  1.00  0.00     0.034 A 
ATOM     63  C   UNL     1      -3.522   3.788 -18.076  1.00  0.00     0.034 A 
ATOM     64  C   UNL     1      -0.058   8.518 -15.249  1.00  0.00     0.049 A 
ATOM     65  C   UNL     1      -3.365   5.261 -18.358  1.00  0.00     0.074 A 
ATOM     66  C   UNL     1       0.112   9.825 -15.669  1.00  0.00     0.029 A 
ATOM     67  N   UNL     1      -0.919   7.916 -16.153  1.00  0.00    -0.354 N 
ATOM     68  N   UNL     1      -2.587   6.136 -17.766  1.00  0.00    -0.248 NA
ATOM     69  C   UNL     1      -4.166   5.821 -19.457  1.00  0.00     0.031 C 
ATOM     70  C   UNL     1      -0.689  10.028 -16.797  1.00  0.00     0.029 A 
ATOM     71  C   UNL     1      -1.324   8.835 -17.106  1.00  0.00     0.049 A 
ATOM     72  H   UNL     1      -1.202   6.973 -16.121  1.00  0.00     0.167 HD
ATOM     73  C   UNL     1      -2.793   7.343 -18.429  1.00  0.00     0.074 A 
ATOM     74  C   UNL     1      -3.746   7.079 -19.487  1.00  0.00     0.031 C 
ATOM     75  C   UNL     1      -2.252   8.561 -18.174  1.00  0.00     0.034 A 
BRANCH  62  76
ATOM     76  C   UNL     1       1.300   8.705 -13.124  1.00  0.00     0.023 A 
ATOM     77  C   UNL     1       2.696   8.534 -13.031  1.00  0.00     0.012 A 
ATOM     78  C   UNL     1       0.668   9.681 -12.330  1.00  0.00     0.148 A 
ATOM     79  C   UNL     1       3.444   9.293 -12.132  1.00  0.00     0.002 A 
ATOM     80  C   UNL     1       1.427  10.467 -11.471  1.00  0.00     0.091 A 
ATOM     81  F   UNL     1      -0.664   9.812 -12.415  1.00  0.00    -0.205 F 
ATOM     82  C   UNL     1       2.812  10.264 -11.360  1.00  0.00     0.022 A 
BRANCH  80  83
ATOM     83  S   UNL     1       0.715  11.796 -10.496  1.00  0.00     0.127 S 
ATOM     84  O   UNL     1       0.780  11.238  -9.146  1.00  0.00    -0.237 OA
ATOM     85  O   UNL     1       1.649  12.894 -10.746  1.00  0.00    -0.237 OA
ATOM     86  O   UNL     1      -0.626  12.007 -11.022  1.00  0.00    -0.744 OA
ENDBRANCH  80  83
ENDBRANCH  62  76
BRANCH  63  87
ATOM     87  C   UNL     1      -4.470   2.955 -18.870  1.00  0.00     0.023 A 
ATOM     88  C   UNL     1      -4.192   2.668 -20.219  1.00  0.00     0.012 A 
ATOM     89  C   UNL     1      -5.629   2.416 -18.277  1.00  0.00     0.148 A 
ATOM     90  C   UNL     1      -5.060   1.873 -20.969  1.00  0.00     0.002 A 
ATOM     91  C   UNL     1      -6.458   1.578 -19.012  1.00  0.00     0.091 A 
ATOM     92  F   UNL     1      -5.885   2.717 -16.996  1.00  0.00    -0.205 F 
ATOM     93  C   UNL     1      -6.185   1.318 -20.363  1.00  0.00     0.022 A 
BRANCH  91  94
ATOM     94  S   UNL     1      -7.852   0.713 -18.280  1.00  0.00     0.127 S 
ATOM     95  O   UNL     1      -8.980   1.302 -18.997  1.00  0.00    -0.237 OA
ATOM     96  O   UNL     1      -7.556  -0.677 -18.631  1.00  0.00    -0.237 OA
ATOM     97  O   UNL     1      -7.796   1.000 -16.854  1.00  0.00    -0.744 OA
ENDBRANCH  91  94
ENDBRANCH  63  87
BRANCH  75  98
ATOM     98  C   UNL     1      -2.665   9.716 -19.052  1.00  0.00     0.023 A 
ATOM     99  C   UNL     1      -3.957  10.264 -18.924  1.00  0.00     0.012 A 
ATOM    100  C   UNL     1      -1.745  10.319 -19.934  1.00  0.00     0.148 A 
ATOM    101  C   UNL     1      -4.336  11.375 -19.678  1.00  0.00     0.002 A 
ATOM    102  C   UNL     1      -2.113  11.455 -20.646  1.00  0.00     0.091 A 
ATOM    103  F   UNL     1      -0.524   9.777 -20.051  1.00  0.00    -0.205 F 
ATOM    104  C   UNL     1      -3.411  11.977 -20.528  1.00  0.00     0.022 A 
BRANCH 102 105
ATOM    105  S   UNL     1      -0.965  12.358 -21.693  1.00  0.00     0.127 S 
ATOM    106  O   UNL     1      -1.532  12.130 -23.022  1.00  0.00    -0.237 OA
ATOM    107  O   UNL     1      -1.106  13.727 -21.197  1.00  0.00    -0.237 OA
ATOM    108  O   UNL     1       0.344  11.761 -21.468  1.00  0.00    -0.744 OA
ENDBRANCH 102 105
ENDBRANCH  75  98
ENDBRANCH  49  50
ENDBRANCH  42  44
ENDBRANCH  41  42
ENDBRANCH  40  41
ENDBRANCH  39  40
ENDBRANCH  38  39
ENDBRANCH  37  38
ENDBRANCH  36  37
ENDBRANCH  35  36
ENDBRANCH  34  35
ENDBRANCH  33  34
ENDBRANCH   1  33
TORSDOF 32
