REMARK SMILES Nc1nc(N2CCOC[C@H]2C(=O)OCCOCCOCCOCCOC(=O)c2ccc(-c3c4nc(c(-c5cccc(S(=O)(=O)[O-])c5F)c5ccc([nH]5)c(-c5cccc(S(=O)(=O)[O-])c5F)c5nc(c(-c6cccc(S(=O)(=O)[O-])c6F)c6ccc3[nH]6)C=C5)C=C4)cc2)ccc1[N+](=O)[O-]
REMARK SMILES IDX 20 1 19 2 18 3 17 4 16 5 15 6 14 7 13 8 11 9 12 10 10 11
REMARK SMILES IDX 5 12 6 13 7 14 9 15 8 16 4 17 2 18 3 19 93 20 92 21 91 22
REMARK SMILES IDX 1 23 94 26 95 27 96 28 21 29 22 30 23 31 24 32 25 33 26 34
REMARK SMILES IDX 27 35 28 36 29 37 90 38 30 39 89 40 31 41 32 42 33 43 83 44
REMARK SMILES IDX 34 45 88 46 82 47 84 48 35 49 87 50 81 51 80 52 36 54 68 55
REMARK SMILES IDX 48 56 67 57 49 58 52 59 66 60 85 61 50 62 51 63 65 65 86 66
REMARK SMILES IDX 53 67 37 68 38 69 46 70 39 71 41 72 47 73 40 74 42 75 43 76
REMARK SMILES IDX 44 77 45 78 69 79 70 80 78 81 71 82 73 83 79 84 72 85 74 86
REMARK SMILES IDX 75 87 76 88 77 89 54 90 55 91 63 92 56 93 58 94 64 95 57 96
REMARK SMILES IDX 59 97 60 98 61 99 62 100
REMARK H PARENT 1 24 1 25 84 53 52 64
REMARK Flexibility Score: inf
ROOT
ATOM      1  C   UNL     1       0.975   3.884   3.862  1.00  0.00     0.188 C 
ENDROOT
BRANCH   1   2
ATOM      2  O   UNL     1       0.198   3.894   2.682  1.00  0.00    -0.377 OA
BRANCH   2   3
ATOM      3  C   UNL     1       0.817   3.561   1.459  1.00  0.00     0.188 C 
BRANCH   3   4
ATOM      4  C   UNL     1       1.533   4.698   0.723  1.00  0.00     0.188 C 
BRANCH   4   5
ATOM      5  O   UNL     1       1.668   5.962   1.344  1.00  0.00    -0.376 OA
BRANCH   5   6
ATOM      6  C   UNL     1       0.551   6.610   1.932  1.00  0.00     0.202 C 
BRANCH   6   7
ATOM      7  C   UNL     1      -0.902   6.489   1.424  1.00  0.00     0.261 C 
BRANCH   7   8
ATOM      8  O   UNL     1      -1.357   5.222   0.926  1.00  0.00    -0.462 OA
BRANCH   8   9
ATOM      9  C   UNL     1      -1.443   5.069  -0.418  1.00  0.00     0.331 C 
ATOM     10  O   UNL     1      -1.098   5.941  -1.217  1.00  0.00    -0.250 OA
BRANCH   9  11
ATOM     11  C   UNL     1      -2.063   3.740  -0.898  1.00  0.00     0.220 C 
ATOM     12  N   UNL     1      -2.140   2.579   0.031  1.00  0.00    -0.339 N 
ATOM     13  C   UNL     1      -3.043   2.733   1.180  1.00  0.00     0.147 C 
ATOM     14  C   UNL     1      -4.422   3.195   0.692  1.00  0.00     0.181 C 
ATOM     15  C   UNL     1      -3.502   4.109  -1.307  1.00  0.00     0.197 C 
ATOM     16  O   UNL     1      -4.345   4.347  -0.163  1.00  0.00    -0.377 OA
BRANCH  12  17
ATOM     17  C   UNL     1      -1.522   1.370  -0.220  1.00  0.00     0.132 A 
ATOM     18  C   UNL     1       0.487   0.179  -0.509  1.00  0.00     0.204 A 
ATOM     19  N   UNL     1      -0.210   1.347  -0.563  1.00  0.00    -0.207 NA
ATOM     20  C   UNL     1      -0.146  -1.032  -0.243  1.00  0.00     0.311 A 
ATOM     21  C   UNL     1      -1.522  -1.046  -0.038  1.00  0.00     0.093 A 
ATOM     22  C   UNL     1      -2.204   0.169  -0.019  1.00  0.00     0.054 A 
BRANCH  18  23
ATOM     23  N   UNL     1       1.837   0.298  -0.789  1.00  0.00    -0.378 N 
ATOM     24  H   UNL     1       2.227   1.184  -0.969  1.00  0.00     0.158 HD
ATOM     25  H   UNL     1       2.409  -0.503  -0.807  1.00  0.00     0.158 HD
ENDBRANCH  18  23
BRANCH  20  26
ATOM     26  N   UNL     1       0.601  -2.276  -0.108  1.00  0.00     0.066 N 
ATOM     27  O   UNL     1      -0.018  -3.337  -0.283  1.00  0.00    -0.258 OA
ATOM     28  O   UNL     1       1.798  -2.213   0.214  1.00  0.00    -0.258 OA
ENDBRANCH  20  26
ENDBRANCH  12  17
ENDBRANCH   9  11
ENDBRANCH   8   9
ENDBRANCH   7   8
ENDBRANCH   6   7
ENDBRANCH   5   6
ENDBRANCH   4   5
ENDBRANCH   3   4
ENDBRANCH   2   3
ENDBRANCH   1   2
BRANCH   1  29
ATOM     29  C   UNL     1       2.511   3.933   3.783  1.00  0.00     0.188 C 
BRANCH  29  30
ATOM     30  O   UNL     1       3.095   3.204   2.712  1.00  0.00    -0.376 OA
BRANCH  30  31
ATOM     31  C   UNL     1       3.579   1.891   2.950  1.00  0.00     0.202 C 
BRANCH  31  32
ATOM     32  C   UNL     1       2.559   0.793   3.293  1.00  0.00     0.261 C 
BRANCH  32  33
ATOM     33  O   UNL     1       1.748   1.021   4.451  1.00  0.00    -0.460 OA
BRANCH  33  34
ATOM     34  C   UNL     1       2.380   1.176   5.632  1.00  0.00     0.338 C 
ATOM     35  O   UNL     1       3.581   1.114   5.839  1.00  0.00    -0.246 OA
BRANCH  34  36
ATOM     36  C   UNL     1       1.378   1.631   6.613  1.00  0.00     0.060 A 
ATOM     37  C   UNL     1       1.541   2.886   7.213  1.00  0.00     0.016 A 
ATOM     38  C   UNL     1       0.269   0.835   6.912  1.00  0.00     0.016 A 
ATOM     39  C   UNL     1       0.611   3.334   8.147  1.00  0.00     0.010 A 
ATOM     40  C   UNL     1      -0.649   1.276   7.866  1.00  0.00     0.010 A 
ATOM     41  C   UNL     1      -0.460   2.509   8.513  1.00  0.00    -0.014 A 
BRANCH  41  42
ATOM     42  C   UNL     1      -1.244   2.835   9.726  1.00  0.00     0.031 A 
ATOM     43  C   UNL     1      -0.862   2.162  11.014  1.00  0.00     0.074 A 
ATOM     44  C   UNL     1      -2.258   3.717   9.690  1.00  0.00     0.049 A 
ATOM     45  N   UNL     1      -1.399   2.269  12.200  1.00  0.00    -0.248 NA
ATOM     46  C   UNL     1       0.285   1.239  10.954  1.00  0.00     0.031 C 
ATOM     47  C   UNL     1      -2.703   4.449   8.506  1.00  0.00     0.029 A 
ATOM     48  N   UNL     1      -3.107   4.131  10.685  1.00  0.00    -0.354 N 
ATOM     49  C   UNL     1      -0.674   1.413  13.020  1.00  0.00     0.074 A 
ATOM     50  C   UNL     1       0.326   0.776  12.193  1.00  0.00     0.031 C 
ATOM     51  C   UNL     1      -3.759   5.211   8.840  1.00  0.00     0.029 A 
ATOM     52  C   UNL     1      -4.079   4.999  10.250  1.00  0.00     0.049 A 
ATOM     53  H   UNL     1      -3.027   3.834  11.620  1.00  0.00     0.167 HD
ATOM     54  C   UNL     1      -0.816   1.188  14.347  1.00  0.00     0.034 A 
ATOM     55  C   UNL     1      -5.118   5.543  10.917  1.00  0.00     0.034 A 
ATOM     56  C   UNL     1      -1.816   1.820  15.163  1.00  0.00     0.049 A 
ATOM     57  C   UNL     1      -5.294   5.229  12.381  1.00  0.00     0.074 A 
ATOM     58  C   UNL     1      -2.033   1.681  16.521  1.00  0.00     0.029 A 
ATOM     59  N   UNL     1      -2.780   2.698  14.691  1.00  0.00    -0.354 N 
ATOM     60  N   UNL     1      -4.545   4.493  13.167  1.00  0.00    -0.248 NA
ATOM     61  C   UNL     1      -6.444   5.848  13.057  1.00  0.00     0.031 C 
ATOM     62  C   UNL     1      -3.155   2.444  16.863  1.00  0.00     0.029 A 
ATOM     63  C   UNL     1      -3.607   3.097  15.726  1.00  0.00     0.049 A 
ATOM     64  H   UNL     1      -2.864   2.995  13.756  1.00  0.00     0.167 HD
ATOM     65  C   UNL     1      -5.106   4.596  14.437  1.00  0.00     0.074 A 
ATOM     66  C   UNL     1      -6.249   5.477  14.316  1.00  0.00     0.031 C 
ATOM     67  C   UNL     1      -4.715   4.010  15.597  1.00  0.00     0.034 A 
BRANCH  54  68
ATOM     68  C   UNL     1       0.138   0.213  14.988  1.00  0.00     0.023 A 
ATOM     69  C   UNL     1       1.501   0.551  15.126  1.00  0.00     0.012 A 
ATOM     70  C   UNL     1      -0.314  -1.033  15.461  1.00  0.00     0.148 A 
ATOM     71  C   UNL     1       2.405  -0.353  15.682  1.00  0.00     0.002 A 
ATOM     72  C   UNL     1       0.583  -1.908  16.061  1.00  0.00     0.091 A 
ATOM     73  F   UNL     1      -1.607  -1.349  15.299  1.00  0.00    -0.205 F 
ATOM     74  C   UNL     1       1.945  -1.578  16.157  1.00  0.00     0.022 A 
BRANCH  72  75
ATOM     75  S   UNL     1       0.074  -3.475  16.775  1.00  0.00     0.127 S 
ATOM     76  O   UNL     1       0.654  -4.431  15.832  1.00  0.00    -0.237 OA
ATOM     77  O   UNL     1       0.725  -3.440  18.085  1.00  0.00    -0.237 OA
ATOM     78  O   UNL     1      -1.381  -3.443  16.818  1.00  0.00    -0.744 OA
ENDBRANCH  72  75
ENDBRANCH  54  68
BRANCH  55  79
ATOM     79  C   UNL     1      -6.051   6.471  10.218  1.00  0.00     0.023 A 
ATOM     80  C   UNL     1      -6.067   7.834  10.570  1.00  0.00     0.012 A 
ATOM     81  C   UNL     1      -6.913   6.014   9.202  1.00  0.00     0.148 A 
ATOM     82  C   UNL     1      -6.946   8.720   9.945  1.00  0.00     0.002 A 
ATOM     83  C   UNL     1      -7.747   6.911   8.546  1.00  0.00     0.091 A 
ATOM     84  F   UNL     1      -6.891   4.710   8.891  1.00  0.00    -0.205 F 
ATOM     85  C   UNL     1      -7.778   8.261   8.927  1.00  0.00     0.022 A 
BRANCH  83  86
ATOM     86  S   UNL     1      -8.766   6.437   7.144  1.00  0.00     0.127 S 
ATOM     87  O   UNL     1     -10.113   6.623   7.678  1.00  0.00    -0.237 OA
ATOM     88  O   UNL     1      -8.360   7.417   6.137  1.00  0.00    -0.237 OA
ATOM     89  O   UNL     1      -8.398   5.063   6.833  1.00  0.00    -0.744 OA
ENDBRANCH  83  86
ENDBRANCH  55  79
BRANCH  67  90
ATOM     90  C   UNL     1      -5.494   4.339  16.846  1.00  0.00     0.023 A 
ATOM     91  C   UNL     1      -6.803   3.846  17.016  1.00  0.00     0.012 A 
ATOM     92  C   UNL     1      -4.897   5.083  17.883  1.00  0.00     0.148 A 
ATOM     93  C   UNL     1      -7.519   4.122  18.181  1.00  0.00     0.002 A 
ATOM     94  C   UNL     1      -5.595   5.307  19.063  1.00  0.00     0.091 A 
ATOM     95  F   UNL     1      -3.656   5.558  17.697  1.00  0.00    -0.205 F 
ATOM     96  C   UNL     1      -6.911   4.841  19.208  1.00  0.00     0.022 A 
BRANCH  94  97
ATOM     97  S   UNL     1      -4.859   6.134  20.478  1.00  0.00     0.127 S 
ATOM     98  O   UNL     1      -5.586   7.402  20.492  1.00  0.00    -0.237 OA
ATOM     99  O   UNL     1      -5.194   5.226  21.575  1.00  0.00    -0.237 OA
ATOM    100  O   UNL     1      -3.435   6.235  20.190  1.00  0.00    -0.744 OA
ENDBRANCH  94  97
ENDBRANCH  67  90
ENDBRANCH  41  42
ENDBRANCH  34  36
ENDBRANCH  33  34
ENDBRANCH  32  33
ENDBRANCH  31  32
ENDBRANCH  30  31
ENDBRANCH  29  30
ENDBRANCH   1  29
TORSDOF 26
