REMARK SMILES CC[C@H]1CCCC[C@@H]1Sc1csc(C(=O)OCCOCCOCCOCCOC(=O)c2ccc(-c3c4nc(c(-c5cccc(S(=O)(=O)[O-])c5F)c5ccc([nH]5)c(-c5cccc(S(=O)(=O)[O-])c5F)c5nc(c(-c6cccc(S(=O)(=O)[O-])c6F)c6ccc3[nH]6)C=C5)C=C4)cc2)c1
REMARK SMILES IDX 22 1 21 2 20 3 19 4 18 5 17 6 16 7 14 8 15 9 13 10 10 11
REMARK SMILES IDX 11 12 94 13 12 14 9 15 8 16 3 17 4 18 5 19 7 20 6 21 2 22
REMARK SMILES IDX 1 23 23 24 24 25 25 26 26 27 27 28 28 29 29 30 30 31 31 32
REMARK SMILES IDX 32 33 93 34 33 35 92 36 34 37 35 38 36 39 86 40 37 41 91 42
REMARK SMILES IDX 85 43 87 44 38 45 90 46 84 47 83 48 39 50 71 51 51 52 70 53
REMARK SMILES IDX 52 54 55 55 69 56 88 57 53 58 54 59 68 61 89 62 56 63 40 64
REMARK SMILES IDX 41 65 49 66 42 67 44 68 50 69 43 70 45 71 46 72 47 73 48 74
REMARK SMILES IDX 72 75 73 76 81 77 74 78 76 79 82 80 75 81 77 82 78 83 79 84
REMARK SMILES IDX 80 85 57 86 58 87 66 88 59 89 61 90 67 91 60 92 62 93 63 94
REMARK SMILES IDX 64 95 65 96
REMARK H PARENT 87 49 55 60
REMARK Flexibility Score: inf
ROOT
ATOM      1  O   UNL     1      -4.411  -5.188   5.208  1.00  0.00    -0.377 OA
ENDROOT
BRANCH   1   2
ATOM      2  C   UNL     1      -3.082  -5.285   5.683  1.00  0.00     0.188 C 
BRANCH   2   3
ATOM      3  C   UNL     1      -2.894  -4.811   7.133  1.00  0.00     0.188 C 
BRANCH   3   4
ATOM      4  O   UNL     1      -4.118  -4.505   7.799  1.00  0.00    -0.376 OA
BRANCH   4   5
ATOM      5  C   UNL     1      -4.415  -3.124   7.974  1.00  0.00     0.202 C 
BRANCH   5   6
ATOM      6  C   UNL     1      -4.839  -2.372   6.705  1.00  0.00     0.261 C 
BRANCH   6   7
ATOM      7  O   UNL     1      -3.824  -2.270   5.695  1.00  0.00    -0.459 OA
BRANCH   7   8
ATOM      8  C   UNL     1      -2.673  -1.621   6.009  1.00  0.00     0.348 C 
ATOM      9  O   UNL     1      -2.465  -1.046   7.072  1.00  0.00    -0.245 OA
BRANCH   8  10
ATOM     10  C   UNL     1      -1.718  -1.833   4.943  1.00  0.00     0.113 A 
ATOM     11  C   UNL     1      -0.751  -2.294   2.863  1.00  0.00     0.019 A 
ATOM     12  C   UNL     1       0.356  -2.263   3.678  1.00  0.00     0.080 A 
ATOM     13  C   UNL     1      -1.950  -2.071   3.600  1.00  0.00     0.042 A 
ATOM     14  S   UNL     1      -0.045  -1.887   5.302  1.00  0.00    -0.136 S 
BRANCH  11  15
ATOM     15  S   UNL     1      -0.823  -2.562   1.129  1.00  0.00    -0.122 SA
BRANCH  15  16
ATOM     16  C   UNL     1       0.915  -2.849   0.605  1.00  0.00     0.055 C 
ATOM     17  C   UNL     1       1.058  -2.439  -0.885  1.00  0.00     0.002 C 
ATOM     18  C   UNL     1       0.473  -3.490  -1.849  1.00  0.00     0.005 C 
ATOM     19  C   UNL     1       0.930  -4.913  -1.565  1.00  0.00     0.000 C 
ATOM     20  C   UNL     1       1.288  -4.319   0.872  1.00  0.00     0.015 C 
ATOM     21  C   UNL     1       0.674  -5.309  -0.117  1.00  0.00     0.001 C 
BRANCH  17  22
ATOM     22  C   UNL     1       2.482  -1.983  -1.299  1.00  0.00     0.001 C 
ATOM     23  C   UNL     1       3.677  -2.747  -0.755  1.00  0.00     0.004 C 
ENDBRANCH  17  22
ENDBRANCH  15  16
ENDBRANCH  11  15
ENDBRANCH   8  10
ENDBRANCH   7   8
ENDBRANCH   6   7
ENDBRANCH   5   6
ENDBRANCH   4   5
ENDBRANCH   3   4
ENDBRANCH   2   3
ENDBRANCH   1   2
BRANCH   1  24
ATOM     24  C   UNL     1      -5.380  -6.130   5.662  1.00  0.00     0.188 C 
BRANCH  24  25
ATOM     25  C   UNL     1      -5.107  -7.100   6.832  1.00  0.00     0.188 C 
BRANCH  25  26
ATOM     26  O   UNL     1      -3.818  -7.711   6.811  1.00  0.00    -0.376 OA
BRANCH  26  27
ATOM     27  C   UNL     1      -3.788  -9.097   6.492  1.00  0.00     0.202 C 
BRANCH  27  28
ATOM     28  C   UNL     1      -3.873  -9.365   4.985  1.00  0.00     0.261 C 
BRANCH  28  29
ATOM     29  O   UNL     1      -5.130  -9.008   4.393  1.00  0.00    -0.460 OA
BRANCH  29  30
ATOM     30  C   UNL     1      -6.220  -9.660   4.854  1.00  0.00     0.338 C 
ATOM     31  O   UNL     1      -6.246 -10.560   5.675  1.00  0.00    -0.246 OA
BRANCH  30  32
ATOM     32  C   UNL     1      -7.418  -8.982   4.326  1.00  0.00     0.060 A 
ATOM     33  C   UNL     1      -8.407  -8.574   5.228  1.00  0.00     0.016 A 
ATOM     34  C   UNL     1      -7.572  -8.775   2.953  1.00  0.00     0.016 A 
ATOM     35  C   UNL     1      -9.587  -8.007   4.749  1.00  0.00     0.010 A 
ATOM     36  C   UNL     1      -8.757  -8.216   2.474  1.00  0.00     0.010 A 
ATOM     37  C   UNL     1      -9.785  -7.872   3.368  1.00  0.00    -0.014 A 
BRANCH  37  38
ATOM     38  C   UNL     1     -11.138  -7.565   2.851  1.00  0.00     0.031 A 
ATOM     39  C   UNL     1     -12.026  -8.713   2.454  1.00  0.00     0.074 A 
ATOM     40  C   UNL     1     -11.570  -6.298   2.731  1.00  0.00     0.049 A 
ATOM     41  N   UNL     1     -13.252  -8.694   2.002  1.00  0.00    -0.248 NA
ATOM     42  C   UNL     1     -11.452 -10.064   2.582  1.00  0.00     0.031 C 
ATOM     43  C   UNL     1     -10.794  -5.104   3.060  1.00  0.00     0.029 A 
ATOM     44  N   UNL     1     -12.768  -5.809   2.274  1.00  0.00    -0.354 N 
ATOM     45  C   UNL     1     -13.593 -10.023   1.784  1.00  0.00     0.074 A 
ATOM     46  C   UNL     1     -12.438 -10.822   2.127  1.00  0.00     0.031 C 
ATOM     47  C   UNL     1     -11.528  -4.016   2.766  1.00  0.00     0.029 A 
ATOM     48  C   UNL     1     -12.819  -4.437   2.224  1.00  0.00     0.049 A 
ATOM     49  H   UNL     1     -13.519  -6.387   2.007  1.00  0.00     0.167 HD
ATOM     50  C   UNL     1     -14.771 -10.537   1.362  1.00  0.00     0.034 A 
ATOM     51  C   UNL     1     -13.796  -3.619   1.784  1.00  0.00     0.034 A 
ATOM     52  C   UNL     1     -15.922  -9.746   1.027  1.00  0.00     0.049 A 
ATOM     53  C   UNL     1     -15.095  -4.216   1.303  1.00  0.00     0.074 A 
ATOM     54  C   UNL     1     -17.174 -10.174   0.625  1.00  0.00     0.029 A 
ATOM     55  N   UNL     1     -15.957  -8.360   1.042  1.00  0.00    -0.354 N 
ATOM     56  N   UNL     1     -15.456  -5.476   1.246  1.00  0.00    -0.248 NA
ATOM     57  C   UNL     1     -16.137  -3.276   0.864  1.00  0.00     0.031 C 
ATOM     58  C   UNL     1     -17.964  -9.044   0.384  1.00  0.00     0.029 A 
ATOM     59  C   UNL     1     -17.206  -7.914   0.650  1.00  0.00     0.049 A 
ATOM     60  H   UNL     1     -15.203  -7.779   1.295  1.00  0.00     0.167 HD
ATOM     61  C   UNL     1     -16.773  -5.478   0.796  1.00  0.00     0.074 A 
ATOM     62  C   UNL     1     -17.154  -4.092   0.619  1.00  0.00     0.031 C 
ATOM     63  C   UNL     1     -17.588  -6.530   0.535  1.00  0.00     0.034 A 
BRANCH  50  64
ATOM     64  C   UNL     1     -14.883 -12.035   1.288  1.00  0.00     0.023 A 
ATOM     65  C   UNL     1     -14.999 -12.776   2.482  1.00  0.00     0.012 A 
ATOM     66  C   UNL     1     -14.909 -12.706   0.051  1.00  0.00     0.148 A 
ATOM     67  C   UNL     1     -15.113 -14.164   2.448  1.00  0.00     0.002 A 
ATOM     68  C   UNL     1     -15.060 -14.087   0.023  1.00  0.00     0.091 A 
ATOM     69  F   UNL     1     -14.767 -11.986  -1.071  1.00  0.00    -0.205 F 
ATOM     70  C   UNL     1     -15.153 -14.818   1.220  1.00  0.00     0.022 A 
BRANCH  68  71
ATOM     71  S   UNL     1     -15.187 -15.014  -1.510  1.00  0.00     0.127 S 
ATOM     72  O   UNL     1     -13.883 -15.672  -1.566  1.00  0.00    -0.237 OA
ATOM     73  O   UNL     1     -16.311 -15.911  -1.238  1.00  0.00    -0.237 OA
ATOM     74  O   UNL     1     -15.439 -14.029  -2.552  1.00  0.00    -0.744 OA
ENDBRANCH  68  71
ENDBRANCH  50  64
BRANCH  51  75
ATOM     75  C   UNL     1     -13.606  -2.142   1.824  1.00  0.00     0.023 A 
ATOM     76  C   UNL     1     -14.349  -1.371   2.739  1.00  0.00     0.012 A 
ATOM     77  C   UNL     1     -12.688  -1.499   0.971  1.00  0.00     0.148 A 
ATOM     78  C   UNL     1     -14.204   0.016   2.783  1.00  0.00     0.002 A 
ATOM     79  C   UNL     1     -12.510  -0.123   1.056  1.00  0.00     0.091 A 
ATOM     80  F   UNL     1     -12.006  -2.247   0.092  1.00  0.00    -0.205 F 
ATOM     81  C   UNL     1     -13.278   0.638   1.950  1.00  0.00     0.022 A 
BRANCH  79  82
ATOM     82  S   UNL     1     -11.254   0.742   0.107  1.00  0.00     0.127 S 
ATOM     83  O   UNL     1     -12.058   1.422  -0.904  1.00  0.00    -0.237 OA
ATOM     84  O   UNL     1     -10.662   1.621   1.117  1.00  0.00    -0.237 OA
ATOM     85  O   UNL     1     -10.355  -0.294  -0.384  1.00  0.00    -0.744 OA
ENDBRANCH  79  82
ENDBRANCH  51  75
BRANCH  63  86
ATOM     86  C   UNL     1     -18.984  -6.234   0.051  1.00  0.00     0.023 A 
ATOM     87  C   UNL     1     -19.181  -5.784  -1.269  1.00  0.00     0.012 A 
ATOM     88  C   UNL     1     -20.102  -6.481   0.872  1.00  0.00     0.148 A 
ATOM     89  C   UNL     1     -20.468  -5.558  -1.756  1.00  0.00     0.002 A 
ATOM     90  C   UNL     1     -21.383  -6.296   0.366  1.00  0.00     0.091 A 
ATOM     91  F   UNL     1     -19.894  -6.891   2.133  1.00  0.00    -0.205 F 
ATOM     92  C   UNL     1     -21.568  -5.825  -0.944  1.00  0.00     0.022 A 
BRANCH  90  93
ATOM     93  S   UNL     1     -22.855  -6.705   1.312  1.00  0.00     0.127 S 
ATOM     94  O   UNL     1     -23.314  -5.383   1.736  1.00  0.00    -0.237 OA
ATOM     95  O   UNL     1     -23.703  -7.352   0.311  1.00  0.00    -0.237 OA
ATOM     96  O   UNL     1     -22.407  -7.588   2.380  1.00  0.00    -0.744 OA
ENDBRANCH  90  93
ENDBRANCH  63  86
ENDBRANCH  37  38
ENDBRANCH  30  32
ENDBRANCH  29  30
ENDBRANCH  28  29
ENDBRANCH  27  28
ENDBRANCH  26  27
ENDBRANCH  25  26
ENDBRANCH  24  25
ENDBRANCH   1  24
TORSDOF 26
