REMARK SMILES C[C@H]([NH2+]Cc1ccccc1F)C(=O)OCCOCCOCCOCCOC(=O)c1ccc(-c2c3nc(c(-c4cccc(S(=O)(=O)[O-])c4F)c4ccc([nH]4)c(-c4cccc(S(=O)(=O)[O-])c4F)c4nc(c(-c5cccc(S(=O)(=O)[O-])c5F)c5ccc2[nH]5)C=C4)C=C3)cc1
REMARK SMILES IDX 20 1 19 2 18 3 17 4 16 5 15 6 14 7 12 8 13 9 2 10 1 11 3 12
REMARK SMILES IDX 4 15 5 16 6 17 10 18 7 19 9 20 11 21 8 22 21 23 22 24 23 25
REMARK SMILES IDX 24 26 25 27 26 28 27 29 28 30 29 31 30 32 91 33 31 34 90 35
REMARK SMILES IDX 32 36 33 37 34 38 84 39 35 40 89 41 83 42 85 43 36 44 88 45
REMARK SMILES IDX 82 46 81 47 37 49 69 50 49 51 68 52 50 53 53 54 67 55 86 56
REMARK SMILES IDX 51 57 52 58 66 60 87 61 54 62 38 63 39 64 47 65 40 66 42 67
REMARK SMILES IDX 48 68 41 69 43 70 44 71 45 72 46 73 70 74 71 75 79 76 72 77
REMARK SMILES IDX 74 78 80 79 73 80 75 81 76 82 77 83 78 84 55 85 56 86 64 87
REMARK SMILES IDX 57 88 59 89 65 90 58 91 60 92 61 93 62 94 63 95
REMARK H PARENT 3 13 3 14 85 48 53 59
REMARK Flexibility Score: inf
ROOT
ATOM      1  O   UNL     1      -1.980   0.313  -0.841  1.00  0.00    -0.377 OA
ENDROOT
BRANCH   1   2
ATOM      2  C   UNL     1      -1.271  -0.896  -1.010  1.00  0.00     0.188 C 
BRANCH   2   3
ATOM      3  C   UNL     1      -1.778  -2.048  -0.129  1.00  0.00     0.188 C 
BRANCH   3   4
ATOM      4  O   UNL     1      -3.073  -2.019   0.462  1.00  0.00    -0.376 OA
BRANCH   4   5
ATOM      5  C   UNL     1      -3.571  -0.845   1.090  1.00  0.00     0.202 C 
BRANCH   5   6
ATOM      6  C   UNL     1      -2.742  -0.021   2.093  1.00  0.00     0.261 C 
BRANCH   6   7
ATOM      7  O   UNL     1      -1.359   0.172   1.773  1.00  0.00    -0.459 OA
BRANCH   7   8
ATOM      8  C   UNL     1      -0.479  -0.599   2.456  1.00  0.00     0.364 C 
ATOM      9  O   UNL     1      -0.796  -1.385   3.347  1.00  0.00    -0.245 OA
BRANCH   8  10
ATOM     10  C   UNL     1       0.986  -0.434   2.009  1.00  0.00     0.290 C 
ATOM     11  C   UNL     1       1.762   0.226   3.140  1.00  0.00     0.088 C 
BRANCH  10  12
ATOM     12  N   UNL     1       1.166   0.289   0.731  1.00  0.00    -0.331 N 
ATOM     13  H   UNL     1       1.053   1.287   0.905  1.00  0.00     0.347 HD
ATOM     14  H   UNL     1       0.466  -0.070   0.081  1.00  0.00     0.347 HD
BRANCH  12  15
ATOM     15  C   UNL     1       2.477   0.070   0.120  1.00  0.00     0.301 C 
BRANCH  15  16
ATOM     16  C   UNL     1       2.661   0.720  -1.235  1.00  0.00     0.042 A 
ATOM     17  C   UNL     1       2.348   2.068  -1.466  1.00  0.00     0.012 A 
ATOM     18  C   UNL     1       3.282   0.011  -2.274  1.00  0.00     0.132 A 
ATOM     19  C   UNL     1       2.649   2.675  -2.693  1.00  0.00     0.001 A 
ATOM     20  C   UNL     1       3.586   0.609  -3.498  1.00  0.00     0.040 A 
ATOM     21  F   UNL     1       3.629  -1.274  -2.098  1.00  0.00    -0.206 F 
ATOM     22  C   UNL     1       3.273   1.949  -3.707  1.00  0.00     0.003 A 
ENDBRANCH  15  16
ENDBRANCH  12  15
ENDBRANCH  10  12
ENDBRANCH   8  10
ENDBRANCH   7   8
ENDBRANCH   6   7
ENDBRANCH   5   6
ENDBRANCH   4   5
ENDBRANCH   3   4
ENDBRANCH   2   3
ENDBRANCH   1   2
BRANCH   1  23
ATOM     23  C   UNL     1      -2.911   0.649  -1.859  1.00  0.00     0.188 C 
BRANCH  23  24
ATOM     24  C   UNL     1      -3.768  -0.490  -2.457  1.00  0.00     0.188 C 
BRANCH  24  25
ATOM     25  O   UNL     1      -3.031  -1.627  -2.889  1.00  0.00    -0.376 OA
BRANCH  25  26
ATOM     26  C   UNL     1      -2.663  -1.724  -4.258  1.00  0.00     0.202 C 
BRANCH  26  27
ATOM     27  C   UNL     1      -1.704  -0.669  -4.839  1.00  0.00     0.261 C 
BRANCH  27  28
ATOM     28  O   UNL     1      -2.125   0.701  -4.756  1.00  0.00    -0.460 OA
BRANCH  28  29
ATOM     29  C   UNL     1      -3.302   1.041  -5.318  1.00  0.00     0.338 C 
ATOM     30  O   UNL     1      -4.040   0.317  -5.967  1.00  0.00    -0.246 OA
BRANCH  29  31
ATOM     31  C   UNL     1      -3.657   2.394  -4.840  1.00  0.00     0.060 A 
ATOM     32  C   UNL     1      -4.867   2.574  -4.154  1.00  0.00     0.016 A 
ATOM     33  C   UNL     1      -2.802   3.477  -5.058  1.00  0.00     0.016 A 
ATOM     34  C   UNL     1      -5.247   3.846  -3.728  1.00  0.00     0.010 A 
ATOM     35  C   UNL     1      -3.195   4.754  -4.650  1.00  0.00     0.010 A 
ATOM     36  C   UNL     1      -4.437   4.950  -4.020  1.00  0.00    -0.014 A 
BRANCH  36  37
ATOM     37  C   UNL     1      -4.973   6.322  -3.852  1.00  0.00     0.031 A 
ATOM     38  C   UNL     1      -5.508   7.031  -5.067  1.00  0.00     0.074 A 
ATOM     39  C   UNL     1      -4.992   6.928  -2.652  1.00  0.00     0.049 A 
ATOM     40  N   UNL     1      -5.974   8.246  -5.178  1.00  0.00    -0.248 NA
ATOM     41  C   UNL     1      -5.517   6.266  -6.326  1.00  0.00     0.031 C 
ATOM     42  C   UNL     1      -4.526   6.338  -1.400  1.00  0.00     0.029 A 
ATOM     43  N   UNL     1      -5.402   8.191  -2.300  1.00  0.00    -0.354 N 
ATOM     44  C   UNL     1      -6.300   8.404  -6.519  1.00  0.00     0.074 A 
ATOM     45  C   UNL     1      -5.971   7.165  -7.187  1.00  0.00     0.031 C 
ATOM     46  C   UNL     1      -4.651   7.248  -0.418  1.00  0.00     0.029 A 
ATOM     47  C   UNL     1      -5.175   8.494  -0.978  1.00  0.00     0.049 A 
ATOM     48  H   UNL     1      -5.819   8.819  -2.933  1.00  0.00     0.167 HD
ATOM     49  C   UNL     1      -6.839   9.480  -7.137  1.00  0.00     0.034 A 
ATOM     50  C   UNL     1      -5.345   9.650  -0.304  1.00  0.00     0.034 A 
ATOM     51  C   UNL     1      -7.185  10.703  -6.466  1.00  0.00     0.049 A 
ATOM     52  C   UNL     1      -5.910  10.850  -1.023  1.00  0.00     0.074 A 
ATOM     53  C   UNL     1      -7.776  11.833  -7.002  1.00  0.00     0.029 A 
ATOM     54  N   UNL     1      -6.961  10.963  -5.124  1.00  0.00    -0.354 N 
ATOM     55  N   UNL     1      -6.300  10.955  -2.270  1.00  0.00    -0.248 NA
ATOM     56  C   UNL     1      -6.088  12.080  -0.236  1.00  0.00     0.031 C 
ATOM     57  C   UNL     1      -7.871  12.793  -5.992  1.00  0.00     0.029 A 
ATOM     58  C   UNL     1      -7.386  12.243  -4.816  1.00  0.00     0.049 A 
ATOM     59  H   UNL     1      -6.560  10.331  -4.485  1.00  0.00     0.167 HD
ATOM     60  C   UNL     1      -6.800  12.247  -2.409  1.00  0.00     0.074 A 
ATOM     61  C   UNL     1      -6.677  12.883  -1.114  1.00  0.00     0.031 C 
ATOM     62  C   UNL     1      -7.307  12.851  -3.512  1.00  0.00     0.034 A 
BRANCH  49  63
ATOM     63  C   UNL     1      -7.110   9.386  -8.615  1.00  0.00     0.023 A 
ATOM     64  C   UNL     1      -8.173   8.588  -9.084  1.00  0.00     0.012 A 
ATOM     65  C   UNL     1      -6.373  10.166  -9.528  1.00  0.00     0.148 A 
ATOM     66  C   UNL     1      -8.486   8.553 -10.442  1.00  0.00     0.002 A 
ATOM     67  C   UNL     1      -6.724  10.164 -10.873  1.00  0.00     0.091 A 
ATOM     68  F   UNL     1      -5.351  10.899  -9.064  1.00  0.00    -0.205 F 
ATOM     69  C   UNL     1      -7.772   9.351 -11.332  1.00  0.00     0.022 A 
BRANCH  67  70
ATOM     70  S   UNL     1      -5.927  11.223 -12.084  1.00  0.00     0.127 S 
ATOM     71  O   UNL     1      -5.256  10.243 -12.937  1.00  0.00    -0.237 OA
ATOM     72  O   UNL     1      -7.071  11.890 -12.705  1.00  0.00    -0.237 OA
ATOM     73  O   UNL     1      -5.040  12.101 -11.333  1.00  0.00    -0.744 OA
ENDBRANCH  67  70
ENDBRANCH  49  63
BRANCH  50  74
ATOM     74  C   UNL     1      -5.000   9.716   1.145  1.00  0.00     0.023 A 
ATOM     75  C   UNL     1      -6.026   9.847   2.100  1.00  0.00     0.012 A 
ATOM     76  C   UNL     1      -3.665   9.602   1.582  1.00  0.00     0.148 A 
ATOM     77  C   UNL     1      -5.729   9.880   3.463  1.00  0.00     0.002 A 
ATOM     78  C   UNL     1      -3.381   9.575   2.942  1.00  0.00     0.091 A 
ATOM     79  F   UNL     1      -2.702   9.496   0.655  1.00  0.00    -0.205 F 
ATOM     80  C   UNL     1      -4.410   9.731   3.884  1.00  0.00     0.022 A 
BRANCH  78  81
ATOM     81  S   UNL     1      -1.734   9.250   3.580  1.00  0.00     0.127 S 
ATOM     82  O   UNL     1      -1.418  10.508   4.251  1.00  0.00    -0.237 OA
ATOM     83  O   UNL     1      -1.980   8.118   4.473  1.00  0.00    -0.237 OA
ATOM     84  O   UNL     1      -0.913   8.935   2.419  1.00  0.00    -0.744 OA
ENDBRANCH  78  81
ENDBRANCH  50  74
BRANCH  62  85
ATOM     85  C   UNL     1      -7.812  14.267  -3.388  1.00  0.00     0.023 A 
ATOM     86  C   UNL     1      -6.899  15.331  -3.252  1.00  0.00     0.012 A 
ATOM     87  C   UNL     1      -9.185  14.550  -3.542  1.00  0.00     0.148 A 
ATOM     88  C   UNL     1      -7.346  16.652  -3.253  1.00  0.00     0.002 A 
ATOM     89  C   UNL     1      -9.617  15.869  -3.596  1.00  0.00     0.091 A 
ATOM     90  F   UNL     1     -10.039  13.522  -3.657  1.00  0.00    -0.205 F 
ATOM     91  C   UNL     1      -8.700  16.921  -3.440  1.00  0.00     0.022 A 
BRANCH  89  92
ATOM     92  S   UNL     1     -11.322  16.316  -3.945  1.00  0.00     0.127 S 
ATOM     93  O   UNL     1     -11.742  16.900  -2.672  1.00  0.00    -0.237 OA
ATOM     94  O   UNL     1     -11.171  17.278  -5.037  1.00  0.00    -0.237 OA
ATOM     95  O   UNL     1     -11.998  15.080  -4.313  1.00  0.00    -0.744 OA
ENDBRANCH  89  92
ENDBRANCH  62  85
ENDBRANCH  36  37
ENDBRANCH  29  31
ENDBRANCH  28  29
ENDBRANCH  27  28
ENDBRANCH  26  27
ENDBRANCH  25  26
ENDBRANCH  24  25
ENDBRANCH  23  24
ENDBRANCH   1  23
TORSDOF 26
