REMARK SMILES COCCCC(=O)N[C@H]1CC[C@@H](C(=O)OCCOCCOCCOCCOC(=O)c2ccc(-c3c4nc(c(-c5cccc(S(=O)(=O)[O-])c5F)c5ccc([nH]5)c(-c5cccc(S(=O)(=O)[O-])c5F)c5nc(c(-c6cccc(S(=O)(=O)[O-])c6F)c6ccc3[nH]6)C=C5)C=C4)cc2)CC1
REMARK SMILES IDX 20 1 19 2 18 3 17 4 16 5 15 6 13 7 14 8 12 9 9 10 10 11
REMARK SMILES IDX 94 12 11 13 93 14 8 15 6 16 7 17 5 19 4 20 3 21 2 22 1 23
REMARK SMILES IDX 21 24 22 25 23 26 24 27 25 28 26 29 27 30 28 31 29 32 30 33
REMARK SMILES IDX 31 34 92 35 32 36 91 37 33 38 34 39 35 40 85 41 36 42 90 43
REMARK SMILES IDX 84 44 86 45 37 46 89 47 83 48 82 49 38 51 70 52 50 53 69 54
REMARK SMILES IDX 51 55 54 56 68 57 87 58 52 59 53 60 67 62 88 63 55 64 39 65
REMARK SMILES IDX 40 66 48 67 41 68 43 69 49 70 42 71 44 72 45 73 46 74 47 75
REMARK SMILES IDX 71 76 72 77 80 78 73 79 75 80 81 81 74 82 76 83 77 84 78 85
REMARK SMILES IDX 79 86 56 87 57 88 65 89 58 90 60 91 66 92 59 93 61 94 62 95
REMARK SMILES IDX 63 96 64 97
REMARK H PARENT 8 18 86 50 54 61
REMARK Flexibility Score: inf
ROOT
ATOM      1  C   UNL     1       4.537  -2.152   3.947  1.00  0.00     0.188 C 
ENDROOT
BRANCH   1   2
ATOM      2  C   UNL     1       5.512  -3.340   3.966  1.00  0.00     0.188 C 
BRANCH   2   3
ATOM      3  O   UNL     1       6.838  -3.023   3.618  1.00  0.00    -0.376 OA
BRANCH   3   4
ATOM      4  C   UNL     1       7.348  -3.340   2.340  1.00  0.00     0.202 C 
BRANCH   4   5
ATOM      5  C   UNL     1       6.521  -3.282   1.046  1.00  0.00     0.261 C 
BRANCH   5   6
ATOM      6  O   UNL     1       5.145  -2.916   1.140  1.00  0.00    -0.463 OA
BRANCH   6   7
ATOM      7  C   UNL     1       4.242  -3.917   1.049  1.00  0.00     0.309 C 
ATOM      8  O   UNL     1       4.527  -5.109   1.119  1.00  0.00    -0.252 OA
BRANCH   7   9
ATOM      9  C   UNL     1       2.835  -3.436   0.716  1.00  0.00     0.099 C 
ATOM     10  C   UNL     1       2.890  -1.111  -1.094  1.00  0.00     0.082 C 
ATOM     11  C   UNL     1       3.332  -2.490  -1.583  1.00  0.00     0.026 C 
ATOM     12  C   UNL     1       3.112  -0.903   0.395  1.00  0.00     0.026 C 
ATOM     13  C   UNL     1       2.647  -3.608  -0.794  1.00  0.00     0.017 C 
ATOM     14  C   UNL     1       2.395  -2.026   1.142  1.00  0.00     0.017 C 
BRANCH  10  15
ATOM     15  N   UNL     1       3.446  -0.067  -1.894  1.00  0.00    -0.353 N 
ATOM     16  C   UNL     1       2.821   0.933  -2.557  1.00  0.00     0.220 C 
ATOM     17  O   UNL     1       3.566   1.794  -3.024  1.00  0.00    -0.275 OA
ATOM     18  H   UNL     1       4.427  -0.077  -1.975  1.00  0.00     0.163 HD
BRANCH  16  19
ATOM     19  C   UNL     1       1.303   1.113  -2.591  1.00  0.00     0.102 C 
BRANCH  19  20
ATOM     20  C   UNL     1       0.319   0.042  -3.088  1.00  0.00     0.038 C 
BRANCH  20  21
ATOM     21  C   UNL     1      -0.211  -1.140  -2.253  1.00  0.00     0.160 C 
BRANCH  21  22
ATOM     22  O   UNL     1      -0.716  -1.020  -0.927  1.00  0.00    -0.385 OA
ATOM     23  C   UNL     1      -0.503   0.166  -0.193  1.00  0.00     0.194 C 
ENDBRANCH  21  22
ENDBRANCH  20  21
ENDBRANCH  19  20
ENDBRANCH  16  19
ENDBRANCH  10  15
ENDBRANCH   7   9
ENDBRANCH   6   7
ENDBRANCH   5   6
ENDBRANCH   4   5
ENDBRANCH   3   4
ENDBRANCH   2   3
ENDBRANCH   1   2
BRANCH   1  24
ATOM     24  O   UNL     1       4.836  -0.968   3.221  1.00  0.00    -0.377 OA
BRANCH  24  25
ATOM     25  C   UNL     1       6.122  -0.362   3.338  1.00  0.00     0.188 C 
BRANCH  25  26
ATOM     26  C   UNL     1       6.900  -0.459   4.668  1.00  0.00     0.188 C 
BRANCH  26  27
ATOM     27  O   UNL     1       6.162  -1.018   5.740  1.00  0.00    -0.376 OA
BRANCH  27  28
ATOM     28  C   UNL     1       5.522  -0.128   6.640  1.00  0.00     0.202 C 
BRANCH  28  29
ATOM     29  C   UNL     1       4.588   0.960   6.085  1.00  0.00     0.261 C 
BRANCH  29  30
ATOM     30  O   UNL     1       5.134   1.852   5.103  1.00  0.00    -0.460 OA
BRANCH  30  31
ATOM     31  C   UNL     1       6.208   2.594   5.436  1.00  0.00     0.338 C 
ATOM     32  O   UNL     1       6.802   2.604   6.503  1.00  0.00    -0.246 OA
BRANCH  31  33
ATOM     33  C   UNL     1       6.657   3.271   4.206  1.00  0.00     0.060 A 
ATOM     34  C   UNL     1       7.902   2.949   3.644  1.00  0.00     0.016 A 
ATOM     35  C   UNL     1       5.828   4.220   3.607  1.00  0.00     0.016 A 
ATOM     36  C   UNL     1       8.338   3.607   2.493  1.00  0.00     0.010 A 
ATOM     37  C   UNL     1       6.274   4.893   2.472  1.00  0.00     0.010 A 
ATOM     38  C   UNL     1       7.546   4.617   1.936  1.00  0.00    -0.014 A 
BRANCH  38  39
ATOM     39  C   UNL     1       8.116   5.568   0.955  1.00  0.00     0.031 A 
ATOM     40  C   UNL     1       8.593   6.893   1.477  1.00  0.00     0.074 A 
ATOM     41  C   UNL     1       8.129   5.301  -0.361  1.00  0.00     0.049 A 
ATOM     42  N   UNL     1       8.947   7.966   0.824  1.00  0.00    -0.248 NA
ATOM     43  C   UNL     1       8.656   7.028   2.943  1.00  0.00     0.031 C 
ATOM     44  C   UNL     1       7.703   4.046  -0.974  1.00  0.00     0.029 A 
ATOM     45  N   UNL     1       8.463   6.105  -1.422  1.00  0.00    -0.354 N 
ATOM     46  C   UNL     1       9.220   8.921   1.796  1.00  0.00     0.074 A 
ATOM     47  C   UNL     1       8.991   8.300   3.081  1.00  0.00     0.031 C 
ATOM     48  C   UNL     1       7.744   4.182  -2.311  1.00  0.00     0.029 A 
ATOM     49  C   UNL     1       8.159   5.545  -2.641  1.00  0.00     0.049 A 
ATOM     50  H   UNL     1       8.878   6.992  -1.322  1.00  0.00     0.167 HD
ATOM     51  C   UNL     1       9.620  10.203   1.631  1.00  0.00     0.034 A 
ATOM     52  C   UNL     1       8.164   6.090  -3.874  1.00  0.00     0.034 A 
ATOM     53  C   UNL     1       9.839  10.807   0.347  1.00  0.00     0.049 A 
ATOM     54  C   UNL     1       8.591   7.527  -4.041  1.00  0.00     0.074 A 
ATOM     55  C   UNL     1      10.291  12.082   0.062  1.00  0.00     0.029 A 
ATOM     56  N   UNL     1       9.594  10.185  -0.868  1.00  0.00    -0.354 N 
ATOM     57  N   UNL     1       8.943   8.396  -3.123  1.00  0.00    -0.248 NA
ATOM     58  C   UNL     1       8.652   8.052  -5.413  1.00  0.00     0.031 C 
ATOM     59  C   UNL     1      10.274  12.246  -1.326  1.00  0.00     0.029 A 
ATOM     60  C   UNL     1       9.870  11.053  -1.907  1.00  0.00     0.049 A 
ATOM     61  H   UNL     1       9.271   9.261  -0.974  1.00  0.00     0.167 HD
ATOM     62  C   UNL     1       9.304   9.554  -3.805  1.00  0.00     0.074 A 
ATOM     63  C   UNL     1       9.130   9.275  -5.216  1.00  0.00     0.031 C 
ATOM     64  C   UNL     1       9.742  10.739  -3.309  1.00  0.00     0.034 A 
BRANCH  51  65
ATOM     65  C   UNL     1       9.824  11.030   2.874  1.00  0.00     0.023 A 
ATOM     66  C   UNL     1      10.879  10.730   3.760  1.00  0.00     0.012 A 
ATOM     67  C   UNL     1       8.964  12.107   3.167  1.00  0.00     0.148 A 
ATOM     68  C   UNL     1      11.041  11.450   4.944  1.00  0.00     0.002 A 
ATOM     69  C   UNL     1       9.165  12.855   4.320  1.00  0.00     0.091 A 
ATOM     70  F   UNL     1       7.951  12.364   2.328  1.00  0.00    -0.205 F 
ATOM     71  C   UNL     1      10.190  12.516   5.219  1.00  0.00     0.022 A 
BRANCH  69  72
ATOM     72  S   UNL     1       8.174  14.299   4.717  1.00  0.00     0.127 S 
ATOM     73  O   UNL     1       7.356  13.801   5.821  1.00  0.00    -0.237 OA
ATOM     74  O   UNL     1       9.194  15.273   5.106  1.00  0.00    -0.237 OA
ATOM     75  O   UNL     1       7.449  14.635   3.499  1.00  0.00    -0.744 OA
ENDBRANCH  69  72
ENDBRANCH  51  65
BRANCH  52  76
ATOM     76  C   UNL     1       7.769   5.259  -5.046  1.00  0.00     0.023 A 
ATOM     77  C   UNL     1       8.758   4.833  -5.954  1.00  0.00     0.012 A 
ATOM     78  C   UNL     1       6.432   4.851  -5.241  1.00  0.00     0.148 A 
ATOM     79  C   UNL     1       8.423   4.029  -7.044  1.00  0.00     0.002 A 
ATOM     80  C   UNL     1       6.112   4.018  -6.307  1.00  0.00     0.091 A 
ATOM     81  F   UNL     1       5.510   5.265  -4.361  1.00  0.00    -0.205 F 
ATOM     82  C   UNL     1       7.104   3.616  -7.215  1.00  0.00     0.022 A 
BRANCH  80  83
ATOM     83  S   UNL     1       4.454   3.385  -6.599  1.00  0.00     0.127 S 
ATOM     84  O   UNL     1       4.227   3.777  -7.991  1.00  0.00    -0.237 OA
ATOM     85  O   UNL     1       4.646   1.948  -6.402  1.00  0.00    -0.237 OA
ATOM     86  O   UNL     1       3.592   4.056  -5.638  1.00  0.00    -0.744 OA
ENDBRANCH  80  83
ENDBRANCH  52  76
BRANCH  64  87
ATOM     87  C   UNL     1      10.141  11.818  -4.282  1.00  0.00     0.023 A 
ATOM     88  C   UNL     1       9.161  12.544  -4.986  1.00  0.00     0.012 A 
ATOM     89  C   UNL     1      11.495  12.199  -4.388  1.00  0.00     0.148 A 
ATOM     90  C   UNL     1       9.525  13.623  -5.792  1.00  0.00     0.002 A 
ATOM     91  C   UNL     1      11.844  13.306  -5.150  1.00  0.00     0.091 A 
ATOM     92  F   UNL     1      12.412  11.484  -3.720  1.00  0.00    -0.205 F 
ATOM     93  C   UNL     1      10.862  14.013  -5.861  1.00  0.00     0.022 A 
BRANCH  91  94
ATOM     94  S   UNL     1      13.521  13.947  -5.210  1.00  0.00     0.127 S 
ATOM     95  O   UNL     1      13.886  13.696  -6.603  1.00  0.00    -0.237 OA
ATOM     96  O   UNL     1      13.324  15.358  -4.876  1.00  0.00    -0.237 OA
ATOM     97  O   UNL     1      14.281  13.190  -4.225  1.00  0.00    -0.744 OA
ENDBRANCH  91  94
ENDBRANCH  64  87
ENDBRANCH  38  39
ENDBRANCH  31  33
ENDBRANCH  30  31
ENDBRANCH  29  30
ENDBRANCH  28  29
ENDBRANCH  27  28
ENDBRANCH  26  27
ENDBRANCH  25  26
ENDBRANCH  24  25
ENDBRANCH   1  24
TORSDOF 28
