REMARK SMILES CO[C@@H]1C[NH2+][C@@H](O[C@@H]2C[C@@H](C(=O)OCCOCCOCCOCCOC(=O)c3ccc(-c4c5nc(c(-c6cccc(S(=O)(=O)[O-])c6F)c6ccc([nH]6)c(-c6cccc(S(=O)(=O)[O-])c6F)c6nc(c(-c7cccc(S(=O)(=O)[O-])c7F)c7ccc4[nH]7)C=C6)C=C5)cc3)N(C(=O)OC(C)(C)C)C2)c2cc(Cl)ccc21
REMARK SMILES IDX 19 1 18 2 17 3 16 4 15 5 14 6 13 7 11 8 12 9 10 10 8 11 9 12
REMARK SMILES IDX 99 13 91 14 7 15 6 16 3 17 4 18 106 19 5 20 100 21 105 22
REMARK SMILES IDX 101 25 104 26 102 27 103 28 2 29 1 30 92 31 93 32 94 33
REMARK SMILES IDX 95 34 96 35 97 36 98 37 20 38 21 39 22 40 23 41 24 42 25 43
REMARK SMILES IDX 26 44 27 45 28 46 29 47 90 48 30 49 89 50 31 51 32 52 33 53
REMARK SMILES IDX 83 54 34 55 88 56 82 57 84 58 35 59 87 60 81 61 80 62 36 64
REMARK SMILES IDX 68 65 48 66 67 67 49 68 52 69 66 70 85 71 50 72 51 73 65 75
REMARK SMILES IDX 86 76 53 77 37 78 38 79 46 80 39 81 41 82 47 83 40 84 42 85
REMARK SMILES IDX 43 86 44 87 45 88 69 89 70 90 78 91 71 92 73 93 79 94 72 95
REMARK SMILES IDX 74 96 75 97 76 98 77 99 54 100 55 101 63 102 56 103 58 104
REMARK SMILES IDX 64 105 57 106 59 107 60 108 61 109 62 110
REMARK H PARENT 5 23 5 24 84 63 52 74
REMARK Flexibility Score: inf
ROOT
ATOM      1  O   UNL     1       2.297   1.280   6.708  1.00  0.00    -0.377 OA
ENDROOT
BRANCH   1   2
ATOM      2  C   UNL     1       1.922   2.215   5.715  1.00  0.00     0.188 C 
BRANCH   2   3
ATOM      3  C   UNL     1       0.574   2.917   5.814  1.00  0.00     0.188 C 
BRANCH   3   4
ATOM      4  O   UNL     1       0.013   2.910   7.098  1.00  0.00    -0.376 OA
BRANCH   4   5
ATOM      5  C   UNL     1      -0.715   1.761   7.515  1.00  0.00     0.202 C 
BRANCH   5   6
ATOM      6  C   UNL     1      -0.956   0.493   6.657  1.00  0.00     0.261 C 
BRANCH   6   7
ATOM      7  O   UNL     1       0.182  -0.174   6.060  1.00  0.00    -0.462 OA
BRANCH   7   8
ATOM      8  C   UNL     1       0.299  -0.048   4.710  1.00  0.00     0.329 C 
ATOM      9  O   UNL     1      -0.431   0.672   4.029  1.00  0.00    -0.250 OA
BRANCH   8  10
ATOM     10  C   UNL     1       1.442  -0.838   4.044  1.00  0.00     0.201 C 
ATOM     11  C   UNL     1       2.581  -2.887   3.660  1.00  0.00     0.147 C 
ATOM     12  C   UNL     1       1.623  -2.235   4.647  1.00  0.00     0.071 C 
ATOM     13  C   UNL     1       3.536  -1.733   3.308  1.00  0.00     0.156 C 
ATOM     14  N   UNL     1       2.794  -0.485   3.533  1.00  0.00    -0.292 N 
BRANCH  11  15
ATOM     15  O   UNL     1       2.030  -3.654   2.590  1.00  0.00    -0.320 OA
BRANCH  15  16
ATOM     16  C   UNL     1       1.021  -3.340   1.633  1.00  0.00     0.354 C 
ATOM     17  C   UNL     1       0.057  -0.647   0.762  1.00  0.00     0.203 C 
ATOM     18  C   UNL     1       1.456  -1.262   0.444  1.00  0.00     0.300 C 
ATOM     19  C   UNL     1      -0.802  -1.547   1.649  1.00  0.00    -0.002 A 
ATOM     20  N   UNL     1       1.551  -2.714   0.433  1.00  0.00    -0.315 N 
ATOM     21  C   UNL     1      -0.325  -2.806   2.086  1.00  0.00     0.046 A 
ATOM     22  C   UNL     1      -2.023  -1.063   2.158  1.00  0.00     0.009 A 
ATOM     23  H   UNL     1       2.533  -2.972   0.342  1.00  0.00     0.349 HD
ATOM     24  H   UNL     1       0.988  -3.045  -0.351  1.00  0.00     0.349 HD
ATOM     25  C   UNL     1      -1.111  -3.570   2.969  1.00  0.00     0.033 A 
ATOM     26  C   UNL     1      -2.763  -1.810   3.078  1.00  0.00     0.021 A 
ATOM     27  C   UNL     1      -2.310  -3.065   3.468  1.00  0.00     0.041 A 
ATOM     28  Cl  UNL     1      -3.211  -3.985   4.608  1.00  0.00    -0.084 Cl
BRANCH  17  29
ATOM     29  O   UNL     1      -0.694  -0.288  -0.402  1.00  0.00    -0.371 OA
ATOM     30  C   UNL     1       0.011   0.576  -1.284  1.00  0.00     0.196 C 
ENDBRANCH  17  29
ENDBRANCH  15  16
ENDBRANCH  11  15
BRANCH  14  31
ATOM     31  C   UNL     1       3.294   0.634   2.860  1.00  0.00     0.411 C 
ATOM     32  O   UNL     1       4.396   0.607   2.318  1.00  0.00    -0.224 OA
BRANCH  31  33
ATOM     33  O   UNL     1       2.499   1.743   2.836  1.00  0.00    -0.444 OA
BRANCH  33  34
ATOM     34  C   UNL     1       3.023   3.032   2.353  1.00  0.00     0.106 C 
ATOM     35  C   UNL     1       4.330   3.471   3.041  1.00  0.00     0.056 C 
ATOM     36  C   UNL     1       3.201   3.016   0.833  1.00  0.00     0.056 C 
ATOM     37  C   UNL     1       1.964   4.104   2.688  1.00  0.00     0.056 C 
ENDBRANCH  33  34
ENDBRANCH  31  33
ENDBRANCH  14  31
ENDBRANCH   8  10
ENDBRANCH   7   8
ENDBRANCH   6   7
ENDBRANCH   5   6
ENDBRANCH   4   5
ENDBRANCH   3   4
ENDBRANCH   2   3
ENDBRANCH   1   2
BRANCH   1  38
ATOM     38  C   UNL     1       2.748   1.832   7.937  1.00  0.00     0.188 C 
BRANCH  38  39
ATOM     39  C   UNL     1       3.400   3.215   7.836  1.00  0.00     0.188 C 
BRANCH  39  40
ATOM     40  O   UNL     1       4.451   3.397   6.878  1.00  0.00    -0.376 OA
BRANCH  40  41
ATOM     41  C   UNL     1       5.295   2.299   6.539  1.00  0.00     0.202 C 
BRANCH  41  42
ATOM     42  C   UNL     1       6.569   2.250   7.371  1.00  0.00     0.261 C 
BRANCH  42  43
ATOM     43  O   UNL     1       6.294   1.585   8.605  1.00  0.00    -0.460 OA
BRANCH  43  44
ATOM     44  C   UNL     1       5.906   2.375   9.639  1.00  0.00     0.338 C 
ATOM     45  O   UNL     1       5.987   3.577   9.720  1.00  0.00    -0.246 OA
BRANCH  44  46
ATOM     46  C   UNL     1       5.134   1.503  10.557  1.00  0.00     0.060 A 
ATOM     47  C   UNL     1       5.478   0.156  10.698  1.00  0.00     0.016 A 
ATOM     48  C   UNL     1       4.010   2.025  11.216  1.00  0.00     0.016 A 
ATOM     49  C   UNL     1       4.718  -0.662  11.520  1.00  0.00     0.010 A 
ATOM     50  C   UNL     1       3.251   1.204  12.050  1.00  0.00     0.010 A 
ATOM     51  C   UNL     1       3.629  -0.131  12.231  1.00  0.00    -0.014 A 
BRANCH  51  52
ATOM     52  C   UNL     1       3.098  -0.930  13.351  1.00  0.00     0.031 A 
ATOM     53  C   UNL     1       1.821  -1.691  13.257  1.00  0.00     0.074 A 
ATOM     54  C   UNL     1       3.873  -0.993  14.451  1.00  0.00     0.049 A 
ATOM     55  N   UNL     1       1.365  -2.600  14.076  1.00  0.00    -0.248 NA
ATOM     56  C   UNL     1       0.939  -1.407  12.114  1.00  0.00     0.031 C 
ATOM     57  C   UNL     1       5.109  -0.225  14.646  1.00  0.00     0.029 A 
ATOM     58  N   UNL     1       3.764  -1.742  15.589  1.00  0.00    -0.354 N 
ATOM     59  C   UNL     1       0.142  -2.997  13.559  1.00  0.00     0.074 A 
ATOM     60  C   UNL     1      -0.083  -2.220  12.358  1.00  0.00     0.031 C 
ATOM     61  C   UNL     1       5.664  -0.574  15.813  1.00  0.00     0.029 A 
ATOM     62  C   UNL     1       4.817  -1.571  16.456  1.00  0.00     0.049 A 
ATOM     63  H   UNL     1       3.007  -2.345  15.770  1.00  0.00     0.167 HD
ATOM     64  C   UNL     1      -0.695  -3.940  14.047  1.00  0.00     0.034 A 
ATOM     65  C   UNL     1       5.082  -2.163  17.634  1.00  0.00     0.034 A 
ATOM     66  C   UNL     1      -0.435  -4.707  15.235  1.00  0.00     0.049 A 
ATOM     67  C   UNL     1       4.147  -3.223  18.130  1.00  0.00     0.074 A 
ATOM     68  C   UNL     1      -1.185  -5.743  15.764  1.00  0.00     0.029 A 
ATOM     69  N   UNL     1       0.639  -4.511  16.089  1.00  0.00    -0.354 N 
ATOM     70  N   UNL     1       3.082  -3.709  17.542  1.00  0.00    -0.248 NA
ATOM     71  C   UNL     1       4.454  -3.833  19.430  1.00  0.00     0.031 C 
ATOM     72  C   UNL     1      -0.580  -6.155  16.952  1.00  0.00     0.029 A 
ATOM     73  C   UNL     1       0.559  -5.390  17.154  1.00  0.00     0.049 A 
ATOM     74  H   UNL     1       1.353  -3.846  15.957  1.00  0.00     0.167 HD
ATOM     75  C   UNL     1       2.590  -4.685  18.396  1.00  0.00     0.074 A 
ATOM     76  C   UNL     1       3.489  -4.739  19.532  1.00  0.00     0.031 C 
ATOM     77  C   UNL     1       1.483  -5.451  18.257  1.00  0.00     0.034 A 
BRANCH  64  78
ATOM     78  C   UNL     1      -1.952  -4.251  13.287  1.00  0.00     0.023 A 
ATOM     79  C   UNL     1      -1.880  -5.090  12.158  1.00  0.00     0.012 A 
ATOM     80  C   UNL     1      -3.209  -3.848  13.778  1.00  0.00     0.148 A 
ATOM     81  C   UNL     1      -3.044  -5.529  11.529  1.00  0.00     0.002 A 
ATOM     82  C   UNL     1      -4.365  -4.309  13.161  1.00  0.00     0.091 A 
ATOM     83  F   UNL     1      -3.246  -3.046  14.851  1.00  0.00    -0.205 F 
ATOM     84  C   UNL     1      -4.284  -5.149  12.037  1.00  0.00     0.022 A 
BRANCH  82  85
ATOM     85  S   UNL     1      -6.012  -3.920  13.761  1.00  0.00     0.127 S 
ATOM     86  O   UNL     1      -6.573  -3.191  12.624  1.00  0.00    -0.237 OA
ATOM     87  O   UNL     1      -6.582  -5.250  13.976  1.00  0.00    -0.237 OA
ATOM     88  O   UNL     1      -5.826  -3.126  14.968  1.00  0.00    -0.744 OA
ENDBRANCH  82  85
ENDBRANCH  64  78
BRANCH  65  89
ATOM     89  C   UNL     1       6.309  -1.779  18.377  1.00  0.00     0.023 A 
ATOM     90  C   UNL     1       7.414  -2.650  18.400  1.00  0.00     0.012 A 
ATOM     91  C   UNL     1       6.412  -0.510  18.979  1.00  0.00     0.148 A 
ATOM     92  C   UNL     1       8.602  -2.264  19.022  1.00  0.00     0.002 A 
ATOM     93  C   UNL     1       7.610  -0.118  19.562  1.00  0.00     0.091 A 
ATOM     94  F   UNL     1       5.345   0.299  18.933  1.00  0.00    -0.205 F 
ATOM     95  C   UNL     1       8.704  -0.997  19.593  1.00  0.00     0.022 A 
BRANCH  93  96
ATOM     96  S   UNL     1       7.864   1.528  20.233  1.00  0.00     0.127 S 
ATOM     97  O   UNL     1       8.051   1.243  21.654  1.00  0.00    -0.237 OA
ATOM     98  O   UNL     1       9.071   1.956  19.525  1.00  0.00    -0.237 OA
ATOM     99  O   UNL     1       6.665   2.283  19.897  1.00  0.00    -0.744 OA
ENDBRANCH  93  96
ENDBRANCH  65  89
BRANCH  77 100
ATOM    100  C   UNL     1       1.148  -6.417  19.356  1.00  0.00     0.023 A 
ATOM    101  C   UNL     1       0.497  -5.940  20.509  1.00  0.00     0.012 A 
ATOM    102  C   UNL     1       1.316  -7.802  19.167  1.00  0.00     0.148 A 
ATOM    103  C   UNL     1       0.005  -6.833  21.459  1.00  0.00     0.002 A 
ATOM    104  C   UNL     1       0.794  -8.687  20.101  1.00  0.00     0.091 A 
ATOM    105  F   UNL     1       1.942  -8.223  18.058  1.00  0.00    -0.205 F 
ATOM    106  C   UNL     1       0.140  -8.204  21.248  1.00  0.00     0.022 A 
BRANCH 104 107
ATOM    107  S   UNL     1       0.850 -10.469  19.885  1.00  0.00     0.127 S 
ATOM    108  O   UNL     1       1.635 -10.885  21.047  1.00  0.00    -0.237 OA
ATOM    109  O   UNL     1      -0.567 -10.828  19.944  1.00  0.00    -0.237 OA
ATOM    110  O   UNL     1       1.490 -10.702  18.598  1.00  0.00    -0.744 OA
ENDBRANCH 104 107
ENDBRANCH  77 100
ENDBRANCH  51  52
ENDBRANCH  44  46
ENDBRANCH  43  44
ENDBRANCH  42  43
ENDBRANCH  41  42
ENDBRANCH  40  41
ENDBRANCH  39  40
ENDBRANCH  38  39
ENDBRANCH   1  38
TORSDOF 29
