REMARK SMILES C[C@@H](C(=O)OCCOCCOCCOCCOC(=O)c1ccc(-c2c3nc(c(-c4cccc(S(=O)(=O)[O-])c4F)c4ccc([nH]4)c(-c4cccc(S(=O)(=O)[O-])c4F)c4nc(c(-c5cccc(S(=O)(=O)[O-])c5F)c5ccc2[nH]5)C=C4)C=C3)cc1)c1ccc(C[C@@H]2CCC[C@@H]2O)cc1F
REMARK SMILES IDX 10 1 9 2 8 3 7 4 6 5 5 6 3 7 4 8 2 9 1 10 83 11 84 12 95 13
REMARK SMILES IDX 85 14 94 15 96 16 86 17 87 18 88 19 89 20 92 21 90 22 91 23
REMARK SMILES IDX 93 24 11 26 12 27 13 28 14 29 15 30 16 31 17 32 18 33 19 34
REMARK SMILES IDX 20 35 21 36 82 37 22 38 81 39 23 40 24 41 25 42 75 43 26 44
REMARK SMILES IDX 80 45 74 46 76 47 27 48 79 49 73 50 72 51 28 53 60 54 40 55
REMARK SMILES IDX 59 56 41 57 44 58 58 59 77 60 42 61 43 62 57 64 78 65 45 66
REMARK SMILES IDX 29 67 30 68 38 69 31 70 33 71 39 72 32 73 34 74 35 75 36 76
REMARK SMILES IDX 37 77 61 78 62 79 70 80 63 81 65 82 71 83 64 84 66 85 67 86
REMARK SMILES IDX 68 87 69 88 46 89 47 90 55 91 48 92 50 93 56 94 49 95 51 96
REMARK SMILES IDX 52 97 53 98 54 99
REMARK H PARENT 93 25 76 52 44 63
REMARK Flexibility Score: inf
ROOT
ATOM      1  C   UNL     1     -12.095   2.759   6.417  1.00  0.00     0.188 C 
ENDROOT
BRANCH   1   2
ATOM      2  C   UNL     1     -11.260   1.493   6.663  1.00  0.00     0.188 C 
BRANCH   2   3
ATOM      3  O   UNL     1     -11.506   0.708   7.814  1.00  0.00    -0.376 OA
BRANCH   3   4
ATOM      4  C   UNL     1     -11.236   1.212   9.117  1.00  0.00     0.202 C 
BRANCH   4   5
ATOM      5  C   UNL     1     -10.336   2.426   9.440  1.00  0.00     0.261 C 
BRANCH   5   6
ATOM      6  O   UNL     1     -10.171   3.388   8.395  1.00  0.00    -0.463 OA
BRANCH   6   7
ATOM      7  C   UNL     1      -8.910   3.715   8.029  1.00  0.00     0.313 C 
ATOM      8  O   UNL     1      -7.898   3.263   8.558  1.00  0.00    -0.252 OA
BRANCH   7   9
ATOM      9  C   UNL     1      -8.867   4.597   6.774  1.00  0.00     0.129 C 
ATOM     10  C   UNL     1      -9.954   5.684   6.792  1.00  0.00     0.025 C 
BRANCH   9  11
ATOM     11  C   UNL     1      -8.687   3.803   5.473  1.00  0.00     0.002 A 
ATOM     12  C   UNL     1      -8.055   2.545   5.491  1.00  0.00     0.008 A 
ATOM     13  C   UNL     1      -9.026   4.309   4.213  1.00  0.00     0.127 A 
ATOM     14  C   UNL     1      -7.734   1.863   4.316  1.00  0.00     0.004 A 
ATOM     15  C   UNL     1      -8.669   3.649   3.030  1.00  0.00     0.043 A 
ATOM     16  F   UNL     1      -9.655   5.486   4.093  1.00  0.00    -0.207 F 
ATOM     17  C   UNL     1      -7.941   2.456   3.074  1.00  0.00    -0.045 A 
BRANCH  17  18
ATOM     18  C   UNL     1      -7.299   1.875   1.837  1.00  0.00     0.041 C 
BRANCH  18  19
ATOM     19  C   UNL     1      -5.760   2.050   1.699  1.00  0.00     0.022 C 
ATOM     20  C   UNL     1      -4.905   1.367   2.778  1.00  0.00     0.007 C 
ATOM     21  C   UNL     1      -5.208   3.481   1.719  1.00  0.00     0.117 C 
ATOM     22  C   UNL     1      -4.514   2.451   3.791  1.00  0.00     0.003 C 
ATOM     23  C   UNL     1      -4.947   3.785   3.190  1.00  0.00     0.032 C 
BRANCH  21  24
ATOM     24  O   UNL     1      -6.044   4.421   1.080  1.00  0.00    -0.393 OA
ATOM     25  H   UNL     1      -6.907   4.440   1.524  1.00  0.00     0.210 HD
ENDBRANCH  21  24
ENDBRANCH  18  19
ENDBRANCH  17  18
ENDBRANCH   9  11
ENDBRANCH   7   9
ENDBRANCH   6   7
ENDBRANCH   5   6
ENDBRANCH   4   5
ENDBRANCH   3   4
ENDBRANCH   2   3
ENDBRANCH   1   2
BRANCH   1  26
ATOM     26  O   UNL     1     -12.648   3.347   7.575  1.00  0.00    -0.377 OA
BRANCH  26  27
ATOM     27  C   UNL     1     -13.903   2.872   8.045  1.00  0.00     0.188 C 
BRANCH  27  28
ATOM     28  C   UNL     1     -14.455   1.510   7.575  1.00  0.00     0.188 C 
BRANCH  28  29
ATOM     29  O   UNL     1     -14.262   1.219   6.198  1.00  0.00    -0.376 OA
BRANCH  29  30
ATOM     30  C   UNL     1     -15.312   1.509   5.287  1.00  0.00     0.202 C 
BRANCH  30  31
ATOM     31  C   UNL     1     -15.738   2.977   5.124  1.00  0.00     0.261 C 
BRANCH  31  32
ATOM     32  O   UNL     1     -16.235   3.633   6.300  1.00  0.00    -0.460 OA
BRANCH  32  33
ATOM     33  C   UNL     1     -17.283   3.079   6.943  1.00  0.00     0.338 C 
ATOM     34  O   UNL     1     -17.921   2.096   6.597  1.00  0.00    -0.246 OA
BRANCH  33  35
ATOM     35  C   UNL     1     -17.405   3.737   8.259  1.00  0.00     0.060 A 
ATOM     36  C   UNL     1     -17.298   2.958   9.419  1.00  0.00     0.016 A 
ATOM     37  C   UNL     1     -17.618   5.115   8.350  1.00  0.00     0.016 A 
ATOM     38  C   UNL     1     -17.449   3.547  10.674  1.00  0.00     0.010 A 
ATOM     39  C   UNL     1     -17.791   5.700   9.607  1.00  0.00     0.010 A 
ATOM     40  C   UNL     1     -17.747   4.912  10.772  1.00  0.00    -0.014 A 
BRANCH  40  41
ATOM     41  C   UNL     1     -18.215   5.469  12.064  1.00  0.00     0.031 A 
ATOM     42  C   UNL     1     -19.696   5.647  12.268  1.00  0.00     0.074 A 
ATOM     43  C   UNL     1     -17.353   5.806  13.039  1.00  0.00     0.049 A 
ATOM     44  N   UNL     1     -20.339   6.157  13.284  1.00  0.00    -0.248 NA
ATOM     45  C   UNL     1     -20.568   5.189  11.172  1.00  0.00     0.031 C 
ATOM     46  C   UNL     1     -15.900   5.667  12.970  1.00  0.00     0.029 A 
ATOM     47  N   UNL     1     -17.582   6.363  14.274  1.00  0.00    -0.354 N 
ATOM     48  C   UNL     1     -21.685   6.111  12.941  1.00  0.00     0.074 A 
ATOM     49  C   UNL     1     -21.767   5.535  11.617  1.00  0.00     0.031 C 
ATOM     50  C   UNL     1     -15.363   6.161  14.100  1.00  0.00     0.029 A 
ATOM     51  C   UNL     1     -16.430   6.676  14.956  1.00  0.00     0.049 A 
ATOM     52  H   UNL     1     -18.484   6.522  14.635  1.00  0.00     0.167 HD
ATOM     53  C   UNL     1     -22.759   6.500  13.667  1.00  0.00     0.034 A 
ATOM     54  C   UNL     1     -16.259   7.333  16.121  1.00  0.00     0.034 A 
ATOM     55  C   UNL     1     -22.677   7.066  14.985  1.00  0.00     0.049 A 
ATOM     56  C   UNL     1     -17.469   7.796  16.893  1.00  0.00     0.074 A 
ATOM     57  C   UNL     1     -23.710   7.459  15.817  1.00  0.00     0.029 A 
ATOM     58  N   UNL     1     -21.496   7.337  15.658  1.00  0.00    -0.354 N 
ATOM     59  N   UNL     1     -18.740   7.653  16.603  1.00  0.00    -0.248 NA
ATOM     60  C   UNL     1     -17.222   8.481  18.171  1.00  0.00     0.031 C 
ATOM     61  C   UNL     1     -23.152   8.005  16.977  1.00  0.00     0.029 A 
ATOM     62  C   UNL     1     -21.773   7.906  16.889  1.00  0.00     0.049 A 
ATOM     63  H   UNL     1     -20.594   7.151  15.311  1.00  0.00     0.167 HD
ATOM     64  C   UNL     1     -19.442   8.194  17.677  1.00  0.00     0.074 A 
ATOM     65  C   UNL     1     -18.454   8.650  18.632  1.00  0.00     0.031 C 
ATOM     66  C   UNL     1     -20.782   8.310  17.853  1.00  0.00     0.034 A 
BRANCH  53  67
ATOM     67  C   UNL     1     -24.121   6.319  13.049  1.00  0.00     0.023 A 
ATOM     68  C   UNL     1     -24.656   5.023  12.894  1.00  0.00     0.012 A 
ATOM     69  C   UNL     1     -24.891   7.434  12.666  1.00  0.00     0.148 A 
ATOM     70  C   UNL     1     -25.919   4.839  12.334  1.00  0.00     0.002 A 
ATOM     71  C   UNL     1     -26.169   7.245  12.155  1.00  0.00     0.091 A 
ATOM     72  F   UNL     1     -24.357   8.656  12.801  1.00  0.00    -0.205 F 
ATOM     73  C   UNL     1     -26.679   5.949  11.975  1.00  0.00     0.022 A 
BRANCH  71  74
ATOM     74  S   UNL     1     -27.258   8.611  11.738  1.00  0.00     0.127 S 
ATOM     75  O   UNL     1     -27.332   8.496  10.282  1.00  0.00    -0.237 OA
ATOM     76  O   UNL     1     -28.488   8.246  12.441  1.00  0.00    -0.237 OA
ATOM     77  O   UNL     1     -26.606   9.814  12.235  1.00  0.00    -0.744 OA
ENDBRANCH  71  74
ENDBRANCH  53  67
BRANCH  54  78
ATOM     78  C   UNL     1     -14.884   7.590  16.639  1.00  0.00     0.023 A 
ATOM     79  C   UNL     1     -14.445   6.948  17.813  1.00  0.00     0.012 A 
ATOM     80  C   UNL     1     -14.011   8.471  15.971  1.00  0.00     0.148 A 
ATOM     81  C   UNL     1     -13.175   7.206  18.332  1.00  0.00     0.002 A 
ATOM     82  C   UNL     1     -12.727   8.678  16.460  1.00  0.00     0.091 A 
ATOM     83  F   UNL     1     -14.454   9.085  14.865  1.00  0.00    -0.205 F 
ATOM     84  C   UNL     1     -12.313   8.062  17.651  1.00  0.00     0.022 A 
BRANCH  82  85
ATOM     85  S   UNL     1     -11.508   9.662  15.584  1.00  0.00     0.127 S 
ATOM     86  O   UNL     1     -11.337  10.799  16.485  1.00  0.00    -0.237 OA
ATOM     87  O   UNL     1     -10.370   8.745  15.525  1.00  0.00    -0.237 OA
ATOM     88  O   UNL     1     -12.102   9.968  14.289  1.00  0.00    -0.744 OA
ENDBRANCH  82  85
ENDBRANCH  54  78
BRANCH  66  89
ATOM     89  C   UNL     1     -21.273   8.906  19.148  1.00  0.00     0.023 A 
ATOM     90  C   UNL     1     -21.110  10.282  19.404  1.00  0.00     0.012 A 
ATOM     91  C   UNL     1     -21.969   8.108  20.080  1.00  0.00     0.148 A 
ATOM     92  C   UNL     1     -21.598  10.846  20.583  1.00  0.00     0.002 A 
ATOM     93  C   UNL     1     -22.499   8.688  21.226  1.00  0.00     0.091 A 
ATOM     94  F   UNL     1     -22.102   6.799  19.826  1.00  0.00    -0.205 F 
ATOM     95  C   UNL     1     -22.302  10.053  21.486  1.00  0.00     0.022 A 
BRANCH  93  96
ATOM     96  S   UNL     1     -23.505   7.768  22.396  1.00  0.00     0.127 S 
ATOM     97  O   UNL     1     -22.621   7.701  23.559  1.00  0.00    -0.237 OA
ATOM     98  O   UNL     1     -24.665   8.644  22.561  1.00  0.00    -0.237 OA
ATOM     99  O   UNL     1     -23.797   6.490  21.761  1.00  0.00    -0.744 OA
ENDBRANCH  93  96
ENDBRANCH  66  89
ENDBRANCH  40  41
ENDBRANCH  33  35
ENDBRANCH  32  33
ENDBRANCH  31  32
ENDBRANCH  30  31
ENDBRANCH  29  30
ENDBRANCH  28  29
ENDBRANCH  27  28
ENDBRANCH  26  27
ENDBRANCH   1  26
TORSDOF 27
