REMARK SMILES O=C(CS[C@H](C(=O)Nc1ccc(C(F)(F)F)cc1)c1ccccc1)OCCOCCOCCOCCOC(=O)c1ccc(-c2c3nc(c(-c4cccc(S(=O)(=O)[O-])c4F)c4ccc([nH]4)c(-c4cccc(S(=O)(=O)[O-])c4F)c4nc(c(-c5cccc(S(=O)(=O)[O-])c5F)c5ccc2[nH]5)C=C4)C=C3)cc1
REMARK SMILES IDX 30 1 29 2 28 3 27 4 26 5 25 6 2 7 1 8 3 9 4 10 5 11 19 12
REMARK SMILES IDX 20 13 24 14 21 15 23 16 22 17 6 18 7 19 8 20 9 22 10 23
REMARK SMILES IDX 18 24 11 25 17 26 12 27 13 28 14 29 15 30 16 31 31 32 32 33
REMARK SMILES IDX 33 34 34 35 35 36 36 37 37 38 38 39 39 40 40 41 41 42 102 43
REMARK SMILES IDX 42 44 101 45 43 46 44 47 45 48 95 49 46 50 100 51 94 52
REMARK SMILES IDX 96 53 47 54 99 55 93 56 92 57 48 59 80 60 60 61 79 62 61 63
REMARK SMILES IDX 64 64 78 65 97 66 62 67 63 68 77 70 98 71 65 72 49 73 50 74
REMARK SMILES IDX 58 75 51 76 53 77 59 78 52 79 54 80 55 81 56 82 57 83 81 84
REMARK SMILES IDX 82 85 90 86 83 87 85 88 91 89 84 90 86 91 87 92 88 93 89 94
REMARK SMILES IDX 66 95 67 96 75 97 68 98 70 99 76 100 69 101 71 102 72 103
REMARK SMILES IDX 73 104 74 105
REMARK H PARENT 8 21 96 58 64 69
REMARK Flexibility Score: inf
ROOT
ATOM      1  C   UNL     1      -0.284   1.372  -0.665  1.00  0.00     0.188 C 
ENDROOT
BRANCH   1   2
ATOM      2  C   UNL     1       0.108   2.402   0.403  1.00  0.00     0.188 C 
BRANCH   2   3
ATOM      3  O   UNL     1       1.438   2.434   0.904  1.00  0.00    -0.376 OA
BRANCH   3   4
ATOM      4  C   UNL     1       2.113   1.292   1.380  1.00  0.00     0.202 C 
BRANCH   4   5
ATOM      5  C   UNL     1       1.332   0.041   1.733  1.00  0.00     0.261 C 
BRANCH   5   6
ATOM      6  O   UNL     1       0.111   0.281   2.440  1.00  0.00    -0.463 OA
BRANCH   6   7
ATOM      7  C   UNL     1       0.007   0.515   3.767  1.00  0.00     0.316 C 
ATOM      8  O   UNL     1      -1.111   0.578   4.277  1.00  0.00    -0.251 OA
BRANCH   7   9
ATOM      9  C   UNL     1       1.258   0.731   4.580  1.00  0.00     0.193 C 
BRANCH   9  10
ATOM     10  S   UNL     1       1.800  -0.708   5.569  1.00  0.00    -0.132 SA
BRANCH  10  11
ATOM     11  C   UNL     1       2.981  -1.677   4.452  1.00  0.00     0.166 C 
BRANCH  11  12
ATOM     12  C   UNL     1       2.279  -2.879   3.823  1.00  0.00    -0.026 A 
ATOM     13  C   UNL     1       0.962  -2.856   3.328  1.00  0.00     0.005 A 
ATOM     14  C   UNL     1       2.941  -4.119   3.773  1.00  0.00     0.005 A 
ATOM     15  C   UNL     1       0.384  -3.961   2.695  1.00  0.00     0.000 A 
ATOM     16  C   UNL     1       2.362  -5.233   3.148  1.00  0.00     0.000 A 
ATOM     17  C   UNL     1       1.095  -5.145   2.581  1.00  0.00     0.000 A 
ENDBRANCH  11  12
BRANCH  11  18
ATOM     18  C   UNL     1       3.944  -0.737   3.661  1.00  0.00     0.242 C 
ATOM     19  O   UNL     1       4.136   0.429   4.056  1.00  0.00    -0.273 OA
ATOM     20  N   UNL     1       4.770  -1.049   2.619  1.00  0.00    -0.325 N 
ATOM     21  H   UNL     1       5.245  -0.273   2.242  1.00  0.00     0.169 HD
BRANCH  20  22
ATOM     22  C   UNL     1       5.069  -2.252   1.987  1.00  0.00     0.041 A 
ATOM     23  C   UNL     1       6.390  -2.700   2.057  1.00  0.00     0.027 A 
ATOM     24  C   UNL     1       4.140  -2.974   1.248  1.00  0.00     0.027 A 
ATOM     25  C   UNL     1       6.714  -3.983   1.616  1.00  0.00     0.015 A 
ATOM     26  C   UNL     1       4.469  -4.252   0.781  1.00  0.00     0.015 A 
ATOM     27  C   UNL     1       5.728  -4.805   1.054  1.00  0.00     0.056 A 
BRANCH  27  28
ATOM     28  C   UNL     1       5.999  -6.273   0.823  1.00  0.00     0.416 C 
ATOM     29  F   UNL     1       6.555  -6.537  -0.386  1.00  0.00    -0.166 F 
ATOM     30  F   UNL     1       6.864  -6.780   1.753  1.00  0.00    -0.166 F 
ATOM     31  F   UNL     1       4.882  -7.044   0.919  1.00  0.00    -0.166 F 
ENDBRANCH  27  28
ENDBRANCH  20  22
ENDBRANCH  11  18
ENDBRANCH  10  11
ENDBRANCH   9  10
ENDBRANCH   7   9
ENDBRANCH   6   7
ENDBRANCH   5   6
ENDBRANCH   4   5
ENDBRANCH   3   4
ENDBRANCH   2   3
ENDBRANCH   1   2
BRANCH   1  32
ATOM     32  O   UNL     1       0.408   1.450  -1.903  1.00  0.00    -0.377 OA
BRANCH  32  33
ATOM     33  C   UNL     1       1.776   1.067  -1.876  1.00  0.00     0.188 C 
BRANCH  33  34
ATOM     34  C   UNL     1       2.745   2.264  -1.820  1.00  0.00     0.188 C 
BRANCH  34  35
ATOM     35  O   UNL     1       2.090   3.513  -1.637  1.00  0.00    -0.376 OA
BRANCH  35  36
ATOM     36  C   UNL     1       1.888   4.279  -2.820  1.00  0.00     0.202 C 
BRANCH  36  37
ATOM     37  C   UNL     1       0.932   3.679  -3.866  1.00  0.00     0.261 C 
BRANCH  37  38
ATOM     38  O   UNL     1       1.365   2.448  -4.478  1.00  0.00    -0.460 OA
BRANCH  38  39
ATOM     39  C   UNL     1       2.563   2.419  -5.100  1.00  0.00     0.338 C 
ATOM     40  O   UNL     1       3.307   3.363  -5.309  1.00  0.00    -0.246 OA
BRANCH  39  41
ATOM     41  C   UNL     1       2.943   0.997  -5.269  1.00  0.00     0.060 A 
ATOM     42  C   UNL     1       4.184   0.566  -4.773  1.00  0.00     0.016 A 
ATOM     43  C   UNL     1       2.059   0.078  -5.840  1.00  0.00     0.016 A 
ATOM     44  C   UNL     1       4.548  -0.780  -4.862  1.00  0.00     0.010 A 
ATOM     45  C   UNL     1       2.438  -1.262  -5.957  1.00  0.00     0.010 A 
ATOM     46  C   UNL     1       3.691  -1.694  -5.490  1.00  0.00    -0.014 A 
BRANCH  46  47
ATOM     47  C   UNL     1       4.174  -3.048  -5.856  1.00  0.00     0.031 A 
ATOM     48  C   UNL     1       4.820  -3.223  -7.204  1.00  0.00     0.074 A 
ATOM     49  C   UNL     1       3.991  -4.112  -5.052  1.00  0.00     0.049 A 
ATOM     50  N   UNL     1       5.237  -4.314  -7.787  1.00  0.00    -0.248 NA
ATOM     51  C   UNL     1       5.017  -1.999  -8.001  1.00  0.00     0.031 C 
ATOM     52  C   UNL     1       3.377  -4.080  -3.726  1.00  0.00     0.029 A 
ATOM     53  N   UNL     1       4.270  -5.442  -5.263  1.00  0.00    -0.354 N 
ATOM     54  C   UNL     1       5.716  -3.916  -9.029  1.00  0.00     0.074 A 
ATOM     55  C   UNL     1       5.547  -2.482  -9.114  1.00  0.00     0.031 C 
ATOM     56  C   UNL     1       3.279  -5.340  -3.262  1.00  0.00     0.029 A 
ATOM     57  C   UNL     1       3.800  -6.267  -4.267  1.00  0.00     0.049 A 
ATOM     58  H   UNL     1       4.759  -5.772  -6.051  1.00  0.00     0.167 HD
ATOM     59  C   UNL     1       6.256  -4.673 -10.011  1.00  0.00     0.034 A 
ATOM     60  C   UNL     1       3.759  -7.614  -4.197  1.00  0.00     0.034 A 
ATOM     61  C   UNL     1       6.434  -6.095  -9.933  1.00  0.00     0.049 A 
ATOM     62  C   UNL     1       4.325  -8.437  -5.331  1.00  0.00     0.074 A 
ATOM     63  C   UNL     1       7.036  -6.935 -10.852  1.00  0.00     0.029 A 
ATOM     64  N   UNL     1       5.987  -6.890  -8.892  1.00  0.00    -0.354 N 
ATOM     65  N   UNL     1       4.923  -8.036  -6.426  1.00  0.00    -0.248 NA
ATOM     66  C   UNL     1       4.226  -9.901  -5.209  1.00  0.00     0.031 C 
ATOM     67  C   UNL     1       6.925  -8.246 -10.380  1.00  0.00     0.029 A 
ATOM     68  C   UNL     1       6.274  -8.217  -9.158  1.00  0.00     0.049 A 
ATOM     69  H   UNL     1       5.532  -6.561  -8.084  1.00  0.00     0.167 HD
ATOM     70  C   UNL     1       5.295  -9.193  -7.106  1.00  0.00     0.074 A 
ATOM     71  C   UNL     1       4.879 -10.312  -6.287  1.00  0.00     0.031 C 
ATOM     72  C   UNL     1       5.906  -9.320  -8.310  1.00  0.00     0.034 A 
BRANCH  59  73
ATOM     73  C   UNL     1       6.719  -3.973 -11.257  1.00  0.00     0.023 A 
ATOM     74  C   UNL     1       7.929  -3.252 -11.238  1.00  0.00     0.012 A 
ATOM     75  C   UNL     1       5.996  -4.093 -12.459  1.00  0.00     0.148 A 
ATOM     76  C   UNL     1       8.408  -2.647 -12.398  1.00  0.00     0.002 A 
ATOM     77  C   UNL     1       6.499  -3.519 -13.619  1.00  0.00     0.091 A 
ATOM     78  F   UNL     1       4.835  -4.763 -12.442  1.00  0.00    -0.205 F 
ATOM     79  C   UNL     1       7.700  -2.790 -13.589  1.00  0.00     0.022 A 
BRANCH  77  80
ATOM     80  S   UNL     1       5.699  -3.701 -15.216  1.00  0.00     0.127 S 
ATOM     81  O   UNL     1       5.268  -2.330 -15.487  1.00  0.00    -0.237 OA
ATOM     82  O   UNL     1       6.801  -4.171 -16.057  1.00  0.00    -0.237 OA
ATOM     83  O   UNL     1       4.624  -4.663 -15.022  1.00  0.00    -0.744 OA
ENDBRANCH  77  80
ENDBRANCH  59  73
BRANCH  60  84
ATOM     84  C   UNL     1       3.155  -8.291  -3.012  1.00  0.00     0.023 A 
ATOM     85  C   UNL     1       3.972  -9.050  -2.151  1.00  0.00     0.012 A 
ATOM     86  C   UNL     1       1.775  -8.205  -2.745  1.00  0.00     0.148 A 
ATOM     87  C   UNL     1       3.420  -9.744  -1.073  1.00  0.00     0.002 A 
ATOM     88  C   UNL     1       1.242  -8.846  -1.633  1.00  0.00     0.091 A 
ATOM     89  F   UNL     1       1.007  -7.501  -3.588  1.00  0.00    -0.205 F 
ATOM     90  C   UNL     1       2.058  -9.635  -0.809  1.00  0.00     0.022 A 
BRANCH  88  91
ATOM     91  S   UNL     1      -0.468  -8.627  -1.131  1.00  0.00     0.127 S 
ATOM     92  O   UNL     1      -1.054  -9.917  -1.485  1.00  0.00    -0.237 OA
ATOM     93  O   UNL     1      -0.331  -8.380   0.306  1.00  0.00    -0.237 OA
ATOM     94  O   UNL     1      -0.949  -7.478  -1.886  1.00  0.00    -0.744 OA
ENDBRANCH  88  91
ENDBRANCH  60  84
BRANCH  72  95
ATOM     95  C   UNL     1       6.187 -10.710  -8.820  1.00  0.00     0.023 A 
ATOM     96  C   UNL     1       5.127 -11.500  -9.306  1.00  0.00     0.012 A 
ATOM     97  C   UNL     1       7.508 -11.195  -8.910  1.00  0.00     0.148 A 
ATOM     98  C   UNL     1       5.373 -12.760  -9.851  1.00  0.00     0.002 A 
ATOM     99  C   UNL     1       7.750 -12.432  -9.496  1.00  0.00     0.091 A 
ATOM    100  F   UNL     1       8.502 -10.434  -8.429  1.00  0.00    -0.205 F 
ATOM    101  C   UNL     1       6.683 -13.220  -9.957  1.00  0.00     0.022 A 
BRANCH  99 102
ATOM    102  S   UNL     1       9.411 -13.064  -9.763  1.00  0.00     0.127 S 
ATOM    103  O   UNL     1       9.488 -14.129  -8.765  1.00  0.00    -0.237 OA
ATOM    104  O   UNL     1       9.348 -13.530 -11.149  1.00  0.00    -0.237 OA
ATOM    105  O   UNL     1      10.308 -11.937  -9.545  1.00  0.00    -0.744 OA
ENDBRANCH  99 102
ENDBRANCH  72  95
ENDBRANCH  46  47
ENDBRANCH  39  41
ENDBRANCH  38  39
ENDBRANCH  37  38
ENDBRANCH  36  37
ENDBRANCH  35  36
ENDBRANCH  34  35
ENDBRANCH  33  34
ENDBRANCH  32  33
ENDBRANCH   1  32
TORSDOF 29
