REMARK SMILES CC[C@](C)(NC(=O)NCc1ccco1)C(=O)OCCOCCOCCOCCOC(=O)c1ccc(-c2c3nc(c(-c4cccc(S(=O)(=O)[O-])c4F)c4ccc([nH]4)c(-c4cccc(S(=O)(=O)[O-])c4F)c4nc(c(-c5cccc(S(=O)(=O)[O-])c5F)c5ccc2[nH]5)C=C4)C=C3)cc1
REMARK SMILES IDX 23 1 22 2 21 3 20 4 19 5 18 6 17 7 15 8 16 9 3 10 4 11 2 12
REMARK SMILES IDX 1 13 5 14 6 15 7 17 8 18 9 20 10 21 11 22 14 23 12 24 13 25
REMARK SMILES IDX 24 26 25 27 26 28 27 29 28 30 29 31 30 32 31 33 32 34 33 35
REMARK SMILES IDX 94 36 34 37 93 38 35 39 36 40 37 41 87 42 38 43 92 44 86 45
REMARK SMILES IDX 88 46 39 47 91 48 85 49 84 50 40 52 72 53 52 54 71 55 53 56
REMARK SMILES IDX 56 57 70 58 89 59 54 60 55 61 69 63 90 64 57 65 41 66 42 67
REMARK SMILES IDX 50 68 43 69 45 70 51 71 44 72 46 73 47 74 48 75 49 76 73 77
REMARK SMILES IDX 74 78 82 79 75 80 77 81 83 82 76 83 78 84 79 85 80 86 81 87
REMARK SMILES IDX 58 88 59 89 67 90 60 91 62 92 68 93 61 94 63 95 64 96 65 97
REMARK SMILES IDX 66 98
REMARK H PARENT 5 16 8 19 88 51 56 62
REMARK Flexibility Score: inf
ROOT
ATOM      1  O   UNL     1       3.433   4.923  -0.853  1.00  0.00    -0.377 OA
ENDROOT
BRANCH   1   2
ATOM      2  C   UNL     1       3.008   3.624  -0.494  1.00  0.00     0.188 C 
BRANCH   2   3
ATOM      3  C   UNL     1       3.904   2.821   0.463  1.00  0.00     0.188 C 
BRANCH   3   4
ATOM      4  O   UNL     1       5.190   2.400   0.007  1.00  0.00    -0.376 OA
BRANCH   4   5
ATOM      5  C   UNL     1       5.311   1.514  -1.107  1.00  0.00     0.202 C 
BRANCH   5   6
ATOM      6  C   UNL     1       4.287   0.386  -1.218  1.00  0.00     0.261 C 
BRANCH   6   7
ATOM      7  O   UNL     1       3.021   0.979  -1.550  1.00  0.00    -0.462 OA
BRANCH   7   8
ATOM      8  C   UNL     1       1.944   0.176  -1.627  1.00  0.00     0.331 C 
ATOM      9  O   UNL     1       1.982  -1.019  -1.351  1.00  0.00    -0.249 OA
BRANCH   8  10
ATOM     10  C   UNL     1       0.632   0.958  -1.991  1.00  0.00     0.136 C 
ATOM     11  C   UNL     1      -0.070   0.991  -0.602  1.00  0.00     0.047 C 
BRANCH  10  12
ATOM     12  C   UNL     1      -0.109   0.105  -3.061  1.00  0.00     0.037 C 
ATOM     13  C   UNL     1      -1.329  -0.662  -2.571  1.00  0.00     0.007 C 
ENDBRANCH  10  12
BRANCH  10  14
ATOM     14  N   UNL     1       0.603   2.407  -2.423  1.00  0.00    -0.322 N 
ATOM     15  C   UNL     1       0.837   3.109  -3.550  1.00  0.00     0.316 C 
ATOM     16  H   UNL     1       0.342   2.998  -1.680  1.00  0.00     0.166 HD
ATOM     17  O   UNL     1       0.157   4.122  -3.722  1.00  0.00    -0.249 OA
ATOM     18  N   UNL     1       1.781   2.783  -4.445  1.00  0.00    -0.331 N 
ATOM     19  H   UNL     1       1.684   3.131  -5.361  1.00  0.00     0.165 HD
BRANCH  18  20
ATOM     20  C   UNL     1       2.914   1.971  -4.162  1.00  0.00     0.193 C 
BRANCH  20  21
ATOM     21  C   UNL     1       3.948   1.867  -5.201  1.00  0.00     0.122 A 
ATOM     22  C   UNL     1       4.922   2.719  -5.679  1.00  0.00     0.047 A 
ATOM     23  O   UNL     1       4.175   0.600  -5.651  1.00  0.00    -0.467 OA
ATOM     24  C   UNL     1       5.801   1.917  -6.450  1.00  0.00     0.042 A 
ATOM     25  C   UNL     1       5.292   0.641  -6.415  1.00  0.00     0.195 A 
ENDBRANCH  20  21
ENDBRANCH  18  20
ENDBRANCH  10  14
ENDBRANCH   8  10
ENDBRANCH   7   8
ENDBRANCH   6   7
ENDBRANCH   5   6
ENDBRANCH   4   5
ENDBRANCH   3   4
ENDBRANCH   2   3
ENDBRANCH   1   2
BRANCH   1  26
ATOM     26  C   UNL     1       4.637   4.987  -1.611  1.00  0.00     0.188 C 
BRANCH  26  27
ATOM     27  C   UNL     1       5.800   5.398  -0.707  1.00  0.00     0.188 C 
BRANCH  27  28
ATOM     28  O   UNL     1       5.722   6.725  -0.177  1.00  0.00    -0.376 OA
BRANCH  28  29
ATOM     29  C   UNL     1       4.515   7.046   0.516  1.00  0.00     0.202 C 
BRANCH  29  30
ATOM     30  C   UNL     1       3.531   7.902  -0.310  1.00  0.00     0.261 C 
BRANCH  30  31
ATOM     31  O   UNL     1       3.779   7.895  -1.723  1.00  0.00    -0.460 OA
BRANCH  31  32
ATOM     32  C   UNL     1       4.863   8.601  -2.112  1.00  0.00     0.338 C 
ATOM     33  O   UNL     1       5.559   9.341  -1.427  1.00  0.00    -0.246 OA
BRANCH  32  34
ATOM     34  C   UNL     1       5.155   8.288  -3.520  1.00  0.00     0.060 A 
ATOM     35  C   UNL     1       6.371   7.672  -3.847  1.00  0.00     0.016 A 
ATOM     36  C   UNL     1       4.270   8.694  -4.520  1.00  0.00     0.016 A 
ATOM     37  C   UNL     1       6.736   7.524  -5.187  1.00  0.00     0.010 A 
ATOM     38  C   UNL     1       4.642   8.556  -5.858  1.00  0.00     0.010 A 
ATOM     39  C   UNL     1       5.896   8.018  -6.196  1.00  0.00    -0.014 A 
BRANCH  39  40
ATOM     40  C   UNL     1       6.399   8.176  -7.583  1.00  0.00     0.031 A 
ATOM     41  C   UNL     1       6.932   9.520  -7.999  1.00  0.00     0.074 A 
ATOM     42  C   UNL     1       6.330   7.171  -8.473  1.00  0.00     0.049 A 
ATOM     43  N   UNL     1       7.345   9.921  -9.173  1.00  0.00    -0.248 NA
ATOM     44  C   UNL     1       6.998  10.554  -6.952  1.00  0.00     0.031 C 
ATOM     45  C   UNL     1       5.816   5.833  -8.194  1.00  0.00     0.029 A 
ATOM     46  N   UNL     1       6.655   7.138  -9.806  1.00  0.00    -0.354 N 
ATOM     47  C   UNL     1       7.686  11.260  -9.015  1.00  0.00     0.074 A 
ATOM     48  C   UNL     1       7.428  11.604  -7.635  1.00  0.00     0.031 C 
ATOM     49  C   UNL     1       5.820   5.119  -9.333  1.00  0.00     0.029 A 
ATOM     50  C   UNL     1       6.312   5.960 -10.425  1.00  0.00     0.049 A 
ATOM     51  H   UNL     1       7.092   7.887 -10.274  1.00  0.00     0.167 HD
ATOM     52  C   UNL     1       8.179  12.123  -9.934  1.00  0.00     0.034 A 
ATOM     53  C   UNL     1       6.359   5.612 -11.727  1.00  0.00     0.034 A 
ATOM     54  C   UNL     1       8.449  11.777 -11.301  1.00  0.00     0.049 A 
ATOM     55  C   UNL     1       6.902   6.594 -12.736  1.00  0.00     0.074 A 
ATOM     56  C   UNL     1       9.012  12.560 -12.292  1.00  0.00     0.029 A 
ATOM     57  N   UNL     1       8.155  10.551 -11.877  1.00  0.00    -0.354 N 
ATOM     58  N   UNL     1       7.360   7.807 -12.543  1.00  0.00    -0.248 NA
ATOM     59  C   UNL     1       6.962   6.149 -14.137  1.00  0.00     0.031 C 
ATOM     60  C   UNL     1       9.034  11.816 -13.476  1.00  0.00     0.029 A 
ATOM     61  C   UNL     1       8.509  10.560 -13.215  1.00  0.00     0.049 A 
ATOM     62  H   UNL     1       7.754   9.786 -11.404  1.00  0.00     0.167 HD
ATOM     63  C   UNL     1       7.792   8.257 -13.787  1.00  0.00     0.074 A 
ATOM     64  C   UNL     1       7.556   7.179 -14.725  1.00  0.00     0.031 C 
ATOM     65  C   UNL     1       8.323   9.459 -14.125  1.00  0.00     0.034 A 
BRANCH  52  66
ATOM     66  C   UNL     1       8.480  13.526  -9.478  1.00  0.00     0.023 A 
ATOM     67  C   UNL     1       9.595  13.766  -8.650  1.00  0.00     0.012 A 
ATOM     68  C   UNL     1       7.684  14.609  -9.898  1.00  0.00     0.148 A 
ATOM     69  C   UNL     1       9.895  15.058  -8.220  1.00  0.00     0.002 A 
ATOM     70  C   UNL     1       8.014  15.899  -9.500  1.00  0.00     0.091 A 
ATOM     71  F   UNL     1       6.612  14.358 -10.663  1.00  0.00    -0.205 F 
ATOM     72  C   UNL     1       9.111  16.124  -8.652  1.00  0.00     0.022 A 
BRANCH  70  73
ATOM     73  S   UNL     1       7.108  17.343 -10.067  1.00  0.00     0.127 S 
ATOM     74  O   UNL     1       6.347  17.703  -8.872  1.00  0.00    -0.237 OA
ATOM     75  O   UNL     1       8.187  18.273 -10.405  1.00  0.00    -0.237 OA
ATOM     76  O   UNL     1       6.317  16.896 -11.205  1.00  0.00    -0.744 OA
ENDBRANCH  70  73
ENDBRANCH  52  66
BRANCH  53  77
ATOM     77  C   UNL     1       5.899   4.259 -12.149  1.00  0.00     0.023 A 
ATOM     78  C   UNL     1       6.839   3.311 -12.593  1.00  0.00     0.012 A 
ATOM     79  C   UNL     1       4.538   3.899 -12.084  1.00  0.00     0.148 A 
ATOM     80  C   UNL     1       6.431   2.036 -12.988  1.00  0.00     0.002 A 
ATOM     81  C   UNL     1       4.146   2.611 -12.426  1.00  0.00     0.091 A 
ATOM     82  F   UNL     1       3.656   4.823 -11.676  1.00  0.00    -0.205 F 
ATOM     83  C   UNL     1       5.088   1.682 -12.893  1.00  0.00     0.022 A 
BRANCH  81  84
ATOM     84  S   UNL     1       2.460   2.028 -12.212  1.00  0.00     0.127 S 
ATOM     85  O   UNL     1       2.010   1.900 -13.596  1.00  0.00    -0.237 OA
ATOM     86  O   UNL     1       2.668   0.760 -11.512  1.00  0.00    -0.237 OA
ATOM     87  O   UNL     1       1.789   3.049 -11.419  1.00  0.00    -0.744 OA
ENDBRANCH  81  84
ENDBRANCH  53  77
BRANCH  65  88
ATOM     88  C   UNL     1       8.725   9.677 -15.561  1.00  0.00     0.023 A 
ATOM     89  C   UNL     1       7.736   9.886 -16.541  1.00  0.00     0.012 A 
ATOM     90  C   UNL     1      10.085   9.780 -15.917  1.00  0.00     0.148 A 
ATOM     91  C   UNL     1       8.094  10.174 -17.858  1.00  0.00     0.002 A 
ATOM     92  C   UNL     1      10.434  10.113 -17.220  1.00  0.00     0.091 A 
ATOM     93  F   UNL     1      11.011   9.561 -14.972  1.00  0.00    -0.205 F 
ATOM     94  C   UNL     1       9.440  10.300 -18.195  1.00  0.00     0.022 A 
BRANCH  92  95
ATOM     95  S   UNL     1      12.137  10.392 -17.721  1.00  0.00     0.127 S 
ATOM     96  O   UNL     1      12.403   9.212 -18.543  1.00  0.00    -0.237 OA
ATOM     97  O   UNL     1      12.040  11.646 -18.469  1.00  0.00    -0.237 OA
ATOM     98  O   UNL     1      12.909  10.482 -16.489  1.00  0.00    -0.744 OA
ENDBRANCH  92  95
ENDBRANCH  65  88
ENDBRANCH  39  40
ENDBRANCH  32  34
ENDBRANCH  31  32
ENDBRANCH  30  31
ENDBRANCH  29  30
ENDBRANCH  28  29
ENDBRANCH  27  28
ENDBRANCH  26  27
ENDBRANCH   1  26
TORSDOF 27
