REMARK SMILES CCCCOc1ccc(NC(=O)[C@]2(C)CC[C@](C)(C(=O)OCCOCCOCCOCCOC(=O)c3ccc(-c4c5nc(c(-c6cccc(S(=O)(=O)[O-])c6F)c6ccc([nH]6)c(-c6cccc(S(=O)(=O)[O-])c6F)c6nc(c(-c7cccc(S(=O)(=O)[O-])c7F)c7ccc4[nH]7)C=C6)C=C5)cc3)C2(C)C)cc1
REMARK SMILES IDX 25 1 24 2 23 3 22 4 21 5 19 6 20 7 17 8 13 9 15 10 99 11
REMARK SMILES IDX 14 12 16 13 100 14 101 15 18 16 11 17 10 18 12 20 9 21 6 22
REMARK SMILES IDX 7 23 103 24 8 25 102 26 5 27 4 28 3 29 2 30 1 31 26 32 27 33
REMARK SMILES IDX 28 34 29 35 30 36 31 37 32 38 33 39 34 40 35 41 36 42 37 43
REMARK SMILES IDX 98 44 38 45 97 46 39 47 40 48 41 49 91 50 42 51 96 52 90 53
REMARK SMILES IDX 92 54 43 55 95 56 89 57 88 58 44 60 76 61 56 62 75 63 57 64
REMARK SMILES IDX 60 65 74 66 93 67 58 68 59 69 73 71 94 72 61 73 45 74 46 75
REMARK SMILES IDX 54 76 47 77 49 78 55 79 48 80 50 81 51 82 52 83 53 84 77 85
REMARK SMILES IDX 78 86 86 87 79 88 81 89 87 90 80 91 82 92 83 93 84 94 85 95
REMARK SMILES IDX 62 96 63 97 71 98 64 99 66 100 72 101 65 102 67 103 68 104
REMARK SMILES IDX 69 105 70 106
REMARK H PARENT 10 19 92 59 60 70
REMARK Flexibility Score: inf
ROOT
ATOM      1  C   UNL     1      -4.925   2.216  -5.100  1.00  0.00     0.188 C 
ENDROOT
BRANCH   1   2
ATOM      2  O   UNL     1      -4.079   3.339  -5.174  1.00  0.00    -0.376 OA
BRANCH   2   3
ATOM      3  C   UNL     1      -3.825   4.039  -3.955  1.00  0.00     0.202 C 
BRANCH   3   4
ATOM      4  C   UNL     1      -4.809   3.960  -2.765  1.00  0.00     0.261 C 
BRANCH   4   5
ATOM      5  O   UNL     1      -4.823   2.717  -2.009  1.00  0.00    -0.463 OA
BRANCH   5   6
ATOM      6  C   UNL     1      -6.042   2.263  -1.589  1.00  0.00     0.312 C 
ATOM      7  O   UNL     1      -7.098   2.726  -2.014  1.00  0.00    -0.252 OA
BRANCH   6   8
ATOM      8  C   UNL     1      -5.999   1.385  -0.301  1.00  0.00     0.071 C 
ATOM      9  C   UNL     1      -5.740  -1.147  -0.555  1.00  0.00     0.053 C 
ATOM     10  C   UNL     1      -7.165  -0.868  -0.092  1.00  0.00     0.018 C 
ATOM     11  C   UNL     1      -4.963   0.195  -0.118  1.00  0.00    -0.005 C 
ATOM     12  C   UNL     1      -5.227  -2.370   0.294  1.00  0.00     0.022 C 
ATOM     13  C   UNL     1      -7.355   0.659  -0.017  1.00  0.00     0.020 C 
ATOM     14  C   UNL     1      -4.590   0.138   1.407  1.00  0.00     0.013 C 
ATOM     15  C   UNL     1      -3.611   0.331  -0.817  1.00  0.00     0.013 C 
ATOM     16  C   UNL     1      -5.915   2.531   0.757  1.00  0.00     0.024 C 
BRANCH   9  17
ATOM     17  C   UNL     1      -5.576  -1.737  -2.017  1.00  0.00     0.230 C 
ATOM     18  N   UNL     1      -6.243  -1.560  -3.179  1.00  0.00    -0.326 N 
ATOM     19  H   UNL     1      -5.940  -2.225  -3.838  1.00  0.00     0.169 HD
ATOM     20  O   UNL     1      -4.617  -2.518  -2.213  1.00  0.00    -0.274 OA
BRANCH  18  21
ATOM     21  C   UNL     1      -7.222  -0.742  -3.753  1.00  0.00     0.041 A 
ATOM     22  C   UNL     1      -8.436   1.465  -4.942  1.00  0.00     0.119 A 
ATOM     23  C   UNL     1      -8.779   1.101  -3.653  1.00  0.00     0.048 A 
ATOM     24  C   UNL     1      -7.645   0.619  -5.705  1.00  0.00     0.048 A 
ATOM     25  C   UNL     1      -8.191  -0.030  -3.083  1.00  0.00     0.030 A 
ATOM     26  C   UNL     1      -7.084  -0.518  -5.130  1.00  0.00     0.030 A 
BRANCH  22  27
ATOM     27  O   UNL     1      -8.726   2.693  -5.452  1.00  0.00    -0.494 OA
BRANCH  27  28
ATOM     28  C   UNL     1     -10.117   2.911  -5.666  1.00  0.00     0.229 C 
BRANCH  28  29
ATOM     29  C   UNL     1     -10.422   2.751  -7.155  1.00  0.00     0.041 C 
BRANCH  29  30
ATOM     30  C   UNL     1     -10.240   1.344  -7.737  1.00  0.00     0.000 C 
ATOM     31  C   UNL     1     -10.858   0.203  -6.939  1.00  0.00     0.004 C 
ENDBRANCH  29  30
ENDBRANCH  28  29
ENDBRANCH  27  28
ENDBRANCH  22  27
ENDBRANCH  18  21
ENDBRANCH   9  17
ENDBRANCH   6   8
ENDBRANCH   5   6
ENDBRANCH   4   5
ENDBRANCH   3   4
ENDBRANCH   2   3
ENDBRANCH   1   2
BRANCH   1  32
ATOM     32  C   UNL     1      -4.386   1.012  -4.345  1.00  0.00     0.188 C 
BRANCH  32  33
ATOM     33  O   UNL     1      -3.134   1.160  -3.721  1.00  0.00    -0.377 OA
BRANCH  33  34
ATOM     34  C   UNL     1      -1.971   1.090  -4.519  1.00  0.00     0.188 C 
BRANCH  34  35
ATOM     35  C   UNL     1      -2.044   0.339  -5.853  1.00  0.00     0.188 C 
BRANCH  35  36
ATOM     36  O   UNL     1      -2.551  -0.997  -5.905  1.00  0.00    -0.376 OA
BRANCH  36  37
ATOM     37  C   UNL     1      -2.511  -1.822  -4.743  1.00  0.00     0.202 C 
BRANCH  37  38
ATOM     38  C   UNL     1      -1.190  -2.537  -4.478  1.00  0.00     0.261 C 
BRANCH  38  39
ATOM     39  O   UNL     1      -0.213  -1.638  -3.940  1.00  0.00    -0.460 OA
BRANCH  39  40
ATOM     40  C   UNL     1       0.673  -1.140  -4.829  1.00  0.00     0.338 C 
ATOM     41  O   UNL     1       0.783  -1.430  -6.011  1.00  0.00    -0.246 OA
BRANCH  40  42
ATOM     42  C   UNL     1       1.395  -0.025  -4.194  1.00  0.00     0.060 A 
ATOM     43  C   UNL     1       1.529   1.170  -4.915  1.00  0.00     0.016 A 
ATOM     44  C   UNL     1       1.949  -0.159  -2.919  1.00  0.00     0.016 A 
ATOM     45  C   UNL     1       2.280   2.214  -4.389  1.00  0.00     0.010 A 
ATOM     46  C   UNL     1       2.717   0.880  -2.401  1.00  0.00     0.010 A 
ATOM     47  C   UNL     1       2.927   2.044  -3.161  1.00  0.00    -0.014 A 
BRANCH  47  48
ATOM     48  C   UNL     1       4.026   2.959  -2.794  1.00  0.00     0.031 A 
ATOM     49  C   UNL     1       5.430   2.521  -3.110  1.00  0.00     0.074 A 
ATOM     50  C   UNL     1       3.780   4.140  -2.204  1.00  0.00     0.049 A 
ATOM     51  N   UNL     1       6.563   3.108  -2.837  1.00  0.00    -0.248 NA
ATOM     52  C   UNL     1       5.574   1.241  -3.830  1.00  0.00     0.031 C 
ATOM     53  C   UNL     1       2.454   4.664  -1.880  1.00  0.00     0.029 A 
ATOM     54  N   UNL     1       4.645   5.100  -1.751  1.00  0.00    -0.354 N 
ATOM     55  C   UNL     1       7.552   2.261  -3.326  1.00  0.00     0.074 A 
ATOM     56  C   UNL     1       6.889   1.111  -3.895  1.00  0.00     0.031 C 
ATOM     57  C   UNL     1       2.596   5.843  -1.249  1.00  0.00     0.029 A 
ATOM     58  C   UNL     1       4.020   6.137  -1.102  1.00  0.00     0.049 A 
ATOM     59  H   UNL     1       5.620   5.052  -1.879  1.00  0.00     0.167 HD
ATOM     60  C   UNL     1       8.893   2.437  -3.315  1.00  0.00     0.034 A 
ATOM     61  C   UNL     1       4.550   7.186  -0.443  1.00  0.00     0.034 A 
ATOM     62  C   UNL     1       9.537   3.588  -2.750  1.00  0.00     0.049 A 
ATOM     63  C   UNL     1       6.051   7.332  -0.403  1.00  0.00     0.074 A 
ATOM     64  C   UNL     1      10.887   3.881  -2.695  1.00  0.00     0.029 A 
ATOM     65  N   UNL     1       8.872   4.636  -2.130  1.00  0.00    -0.354 N 
ATOM     66  N   UNL     1       6.972   6.570  -0.944  1.00  0.00    -0.248 NA
ATOM     67  C   UNL     1       6.584   8.501   0.311  1.00  0.00     0.031 C 
ATOM     68  C   UNL     1      11.040   5.093  -2.015  1.00  0.00     0.029 A 
ATOM     69  C   UNL     1       9.782   5.575  -1.685  1.00  0.00     0.049 A 
ATOM     70  H   UNL     1       7.895   4.700  -2.024  1.00  0.00     0.167 HD
ATOM     71  C   UNL     1       8.188   7.192  -0.679  1.00  0.00     0.074 A 
ATOM     72  C   UNL     1       7.882   8.401   0.058  1.00  0.00     0.031 C 
ATOM     73  C   UNL     1       9.444   6.800  -1.006  1.00  0.00     0.034 A 
BRANCH  60  74
ATOM     74  C   UNL     1       9.743   1.367  -3.948  1.00  0.00     0.023 A 
ATOM     75  C   UNL     1       9.741   1.210  -5.350  1.00  0.00     0.012 A 
ATOM     76  C   UNL     1      10.574   0.545  -3.163  1.00  0.00     0.148 A 
ATOM     77  C   UNL     1      10.528   0.232  -5.957  1.00  0.00     0.002 A 
ATOM     78  C   UNL     1      11.391  -0.395  -3.778  1.00  0.00     0.091 A 
ATOM     79  F   UNL     1      10.543   0.693  -1.831  1.00  0.00    -0.205 F 
ATOM     80  C   UNL     1      11.360  -0.562  -5.173  1.00  0.00     0.022 A 
BRANCH  78  81
ATOM     81  S   UNL     1      12.556  -1.414  -2.867  1.00  0.00     0.127 S 
ATOM     82  O   UNL     1      11.982  -2.748  -3.043  1.00  0.00    -0.237 OA
ATOM     83  O   UNL     1      13.801  -1.185  -3.600  1.00  0.00    -0.237 OA
ATOM     84  O   UNL     1      12.550  -0.912  -1.501  1.00  0.00    -0.744 OA
ENDBRANCH  78  81
ENDBRANCH  60  74
BRANCH  61  85
ATOM     85  C   UNL     1       3.667   8.195   0.206  1.00  0.00     0.023 A 
ATOM     86  C   UNL     1       3.630   9.511  -0.296  1.00  0.00     0.012 A 
ATOM     87  C   UNL     1       2.872   7.864   1.321  1.00  0.00     0.148 A 
ATOM     88  C   UNL     1       2.852  10.489   0.326  1.00  0.00     0.002 A 
ATOM     89  C   UNL     1       2.056   8.829   1.901  1.00  0.00     0.091 A 
ATOM     90  F   UNL     1       2.929   6.611   1.793  1.00  0.00    -0.205 F 
ATOM     91  C   UNL     1       2.061  10.147   1.419  1.00  0.00     0.022 A 
BRANCH  89  92
ATOM     92  S   UNL     1       0.913   8.451   3.234  1.00  0.00     0.127 S 
ATOM     93  O   UNL     1       1.530   9.142   4.363  1.00  0.00    -0.237 OA
ATOM     94  O   UNL     1      -0.329   9.052   2.745  1.00  0.00    -0.237 OA
ATOM     95  O   UNL     1       0.880   6.997   3.324  1.00  0.00    -0.744 OA
ENDBRANCH  89  92
ENDBRANCH  61  85
BRANCH  73  96
ATOM     96  C   UNL     1      10.581   7.715  -0.631  1.00  0.00     0.023 A 
ATOM     97  C   UNL     1      10.970   7.846   0.716  1.00  0.00     0.012 A 
ATOM     98  C   UNL     1      11.313   8.384  -1.633  1.00  0.00     0.148 A 
ATOM     99  C   UNL     1      12.046   8.661   1.064  1.00  0.00     0.002 A 
ATOM    100  C   UNL     1      12.418   9.149  -1.284  1.00  0.00     0.091 A 
ATOM    101  F   UNL     1      10.916   8.256  -2.908  1.00  0.00    -0.205 F 
ATOM    102  C   UNL     1      12.777   9.301   0.065  1.00  0.00     0.022 A 
BRANCH 100 103
ATOM    103  S   UNL     1      13.479   9.923  -2.508  1.00  0.00     0.127 S 
ATOM    104  O   UNL     1      13.164  11.338  -2.323  1.00  0.00    -0.237 OA
ATOM    105  O   UNL     1      14.813   9.530  -2.053  1.00  0.00    -0.237 OA
ATOM    106  O   UNL     1      13.088   9.360  -3.794  1.00  0.00    -0.744 OA
ENDBRANCH 100 103
ENDBRANCH  73  96
ENDBRANCH  47  48
ENDBRANCH  40  42
ENDBRANCH  39  40
ENDBRANCH  38  39
ENDBRANCH  37  38
ENDBRANCH  36  37
ENDBRANCH  35  36
ENDBRANCH  34  35
ENDBRANCH  33  34
ENDBRANCH  32  33
ENDBRANCH   1  32
TORSDOF 29
