REMARK SMILES Cc1cccc(OC2(C(=O)OCCOCCOCCOCCOC(=O)c3ccc(-c4c5nc(c(-c6cccc(S(=O)(=O)[O-])c6F)c6ccc([nH]6)c(-c6cccc(S(=O)(=O)[O-])c6F)c6nc(c(-c7cccc(S(=O)(=O)[O-])c7F)c7ccc4[nH]7)C=C6)C=C5)cc3)CCN(C(=O)c3cnc[nH]c3=O)CC2)c1
REMARK SMILES IDX 18 1 17 2 16 3 15 4 14 5 13 6 12 7 11 8 9 9 10 10 8 11 89 12
REMARK SMILES IDX 102 13 90 14 101 15 91 16 92 17 93 18 7 19 6 20 1 21 2 22
REMARK SMILES IDX 3 23 103 24 4 25 5 26 94 27 95 28 99 29 96 30 98 31 100 32
REMARK SMILES IDX 97 33 19 35 20 36 21 37 22 38 23 39 24 40 25 41 26 42 27 43
REMARK SMILES IDX 88 44 28 45 87 46 29 47 30 48 31 49 81 50 32 51 86 52 80 53
REMARK SMILES IDX 82 54 33 55 85 56 79 57 78 58 34 60 66 61 46 62 65 63 47 64
REMARK SMILES IDX 50 65 64 66 83 67 48 68 49 69 63 71 84 72 51 73 35 74 36 75
REMARK SMILES IDX 44 76 37 77 39 78 45 79 38 80 40 81 41 82 42 83 43 84 67 85
REMARK SMILES IDX 68 86 76 87 69 88 71 89 77 90 70 91 72 92 73 93 74 94 75 95
REMARK SMILES IDX 52 96 53 97 61 98 54 99 56 100 62 101 55 102 57 103 58 104
REMARK SMILES IDX 59 105 60 106
REMARK H PARENT 98 34 82 59 50 70
REMARK Flexibility Score: inf
ROOT
ATOM      1  C   UNL     1       2.864   0.566  -2.376  1.00  0.00     0.188 C 
ENDROOT
BRANCH   1   2
ATOM      2  O   UNL     1       3.818   1.649  -2.442  1.00  0.00    -0.377 OA
BRANCH   2   3
ATOM      3  C   UNL     1       3.428   2.972  -1.995  1.00  0.00     0.188 C 
BRANCH   3   4
ATOM      4  C   UNL     1       2.090   3.461  -2.570  1.00  0.00     0.188 C 
BRANCH   4   5
ATOM      5  O   UNL     1       1.709   4.707  -3.475  1.00  0.00    -0.376 OA
BRANCH   5   6
ATOM      6  C   UNL     1       0.131   5.325  -3.973  1.00  0.00     0.202 C 
BRANCH   6   7
ATOM      7  C   UNL     1      -1.687   5.014  -3.591  1.00  0.00     0.261 C 
BRANCH   7   8
ATOM      8  O   UNL     1      -2.529   3.796  -2.461  1.00  0.00    -0.460 OA
BRANCH   8   9
ATOM      9  C   UNL     1      -2.607   2.769  -1.318  1.00  0.00     0.350 C 
ATOM     10  O   UNL     1      -3.441   1.861  -1.474  1.00  0.00    -0.247 OA
BRANCH   9  11
ATOM     11  C   UNL     1      -1.740   2.719   0.309  1.00  0.00     0.209 C 
ATOM     12  C   UNL     1      -0.161   2.837   0.433  1.00  0.00     0.082 C 
ATOM     13  C   UNL     1      -2.418   3.659   1.419  1.00  0.00     0.082 C 
ATOM     14  C   UNL     1       0.534   3.294   1.713  1.00  0.00     0.124 C 
ATOM     15  C   UNL     1      -1.590   3.887   2.721  1.00  0.00     0.124 C 
ATOM     16  N   UNL     1      -0.214   4.281   2.448  1.00  0.00    -0.338 N 
ATOM     17  C   UNL     1       0.496   5.355   2.970  1.00  0.00     0.261 C 
ATOM     18  O   UNL     1       1.452   5.887   2.401  1.00  0.00    -0.269 OA
BRANCH  11  19
ATOM     19  O   UNL     1      -2.108   1.417   0.971  1.00  0.00    -0.475 OA
BRANCH  19  20
ATOM     20  C   UNL     1      -1.377   0.307   0.677  1.00  0.00     0.121 A 
ATOM     21  C   UNL     1       2.102  -1.018   1.363  1.00  0.00     0.044 C 
ATOM     22  C   UNL     1       0.680  -0.975   0.888  1.00  0.00    -0.047 A 
ATOM     23  C   UNL     1       0.160  -1.919   0.005  1.00  0.00     0.003 A 
ATOM     24  C   UNL     1      -0.160   0.054   1.314  1.00  0.00     0.050 A 
ATOM     25  C   UNL     1      -1.139  -1.772  -0.495  1.00  0.00     0.004 A 
ATOM     26  C   UNL     1      -1.896  -0.641  -0.185  1.00  0.00     0.046 A 
ENDBRANCH  19  20
ENDBRANCH  11  19
BRANCH  17  27
ATOM     27  C   UNL     1       0.223   5.760   4.364  1.00  0.00     0.123 A 
ATOM     28  C   UNL     1      -0.237   6.988   4.649  1.00  0.00     0.132 A 
ATOM     29  C   UNL     1       0.746   4.970   5.498  1.00  0.00     0.263 A 
ATOM     30  N   UNL     1      -0.373   7.514   5.917  1.00  0.00    -0.246 NA
ATOM     31  N   UNL     1       0.610   5.551   6.730  1.00  0.00    -0.312 N 
ATOM     32  O   UNL     1       1.295   3.880   5.373  1.00  0.00    -0.269 OA
ATOM     33  C   UNL     1       0.058   6.786   6.890  1.00  0.00     0.199 A 
ATOM     34  H   UNL     1       0.922   5.061   7.525  1.00  0.00     0.171 HD
ENDBRANCH  17  27
ENDBRANCH   9  11
ENDBRANCH   8   9
ENDBRANCH   7   8
ENDBRANCH   6   7
ENDBRANCH   5   6
ENDBRANCH   4   5
ENDBRANCH   3   4
ENDBRANCH   2   3
ENDBRANCH   1   2
BRANCH   1  35
ATOM     35  C   UNL     1       3.313  -0.738  -3.090  1.00  0.00     0.188 C 
BRANCH  35  36
ATOM     36  O   UNL     1       4.432  -1.394  -2.542  1.00  0.00    -0.376 OA
BRANCH  36  37
ATOM     37  C   UNL     1       5.480  -0.476  -2.317  1.00  0.00     0.202 C 
BRANCH  37  38
ATOM     38  C   UNL     1       5.985   0.483  -3.447  1.00  0.00     0.261 C 
BRANCH  38  39
ATOM     39  O   UNL     1       5.331   0.930  -4.737  1.00  0.00    -0.460 OA
BRANCH  39  40
ATOM     40  C   UNL     1       4.570   1.369  -5.763  1.00  0.00     0.338 C 
ATOM     41  O   UNL     1       5.097   1.558  -6.841  1.00  0.00    -0.246 OA
BRANCH  40  42
ATOM     42  C   UNL     1       3.114   1.707  -5.643  1.00  0.00     0.060 A 
ATOM     43  C   UNL     1       2.629   2.972  -5.912  1.00  0.00     0.016 A 
ATOM     44  C   UNL     1       2.122   0.763  -5.451  1.00  0.00     0.016 A 
ATOM     45  C   UNL     1       1.295   3.303  -5.559  1.00  0.00     0.010 A 
ATOM     46  C   UNL     1       0.910   1.159  -4.830  1.00  0.00     0.010 A 
ATOM     47  C   UNL     1       0.567   2.509  -4.652  1.00  0.00    -0.014 A 
BRANCH  47  48
ATOM     48  C   UNL     1      -0.479   2.998  -3.320  1.00  0.00     0.031 A 
ATOM     49  C   UNL     1      -1.915   2.326  -4.108  1.00  0.00     0.074 A 
ATOM     50  C   UNL     1      -0.364   4.111  -2.058  1.00  0.00     0.049 A 
ATOM     51  N   UNL     1      -2.941   3.046  -4.499  1.00  0.00    -0.248 NA
ATOM     52  C   UNL     1      -2.084   0.985  -4.709  1.00  0.00     0.031 C 
ATOM     53  C   UNL     1      -1.427   4.916  -1.005  1.00  0.00     0.029 A 
ATOM     54  N   UNL     1       0.646   5.212  -1.591  1.00  0.00    -0.354 N 
ATOM     55  C   UNL     1      -3.987   2.244  -4.810  1.00  0.00     0.074 A 
ATOM     56  C   UNL     1      -3.331   1.031  -5.208  1.00  0.00     0.031 C 
ATOM     57  C   UNL     1      -0.995   5.958  -0.299  1.00  0.00     0.029 A 
ATOM     58  C   UNL     1       0.132   6.380  -0.994  1.00  0.00     0.049 A 
ATOM     59  H   UNL     1       1.616   5.091  -1.712  1.00  0.00     0.167 HD
ATOM     60  C   UNL     1      -5.270   2.589  -4.479  1.00  0.00     0.034 A 
ATOM     61  C   UNL     1       0.209   7.655  -1.484  1.00  0.00     0.034 A 
ATOM     62  C   UNL     1      -5.350   3.812  -3.588  1.00  0.00     0.049 A 
ATOM     63  C   UNL     1      -1.223   8.151  -1.931  1.00  0.00     0.074 A 
ATOM     64  C   UNL     1      -5.619   3.945  -2.229  1.00  0.00     0.029 A 
ATOM     65  N   UNL     1      -4.905   5.095  -3.974  1.00  0.00    -0.354 N 
ATOM     66  N   UNL     1      -2.301   7.388  -2.015  1.00  0.00    -0.248 NA
ATOM     67  C   UNL     1      -1.576   9.533  -2.221  1.00  0.00     0.031 C 
ATOM     68  C   UNL     1      -5.260   5.259  -1.790  1.00  0.00     0.029 A 
ATOM     69  C   UNL     1      -4.802   5.992  -2.877  1.00  0.00     0.049 A 
ATOM     70  H   UNL     1      -4.689   5.342  -4.902  1.00  0.00     0.167 HD
ATOM     71  C   UNL     1      -3.384   8.053  -2.549  1.00  0.00     0.074 A 
ATOM     72  C   UNL     1      -2.895   9.434  -2.499  1.00  0.00     0.031 C 
ATOM     73  C   UNL     1      -4.547   7.458  -3.044  1.00  0.00     0.034 A 
BRANCH  60  74
ATOM     74  C   UNL     1      -6.362   1.505  -4.592  1.00  0.00     0.023 A 
ATOM     75  C   UNL     1      -7.419   1.474  -3.662  1.00  0.00     0.012 A 
ATOM     76  C   UNL     1      -6.363   0.450  -5.546  1.00  0.00     0.148 A 
ATOM     77  C   UNL     1      -8.319   0.397  -3.580  1.00  0.00     0.002 A 
ATOM     78  C   UNL     1      -7.193  -0.671  -5.406  1.00  0.00     0.091 A 
ATOM     79  F   UNL     1      -5.607   0.564  -6.648  1.00  0.00    -0.205 F 
ATOM     80  C   UNL     1      -8.173  -0.703  -4.414  1.00  0.00     0.022 A 
BRANCH  78  81
ATOM     81  S   UNL     1      -6.968  -2.174  -6.383  1.00  0.00     0.127 S 
ATOM     82  O   UNL     1      -7.026  -3.227  -5.366  1.00  0.00    -0.237 OA
ATOM     83  O   UNL     1      -8.116  -2.144  -7.286  1.00  0.00    -0.237 OA
ATOM     84  O   UNL     1      -5.660  -2.041  -7.016  1.00  0.00    -0.744 OA
ENDBRANCH  78  81
ENDBRANCH  60  74
BRANCH  61  85
ATOM     85  C   UNL     1       1.589   7.931  -2.033  1.00  0.00     0.023 A 
ATOM     86  C   UNL     1       2.660   7.549  -1.167  1.00  0.00     0.012 A 
ATOM     87  C   UNL     1       1.881   8.073  -3.398  1.00  0.00     0.148 A 
ATOM     88  C   UNL     1       3.880   7.088  -1.667  1.00  0.00     0.002 A 
ATOM     89  C   UNL     1       3.104   7.597  -3.895  1.00  0.00     0.091 A 
ATOM     90  F   UNL     1       0.917   8.525  -4.213  1.00  0.00    -0.205 F 
ATOM     91  C   UNL     1       4.084   7.069  -3.038  1.00  0.00     0.022 A 
BRANCH  89  92
ATOM     92  S   UNL     1       3.385   7.427  -5.668  1.00  0.00     0.127 S 
ATOM     93  O   UNL     1       4.014   8.707  -5.983  1.00  0.00    -0.237 OA
ATOM     94  O   UNL     1       4.277   6.270  -5.756  1.00  0.00    -0.237 OA
ATOM     95  O   UNL     1       2.058   7.205  -6.228  1.00  0.00    -0.744 OA
ENDBRANCH  89  92
ENDBRANCH  61  85
BRANCH  73  96
ATOM     96  C   UNL     1      -5.676   8.237  -3.750  1.00  0.00     0.023 A 
ATOM     97  C   UNL     1      -5.474   9.504  -4.326  1.00  0.00     0.012 A 
ATOM     98  C   UNL     1      -6.964   7.660  -3.966  1.00  0.00     0.148 A 
ATOM     99  C   UNL     1      -6.488  10.195  -5.000  1.00  0.00     0.002 A 
ATOM    100  C   UNL     1      -7.925   8.293  -4.754  1.00  0.00     0.091 A 
ATOM    101  F   UNL     1      -7.298   6.505  -3.377  1.00  0.00    -0.205 F 
ATOM    102  C   UNL     1      -7.705   9.579  -5.241  1.00  0.00     0.022 A 
BRANCH 100 103
ATOM    103  S   UNL     1      -9.402   7.426  -5.313  1.00  0.00     0.127 S 
ATOM    104  O   UNL     1     -10.395   7.850  -4.330  1.00  0.00    -0.237 OA
ATOM    105  O   UNL     1      -9.598   7.980  -6.655  1.00  0.00    -0.237 OA
ATOM    106  O   UNL     1      -9.042   6.015  -5.301  1.00  0.00    -0.744 OA
ENDBRANCH 100 103
ENDBRANCH  73  96
ENDBRANCH  47  48
ENDBRANCH  40  42
ENDBRANCH  39  40
ENDBRANCH  38  39
ENDBRANCH  37  38
ENDBRANCH  36  37
ENDBRANCH  35  36
ENDBRANCH   1  35
TORSDOF 26
