REMARK SMILES CC1(C)S[C@@H]2[C@H]([NH2+]Cn3nnc4ccccc43)C(=O)N2[C@@H]1C(=O)OCCOCCOCCOCCOC(=O)c1ccc(-c2c3nc(c(-c4cccc(S(=O)(=O)[O-])c4F)c4ccc([nH]4)c(-c4cccc(S(=O)(=O)[O-])c4F)c4nc(c(-c5cccc(S(=O)(=O)[O-])c5F)c5ccc2[nH]5)C=C4)C=C3)cc1
REMARK SMILES IDX 30 1 29 2 28 3 27 4 26 5 25 6 24 7 22 8 23 9 21 10 1 11 2 12
REMARK SMILES IDX 3 13 4 14 5 15 20 16 6 17 18 18 19 19 7 20 8 23 9 24 10 25
REMARK SMILES IDX 17 26 11 27 12 28 16 29 13 30 15 31 14 32 31 33 32 34 33 35
REMARK SMILES IDX 34 36 35 37 36 38 37 39 38 40 39 41 40 42 101 43 41 44
REMARK SMILES IDX 100 45 42 46 43 47 44 48 94 49 45 50 99 51 93 52 95 53 46 54
REMARK SMILES IDX 98 55 92 56 91 57 47 59 79 60 59 61 78 62 60 63 63 64 77 65
REMARK SMILES IDX 96 66 61 67 62 68 76 70 97 71 64 72 48 73 49 74 57 75 50 76
REMARK SMILES IDX 52 77 58 78 51 79 53 80 54 81 55 82 56 83 80 84 81 85 89 86
REMARK SMILES IDX 82 87 84 88 90 89 83 90 85 91 86 92 87 93 88 94 65 95 66 96
REMARK SMILES IDX 74 97 67 98 69 99 75 100 68 101 70 102 71 103 72 104 73 105
REMARK H PARENT 7 21 7 22 95 58 63 69
REMARK Flexibility Score: inf
ROOT
ATOM      1  O   UNL     1      -2.675   3.024  -0.721  1.00  0.00    -0.377 OA
ENDROOT
BRANCH   1   2
ATOM      2  C   UNL     1      -2.445   4.419  -0.606  1.00  0.00     0.188 C 
BRANCH   2   3
ATOM      3  C   UNL     1      -1.041   4.817  -1.056  1.00  0.00     0.188 C 
BRANCH   3   4
ATOM      4  O   UNL     1      -0.845   4.806  -2.466  1.00  0.00    -0.376 OA
BRANCH   4   5
ATOM      5  C   UNL     1      -0.608   3.547  -3.097  1.00  0.00     0.202 C 
BRANCH   5   6
ATOM      6  C   UNL     1       0.617   2.772  -2.611  1.00  0.00     0.261 C 
BRANCH   6   7
ATOM      7  O   UNL     1       0.293   1.867  -1.527  1.00  0.00    -0.462 OA
BRANCH   7   8
ATOM      8  C   UNL     1       0.977   2.042  -0.369  1.00  0.00     0.330 C 
ATOM      9  O   UNL     1       1.741   2.977  -0.138  1.00  0.00    -0.250 OA
BRANCH   8  10
ATOM     10  C   UNL     1       0.842   0.882   0.615  1.00  0.00     0.212 C 
ATOM     11  C   UNL     1       3.085   0.201  -0.596  1.00  0.00     0.026 C 
ATOM     12  C   UNL     1       2.189   0.075   0.648  1.00  0.00     0.044 C 
ATOM     13  C   UNL     1       2.980   0.434   1.910  1.00  0.00     0.026 C 
ATOM     14  S   UNL     1       1.758  -1.760   0.746  1.00  0.00    -0.121 SA
ATOM     15  C   UNL     1       0.037  -1.423   1.063  1.00  0.00     0.213 C 
ATOM     16  N   UNL     1      -0.172  -0.130   0.415  1.00  0.00    -0.304 N 
ATOM     17  C   UNL     1      -1.256  -1.877   0.338  1.00  0.00     0.307 C 
ATOM     18  C   UNL     1      -1.508  -0.279   0.448  1.00  0.00     0.285 C 
ATOM     19  O   UNL     1      -2.429   0.480   0.605  1.00  0.00    -0.268 OA
BRANCH  17  20
ATOM     20  N   UNL     1      -1.283  -2.341  -1.069  1.00  0.00    -0.315 N 
ATOM     21  H   UNL     1      -1.608  -1.567  -1.648  1.00  0.00     0.348 HD
ATOM     22  H   UNL     1      -1.899  -3.154  -1.080  1.00  0.00     0.348 HD
BRANCH  20  23
ATOM     23  C   UNL     1      -0.014  -2.799  -1.608  1.00  0.00     0.415 C 
BRANCH  23  24
ATOM     24  N   UNL     1      -0.196  -3.566  -2.841  1.00  0.00    -0.194 N 
ATOM     25  N   UNL     1      -1.348  -4.209  -3.140  1.00  0.00    -0.061 NA
ATOM     26  C   UNL     1       0.836  -3.971  -3.653  1.00  0.00     0.095 A 
ATOM     27  N   UNL     1      -1.089  -5.043  -4.141  1.00  0.00    -0.130 NA
ATOM     28  C   UNL     1       0.243  -4.936  -4.456  1.00  0.00     0.113 A 
ATOM     29  C   UNL     1       2.192  -3.633  -3.730  1.00  0.00     0.030 A 
ATOM     30  C   UNL     1       1.029  -5.633  -5.383  1.00  0.00     0.032 A 
ATOM     31  C   UNL     1       2.960  -4.331  -4.665  1.00  0.00     0.002 A 
ATOM     32  C   UNL     1       2.393  -5.319  -5.474  1.00  0.00     0.002 A 
ENDBRANCH  23  24
ENDBRANCH  20  23
ENDBRANCH  17  20
ENDBRANCH   8  10
ENDBRANCH   7   8
ENDBRANCH   6   7
ENDBRANCH   5   6
ENDBRANCH   4   5
ENDBRANCH   3   4
ENDBRANCH   2   3
ENDBRANCH   1   2
BRANCH   1  33
ATOM     33  C   UNL     1      -3.744   2.616  -1.577  1.00  0.00     0.188 C 
BRANCH  33  34
ATOM     34  C   UNL     1      -5.100   3.304  -1.372  1.00  0.00     0.188 C 
BRANCH  34  35
ATOM     35  O   UNL     1      -5.654   3.209  -0.061  1.00  0.00    -0.376 OA
BRANCH  35  36
ATOM     36  C   UNL     1      -5.960   1.889   0.400  1.00  0.00     0.202 C 
BRANCH  36  37
ATOM     37  C   UNL     1      -7.000   1.152  -0.454  1.00  0.00     0.261 C 
BRANCH  37  38
ATOM     38  O   UNL     1      -6.331   0.557  -1.582  1.00  0.00    -0.460 OA
BRANCH  38  39
ATOM     39  C   UNL     1      -6.999   0.598  -2.761  1.00  0.00     0.338 C 
ATOM     40  O   UNL     1      -8.179   0.855  -2.922  1.00  0.00    -0.246 OA
BRANCH  39  41
ATOM     41  C   UNL     1      -5.993   0.535  -3.847  1.00  0.00     0.060 A 
ATOM     42  C   UNL     1      -4.885  -0.317  -3.776  1.00  0.00     0.016 A 
ATOM     43  C   UNL     1      -6.121   1.434  -4.913  1.00  0.00     0.016 A 
ATOM     44  C   UNL     1      -3.896  -0.247  -4.761  1.00  0.00     0.010 A 
ATOM     45  C   UNL     1      -5.123   1.509  -5.888  1.00  0.00     0.010 A 
ATOM     46  C   UNL     1      -3.996   0.681  -5.811  1.00  0.00    -0.014 A 
BRANCH  46  47
ATOM     47  C   UNL     1      -2.933   0.713  -6.830  1.00  0.00     0.031 A 
ATOM     48  C   UNL     1      -2.844  -0.413  -7.803  1.00  0.00     0.074 A 
ATOM     49  C   UNL     1      -2.145   1.770  -7.117  1.00  0.00     0.049 A 
ATOM     50  N   UNL     1      -1.807  -1.135  -8.100  1.00  0.00    -0.248 NA
ATOM     51  C   UNL     1      -4.047  -0.711  -8.591  1.00  0.00     0.031 C 
ATOM     52  C   UNL     1      -2.279   3.136  -6.617  1.00  0.00     0.029 A 
ATOM     53  N   UNL     1      -1.118   1.855  -8.030  1.00  0.00    -0.354 N 
ATOM     54  C   UNL     1      -2.192  -1.912  -9.188  1.00  0.00     0.074 A 
ATOM     55  C   UNL     1      -3.589  -1.639  -9.431  1.00  0.00     0.031 C 
ATOM     56  C   UNL     1      -1.502   3.950  -7.365  1.00  0.00     0.029 A 
ATOM     57  C   UNL     1      -0.734   3.154  -8.315  1.00  0.00     0.049 A 
ATOM     58  H   UNL     1      -0.697   1.067  -8.441  1.00  0.00     0.167 HD
ATOM     59  C   UNL     1      -1.346  -2.668  -9.933  1.00  0.00     0.034 A 
ATOM     60  C   UNL     1       0.129   3.583  -9.266  1.00  0.00     0.034 A 
ATOM     61  C   UNL     1      -0.004  -2.752  -9.453  1.00  0.00     0.049 A 
ATOM     62  C   UNL     1       1.006   2.474  -9.716  1.00  0.00     0.074 A 
ATOM     63  C   UNL     1       0.679  -3.484  -8.513  1.00  0.00     0.029 A 
ATOM     64  N   UNL     1       0.858  -1.799  -9.927  1.00  0.00    -0.354 N 
ATOM     65  N   UNL     1       1.975   1.961  -9.009  1.00  0.00    -0.248 NA
ATOM     66  C   UNL     1       0.777   1.835 -11.010  1.00  0.00     0.031 C 
ATOM     67  C   UNL     1       1.914  -2.812  -8.293  1.00  0.00     0.029 A 
ATOM     68  C   UNL     1       1.907  -1.643  -9.051  1.00  0.00     0.049 A 
ATOM     69  H   UNL     1       0.743  -1.300 -10.768  1.00  0.00     0.167 HD
ATOM     70  C   UNL     1       2.223   0.732  -9.592  1.00  0.00     0.074 A 
ATOM     71  C   UNL     1       1.620   0.803 -10.911  1.00  0.00     0.031 C 
ATOM     72  C   UNL     1       2.555  -0.358  -8.842  1.00  0.00     0.034 A 
BRANCH  59  73
ATOM     73  C   UNL     1      -1.708  -3.202 -11.277  1.00  0.00     0.023 A 
ATOM     74  C   UNL     1      -1.361  -4.522 -11.611  1.00  0.00     0.012 A 
ATOM     75  C   UNL     1      -2.258  -2.378 -12.278  1.00  0.00     0.148 A 
ATOM     76  C   UNL     1      -1.597  -5.021 -12.896  1.00  0.00     0.002 A 
ATOM     77  C   UNL     1      -2.526  -2.892 -13.542  1.00  0.00     0.091 A 
ATOM     78  F   UNL     1      -2.482  -1.082 -12.010  1.00  0.00    -0.205 F 
ATOM     79  C   UNL     1      -2.194  -4.211 -13.860  1.00  0.00     0.022 A 
BRANCH  77  80
ATOM     80  S   UNL     1      -3.340  -1.847 -14.750  1.00  0.00     0.127 S 
ATOM     81  O   UNL     1      -2.345  -0.808 -14.995  1.00  0.00    -0.237 OA
ATOM     82  O   UNL     1      -3.568  -2.752 -15.877  1.00  0.00    -0.237 OA
ATOM     83  O   UNL     1      -4.556  -1.443 -14.051  1.00  0.00    -0.744 OA
ENDBRANCH  77  80
ENDBRANCH  59  73
BRANCH  60  84
ATOM     84  C   UNL     1       0.329   4.948  -9.813  1.00  0.00     0.023 A 
ATOM     85  C   UNL     1       1.591   5.305 -10.332  1.00  0.00     0.012 A 
ATOM     86  C   UNL     1      -0.728   5.865  -9.972  1.00  0.00     0.148 A 
ATOM     87  C   UNL     1       1.793   6.527 -10.981  1.00  0.00     0.002 A 
ATOM     88  C   UNL     1      -0.510   7.101 -10.578  1.00  0.00     0.091 A 
ATOM     89  F   UNL     1      -1.966   5.524  -9.584  1.00  0.00    -0.205 F 
ATOM     90  C   UNL     1       0.745   7.433 -11.097  1.00  0.00     0.022 A 
BRANCH  88  91
ATOM     91  S   UNL     1      -1.854   8.290 -10.647  1.00  0.00     0.127 S 
ATOM     92  O   UNL     1      -1.222   9.483 -11.211  1.00  0.00    -0.237 OA
ATOM     93  O   UNL     1      -2.820   7.645 -11.529  1.00  0.00    -0.237 OA
ATOM     94  O   UNL     1      -2.241   8.425  -9.245  1.00  0.00    -0.744 OA
ENDBRANCH  88  91
ENDBRANCH  60  84
BRANCH  72  95
ATOM     95  C   UNL     1       3.264  -0.145  -7.527  1.00  0.00     0.023 A 
ATOM     96  C   UNL     1       2.689   0.627  -6.500  1.00  0.00     0.012 A 
ATOM     97  C   UNL     1       4.463  -0.834  -7.254  1.00  0.00     0.148 A 
ATOM     98  C   UNL     1       3.309   0.750  -5.255  1.00  0.00     0.002 A 
ATOM     99  C   UNL     1       5.044  -0.758  -5.989  1.00  0.00     0.091 A 
ATOM    100  F   UNL     1       5.021  -1.577  -8.224  1.00  0.00    -0.205 F 
ATOM    101  C   UNL     1       4.479   0.047  -4.993  1.00  0.00     0.022 A 
BRANCH  99 102
ATOM    102  S   UNL     1       6.450  -1.794  -5.569  1.00  0.00     0.127 S 
ATOM    103  O   UNL     1       7.576  -1.048  -6.121  1.00  0.00    -0.237 OA
ATOM    104  O   UNL     1       6.403  -1.834  -4.105  1.00  0.00    -0.237 OA
ATOM    105  O   UNL     1       6.150  -3.078  -6.193  1.00  0.00    -0.744 OA
ENDBRANCH  99 102
ENDBRANCH  72  95
ENDBRANCH  46  47
ENDBRANCH  39  41
ENDBRANCH  38  39
ENDBRANCH  37  38
ENDBRANCH  36  37
ENDBRANCH  35  36
ENDBRANCH  34  35
ENDBRANCH  33  34
ENDBRANCH   1  33
TORSDOF 26
