REMARK SMILES C[C@H]1[C@@H](C(=O)OCCOCCOCCOCCOC(=O)c2ccc(-c3c4nc(c(-c5cccc(S(=O)(=O)[O-])c5F)c5ccc([nH]5)c(-c5cccc(S(=O)(=O)[O-])c5F)c5nc(c(-c6cccc(S(=O)(=O)[O-])c6F)c6ccc3[nH]6)C=C5)C=C4)cc2)CCN1C(=O)c1cc2cc(F)ccc2s1
REMARK SMILES IDX 13 1 12 2 11 3 10 4 9 5 8 6 7 7 6 8 4 9 5 10 3 11 1 12 2 13
REMARK SMILES IDX 86 14 84 15 85 16 87 17 88 18 89 19 90 20 98 21 91 22 97 23
REMARK SMILES IDX 92 24 96 25 93 26 95 27 94 28 14 29 15 30 16 31 17 32 18 33
REMARK SMILES IDX 19 34 20 35 21 36 22 37 83 38 23 39 82 40 24 41 25 42 26 43
REMARK SMILES IDX 76 44 27 45 81 46 75 47 77 48 28 49 80 50 74 51 73 52 29 54
REMARK SMILES IDX 61 55 41 56 60 57 42 58 45 59 59 60 78 61 43 62 44 63 58 65
REMARK SMILES IDX 79 66 46 67 30 68 31 69 39 70 32 71 34 72 40 73 33 74 35 75
REMARK SMILES IDX 36 76 37 77 38 78 62 79 63 80 71 81 64 82 66 83 72 84 65 85
REMARK SMILES IDX 67 86 68 87 69 88 70 89 47 90 48 91 56 92 49 93 51 94 57 95
REMARK SMILES IDX 50 96 52 97 53 98 54 99 55 100
REMARK H PARENT 77 53 45 64
REMARK Flexibility Score: inf
ROOT
ATOM      1  C   UNL     1       1.568  -0.016  -4.345  1.00  0.00     0.188 C 
ENDROOT
BRANCH   1   2
ATOM      2  O   UNL     1       0.933  -0.530  -3.199  1.00  0.00    -0.377 OA
BRANCH   2   3
ATOM      3  C   UNL     1      -0.105   0.210  -2.588  1.00  0.00     0.188 C 
BRANCH   3   4
ATOM      4  C   UNL     1      -0.645   1.595  -3.018  1.00  0.00     0.188 C 
BRANCH   4   5
ATOM      5  O   UNL     1       0.094   2.380  -3.918  1.00  0.00    -0.376 OA
BRANCH   5   6
ATOM      6  C   UNL     1       1.193   3.180  -3.544  1.00  0.00     0.202 C 
BRANCH   6   7
ATOM      7  C   UNL     1       1.904   3.142  -2.181  1.00  0.00     0.261 C 
BRANCH   7   8
ATOM      8  O   UNL     1       1.496   2.154  -1.230  1.00  0.00    -0.463 OA
BRANCH   8   9
ATOM      9  C   UNL     1       0.705   2.570  -0.217  1.00  0.00     0.311 C 
ATOM     10  O   UNL     1       0.244   3.706  -0.141  1.00  0.00    -0.252 OA
BRANCH   9  11
ATOM     11  C   UNL     1       0.314   1.494   0.792  1.00  0.00     0.123 C 
ATOM     12  C   UNL     1       2.343  -0.084   0.208  1.00  0.00     0.032 C 
ATOM     13  C   UNL     1       1.032   0.127   0.958  1.00  0.00     0.096 C 
ATOM     14  N   UNL     1      -0.013  -0.890   0.766  1.00  0.00    -0.334 N 
ATOM     15  C   UNL     1      -1.186   1.179   0.648  1.00  0.00     0.039 C 
ATOM     16  C   UNL     1      -1.322  -0.319   0.554  1.00  0.00     0.121 C 
BRANCH  14  17
ATOM     17  C   UNL     1       0.005  -2.248   1.050  1.00  0.00     0.264 C 
ATOM     18  O   UNL     1      -1.060  -2.826   1.296  1.00  0.00    -0.268 OA
BRANCH  17  19
ATOM     19  C   UNL     1       1.235  -3.015   0.983  1.00  0.00     0.093 A 
ATOM     20  C   UNL     1       1.728  -3.847   1.984  1.00  0.00     0.034 A 
ATOM     21  S   UNL     1       1.456  -3.899  -0.500  1.00  0.00    -0.130 S 
ATOM     22  C   UNL     1       1.207  -5.175   1.706  1.00  0.00    -0.004 A 
ATOM     23  C   UNL     1       0.884  -5.304   0.347  1.00  0.00     0.035 A 
ATOM     24  C   UNL     1       0.876  -6.239   2.574  1.00  0.00     0.048 A 
ATOM     25  C   UNL     1       0.182  -6.409  -0.161  1.00  0.00     0.022 A 
ATOM     26  C   UNL     1       0.126  -7.306   2.079  1.00  0.00     0.123 A 
ATOM     27  C   UNL     1      -0.238  -7.386   0.743  1.00  0.00     0.041 A 
ATOM     28  F   UNL     1      -0.295  -8.254   2.928  1.00  0.00    -0.207 F 
ENDBRANCH  17  19
ENDBRANCH  14  17
ENDBRANCH   9  11
ENDBRANCH   8   9
ENDBRANCH   7   8
ENDBRANCH   6   7
ENDBRANCH   5   6
ENDBRANCH   4   5
ENDBRANCH   3   4
ENDBRANCH   2   3
ENDBRANCH   1   2
BRANCH   1  29
ATOM     29  C   UNL     1       0.656   0.121  -5.572  1.00  0.00     0.188 C 
BRANCH  29  30
ATOM     30  O   UNL     1      -0.724   0.001  -5.263  1.00  0.00    -0.376 OA
BRANCH  30  31
ATOM     31  C   UNL     1      -1.347  -1.271  -5.357  1.00  0.00     0.202 C 
BRANCH  31  32
ATOM     32  C   UNL     1      -0.749  -2.536  -4.706  1.00  0.00     0.261 C 
BRANCH  32  33
ATOM     33  O   UNL     1       0.649  -2.789  -4.886  1.00  0.00    -0.460 OA
BRANCH  33  34
ATOM     34  C   UNL     1       1.089  -2.992  -6.145  1.00  0.00     0.338 C 
ATOM     35  O   UNL     1       0.420  -3.015  -7.158  1.00  0.00    -0.246 OA
BRANCH  34  36
ATOM     36  C   UNL     1       2.568  -2.963  -6.109  1.00  0.00     0.060 A 
ATOM     37  C   UNL     1       3.234  -1.979  -6.852  1.00  0.00     0.016 A 
ATOM     38  C   UNL     1       3.289  -3.890  -5.354  1.00  0.00     0.016 A 
ATOM     39  C   UNL     1       4.623  -1.956  -6.892  1.00  0.00     0.010 A 
ATOM     40  C   UNL     1       4.685  -3.889  -5.423  1.00  0.00     0.010 A 
ATOM     41  C   UNL     1       5.351  -2.955  -6.238  1.00  0.00    -0.014 A 
BRANCH  41  42
ATOM     42  C   UNL     1       6.766  -3.151  -6.627  1.00  0.00     0.031 A 
ATOM     43  C   UNL     1       7.087  -4.239  -7.616  1.00  0.00     0.074 A 
ATOM     44  C   UNL     1       7.732  -2.327  -6.185  1.00  0.00     0.049 A 
ATOM     45  N   UNL     1       8.236  -4.564  -8.147  1.00  0.00    -0.248 NA
ATOM     46  C   UNL     1       5.959  -5.070  -8.072  1.00  0.00     0.031 C 
ATOM     47  C   UNL     1       7.537  -1.219  -5.252  1.00  0.00     0.029 A 
ATOM     48  N   UNL     1       9.075  -2.304  -6.463  1.00  0.00    -0.354 N 
ATOM     49  C   UNL     1       7.976  -5.654  -8.970  1.00  0.00     0.074 A 
ATOM     50  C   UNL     1       6.565  -5.946  -8.856  1.00  0.00     0.031 C 
ATOM     51  C   UNL     1       8.724  -0.633  -5.020  1.00  0.00     0.029 A 
ATOM     52  C   UNL     1       9.763  -1.343  -5.764  1.00  0.00     0.049 A 
ATOM     53  H   UNL     1       9.504  -2.918  -7.102  1.00  0.00     0.167 HD
ATOM     54  C   UNL     1       8.832  -6.343  -9.759  1.00  0.00     0.034 A 
ATOM     55  C   UNL     1      11.085  -1.085  -5.713  1.00  0.00     0.034 A 
ATOM     56  C   UNL     1      10.234  -6.048  -9.869  1.00  0.00     0.049 A 
ATOM     57  C   UNL     1      12.025  -1.900  -6.564  1.00  0.00     0.074 A 
ATOM     58  C   UNL     1      11.182  -6.665 -10.665  1.00  0.00     0.029 A 
ATOM     59  N   UNL     1      10.897  -5.071  -9.143  1.00  0.00    -0.354 N 
ATOM     60  N   UNL     1      11.753  -2.870  -7.403  1.00  0.00    -0.248 NA
ATOM     61  C   UNL     1      13.452  -1.556  -6.488  1.00  0.00     0.031 C 
ATOM     62  C   UNL     1      12.428  -6.104 -10.374  1.00  0.00     0.029 A 
ATOM     63  C   UNL     1      12.245  -5.083  -9.455  1.00  0.00     0.049 A 
ATOM     64  H   UNL     1      10.471  -4.459  -8.500  1.00  0.00     0.167 HD
ATOM     65  C   UNL     1      12.966  -3.222  -7.987  1.00  0.00     0.074 A 
ATOM     66  C   UNL     1      13.969  -2.344  -7.419  1.00  0.00     0.031 C 
ATOM     67  C   UNL     1      13.228  -4.183  -8.908  1.00  0.00     0.034 A 
BRANCH  54  68
ATOM     68  C   UNL     1       8.277  -7.499 -10.550  1.00  0.00     0.023 A 
ATOM     69  C   UNL     1       7.390  -7.270 -11.622  1.00  0.00     0.012 A 
ATOM     70  C   UNL     1       8.671  -8.818 -10.251  1.00  0.00     0.148 A 
ATOM     71  C   UNL     1       6.874  -8.337 -12.357  1.00  0.00     0.002 A 
ATOM     72  C   UNL     1       8.197  -9.871 -11.022  1.00  0.00     0.091 A 
ATOM     73  F   UNL     1       9.498  -9.018  -9.214  1.00  0.00    -0.205 F 
ATOM     74  C   UNL     1       7.286  -9.635 -12.065  1.00  0.00     0.022 A 
BRANCH  72  75
ATOM     75  S   UNL     1       8.732 -11.567 -10.778  1.00  0.00     0.127 S 
ATOM     76  O   UNL     1       7.494 -12.205 -10.331  1.00  0.00    -0.237 OA
ATOM     77  O   UNL     1       9.162 -11.946 -12.124  1.00  0.00    -0.237 OA
ATOM     78  O   UNL     1       9.797 -11.518  -9.787  1.00  0.00    -0.744 OA
ENDBRANCH  72  75
ENDBRANCH  54  68
BRANCH  55  79
ATOM     79  C   UNL     1      11.604  -0.004  -4.829  1.00  0.00     0.023 A 
ATOM     80  C   UNL     1      12.201   1.142  -5.390  1.00  0.00     0.012 A 
ATOM     81  C   UNL     1      11.516  -0.117  -3.428  1.00  0.00     0.148 A 
ATOM     82  C   UNL     1      12.739   2.135  -4.570  1.00  0.00     0.002 A 
ATOM     83  C   UNL     1      11.998   0.903  -2.619  1.00  0.00     0.091 A 
ATOM     84  F   UNL     1      10.953  -1.220  -2.916  1.00  0.00    -0.205 F 
ATOM     85  C   UNL     1      12.630   2.020  -3.187  1.00  0.00     0.022 A 
BRANCH  83  86
ATOM     86  S   UNL     1      11.790   0.898  -0.836  1.00  0.00     0.127 S 
ATOM     87  O   UNL     1      13.174   0.815  -0.374  1.00  0.00    -0.237 OA
ATOM     88  O   UNL     1      11.139   2.189  -0.610  1.00  0.00    -0.237 OA
ATOM     89  O   UNL     1      10.958  -0.258  -0.535  1.00  0.00    -0.744 OA
ENDBRANCH  83  86
ENDBRANCH  55  79
BRANCH  67  90
ATOM     90  C   UNL     1      14.645  -4.296  -9.415  1.00  0.00     0.023 A 
ATOM     91  C   UNL     1      15.681  -4.733  -8.567  1.00  0.00     0.012 A 
ATOM     92  C   UNL     1      14.938  -3.997 -10.762  1.00  0.00     0.148 A 
ATOM     93  C   UNL     1      16.994  -4.812  -9.033  1.00  0.00     0.002 A 
ATOM     94  C   UNL     1      16.235  -4.138 -11.235  1.00  0.00     0.091 A 
ATOM     95  F   UNL     1      13.943  -3.572 -11.554  1.00  0.00    -0.205 F 
ATOM     96  C   UNL     1      17.268  -4.525 -10.367  1.00  0.00     0.022 A 
BRANCH  94  97
ATOM     97  S   UNL     1      16.663  -3.888 -12.961  1.00  0.00     0.127 S 
ATOM     98  O   UNL     1      17.453  -2.659 -12.896  1.00  0.00    -0.237 OA
ATOM     99  O   UNL     1      17.435  -5.094 -13.265  1.00  0.00    -0.237 OA
ATOM    100  O   UNL     1      15.401  -3.780 -13.680  1.00  0.00    -0.744 OA
ENDBRANCH  94  97
ENDBRANCH  67  90
ENDBRANCH  41  42
ENDBRANCH  34  36
ENDBRANCH  33  34
ENDBRANCH  32  33
ENDBRANCH  31  32
ENDBRANCH  30  31
ENDBRANCH  29  30
ENDBRANCH   1  29
TORSDOF 25
