REMARK SMILES O=C(Cn1cc(S(=O)(=O)NC2COC2)cn1)OCCOCCOCCOCCOC(=O)c1ccc(-c2c3nc(c(-c4cccc(S(=O)(=O)[O-])c4F)c4ccc([nH]4)c(-c4cccc(S(=O)(=O)[O-])c4F)c4nc(c(-c5cccc(S(=O)(=O)[O-])c5F)c5ccc2[nH]5)C=C4)C=C3)cc1
REMARK SMILES IDX 22 1 21 2 20 3 19 4 18 5 17 6 2 7 1 8 3 9 4 10 5 11 16 12
REMARK SMILES IDX 6 13 15 14 7 15 8 16 9 17 10 18 11 20 12 21 14 22 13 23
REMARK SMILES IDX 23 24 24 25 25 26 26 27 27 28 28 29 29 30 30 31 31 32 32 33
REMARK SMILES IDX 33 34 94 35 34 36 93 37 35 38 36 39 37 40 87 41 38 42 92 43
REMARK SMILES IDX 86 44 88 45 39 46 91 47 85 48 84 49 40 51 72 52 52 53 71 54
REMARK SMILES IDX 53 55 56 56 70 57 89 58 54 59 55 60 69 62 90 63 57 64 41 65
REMARK SMILES IDX 42 66 50 67 43 68 45 69 51 70 44 71 46 72 47 73 48 74 49 75
REMARK SMILES IDX 73 76 74 77 82 78 75 79 77 80 83 81 76 82 78 83 79 84 80 85
REMARK SMILES IDX 81 86 58 87 59 88 67 89 60 90 62 91 68 92 61 93 63 94 64 95
REMARK SMILES IDX 65 96 66 97
REMARK H PARENT 10 19 88 50 56 61
REMARK Flexibility Score: inf
ROOT
ATOM      1  C   UNL     1       2.101  -1.433   2.157  1.00  0.00     0.188 C 
ENDROOT
BRANCH   1   2
ATOM      2  C   UNL     1       2.557  -1.784   0.734  1.00  0.00     0.188 C 
BRANCH   2   3
ATOM      3  O   UNL     1       3.951  -1.792   0.515  1.00  0.00    -0.376 OA
BRANCH   3   4
ATOM      4  C   UNL     1       4.673  -0.771  -0.139  1.00  0.00     0.202 C 
BRANCH   4   5
ATOM      5  C   UNL     1       4.184   0.671  -0.106  1.00  0.00     0.261 C 
BRANCH   5   6
ATOM      6  O   UNL     1       2.778   0.924  -0.322  1.00  0.00    -0.462 OA
BRANCH   6   7
ATOM      7  C   UNL     1       2.004   0.568  -1.371  1.00  0.00     0.327 C 
ATOM      8  O   UNL     1       0.831   0.937  -1.409  1.00  0.00    -0.250 OA
BRANCH   7   9
ATOM      9  C   UNL     1       2.574  -0.283  -2.470  1.00  0.00     0.266 C 
BRANCH   9  10
ATOM     10  N   UNL     1       3.520   0.476  -3.248  1.00  0.00    -0.260 N 
ATOM     11  C   UNL     1       3.408   1.802  -3.543  1.00  0.00     0.131 A 
ATOM     12  N   UNL     1       4.733  -0.036  -3.542  1.00  0.00    -0.180 NA
ATOM     13  C   UNL     1       4.685   2.205  -3.845  1.00  0.00     0.120 A 
ATOM     14  C   UNL     1       5.451   1.036  -3.902  1.00  0.00     0.156 A 
BRANCH  13  15
ATOM     15  S   UNL     1       5.213   3.811  -4.021  1.00  0.00     0.244 S 
ATOM     16  O   UNL     1       6.543   3.823  -3.433  1.00  0.00    -0.207 OA
ATOM     17  O   UNL     1       4.958   4.139  -5.391  1.00  0.00    -0.207 OA
BRANCH  15  18
ATOM     18  N   UNL     1       4.207   4.781  -3.072  1.00  0.00    -0.203 NA
ATOM     19  H   UNL     1       3.270   4.392  -3.182  1.00  0.00     0.141 HD
BRANCH  18  20
ATOM     20  C   UNL     1       4.375   5.011  -1.594  1.00  0.00     0.121 C 
ATOM     21  C   UNL     1       3.503   6.095  -0.936  1.00  0.00     0.182 C 
ATOM     22  C   UNL     1       3.657   4.084  -0.598  1.00  0.00     0.182 C 
ATOM     23  O   UNL     1       3.184   5.218   0.170  1.00  0.00    -0.378 OA
ENDBRANCH  18  20
ENDBRANCH  15  18
ENDBRANCH  13  15
ENDBRANCH   9  10
ENDBRANCH   7   9
ENDBRANCH   6   7
ENDBRANCH   5   6
ENDBRANCH   4   5
ENDBRANCH   3   4
ENDBRANCH   2   3
ENDBRANCH   1   2
BRANCH   1  24
ATOM     24  O   UNL     1       2.967  -1.713   3.242  1.00  0.00    -0.377 OA
BRANCH  24  25
ATOM     25  C   UNL     1       4.314  -1.312   3.140  1.00  0.00     0.188 C 
BRANCH  25  26
ATOM     26  C   UNL     1       5.319  -2.476   2.970  1.00  0.00     0.188 C 
BRANCH  26  27
ATOM     27  O   UNL     1       5.063  -3.710   2.303  1.00  0.00    -0.376 OA
BRANCH  27  28
ATOM     28  C   UNL     1       3.844  -4.441   2.303  1.00  0.00     0.202 C 
BRANCH  28  29
ATOM     29  C   UNL     1       3.080  -4.888   3.548  1.00  0.00     0.261 C 
BRANCH  29  30
ATOM     30  O   UNL     1       3.059  -3.917   4.557  1.00  0.00    -0.460 OA
BRANCH  30  31
ATOM     31  C   UNL     1       4.201  -3.898   5.262  1.00  0.00     0.338 C 
ATOM     32  O   UNL     1       5.133  -4.683   5.175  1.00  0.00    -0.246 OA
BRANCH  31  33
ATOM     33  C   UNL     1       4.135  -2.790   6.228  1.00  0.00     0.060 A 
ATOM     34  C   UNL     1       5.140  -2.885   7.183  1.00  0.00     0.016 A 
ATOM     35  C   UNL     1       2.870  -2.245   6.494  1.00  0.00     0.016 A 
ATOM     36  C   UNL     1       4.715  -2.937   8.476  1.00  0.00     0.010 A 
ATOM     37  C   UNL     1       2.442  -2.295   7.788  1.00  0.00     0.010 A 
ATOM     38  C   UNL     1       3.346  -2.772   8.728  1.00  0.00    -0.014 A 
BRANCH  38  39
ATOM     39  C   UNL     1       2.915  -3.035  10.070  1.00  0.00     0.031 A 
ATOM     40  C   UNL     1       3.356  -1.963  10.970  1.00  0.00     0.074 A 
ATOM     41  C   UNL     1       2.199  -4.120  10.401  1.00  0.00     0.049 A 
ATOM     42  N   UNL     1       4.326  -2.009  11.818  1.00  0.00    -0.248 NA
ATOM     43  C   UNL     1       2.850  -0.613  10.684  1.00  0.00     0.031 C 
ATOM     44  C   UNL     1       1.498  -5.056   9.519  1.00  0.00     0.029 A 
ATOM     45  N   UNL     1       1.828  -4.517  11.642  1.00  0.00    -0.354 N 
ATOM     46  C   UNL     1       4.369  -0.733  12.361  1.00  0.00     0.074 A 
ATOM     47  C   UNL     1       3.661   0.118  11.446  1.00  0.00     0.031 C 
ATOM     48  C   UNL     1       0.576  -5.726  10.250  1.00  0.00     0.029 A 
ATOM     49  C   UNL     1       0.721  -5.350  11.648  1.00  0.00     0.049 A 
ATOM     50  H   UNL     1       2.299  -4.239  12.461  1.00  0.00     0.167 HD
ATOM     51  C   UNL     1       4.681  -0.559  13.671  1.00  0.00     0.034 A 
ATOM     52  C   UNL     1      -0.074  -5.584  12.719  1.00  0.00     0.034 A 
ATOM     53  C   UNL     1       5.357  -1.722  14.199  1.00  0.00     0.049 A 
ATOM     54  C   UNL     1       0.691  -5.194  13.933  1.00  0.00     0.074 A 
ATOM     55  C   UNL     1       6.510  -2.411  13.879  1.00  0.00     0.029 A 
ATOM     56  N   UNL     1       4.607  -2.572  14.978  1.00  0.00    -0.354 N 
ATOM     57  N   UNL     1       1.753  -5.824  14.353  1.00  0.00    -0.248 NA
ATOM     58  C   UNL     1       0.532  -3.838  14.439  1.00  0.00     0.031 C 
ATOM     59  C   UNL     1       6.209  -3.783  14.126  1.00  0.00     0.029 A 
ATOM     60  C   UNL     1       4.906  -3.859  14.625  1.00  0.00     0.049 A 
ATOM     61  H   UNL     1       3.963  -2.300  15.672  1.00  0.00     0.167 HD
ATOM     62  C   UNL     1       2.606  -4.816  14.791  1.00  0.00     0.074 A 
ATOM     63  C   UNL     1       1.756  -3.637  14.935  1.00  0.00     0.031 C 
ATOM     64  C   UNL     1       3.963  -4.956  14.704  1.00  0.00     0.034 A 
BRANCH  51  65
ATOM     65  C   UNL     1       3.979   0.434  14.576  1.00  0.00     0.023 A 
ATOM     66  C   UNL     1       4.423   0.475  15.916  1.00  0.00     0.012 A 
ATOM     67  C   UNL     1       2.752   1.084  14.294  1.00  0.00     0.148 A 
ATOM     68  C   UNL     1       3.638   1.025  16.932  1.00  0.00     0.002 A 
ATOM     69  C   UNL     1       2.005   1.686  15.297  1.00  0.00     0.091 A 
ATOM     70  F   UNL     1       2.216   1.043  13.076  1.00  0.00    -0.205 F 
ATOM     71  C   UNL     1       2.423   1.624  16.625  1.00  0.00     0.022 A 
BRANCH  69  72
ATOM     72  S   UNL     1       0.440   2.499  14.940  1.00  0.00     0.127 S 
ATOM     73  O   UNL     1      -0.515   1.540  15.487  1.00  0.00    -0.237 OA
ATOM     74  O   UNL     1       0.574   3.744  15.695  1.00  0.00    -0.237 OA
ATOM     75  O   UNL     1       0.404   2.681  13.494  1.00  0.00    -0.744 OA
ENDBRANCH  69  72
ENDBRANCH  51  65
BRANCH  52  76
ATOM     76  C   UNL     1      -1.535  -5.821  12.752  1.00  0.00     0.023 A 
ATOM     77  C   UNL     1      -2.112  -6.402  13.897  1.00  0.00     0.012 A 
ATOM     78  C   UNL     1      -2.396  -5.246  11.789  1.00  0.00     0.148 A 
ATOM     79  C   UNL     1      -3.499  -6.386  14.091  1.00  0.00     0.002 A 
ATOM     80  C   UNL     1      -3.774  -5.247  11.978  1.00  0.00     0.091 A 
ATOM     81  F   UNL     1      -1.863  -4.615  10.735  1.00  0.00    -0.205 F 
ATOM     82  C   UNL     1      -4.328  -5.806  13.136  1.00  0.00     0.022 A 
BRANCH  80  83
ATOM     83  S   UNL     1      -4.903  -4.506  10.791  1.00  0.00     0.127 S 
ATOM     84  O   UNL     1      -5.918  -5.551  10.644  1.00  0.00    -0.237 OA
ATOM     85  O   UNL     1      -5.352  -3.313  11.505  1.00  0.00    -0.237 OA
ATOM     86  O   UNL     1      -4.116  -4.265   9.588  1.00  0.00    -0.744 OA
ENDBRANCH  80  83
ENDBRANCH  52  76
BRANCH  64  87
ATOM     87  C   UNL     1       4.517  -6.326  14.402  1.00  0.00     0.023 A 
ATOM     88  C   UNL     1       4.264  -6.990  13.184  1.00  0.00     0.012 A 
ATOM     89  C   UNL     1       5.457  -6.872  15.292  1.00  0.00     0.148 A 
ATOM     90  C   UNL     1       4.919  -8.184  12.871  1.00  0.00     0.002 A 
ATOM     91  C   UNL     1       6.142  -8.034  14.956  1.00  0.00     0.091 A 
ATOM     92  F   UNL     1       5.689  -6.227  16.445  1.00  0.00    -0.205 F 
ATOM     93  C   UNL     1       5.869  -8.698  13.751  1.00  0.00     0.022 A 
BRANCH  91  94
ATOM     94  S   UNL     1       7.470  -8.666  15.985  1.00  0.00     0.127 S 
ATOM     95  O   UNL     1       6.827  -9.796  16.653  1.00  0.00    -0.237 OA
ATOM     96  O   UNL     1       8.486  -9.037  14.998  1.00  0.00    -0.237 OA
ATOM     97  O   UNL     1       7.863  -7.562  16.852  1.00  0.00    -0.744 OA
ENDBRANCH  91  94
ENDBRANCH  64  87
ENDBRANCH  38  39
ENDBRANCH  31  33
ENDBRANCH  30  31
ENDBRANCH  29  30
ENDBRANCH  28  29
ENDBRANCH  27  28
ENDBRANCH  26  27
ENDBRANCH  25  26
ENDBRANCH  24  25
ENDBRANCH   1  24
TORSDOF 27
