REMARK SMILES COC(=O)c1c(NC(=O)[C@@H]2C[C@@H]2C(=O)OCCOCCOCCOCCOC(=O)c2ccc(-c3c4nc(c(-c5cccc(S(=O)(=O)[O-])c5F)c5ccc([nH]5)c(-c5cccc(S(=O)(=O)[O-])c5F)c5nc(c(-c6cccc(S(=O)(=O)[O-])c6F)c6ccc3[nH]6)C=C5)C=C4)cc2)sc2c1CC[N@@H+](Cc1ccccc1)C2
REMARK SMILES IDX 20 1 19 2 18 3 17 4 16 5 15 6 13 7 14 8 12 9 10 10 11 11
REMARK SMILES IDX 8 12 7 13 9 15 6 16 5 17 95 18 93 19 94 20 96 21 106 22
REMARK SMILES IDX 97 23 98 24 3 26 4 27 2 28 1 29 99 30 100 31 101 32 105 33
REMARK SMILES IDX 102 34 104 35 103 36 21 37 22 38 23 39 24 40 25 41 26 42
REMARK SMILES IDX 27 43 28 44 29 45 30 46 31 47 92 48 32 49 91 50 33 51 34 52
REMARK SMILES IDX 35 53 85 54 36 55 90 56 84 57 86 58 37 59 89 60 83 61 82 62
REMARK SMILES IDX 38 64 70 65 50 66 69 67 51 68 54 69 68 70 87 71 52 72 53 73
REMARK SMILES IDX 67 75 88 76 55 77 39 78 40 79 48 80 41 81 43 82 49 83 42 84
REMARK SMILES IDX 44 85 45 86 46 87 47 88 71 89 72 90 80 91 73 92 75 93 81 94
REMARK SMILES IDX 74 95 76 96 77 97 78 98 79 99 56 100 57 101 65 102 58 103
REMARK SMILES IDX 60 104 66 105 59 106 61 107 62 108 63 109 64 110
REMARK H PARENT 7 14 98 25 86 63 54 74
REMARK Flexibility Score: inf
ROOT
ATOM      1  C   UNL     1      -4.040  -0.486   0.951  1.00  0.00     0.188 C 
ENDROOT
BRANCH   1   2
ATOM      2  C   UNL     1      -4.451  -0.651  -0.527  1.00  0.00     0.188 C 
BRANCH   2   3
ATOM      3  O   UNL     1      -4.953  -1.955  -0.804  1.00  0.00    -0.376 OA
BRANCH   3   4
ATOM      4  C   UNL     1      -4.145  -2.764  -1.639  1.00  0.00     0.202 C 
BRANCH   4   5
ATOM      5  C   UNL     1      -2.859  -3.236  -0.961  1.00  0.00     0.261 C 
BRANCH   5   6
ATOM      6  O   UNL     1      -1.988  -2.186  -0.497  1.00  0.00    -0.463 OA
BRANCH   6   7
ATOM      7  C   UNL     1      -1.491  -1.306  -1.400  1.00  0.00     0.309 C 
ATOM      8  O   UNL     1      -1.657  -1.338  -2.609  1.00  0.00    -0.252 OA
BRANCH   7   9
ATOM      9  C   UNL     1      -0.556  -0.382  -0.744  1.00  0.00     0.112 C 
ATOM     10  C   UNL     1      -0.850   0.861   0.068  1.00  0.00     0.094 C 
ATOM     11  C   UNL     1      -0.175   0.937  -1.303  1.00  0.00     0.030 C 
BRANCH  10  12
ATOM     12  C   UNL     1      -1.906   1.878   0.194  1.00  0.00     0.229 C 
ATOM     13  N   UNL     1      -1.830   2.863   1.153  1.00  0.00    -0.317 N 
ATOM     14  H   UNL     1      -2.671   3.367   1.247  1.00  0.00     0.170 HD
ATOM     15  O   UNL     1      -2.842   1.895  -0.602  1.00  0.00    -0.274 OA
BRANCH  13  16
ATOM     16  C   UNL     1      -0.841   3.306   2.015  1.00  0.00     0.110 A 
ATOM     17  C   UNL     1       0.418   2.966   2.494  1.00  0.00     0.098 A 
ATOM     18  C   UNL     1       1.002   4.062   3.239  1.00  0.00    -0.006 A 
ATOM     19  S   UNL     1      -1.366   4.815   2.687  1.00  0.00    -0.116 S 
ATOM     20  C   UNL     1       0.170   5.154   3.307  1.00  0.00     0.065 A 
ATOM     21  C   UNL     1       2.419   4.141   3.739  1.00  0.00     0.099 C 
ATOM     22  C   UNL     1       0.597   6.505   3.798  1.00  0.00     0.310 C 
ATOM     23  C   UNL     1       2.810   5.566   4.206  1.00  0.00     0.267 C 
ATOM     24  N   UNL     1       2.055   6.696   3.634  1.00  0.00    -0.326 N 
ATOM     25  H   UNL     1       2.301   7.509   4.199  1.00  0.00     0.348 HD
BRANCH  17  26
ATOM     26  C   UNL     1       1.179   1.742   2.315  1.00  0.00     0.341 C 
ATOM     27  O   UNL     1       1.330   0.921   3.196  1.00  0.00    -0.246 OA
BRANCH  26  28
ATOM     28  O   UNL     1       1.770   1.668   1.083  1.00  0.00    -0.465 OA
ATOM     29  C   UNL     1       2.524   0.474   0.864  1.00  0.00     0.282 C 
ENDBRANCH  26  28
ENDBRANCH  17  26
BRANCH  24  30
ATOM     30  C   UNL     1       2.495   7.161   2.309  1.00  0.00     0.299 C 
BRANCH  30  31
ATOM     31  C   UNL     1       2.329   6.236   1.120  1.00  0.00     0.006 A 
ATOM     32  C   UNL     1       3.376   5.402   0.702  1.00  0.00     0.009 A 
ATOM     33  C   UNL     1       1.108   6.168   0.432  1.00  0.00     0.009 A 
ATOM     34  C   UNL     1       3.179   4.471  -0.321  1.00  0.00     0.001 A 
ATOM     35  C   UNL     1       0.904   5.223  -0.576  1.00  0.00     0.001 A 
ATOM     36  C   UNL     1       1.938   4.369  -0.945  1.00  0.00     0.000 A 
ENDBRANCH  30  31
ENDBRANCH  24  30
ENDBRANCH  13  16
ENDBRANCH  10  12
ENDBRANCH   7   9
ENDBRANCH   6   7
ENDBRANCH   5   6
ENDBRANCH   4   5
ENDBRANCH   3   4
ENDBRANCH   2   3
ENDBRANCH   1   2
BRANCH   1  37
ATOM     37  O   UNL     1      -5.007  -0.677   1.968  1.00  0.00    -0.377 OA
BRANCH  37  38
ATOM     38  C   UNL     1      -5.968  -1.673   1.730  1.00  0.00     0.188 C 
BRANCH  38  39
ATOM     39  C   UNL     1      -7.228  -1.171   0.997  1.00  0.00     0.188 C 
BRANCH  39  40
ATOM     40  O   UNL     1      -7.285   0.028   0.234  1.00  0.00    -0.376 OA
BRANCH  40  41
ATOM     41  C   UNL     1      -6.883   1.345   0.590  1.00  0.00     0.202 C 
BRANCH  41  42
ATOM     42  C   UNL     1      -6.789   1.956   1.981  1.00  0.00     0.261 C 
BRANCH  42  43
ATOM     43  O   UNL     1      -6.646   1.032   3.016  1.00  0.00    -0.460 OA
BRANCH  43  44
ATOM     44  C   UNL     1      -7.818   0.488   3.372  1.00  0.00     0.338 C 
ATOM     45  O   UNL     1      -8.909   0.663   2.856  1.00  0.00    -0.246 OA
BRANCH  44  46
ATOM     46  C   UNL     1      -7.593  -0.284   4.588  1.00  0.00     0.060 A 
ATOM     47  C   UNL     1      -8.716  -0.965   5.048  1.00  0.00     0.016 A 
ATOM     48  C   UNL     1      -6.522   0.098   5.412  1.00  0.00     0.016 A 
ATOM     49  C   UNL     1      -8.932  -0.945   6.395  1.00  0.00     0.010 A 
ATOM     50  C   UNL     1      -6.755   0.145   6.755  1.00  0.00     0.010 A 
ATOM     51  C   UNL     1      -8.001  -0.281   7.201  1.00  0.00    -0.014 A 
BRANCH  51  52
ATOM     52  C   UNL     1      -8.350  -0.119   8.584  1.00  0.00     0.031 A 
ATOM     53  C   UNL     1      -8.175  -1.374   9.331  1.00  0.00     0.074 A 
ATOM     54  C   UNL     1      -8.725   1.066   9.089  1.00  0.00     0.049 A 
ATOM     55  N   UNL     1      -9.096  -2.139   9.812  1.00  0.00    -0.248 NA
ATOM     56  C   UNL     1      -6.828  -1.965   9.325  1.00  0.00     0.031 C 
ATOM     57  C   UNL     1      -8.608   2.390   8.473  1.00  0.00     0.029 A 
ATOM     58  N   UNL     1      -9.150   1.341  10.347  1.00  0.00    -0.354 N 
ATOM     59  C   UNL     1      -8.400  -3.189  10.401  1.00  0.00     0.074 A 
ATOM     60  C   UNL     1      -7.079  -3.166   9.841  1.00  0.00     0.031 C 
ATOM     61  C   UNL     1      -8.695   3.328   9.444  1.00  0.00     0.029 A 
ATOM     62  C   UNL     1      -8.989   2.671  10.707  1.00  0.00     0.049 A 
ATOM     63  H   UNL     1      -9.535   0.662  10.947  1.00  0.00     0.167 HD
ATOM     64  C   UNL     1      -8.863  -3.767  11.539  1.00  0.00     0.034 A 
ATOM     65  C   UNL     1      -8.982   3.145  11.976  1.00  0.00     0.034 A 
ATOM     66  C   UNL     1     -10.277  -3.519  11.707  1.00  0.00     0.049 A 
ATOM     67  C   UNL     1      -9.578   2.099  12.846  1.00  0.00     0.074 A 
ATOM     68  C   UNL     1     -11.401  -3.740  10.934  1.00  0.00     0.029 A 
ATOM     69  N   UNL     1     -10.646  -2.595  12.655  1.00  0.00    -0.354 N 
ATOM     70  N   UNL     1     -10.837   1.761  12.828  1.00  0.00    -0.248 NA
ATOM     71  C   UNL     1      -8.681   1.130  13.458  1.00  0.00     0.031 C 
ATOM     72  C   UNL     1     -12.248  -2.620  11.176  1.00  0.00     0.029 A 
ATOM     73  C   UNL     1     -11.622  -1.801  12.117  1.00  0.00     0.049 A 
ATOM     74  H   UNL     1     -10.272  -2.517  13.563  1.00  0.00     0.167 HD
ATOM     75  C   UNL     1     -10.832   0.383  13.010  1.00  0.00     0.074 A 
ATOM     76  C   UNL     1      -9.495   0.072  13.509  1.00  0.00     0.031 C 
ATOM     77  C   UNL     1     -11.803  -0.407  12.462  1.00  0.00     0.034 A 
BRANCH  64  78
ATOM     78  C   UNL     1      -7.970  -4.162  12.700  1.00  0.00     0.023 A 
ATOM     79  C   UNL     1      -8.610  -4.752  13.811  1.00  0.00     0.012 A 
ATOM     80  C   UNL     1      -6.629  -3.742  12.892  1.00  0.00     0.148 A 
ATOM     81  C   UNL     1      -7.994  -4.819  15.065  1.00  0.00     0.002 A 
ATOM     82  C   UNL     1      -5.995  -3.878  14.120  1.00  0.00     0.091 A 
ATOM     83  F   UNL     1      -5.969  -3.092  11.936  1.00  0.00    -0.205 F 
ATOM     84  C   UNL     1      -6.686  -4.379  15.221  1.00  0.00     0.022 A 
BRANCH  82  85
ATOM     85  S   UNL     1      -4.287  -3.363  14.355  1.00  0.00     0.127 S 
ATOM     86  O   UNL     1      -4.457  -2.137  15.129  1.00  0.00    -0.237 OA
ATOM     87  O   UNL     1      -3.735  -4.496  15.098  1.00  0.00    -0.237 OA
ATOM     88  O   UNL     1      -3.731  -3.204  13.017  1.00  0.00    -0.744 OA
ENDBRANCH  82  85
ENDBRANCH  64  78
BRANCH  65  89
ATOM     89  C   UNL     1      -8.263   4.304  12.552  1.00  0.00     0.023 A 
ATOM     90  C   UNL     1      -8.693   4.821  13.790  1.00  0.00     0.012 A 
ATOM     91  C   UNL     1      -7.012   4.727  12.050  1.00  0.00     0.148 A 
ATOM     92  C   UNL     1      -7.887   5.696  14.525  1.00  0.00     0.002 A 
ATOM     93  C   UNL     1      -6.220   5.610  12.778  1.00  0.00     0.091 A 
ATOM     94  F   UNL     1      -6.553   4.192  10.911  1.00  0.00    -0.205 F 
ATOM     95  C   UNL     1      -6.649   6.085  14.024  1.00  0.00     0.022 A 
BRANCH  93  96
ATOM     96  S   UNL     1      -4.605   6.147  12.197  1.00  0.00     0.127 S 
ATOM     97  O   UNL     1      -4.639   7.583  12.481  1.00  0.00    -0.237 OA
ATOM     98  O   UNL     1      -3.704   5.377  13.048  1.00  0.00    -0.237 OA
ATOM     99  O   UNL     1      -4.570   5.825  10.775  1.00  0.00    -0.744 OA
ENDBRANCH  93  96
ENDBRANCH  65  89
BRANCH  77 100
ATOM    100  C   UNL     1     -13.050   0.255  11.932  1.00  0.00     0.023 A 
ATOM    101  C   UNL     1     -13.021   1.204  10.890  1.00  0.00     0.012 A 
ATOM    102  C   UNL     1     -14.295  -0.212  12.388  1.00  0.00     0.148 A 
ATOM    103  C   UNL     1     -14.207   1.698  10.338  1.00  0.00     0.002 A 
ATOM    104  C   UNL     1     -15.470   0.243  11.803  1.00  0.00     0.091 A 
ATOM    105  F   UNL     1     -14.312  -1.114  13.383  1.00  0.00    -0.205 F 
ATOM    106  C   UNL     1     -15.431   1.206  10.785  1.00  0.00     0.022 A 
BRANCH 104 107
ATOM    107  S   UNL     1     -17.057  -0.462  12.255  1.00  0.00     0.127 S 
ATOM    108  O   UNL     1     -17.554   0.500  13.235  1.00  0.00    -0.237 OA
ATOM    109  O   UNL     1     -17.782  -0.466  10.982  1.00  0.00    -0.237 OA
ATOM    110  O   UNL     1     -16.761  -1.795  12.767  1.00  0.00    -0.744 OA
ENDBRANCH 104 107
ENDBRANCH  77 100
ENDBRANCH  51  52
ENDBRANCH  44  46
ENDBRANCH  43  44
ENDBRANCH  42  43
ENDBRANCH  41  42
ENDBRANCH  40  41
ENDBRANCH  39  40
ENDBRANCH  38  39
ENDBRANCH  37  38
ENDBRANCH   1  37
TORSDOF 29
