REMARK SMILES C[C@@H](C(=O)OCCOCCOCCOCCOC(=O)c1ccc(-c2c3nc(c(-c4cccc(S(=O)(=O)[O-])c4F)c4ccc([nH]4)c(-c4cccc(S(=O)(=O)[O-])c4F)c4nc(c(-c5cccc(S(=O)(=O)[O-])c5F)c5ccc2[nH]5)C=C4)C=C3)cc1)c1ccc(-c2ccccc2)c(F)c1
REMARK SMILES IDX 12 1 11 2 10 3 9 4 8 5 7 6 6 7 5 8 3 9 4 10 2 11 1 12 83 13
REMARK SMILES IDX 84 14 95 15 85 16 93 17 86 18 94 19 87 20 88 21 92 22 89 23
REMARK SMILES IDX 91 24 90 25 13 26 14 27 15 28 16 29 17 30 18 31 19 32 20 33
REMARK SMILES IDX 21 34 82 35 22 36 81 37 23 38 24 39 25 40 75 41 26 42 80 43
REMARK SMILES IDX 74 44 76 45 27 46 79 47 73 48 72 49 28 51 60 52 40 53 59 54
REMARK SMILES IDX 41 55 44 56 58 57 77 58 42 59 43 60 57 62 78 63 45 64 29 65
REMARK SMILES IDX 30 66 38 67 31 68 33 69 39 70 32 71 34 72 35 73 36 74 37 75
REMARK SMILES IDX 61 76 62 77 70 78 63 79 65 80 71 81 64 82 66 83 67 84 68 85
REMARK SMILES IDX 69 86 46 87 47 88 55 89 48 90 50 91 56 92 49 93 51 94 52 95
REMARK SMILES IDX 53 96 54 97
REMARK H PARENT 76 50 44 61
REMARK Flexibility Score: inf
ROOT
ATOM      1  C   UNL     1       2.886  -1.230   3.624  1.00  0.00     0.188 C 
ENDROOT
BRANCH   1   2
ATOM      2  O   UNL     1       2.224  -1.187   2.366  1.00  0.00    -0.377 OA
BRANCH   2   3
ATOM      3  C   UNL     1       0.812  -1.170   2.342  1.00  0.00     0.188 C 
BRANCH   3   4
ATOM      4  C   UNL     1       0.140  -2.550   2.401  1.00  0.00     0.188 C 
BRANCH   4   5
ATOM      5  O   UNL     1       0.850  -3.620   2.992  1.00  0.00    -0.376 OA
BRANCH   5   6
ATOM      6  C   UNL     1       1.992  -4.187   2.362  1.00  0.00     0.202 C 
BRANCH   6   7
ATOM      7  C   UNL     1       2.473  -3.896   0.923  1.00  0.00     0.261 C 
BRANCH   7   8
ATOM      8  O   UNL     1       1.916  -2.748   0.279  1.00  0.00    -0.463 OA
BRANCH   8   9
ATOM      9  C   UNL     1       1.236  -2.934  -0.875  1.00  0.00     0.313 C 
ATOM     10  O   UNL     1       1.080  -4.024  -1.418  1.00  0.00    -0.252 OA
BRANCH   9  11
ATOM     11  C   UNL     1       0.562  -1.647  -1.377  1.00  0.00     0.126 C 
ATOM     12  C   UNL     1       1.445  -0.402  -1.166  1.00  0.00     0.025 C 
BRANCH  11  13
ATOM     13  C   UNL     1      -0.913  -1.524  -0.957  1.00  0.00    -0.031 A 
ATOM     14  C   UNL     1      -1.548  -0.289  -0.746  1.00  0.00     0.005 A 
ATOM     15  C   UNL     1      -1.717  -2.674  -0.851  1.00  0.00     0.044 A 
ATOM     16  C   UNL     1      -2.925  -0.211  -0.461  1.00  0.00     0.012 A 
ATOM     17  C   UNL     1      -3.080  -2.592  -0.554  1.00  0.00     0.131 A 
ATOM     18  C   UNL     1      -3.723  -1.364  -0.383  1.00  0.00     0.017 A 
ATOM     19  F   UNL     1      -3.777  -3.737  -0.482  1.00  0.00    -0.206 F 
BRANCH  18  20
ATOM     20  C   UNL     1      -5.184  -1.283  -0.218  1.00  0.00    -0.015 A 
ATOM     21  C   UNL     1      -5.963  -0.571  -1.148  1.00  0.00     0.009 A 
ATOM     22  C   UNL     1      -5.853  -1.953   0.820  1.00  0.00     0.009 A 
ATOM     23  C   UNL     1      -7.356  -0.538  -1.052  1.00  0.00     0.001 A 
ATOM     24  C   UNL     1      -7.248  -1.917   0.920  1.00  0.00     0.001 A 
ATOM     25  C   UNL     1      -7.999  -1.212  -0.018  1.00  0.00     0.000 A 
ENDBRANCH  18  20
ENDBRANCH  11  13
ENDBRANCH   9  11
ENDBRANCH   8   9
ENDBRANCH   7   8
ENDBRANCH   6   7
ENDBRANCH   5   6
ENDBRANCH   4   5
ENDBRANCH   3   4
ENDBRANCH   2   3
ENDBRANCH   1   2
BRANCH   1  26
ATOM     26  C   UNL     1       2.127  -1.642   4.903  1.00  0.00     0.188 C 
BRANCH  26  27
ATOM     27  O   UNL     1       0.804  -1.137   5.011  1.00  0.00    -0.376 OA
BRANCH  27  28
ATOM     28  C   UNL     1       0.587   0.046   5.766  1.00  0.00     0.202 C 
BRANCH  28  29
ATOM     29  C   UNL     1       1.245   1.342   5.267  1.00  0.00     0.261 C 
BRANCH  29  30
ATOM     30  O   UNL     1       2.679   1.341   5.192  1.00  0.00    -0.460 OA
BRANCH  30  31
ATOM     31  C   UNL     1       3.371   1.068   6.317  1.00  0.00     0.338 C 
ATOM     32  O   UNL     1       2.914   0.881   7.434  1.00  0.00    -0.246 OA
BRANCH  31  33
ATOM     33  C   UNL     1       4.777   0.826   5.935  1.00  0.00     0.060 A 
ATOM     34  C   UNL     1       5.353  -0.419   6.222  1.00  0.00     0.016 A 
ATOM     35  C   UNL     1       5.521   1.819   5.293  1.00  0.00     0.016 A 
ATOM     36  C   UNL     1       6.690  -0.659   5.909  1.00  0.00     0.010 A 
ATOM     37  C   UNL     1       6.867   1.583   4.999  1.00  0.00     0.010 A 
ATOM     38  C   UNL     1       7.467   0.358   5.342  1.00  0.00    -0.014 A 
BRANCH  38  39
ATOM     39  C   UNL     1       8.943   0.216   5.298  1.00  0.00     0.031 A 
ATOM     40  C   UNL     1       9.756   0.890   6.370  1.00  0.00     0.074 A 
ATOM     41  C   UNL     1       9.553  -0.496   4.334  1.00  0.00     0.049 A 
ATOM     42  N   UNL     1      11.053   0.950   6.514  1.00  0.00    -0.248 NA
ATOM     43  C   UNL     1       9.000   1.593   7.421  1.00  0.00     0.031 C 
ATOM     44  C   UNL     1       8.877  -1.205   3.250  1.00  0.00     0.029 A 
ATOM     45  N   UNL     1      10.888  -0.712   4.100  1.00  0.00    -0.354 N 
ATOM     46  C   UNL     1      11.271   1.721   7.650  1.00  0.00     0.074 A 
ATOM     47  C   UNL     1       9.973   2.119   8.149  1.00  0.00     0.031 C 
ATOM     48  C   UNL     1       9.805  -1.751   2.444  1.00  0.00     0.029 A 
ATOM     49  C   UNL     1      11.137  -1.404   2.939  1.00  0.00     0.049 A 
ATOM     50  H   UNL     1      11.600  -0.402   4.706  1.00  0.00     0.167 HD
ATOM     51  C   UNL     1      12.444   2.059   8.234  1.00  0.00     0.034 A 
ATOM     52  C   UNL     1      12.304  -1.694   2.329  1.00  0.00     0.034 A 
ATOM     53  C   UNL     1      13.733   1.659   7.740  1.00  0.00     0.049 A 
ATOM     54  C   UNL     1      13.600  -1.272   2.976  1.00  0.00     0.074 A 
ATOM     55  C   UNL     1      14.980   1.919   8.280  1.00  0.00     0.029 A 
ATOM     56  N   UNL     1      13.944   0.930   6.580  1.00  0.00    -0.354 N 
ATOM     57  N   UNL     1      13.791  -0.631   4.104  1.00  0.00    -0.248 NA
ATOM     58  C   UNL     1      14.842  -1.643   2.281  1.00  0.00     0.031 C 
ATOM     59  C   UNL     1      15.947   1.383   7.424  1.00  0.00     0.029 A 
ATOM     60  C   UNL     1      15.301   0.745   6.377  1.00  0.00     0.049 A 
ATOM     61  H   UNL     1      13.234   0.594   5.987  1.00  0.00     0.167 HD
ATOM     62  C   UNL     1      15.171  -0.556   4.273  1.00  0.00     0.074 A 
ATOM     63  C   UNL     1      15.766  -1.233   3.140  1.00  0.00     0.031 C 
ATOM     64  C   UNL     1      15.881   0.028   5.270  1.00  0.00     0.034 A 
BRANCH  51  65
ATOM     65  C   UNL     1      12.385   2.903   9.481  1.00  0.00     0.023 A 
ATOM     66  C   UNL     1      11.903   2.347  10.684  1.00  0.00     0.012 A 
ATOM     67  C   UNL     1      12.844   4.234   9.470  1.00  0.00     0.148 A 
ATOM     68  C   UNL     1      11.844   3.114  11.847  1.00  0.00     0.002 A 
ATOM     69  C   UNL     1      12.829   4.977  10.645  1.00  0.00     0.091 A 
ATOM     70  F   UNL     1      13.277   4.752   8.312  1.00  0.00    -0.205 F 
ATOM     71  C   UNL     1      12.317   4.423  11.829  1.00  0.00     0.022 A 
BRANCH  69  72
ATOM     72  S   UNL     1      13.489   6.644  10.745  1.00  0.00     0.127 S 
ATOM     73  O   UNL     1      12.273   7.430  10.954  1.00  0.00    -0.237 OA
ATOM     74  O   UNL     1      14.365   6.555  11.914  1.00  0.00    -0.237 OA
ATOM     75  O   UNL     1      14.177   6.883   9.485  1.00  0.00    -0.744 OA
ENDBRANCH  69  72
ENDBRANCH  51  65
BRANCH  52  76
ATOM     76  C   UNL     1      12.306  -2.433   1.034  1.00  0.00     0.023 A 
ATOM     77  C   UNL     1      12.817  -3.744   0.975  1.00  0.00     0.012 A 
ATOM     78  C   UNL     1      11.799  -1.840  -0.139  1.00  0.00     0.148 A 
ATOM     79  C   UNL     1      12.852  -4.439  -0.235  1.00  0.00     0.002 A 
ATOM     80  C   UNL     1      11.783  -2.558  -1.327  1.00  0.00     0.091 A 
ATOM     81  F   UNL     1      11.333  -0.585  -0.064  1.00  0.00    -0.205 F 
ATOM     82  C   UNL     1      12.326  -3.851  -1.383  1.00  0.00     0.022 A 
BRANCH  80  83
ATOM     83  S   UNL     1      11.014  -1.931  -2.824  1.00  0.00     0.127 S 
ATOM     84  O   UNL     1      12.166  -1.763  -3.705  1.00  0.00    -0.237 OA
ATOM     85  O   UNL     1      10.118  -3.032  -3.182  1.00  0.00    -0.237 OA
ATOM     86  O   UNL     1      10.334  -0.704  -2.435  1.00  0.00    -0.744 OA
ENDBRANCH  80  83
ENDBRANCH  52  76
BRANCH  64  87
ATOM     87  C   UNL     1      17.385  -0.079   5.222  1.00  0.00     0.023 A 
ATOM     88  C   UNL     1      18.117   0.646   4.262  1.00  0.00     0.012 A 
ATOM     89  C   UNL     1      18.076  -0.845   6.183  1.00  0.00     0.148 A 
ATOM     90  C   UNL     1      19.511   0.583   4.237  1.00  0.00     0.002 A 
ATOM     91  C   UNL     1      19.465  -0.860   6.186  1.00  0.00     0.091 A 
ATOM     92  F   UNL     1      17.361  -1.540   7.080  1.00  0.00    -0.205 F 
ATOM     93  C   UNL     1      20.184  -0.160   5.205  1.00  0.00     0.022 A 
BRANCH  91  94
ATOM     94  S   UNL     1      20.419  -1.706   7.452  1.00  0.00     0.127 S 
ATOM     95  O   UNL     1      21.002  -2.812   6.696  1.00  0.00    -0.237 OA
ATOM     96  O   UNL     1      21.373  -0.674   7.859  1.00  0.00    -0.237 OA
ATOM     97  O   UNL     1      19.466  -2.091   8.485  1.00  0.00    -0.744 OA
ENDBRANCH  91  94
ENDBRANCH  64  87
ENDBRANCH  38  39
ENDBRANCH  31  33
ENDBRANCH  30  31
ENDBRANCH  29  30
ENDBRANCH  28  29
ENDBRANCH  27  28
ENDBRANCH  26  27
ENDBRANCH   1  26
TORSDOF 25
