REMARK SMILES CC(=O)Nc1ccc(/C(=C\c2ccc(S(C)(=O)=O)cc2)C(=O)OCCOCCOCCOCCOC(=O)c2ccc(-c3c4nc(c(-c5cccc(S(=O)(=O)[O-])c5F)c5ccc([nH]5)c(-c5cccc(S(=O)(=O)[O-])c5F)c5nc(c(-c6cccc(S(=O)(=O)[O-])c6F)c6ccc3[nH]6)C=C5)C=C4)cc2)cc1
REMARK SMILES IDX 30 1 29 2 28 3 27 4 26 5 25 6 24 7 23 8 21 9 22 10 9 11
REMARK SMILES IDX 10 12 8 13 5 14 6 15 102 16 7 17 101 18 4 19 1 20 2 21 3 22
REMARK SMILES IDX 11 24 12 25 20 26 13 27 19 28 14 29 15 30 16 31 17 32 18 33
REMARK SMILES IDX 31 34 32 35 33 36 34 37 35 38 36 39 37 40 38 41 39 42 100 43
REMARK SMILES IDX 40 44 99 45 41 46 42 47 43 48 93 49 44 50 98 51 92 52 94 53
REMARK SMILES IDX 45 54 97 55 91 56 90 57 46 59 78 60 58 61 77 62 59 63 62 64
REMARK SMILES IDX 76 65 95 66 60 67 61 68 75 70 96 71 63 72 47 73 48 74 56 75
REMARK SMILES IDX 49 76 51 77 57 78 50 79 52 80 53 81 54 82 55 83 79 84 80 85
REMARK SMILES IDX 88 86 81 87 83 88 89 89 82 90 84 91 85 92 86 93 87 94 64 95
REMARK SMILES IDX 65 96 73 97 66 98 68 99 74 100 67 101 69 102 70 103 71 104
REMARK SMILES IDX 72 105
REMARK H PARENT 4 23 94 58 62 69
REMARK Flexibility Score: inf
ROOT
ATOM      1  C   UNL     1       5.439   4.377  -5.636  1.00  0.00     0.188 C 
ENDROOT
BRANCH   1   2
ATOM      2  O   UNL     1       4.529   3.304  -5.844  1.00  0.00    -0.377 OA
BRANCH   2   3
ATOM      3  C   UNL     1       4.160   2.481  -4.751  1.00  0.00     0.188 C 
BRANCH   3   4
ATOM      4  C   UNL     1       5.185   2.146  -3.649  1.00  0.00     0.188 C 
BRANCH   4   5
ATOM      5  O   UNL     1       6.474   2.714  -3.812  1.00  0.00    -0.376 OA
BRANCH   5   6
ATOM      6  C   UNL     1       7.545   1.827  -4.089  1.00  0.00     0.202 C 
BRANCH   6   7
ATOM      7  C   UNL     1       7.489   1.084  -5.430  1.00  0.00     0.261 C 
BRANCH   7   8
ATOM      8  O   UNL     1       6.243   0.426  -5.700  1.00  0.00    -0.460 OA
BRANCH   8   9
ATOM      9  C   UNL     1       5.971  -0.736  -5.054  1.00  0.00     0.338 C 
ATOM     10  O   UNL     1       6.713  -1.293  -4.261  1.00  0.00    -0.246 OA
BRANCH   9  11
ATOM     11  C   UNL     1       4.538  -1.141  -5.316  1.00  0.00     0.067 C 
ATOM     12  C   UNL     1       4.116  -0.920  -6.589  1.00  0.00     0.024 C 
BRANCH  11  13
ATOM     13  C   UNL     1       3.683  -1.625  -4.177  1.00  0.00    -0.011 A 
ATOM     14  C   UNL     1       1.790  -2.050  -2.081  1.00  0.00     0.041 A 
ATOM     15  C   UNL     1       1.661  -2.700  -3.308  1.00  0.00     0.027 A 
ATOM     16  C   UNL     1       2.942  -1.314  -1.853  1.00  0.00     0.027 A 
ATOM     17  C   UNL     1       2.604  -2.501  -4.332  1.00  0.00     0.011 A 
ATOM     18  C   UNL     1       3.882  -1.131  -2.878  1.00  0.00     0.011 A 
BRANCH  14  19
ATOM     19  N   UNL     1       0.779  -2.248  -1.127  1.00  0.00    -0.326 N 
ATOM     20  C   UNL     1       0.911  -0.129   0.189  1.00  0.00     0.114 C 
ATOM     21  C   UNL     1       0.415  -1.535  -0.020  1.00  0.00     0.221 C 
ATOM     22  O   UNL     1      -0.386  -2.037   0.773  1.00  0.00    -0.275 OA
ATOM     23  H   UNL     1       0.230  -3.050  -1.286  1.00  0.00     0.169 HD
ENDBRANCH  14  19
ENDBRANCH  11  13
BRANCH  12  24
ATOM     24  C   UNL     1       2.816  -1.268  -7.176  1.00  0.00    -0.025 A 
ATOM     25  C   UNL     1       2.817  -2.306  -8.117  1.00  0.00     0.009 A 
ATOM     26  C   UNL     1       1.599  -0.742  -6.722  1.00  0.00     0.009 A 
ATOM     27  C   UNL     1       1.627  -2.935  -8.467  1.00  0.00     0.021 A 
ATOM     28  C   UNL     1       0.399  -1.375  -7.064  1.00  0.00     0.021 A 
ATOM     29  C   UNL     1       0.430  -2.500  -7.893  1.00  0.00     0.067 A 
BRANCH  29  30
ATOM     30  S   UNL     1      -1.004  -3.535  -8.059  1.00  0.00     0.175 S 
ATOM     31  C   UNL     1      -1.508  -3.333  -9.742  1.00  0.00     0.163 C 
ATOM     32  O   UNL     1      -0.554  -4.904  -7.880  1.00  0.00    -0.224 OA
ATOM     33  O   UNL     1      -2.046  -2.992  -7.207  1.00  0.00    -0.224 OA
ENDBRANCH  29  30
ENDBRANCH  12  24
ENDBRANCH   9  11
ENDBRANCH   8   9
ENDBRANCH   7   8
ENDBRANCH   6   7
ENDBRANCH   5   6
ENDBRANCH   4   5
ENDBRANCH   3   4
ENDBRANCH   2   3
ENDBRANCH   1   2
BRANCH   1  34
ATOM     34  C   UNL     1       5.367   5.202  -4.329  1.00  0.00     0.188 C 
BRANCH  34  35
ATOM     35  O   UNL     1       4.329   4.815  -3.439  1.00  0.00    -0.376 OA
BRANCH  35  36
ATOM     36  C   UNL     1       3.199   5.664  -3.348  1.00  0.00     0.202 C 
BRANCH  36  37
ATOM     37  C   UNL     1       2.351   5.848  -4.614  1.00  0.00     0.261 C 
BRANCH  37  38
ATOM     38  O   UNL     1       3.049   6.279  -5.790  1.00  0.00    -0.460 OA
BRANCH  38  39
ATOM     39  C   UNL     1       3.635   7.495  -5.769  1.00  0.00     0.338 C 
ATOM     40  O   UNL     1       3.646   8.293  -4.847  1.00  0.00    -0.246 OA
BRANCH  39  41
ATOM     41  C   UNL     1       4.440   7.604  -7.003  1.00  0.00     0.060 A 
ATOM     42  C   UNL     1       5.831   7.764  -6.915  1.00  0.00     0.016 A 
ATOM     43  C   UNL     1       3.815   7.496  -8.247  1.00  0.00     0.016 A 
ATOM     44  C   UNL     1       6.600   7.834  -8.077  1.00  0.00     0.010 A 
ATOM     45  C   UNL     1       4.582   7.593  -9.407  1.00  0.00     0.010 A 
ATOM     46  C   UNL     1       5.972   7.792  -9.328  1.00  0.00    -0.014 A 
BRANCH  46  47
ATOM     47  C   UNL     1       6.711   8.166 -10.556  1.00  0.00     0.031 A 
ATOM     48  C   UNL     1       6.562   9.575 -11.057  1.00  0.00     0.074 A 
ATOM     49  C   UNL     1       7.447   7.272 -11.238  1.00  0.00     0.049 A 
ATOM     50  N   UNL     1       6.994  10.112 -12.166  1.00  0.00    -0.248 NA
ATOM     51  C   UNL     1       5.811  10.501 -10.191  1.00  0.00     0.031 C 
ATOM     52  C   UNL     1       7.676   5.885 -10.842  1.00  0.00     0.029 A 
ATOM     53  N   UNL     1       8.105   7.396 -12.437  1.00  0.00    -0.354 N 
ATOM     54  C   UNL     1       6.536  11.424 -12.151  1.00  0.00     0.074 A 
ATOM     55  C   UNL     1       5.788  11.602 -10.927  1.00  0.00     0.031 C 
ATOM     56  C   UNL     1       8.392   5.272 -11.803  1.00  0.00     0.029 A 
ATOM     57  C   UNL     1       8.637   6.214 -12.895  1.00  0.00     0.049 A 
ATOM     58  H   UNL     1       8.189   8.249 -12.921  1.00  0.00     0.167 HD
ATOM     59  C   UNL     1       6.726  12.396 -13.072  1.00  0.00     0.034 A 
ATOM     60  C   UNL     1       9.219   5.921 -14.076  1.00  0.00     0.034 A 
ATOM     61  C   UNL     1       7.476  12.215 -14.284  1.00  0.00     0.049 A 
ATOM     62  C   UNL     1       9.383   7.011 -15.107  1.00  0.00     0.074 A 
ATOM     63  C   UNL     1       7.763  13.148 -15.263  1.00  0.00     0.029 A 
ATOM     64  N   UNL     1       8.039  11.017 -14.692  1.00  0.00    -0.354 N 
ATOM     65  N   UNL     1       9.038   8.275 -15.036  1.00  0.00    -0.248 NA
ATOM     66  C   UNL     1      10.038   6.642 -16.371  1.00  0.00     0.031 C 
ATOM     67  C   UNL     1       8.469  12.504 -16.283  1.00  0.00     0.029 A 
ATOM     68  C   UNL     1       8.661  11.181 -15.916  1.00  0.00     0.049 A 
ATOM     69  H   UNL     1       8.003  10.173 -14.185  1.00  0.00     0.167 HD
ATOM     70  C   UNL     1       9.474   8.859 -16.222  1.00  0.00     0.074 A 
ATOM     71  C   UNL     1      10.116   7.813 -16.990  1.00  0.00     0.031 C 
ATOM     72  C   UNL     1       9.349  10.143 -16.640  1.00  0.00     0.034 A 
BRANCH  59  73
ATOM     73  C   UNL     1       6.116  13.744 -12.799  1.00  0.00     0.023 A 
ATOM     74  C   UNL     1       6.649  14.564 -11.784  1.00  0.00     0.012 A 
ATOM     75  C   UNL     1       5.042  14.216 -13.577  1.00  0.00     0.148 A 
ATOM     76  C   UNL     1       6.100  15.819 -11.524  1.00  0.00     0.002 A 
ATOM     77  C   UNL     1       4.531  15.487 -13.345  1.00  0.00     0.091 A 
ATOM     78  F   UNL     1       4.533  13.411 -14.521  1.00  0.00    -0.205 F 
ATOM     79  C   UNL     1       5.050  16.284 -12.311  1.00  0.00     0.022 A 
BRANCH  77  80
ATOM     80  S   UNL     1       3.234  16.208 -14.355  1.00  0.00     0.127 S 
ATOM     81  O   UNL     1       2.113  16.241 -13.416  1.00  0.00    -0.237 OA
ATOM     82  O   UNL     1       3.793  17.520 -14.681  1.00  0.00    -0.237 OA
ATOM     83  O   UNL     1       3.067  15.317 -15.494  1.00  0.00    -0.744 OA
ENDBRANCH  77  80
ENDBRANCH  59  73
BRANCH  60  84
ATOM     84  C   UNL     1       9.710   4.539 -14.348  1.00  0.00     0.023 A 
ATOM     85  C   UNL     1      11.094   4.303 -14.460  1.00  0.00     0.012 A 
ATOM     86  C   UNL     1       8.816   3.459 -14.494  1.00  0.00     0.148 A 
ATOM     87  C   UNL     1      11.578   3.025 -14.746  1.00  0.00     0.002 A 
ATOM     88  C   UNL     1       9.307   2.179 -14.722  1.00  0.00     0.091 A 
ATOM     89  F   UNL     1       7.502   3.706 -14.399  1.00  0.00    -0.205 F 
ATOM     90  C   UNL     1      10.686   1.963 -14.867  1.00  0.00     0.022 A 
BRANCH  88  91
ATOM     91  S   UNL     1       8.246   0.730 -14.769  1.00  0.00     0.127 S 
ATOM     92  O   UNL     1       8.357   0.322 -16.167  1.00  0.00    -0.237 OA
ATOM     93  O   UNL     1       8.908  -0.157 -13.812  1.00  0.00    -0.237 OA
ATOM     94  O   UNL     1       6.929   1.190 -14.350  1.00  0.00    -0.744 OA
ENDBRANCH  88  91
ENDBRANCH  60  84
BRANCH  72  95
ATOM     95  C   UNL     1       9.967  10.523 -17.961  1.00  0.00     0.023 A 
ATOM     96  C   UNL     1       9.373  10.107 -19.168  1.00  0.00     0.012 A 
ATOM     97  C   UNL     1      11.078  11.391 -17.999  1.00  0.00     0.148 A 
ATOM     98  C   UNL     1       9.890  10.529 -20.393  1.00  0.00     0.002 A 
ATOM     99  C   UNL     1      11.554  11.850 -19.220  1.00  0.00     0.091 A 
ATOM    100  F   UNL     1      11.635  11.765 -16.838  1.00  0.00    -0.205 F 
ATOM    101  C   UNL     1      10.969  11.411 -20.419  1.00  0.00     0.022 A 
BRANCH  99 102
ATOM    102  S   UNL     1      12.870  13.065 -19.350  1.00  0.00     0.127 S 
ATOM    103  O   UNL     1      13.947  12.274 -19.944  1.00  0.00    -0.237 OA
ATOM    104  O   UNL     1      12.282  14.063 -20.243  1.00  0.00    -0.237 OA
ATOM    105  O   UNL     1      13.122  13.536 -17.994  1.00  0.00    -0.744 OA
ENDBRANCH  99 102
ENDBRANCH  72  95
ENDBRANCH  46  47
ENDBRANCH  39  41
ENDBRANCH  38  39
ENDBRANCH  37  38
ENDBRANCH  36  37
ENDBRANCH  35  36
ENDBRANCH  34  35
ENDBRANCH   1  34
TORSDOF 27
