REMARK SMILES COc1ccc(CC(=O)N[C@H](C)C(=O)OCCOCCOCCOCCOC(=O)c2ccc(-c3c4nc(c(-c5cccc(S(=O)(=O)[O-])c5F)c5ccc([nH]5)c(-c5cccc(S(=O)(=O)[O-])c5F)c5nc(c(-c6cccc(S(=O)(=O)[O-])c6F)c6ccc3[nH]6)C=C5)C=C4)cc2)cc1F
REMARK SMILES IDX 20 1 19 2 18 3 17 4 16 5 15 6 13 7 14 8 11 9 12 10 10 11
REMARK SMILES IDX 8 12 9 13 7 15 6 16 3 17 4 18 94 19 5 20 93 21 95 22 2 23
REMARK SMILES IDX 1 24 21 25 22 26 23 27 24 28 25 29 26 30 27 31 28 32 29 33
REMARK SMILES IDX 30 34 31 35 92 36 32 37 91 38 33 39 34 40 35 41 85 42 36 43
REMARK SMILES IDX 90 44 84 45 86 46 37 47 89 48 83 49 82 50 38 52 70 53 50 54
REMARK SMILES IDX 69 55 51 56 54 57 68 58 87 59 52 60 53 61 67 63 88 64 55 65
REMARK SMILES IDX 39 66 40 67 48 68 41 69 43 70 49 71 42 72 44 73 45 74 46 75
REMARK SMILES IDX 47 76 71 77 72 78 80 79 73 80 75 81 81 82 74 83 76 84 77 85
REMARK SMILES IDX 78 86 79 87 56 88 57 89 65 90 58 91 60 92 66 93 59 94 61 95
REMARK SMILES IDX 62 96 63 97 64 98
REMARK H PARENT 10 14 86 51 54 62
REMARK Flexibility Score: inf
ROOT
ATOM      1  C   UNL     1       4.371   4.131   7.498  1.00  0.00     0.188 C 
ENDROOT
BRANCH   1   2
ATOM      2  C   UNL     1       5.773   3.810   6.951  1.00  0.00     0.188 C 
BRANCH   2   3
ATOM      3  O   UNL     1       6.715   4.874   7.109  1.00  0.00    -0.376 OA
BRANCH   3   4
ATOM      4  C   UNL     1       7.038   5.657   5.963  1.00  0.00     0.202 C 
BRANCH   4   5
ATOM      5  C   UNL     1       5.932   6.594   5.480  1.00  0.00     0.261 C 
BRANCH   5   6
ATOM      6  O   UNL     1       4.763   5.811   5.215  1.00  0.00    -0.462 OA
BRANCH   6   7
ATOM      7  C   UNL     1       4.175   5.839   4.001  1.00  0.00     0.328 C 
ATOM      8  O   UNL     1       4.508   6.555   3.070  1.00  0.00    -0.250 OA
BRANCH   7   9
ATOM      9  C   UNL     1       3.080   4.752   3.967  1.00  0.00     0.189 C 
ATOM     10  C   UNL     1       1.924   5.051   4.918  1.00  0.00     0.043 C 
BRANCH   9  11
ATOM     11  N   UNL     1       2.625   4.607   2.589  1.00  0.00    -0.343 N 
ATOM     12  C   UNL     1       3.141   3.792   1.625  1.00  0.00     0.225 C 
ATOM     13  O   UNL     1       2.852   4.013   0.448  1.00  0.00    -0.275 OA
ATOM     14  H   UNL     1       1.857   5.163   2.324  1.00  0.00     0.164 HD
BRANCH  12  15
ATOM     15  C   UNL     1       3.958   2.572   2.012  1.00  0.00     0.135 C 
BRANCH  15  16
ATOM     16  C   UNL     1       5.355   2.796   2.547  1.00  0.00    -0.036 A 
ATOM     17  C   UNL     1       8.002   3.060   3.533  1.00  0.00     0.154 A 
ATOM     18  C   UNL     1       7.493   3.954   2.584  1.00  0.00     0.050 A 
ATOM     19  C   UNL     1       7.179   2.025   3.971  1.00  0.00     0.165 A 
ATOM     20  C   UNL     1       6.188   3.822   2.088  1.00  0.00     0.008 A 
ATOM     21  C   UNL     1       5.876   1.890   3.484  1.00  0.00     0.047 A 
ATOM     22  F   UNL     1       7.585   1.141   4.894  1.00  0.00    -0.203 F 
BRANCH  17  23
ATOM     23  O   UNL     1       9.272   3.346   3.955  1.00  0.00    -0.494 OA
ATOM     24  C   UNL     1       9.836   2.494   4.946  1.00  0.00     0.278 C 
ENDBRANCH  17  23
ENDBRANCH  15  16
ENDBRANCH  12  15
ENDBRANCH   9  11
ENDBRANCH   7   9
ENDBRANCH   6   7
ENDBRANCH   5   6
ENDBRANCH   4   5
ENDBRANCH   3   4
ENDBRANCH   2   3
ENDBRANCH   1   2
BRANCH   1  25
ATOM     25  O   UNL     1       4.303   4.443   8.877  1.00  0.00    -0.377 OA
BRANCH  25  26
ATOM     26  C   UNL     1       5.138   5.521   9.276  1.00  0.00     0.188 C 
BRANCH  26  27
ATOM     27  C   UNL     1       6.399   5.047  10.019  1.00  0.00     0.188 C 
BRANCH  27  28
ATOM     28  O   UNL     1       6.516   3.722  10.520  1.00  0.00    -0.376 OA
BRANCH  28  29
ATOM     29  C   UNL     1       5.384   2.944  10.863  1.00  0.00     0.202 C 
BRANCH  29  30
ATOM     30  C   UNL     1       4.231   3.486  11.733  1.00  0.00     0.261 C 
BRANCH  30  31
ATOM     31  O   UNL     1       4.078   4.901  11.844  1.00  0.00    -0.460 OA
BRANCH  31  32
ATOM     32  C   UNL     1       4.844   5.521  12.767  1.00  0.00     0.338 C 
ATOM     33  O   UNL     1       5.631   5.001  13.539  1.00  0.00    -0.246 OA
BRANCH  32  34
ATOM     34  C   UNL     1       4.701   6.983  12.564  1.00  0.00     0.060 A 
ATOM     35  C   UNL     1       5.862   7.754  12.423  1.00  0.00     0.016 A 
ATOM     36  C   UNL     1       3.441   7.586  12.482  1.00  0.00     0.016 A 
ATOM     37  C   UNL     1       5.769   9.132  12.234  1.00  0.00     0.010 A 
ATOM     38  C   UNL     1       3.348   8.972  12.323  1.00  0.00     0.010 A 
ATOM     39  C   UNL     1       4.513   9.753  12.237  1.00  0.00    -0.014 A 
BRANCH  39  40
ATOM     40  C   UNL     1       4.444  11.224  12.401  1.00  0.00     0.031 A 
ATOM     41  C   UNL     1       4.361  11.769  13.801  1.00  0.00     0.074 A 
ATOM     42  C   UNL     1       4.484  12.060  11.348  1.00  0.00     0.049 A 
ATOM     43  N   UNL     1       4.342  13.011  14.205  1.00  0.00    -0.248 NA
ATOM     44  C   UNL     1       4.295  10.780  14.892  1.00  0.00     0.031 C 
ATOM     45  C   UNL     1       4.567  11.654   9.947  1.00  0.00     0.029 A 
ATOM     46  N   UNL     1       4.447  13.432  11.302  1.00  0.00    -0.354 N 
ATOM     47  C   UNL     1       4.255  12.953  15.590  1.00  0.00     0.074 A 
ATOM     48  C   UNL     1       4.203  11.557  15.960  1.00  0.00     0.031 C 
ATOM     49  C   UNL     1       4.555  12.756   9.175  1.00  0.00     0.029 A 
ATOM     50  C   UNL     1       4.454  13.942  10.026  1.00  0.00     0.049 A 
ATOM     51  H   UNL     1       4.418  13.997  12.107  1.00  0.00     0.167 HD
ATOM     52  C   UNL     1       4.244  13.972  16.479  1.00  0.00     0.034 A 
ATOM     53  C   UNL     1       4.381  15.220   9.597  1.00  0.00     0.034 A 
ATOM     54  C   UNL     1       4.311  15.358  16.116  1.00  0.00     0.049 A 
ATOM     55  C   UNL     1       4.333  16.338  10.608  1.00  0.00     0.074 A 
ATOM     56  C   UNL     1       4.348  16.460  16.950  1.00  0.00     0.029 A 
ATOM     57  N   UNL     1       4.337  15.834  14.815  1.00  0.00    -0.354 N 
ATOM     58  N   UNL     1       4.385  16.270  11.917  1.00  0.00    -0.248 NA
ATOM     59  C   UNL     1       4.248  17.712  10.086  1.00  0.00     0.031 C 
ATOM     60  C   UNL     1       4.373  17.607  16.152  1.00  0.00     0.029 A 
ATOM     61  C   UNL     1       4.375  17.216  14.822  1.00  0.00     0.049 A 
ATOM     62  H   UNL     1       4.330  15.272  14.007  1.00  0.00     0.167 HD
ATOM     63  C   UNL     1       4.373  17.585  12.372  1.00  0.00     0.074 A 
ATOM     64  C   UNL     1       4.324  18.432  11.199  1.00  0.00     0.031 C 
ATOM     65  C   UNL     1       4.386  18.048  13.646  1.00  0.00     0.034 A 
BRANCH  52  66
ATOM     66  C   UNL     1       4.200  13.625  17.940  1.00  0.00     0.023 A 
ATOM     67  C   UNL     1       5.364  13.140  18.570  1.00  0.00     0.012 A 
ATOM     68  C   UNL     1       3.040  13.854  18.704  1.00  0.00     0.148 A 
ATOM     69  C   UNL     1       5.370  12.873  19.938  1.00  0.00     0.002 A 
ATOM     70  C   UNL     1       3.066  13.624  20.074  1.00  0.00     0.091 A 
ATOM     71  F   UNL     1       1.938  14.289  18.077  1.00  0.00    -0.205 F 
ATOM     72  C   UNL     1       4.227  13.128  20.690  1.00  0.00     0.022 A 
BRANCH  70  73
ATOM     73  S   UNL     1       1.671  13.991  21.143  1.00  0.00     0.127 S 
ATOM     74  O   UNL     1       1.246  12.650  21.542  1.00  0.00    -0.237 OA
ATOM     75  O   UNL     1       2.298  14.774  22.208  1.00  0.00    -0.237 OA
ATOM     76  O   UNL     1       0.718  14.727  20.325  1.00  0.00    -0.744 OA
ENDBRANCH  70  73
ENDBRANCH  52  66
BRANCH  53  77
ATOM     77  C   UNL     1       4.402  15.512   8.135  1.00  0.00     0.023 A 
ATOM     78  C   UNL     1       5.530  16.136   7.567  1.00  0.00     0.012 A 
ATOM     79  C   UNL     1       3.329  15.144   7.300  1.00  0.00     0.148 A 
ATOM     80  C   UNL     1       5.582  16.405   6.199  1.00  0.00     0.002 A 
ATOM     81  C   UNL     1       3.410  15.365   5.929  1.00  0.00     0.091 A 
ATOM     82  F   UNL     1       2.255  14.573   7.862  1.00  0.00    -0.205 F 
ATOM     83  C   UNL     1       4.528  16.009   5.378  1.00  0.00     0.022 A 
BRANCH  81  84
ATOM     84  S   UNL     1       2.162  14.769   4.783  1.00  0.00     0.127 S 
ATOM     85  O   UNL     1       1.540  16.014   4.342  1.00  0.00    -0.237 OA
ATOM     86  O   UNL     1       2.979  14.095   3.773  1.00  0.00    -0.237 OA
ATOM     87  O   UNL     1       1.311  13.876   5.558  1.00  0.00    -0.744 OA
ENDBRANCH  81  84
ENDBRANCH  53  77
BRANCH  65  88
ATOM     88  C   UNL     1       4.367  19.538  13.870  1.00  0.00     0.023 A 
ATOM     89  C   UNL     1       3.168  20.252  13.686  1.00  0.00     0.012 A 
ATOM     90  C   UNL     1       5.493  20.199  14.404  1.00  0.00     0.148 A 
ATOM     91  C   UNL     1       3.090  21.603  14.019  1.00  0.00     0.002 A 
ATOM     92  C   UNL     1       5.394  21.534  14.777  1.00  0.00     0.091 A 
ATOM     93  F   UNL     1       6.628  19.503  14.559  1.00  0.00    -0.205 F 
ATOM     94  C   UNL     1       4.197  22.240  14.578  1.00  0.00     0.022 A 
BRANCH  92  95
ATOM     95  S   UNL     1       6.731  22.407  15.602  1.00  0.00     0.127 S 
ATOM     96  O   UNL     1       7.170  23.334  14.559  1.00  0.00    -0.237 OA
ATOM     97  O   UNL     1       6.042  23.039  16.728  1.00  0.00    -0.237 OA
ATOM     98  O   UNL     1       7.703  21.391  15.981  1.00  0.00    -0.744 OA
ENDBRANCH  92  95
ENDBRANCH  65  88
ENDBRANCH  39  40
ENDBRANCH  32  34
ENDBRANCH  31  32
ENDBRANCH  30  31
ENDBRANCH  29  30
ENDBRANCH  28  29
ENDBRANCH  27  28
ENDBRANCH  26  27
ENDBRANCH  25  26
ENDBRANCH   1  25
TORSDOF 27
