REMARK SMILES O=C(OCCOCCOCCOCCOC(=O)c1ccc(-c2c3nc(c(-c4cccc(S(=O)(=O)[O-])c4F)c4ccc([nH]4)c(-c4cccc(S(=O)(=O)[O-])c4F)c4nc(c(-c5cccc(S(=O)(=O)[O-])c5F)c5ccc2[nH]5)C=C4)C=C3)cc1)C1=Cc2cc(OC(F)(F)F)ccc2O[C@@H]1C(F)(F)F
REMARK SMILES IDX 10 1 9 2 8 3 7 4 6 5 5 6 4 7 3 8 2 9 1 10 81 11 82 12 95 13
REMARK SMILES IDX 83 14 94 15 84 16 93 17 85 18 92 19 91 20 96 21 97 22 98 23
REMARK SMILES IDX 99 24 86 25 87 26 88 27 89 28 90 29 11 30 12 31 13 32 14 33
REMARK SMILES IDX 15 34 16 35 17 36 18 37 19 38 80 39 20 40 79 41 21 42 22 43
REMARK SMILES IDX 23 44 73 45 24 46 78 47 72 48 74 49 25 50 77 51 71 52 70 53
REMARK SMILES IDX 26 55 58 56 38 57 57 58 39 59 42 60 56 61 75 62 40 63 41 64
REMARK SMILES IDX 55 66 76 67 43 68 27 69 28 70 36 71 29 72 31 73 37 74 30 75
REMARK SMILES IDX 32 76 33 77 34 78 35 79 59 80 60 81 68 82 61 83 63 84 69 85
REMARK SMILES IDX 62 86 64 87 65 88 66 89 67 90 44 91 45 92 53 93 46 94 48 95
REMARK SMILES IDX 54 96 47 97 49 98 50 99 51 100 52 101
REMARK H PARENT 74 54 42 65
REMARK Flexibility Score: inf
ROOT
ATOM      1  C   UNL     1       3.942  -3.283   1.717  1.00  0.00     0.188 C 
ENDROOT
BRANCH   1   2
ATOM      2  O   UNL     1       2.615  -3.734   1.582  1.00  0.00    -0.377 OA
BRANCH   2   3
ATOM      3  C   UNL     1       1.786  -2.742   1.027  1.00  0.00     0.188 C 
BRANCH   3   4
ATOM      4  C   UNL     1       2.144  -2.310  -0.404  1.00  0.00     0.188 C 
BRANCH   4   5
ATOM      5  O   UNL     1       3.473  -1.855  -0.856  1.00  0.00    -0.376 OA
BRANCH   5   6
ATOM      6  C   UNL     1       4.219  -0.351  -0.881  1.00  0.00     0.202 C 
BRANCH   6   7
ATOM      7  C   UNL     1       3.472   1.471   0.064  1.00  0.00     0.261 C 
BRANCH   7   8
ATOM      8  O   UNL     1       2.510   2.468  -0.545  1.00  0.00    -0.460 OA
BRANCH   8   9
ATOM      9  C   UNL     1       2.683   2.591  -1.865  1.00  0.00     0.338 C 
ATOM     10  O   UNL     1       1.995   3.187  -2.657  1.00  0.00    -0.246 OA
BRANCH   9  11
ATOM     11  C   UNL     1       3.575   1.455  -2.048  1.00  0.00     0.087 C 
ATOM     12  C   UNL     1       4.955   1.703  -1.628  1.00  0.00     0.027 C 
ATOM     13  C   UNL     1       2.370   0.247  -1.169  1.00  0.00     0.316 C 
ATOM     14  C   UNL     1       5.676   1.104  -0.099  1.00  0.00     0.021 A 
ATOM     15  O   UNL     1       3.069  -0.307   0.570  1.00  0.00    -0.475 OA
ATOM     16  C   UNL     1       6.961   1.451   0.208  1.00  0.00     0.058 A 
ATOM     17  C   UNL     1       4.772   0.201   1.057  1.00  0.00     0.128 A 
ATOM     18  C   UNL     1       7.456   1.010   1.454  1.00  0.00     0.130 A 
ATOM     19  C   UNL     1       5.315  -0.184   2.256  1.00  0.00     0.051 A 
ATOM     20  C   UNL     1       6.678   0.235   2.415  1.00  0.00     0.050 A 
BRANCH  13  21
ATOM     21  C   UNL     1       2.082  -0.601  -2.595  1.00  0.00     0.430 C 
ATOM     22  F   UNL     1       1.218  -1.632  -2.569  1.00  0.00    -0.167 F 
ATOM     23  F   UNL     1       1.497   0.288  -3.460  1.00  0.00    -0.167 F 
ATOM     24  F   UNL     1       3.190  -1.019  -3.258  1.00  0.00    -0.167 F 
ENDBRANCH  13  21
BRANCH  18  25
ATOM     25  O   UNL     1       8.756   1.434   1.612  1.00  0.00    -0.406 OA
BRANCH  25  26
ATOM     26  C   UNL     1       9.486   1.097   2.773  1.00  0.00     0.573 C 
ATOM     27  F   UNL     1       8.909   1.614   3.873  1.00  0.00    -0.132 F 
ATOM     28  F   UNL     1       9.607  -0.239   2.892  1.00  0.00    -0.132 F 
ATOM     29  F   UNL     1      10.726   1.626   2.654  1.00  0.00    -0.132 F 
ENDBRANCH  25  26
ENDBRANCH  18  25
ENDBRANCH   9  11
ENDBRANCH   8   9
ENDBRANCH   7   8
ENDBRANCH   6   7
ENDBRANCH   5   6
ENDBRANCH   4   5
ENDBRANCH   3   4
ENDBRANCH   2   3
ENDBRANCH   1   2
BRANCH   1  30
ATOM     30  C   UNL     1       4.964  -3.885   0.743  1.00  0.00     0.188 C 
BRANCH  30  31
ATOM     31  O   UNL     1       4.615  -4.711  -0.357  1.00  0.00    -0.376 OA
BRANCH  31  32
ATOM     32  C   UNL     1       3.433  -5.487  -0.367  1.00  0.00     0.202 C 
BRANCH  32  33
ATOM     33  C   UNL     1       3.153  -6.564   0.689  1.00  0.00     0.261 C 
BRANCH  33  34
ATOM     34  O   UNL     1       3.453  -6.221   2.044  1.00  0.00    -0.460 OA
BRANCH  34  35
ATOM     35  C   UNL     1       4.716  -6.494   2.436  1.00  0.00     0.338 C 
ATOM     36  O   UNL     1       5.576  -7.063   1.785  1.00  0.00    -0.246 OA
BRANCH  35  37
ATOM     37  C   UNL     1       4.985  -5.824   3.726  1.00  0.00     0.060 A 
ATOM     38  C   UNL     1       6.170  -5.080   3.840  1.00  0.00     0.016 A 
ATOM     39  C   UNL     1       4.109  -5.926   4.808  1.00  0.00     0.016 A 
ATOM     40  C   UNL     1       6.512  -4.481   5.044  1.00  0.00     0.010 A 
ATOM     41  C   UNL     1       4.477  -5.368   6.035  1.00  0.00     0.010 A 
ATOM     42  C   UNL     1       5.705  -4.693   6.164  1.00  0.00    -0.014 A 
BRANCH  42  43
ATOM     43  C   UNL     1       6.284  -4.441   7.501  1.00  0.00     0.031 A 
ATOM     44  C   UNL     1       6.838  -5.615   8.259  1.00  0.00     0.074 A 
ATOM     45  C   UNL     1       6.363  -3.199   8.005  1.00  0.00     0.049 A 
ATOM     46  N   UNL     1       7.356  -5.657   9.457  1.00  0.00    -0.248 NA
ATOM     47  C   UNL     1       6.801  -6.920   7.573  1.00  0.00     0.031 C 
ATOM     48  C   UNL     1       5.900  -1.984   7.338  1.00  0.00     0.029 A 
ATOM     49  N   UNL     1       6.842  -2.764   9.214  1.00  0.00    -0.354 N 
ATOM     50  C   UNL     1       7.661  -6.993   9.687  1.00  0.00     0.074 A 
ATOM     51  C   UNL     1       7.271  -7.731   8.508  1.00  0.00     0.031 C 
ATOM     52  C   UNL     1       6.084  -0.940   8.164  1.00  0.00     0.029 A 
ATOM     53  C   UNL     1       6.639  -1.422   9.428  1.00  0.00     0.049 A 
ATOM     54  H   UNL     1       7.288  -3.354   9.863  1.00  0.00     0.167 HD
ATOM     55  C   UNL     1       8.218  -7.553  10.785  1.00  0.00     0.034 A 
ATOM     56  C   UNL     1       6.836  -0.682  10.536  1.00  0.00     0.034 A 
ATOM     57  C   UNL     1       8.606  -6.809  11.951  1.00  0.00     0.049 A 
ATOM     58  C   UNL     1       7.408  -1.338  11.765  1.00  0.00     0.074 A 
ATOM     59  C   UNL     1       9.218  -7.274  13.101  1.00  0.00     0.029 A 
ATOM     60  N   UNL     1       8.395  -5.451  12.129  1.00  0.00    -0.354 N 
ATOM     61  N   UNL     1       7.767  -2.587  11.945  1.00  0.00    -0.248 NA
ATOM     62  C   UNL     1       7.631  -0.477  12.935  1.00  0.00     0.031 C 
ATOM     63  C   UNL     1       9.315  -6.210  14.001  1.00  0.00     0.029 A 
ATOM     64  C   UNL     1       8.838  -5.066  13.382  1.00  0.00     0.049 A 
ATOM     65  H   UNL     1       7.989  -4.850  11.463  1.00  0.00     0.167 HD
ATOM     66  C   UNL     1       8.296  -2.652  13.230  1.00  0.00     0.074 A 
ATOM     67  C   UNL     1       8.225  -1.313  13.776  1.00  0.00     0.031 C 
ATOM     68  C   UNL     1       8.793  -3.722  13.898  1.00  0.00     0.034 A 
BRANCH  55  69
ATOM     69  C   UNL     1       8.415  -9.046  10.790  1.00  0.00     0.023 A 
ATOM     70  C   UNL     1       9.378  -9.644   9.953  1.00  0.00     0.012 A 
ATOM     71  C   UNL     1       7.672  -9.852  11.675  1.00  0.00     0.148 A 
ATOM     72  C   UNL     1       9.574 -11.025   9.972  1.00  0.00     0.002 A 
ATOM     73  C   UNL     1       7.910 -11.219  11.727  1.00  0.00     0.091 A 
ATOM     74  F   UNL     1       6.745  -9.267  12.446  1.00  0.00    -0.205 F 
ATOM     75  C   UNL     1       8.850 -11.809  10.867  1.00  0.00     0.022 A 
BRANCH  73  76
ATOM     76  S   UNL     1       7.090 -12.300  12.902  1.00  0.00     0.127 S 
ATOM     77  O   UNL     1       6.299 -13.153  12.016  1.00  0.00    -0.237 OA
ATOM     78  O   UNL     1       8.223 -12.969  13.542  1.00  0.00    -0.237 OA
ATOM     79  O   UNL     1       6.316 -11.433  13.780  1.00  0.00    -0.744 OA
ENDBRANCH  73  76
ENDBRANCH  55  69
BRANCH  56  80
ATOM     80  C   UNL     1       6.475   0.763  10.540  1.00  0.00     0.023 A 
ATOM     81  C   UNL     1       7.482   1.741  10.647  1.00  0.00     0.012 A 
ATOM     82  C   UNL     1       5.130   1.167  10.436  1.00  0.00     0.148 A 
ATOM     83  C   UNL     1       7.152   3.096  10.687  1.00  0.00     0.002 A 
ATOM     84  C   UNL     1       4.814   2.519  10.415  1.00  0.00     0.091 A 
ATOM     85  F   UNL     1       4.188   0.218  10.345  1.00  0.00    -0.205 F 
ATOM     86  C   UNL     1       5.821   3.485  10.561  1.00  0.00     0.022 A 
BRANCH  84  87
ATOM     87  S   UNL     1       3.144   3.112  10.132  1.00  0.00     0.127 S 
ATOM     88  O   UNL     1       2.844   3.775  11.398  1.00  0.00    -0.237 OA
ATOM     89  O   UNL     1       3.338   4.011   8.994  1.00  0.00    -0.237 OA
ATOM     90  O   UNL     1       2.346   1.930   9.837  1.00  0.00    -0.744 OA
ENDBRANCH  84  87
ENDBRANCH  56  80
BRANCH  68  91
ATOM     91  C   UNL     1       9.367  -3.486  15.272  1.00  0.00     0.023 A 
ATOM     92  C   UNL     1       8.527  -3.158  16.355  1.00  0.00     0.012 A 
ATOM     93  C   UNL     1      10.748  -3.658  15.497  1.00  0.00     0.148 A 
ATOM     94  C   UNL     1       9.060  -2.959  17.628  1.00  0.00     0.002 A 
ATOM     95  C   UNL     1      11.263  -3.518  16.779  1.00  0.00     0.091 A 
ATOM     96  F   UNL     1      11.533  -3.960  14.452  1.00  0.00    -0.205 F 
ATOM     97  C   UNL     1      10.423  -3.151  17.843  1.00  0.00     0.022 A 
BRANCH  95  98
ATOM     98  S   UNL     1      12.986  -3.841  17.167  1.00  0.00     0.127 S 
ATOM     99  O   UNL     1      13.467  -2.505  17.515  1.00  0.00    -0.237 OA
ATOM    100  O   UNL     1      12.878  -4.765  18.297  1.00  0.00    -0.237 OA
ATOM    101  O   UNL     1      13.572  -4.418  15.965  1.00  0.00    -0.744 OA
ENDBRANCH  95  98
ENDBRANCH  68  91
ENDBRANCH  42  43
ENDBRANCH  35  37
ENDBRANCH  34  35
ENDBRANCH  33  34
ENDBRANCH  32  33
ENDBRANCH  31  32
ENDBRANCH  30  31
ENDBRANCH   1  30
TORSDOF 26
