REMARK SMILES NS(=O)(=O)c1ccc(N2N=C(C(=O)OCCOCCOCCOCCOC(=O)c3ccc(-c4c5nc(c(-c6cccc(S(=O)(=O)[O-])c6F)c6ccc([nH]6)c(-c6cccc(S(=O)(=O)[O-])c6F)c6nc(c(-c7cccc(S(=O)(=O)[O-])c7F)c7ccc4[nH]7)C=C6)C=C5)cc3)C[C@H]2c2cccs2)cc1
REMARK SMILES IDX 20 1 19 2 18 3 17 4 16 5 15 6 14 7 12 8 13 9 11 10 9 11
REMARK SMILES IDX 10 12 93 13 92 14 8 15 5 16 6 17 100 18 7 19 99 20 2 21 3 22
REMARK SMILES IDX 4 23 1 24 94 27 95 28 98 29 96 30 97 31 21 32 22 33 23 34
REMARK SMILES IDX 24 35 25 36 26 37 27 38 28 39 29 40 30 41 91 42 31 43 90 44
REMARK SMILES IDX 32 45 33 46 34 47 84 48 35 49 89 50 83 51 85 52 36 53 88 54
REMARK SMILES IDX 82 55 81 56 37 58 69 59 49 60 68 61 50 62 53 63 67 64 86 65
REMARK SMILES IDX 51 66 52 67 66 69 87 70 54 71 38 72 39 73 47 74 40 75 42 76
REMARK SMILES IDX 48 77 41 78 43 79 44 80 45 81 46 82 70 83 71 84 79 85 72 86
REMARK SMILES IDX 74 87 80 88 73 89 75 90 76 91 77 92 78 93 55 94 56 95 64 96
REMARK SMILES IDX 57 97 59 98 65 99 58 100 60 101 61 102 62 103 63 104
REMARK H PARENT 1 25 1 26 85 57 53 68
REMARK Flexibility Score: inf
ROOT
ATOM      1  O   UNL     1       3.414   2.726  10.522  1.00  0.00    -0.377 OA
ENDROOT
BRANCH   1   2
ATOM      2  C   UNL     1       3.489   2.138   9.237  1.00  0.00     0.188 C 
BRANCH   2   3
ATOM      3  C   UNL     1       4.886   2.215   8.592  1.00  0.00     0.188 C 
BRANCH   3   4
ATOM      4  O   UNL     1       6.035   2.587   9.343  1.00  0.00    -0.376 OA
BRANCH   4   5
ATOM      5  C   UNL     1       6.022   3.663  10.272  1.00  0.00     0.202 C 
BRANCH   5   6
ATOM      6  C   UNL     1       5.355   5.018   9.976  1.00  0.00     0.261 C 
BRANCH   6   7
ATOM      7  O   UNL     1       4.175   4.949   9.180  1.00  0.00    -0.459 OA
BRANCH   7   8
ATOM      8  C   UNL     1       4.296   5.376   7.914  1.00  0.00     0.354 C 
ATOM      9  O   UNL     1       5.244   5.921   7.383  1.00  0.00    -0.245 OA
BRANCH   8  10
ATOM     10  C   UNL     1       3.076   4.938   7.153  1.00  0.00     0.148 C 
ATOM     11  N   UNL     1       1.852   4.168   5.616  1.00  0.00    -0.256 N 
ATOM     12  N   UNL     1       3.146   4.281   6.031  1.00  0.00    -0.169 NA
ATOM     13  C   UNL     1       0.954   5.079   6.353  1.00  0.00     0.154 C 
ATOM     14  C   UNL     1       1.697   5.166   7.694  1.00  0.00     0.099 C 
BRANCH  11  15
ATOM     15  C   UNL     1       1.587   3.584   4.389  1.00  0.00     0.060 A 
ATOM     16  C   UNL     1       1.002   2.357   1.925  1.00  0.00     0.082 A 
ATOM     17  C   UNL     1       1.184   1.569   3.062  1.00  0.00     0.024 A 
ATOM     18  C   UNL     1       1.156   3.742   1.995  1.00  0.00     0.024 A 
ATOM     19  C   UNL     1       1.480   2.188   4.284  1.00  0.00     0.029 A 
ATOM     20  C   UNL     1       1.454   4.342   3.221  1.00  0.00     0.029 A 
BRANCH  16  21
ATOM     21  S   UNL     1       0.603   1.629   0.366  1.00  0.00     0.238 S 
ATOM     22  O   UNL     1       1.248   2.379  -0.686  1.00  0.00    -0.207 OA
ATOM     23  O   UNL     1      -0.810   1.327   0.350  1.00  0.00    -0.207 OA
BRANCH  21  24
ATOM     24  N   UNL     1       1.391   0.145   0.382  1.00  0.00    -0.225 NA
ATOM     25  H   UNL     1       1.209  -0.346  -0.494  1.00  0.00     0.137 HD
ATOM     26  H   UNL     1       1.046  -0.414   1.162  1.00  0.00     0.137 HD
ENDBRANCH  21  24
ENDBRANCH  16  21
ENDBRANCH  11  15
BRANCH  13  27
ATOM     27  C   UNL     1       0.704   6.447   5.729  1.00  0.00     0.030 A 
ATOM     28  C   UNL     1      -0.286   6.782   4.820  1.00  0.00     0.017 A 
ATOM     29  S   UNL     1       1.690   7.817   6.074  1.00  0.00    -0.147 S 
ATOM     30  C   UNL     1      -0.232   8.150   4.424  1.00  0.00     0.012 A 
ATOM     31  C   UNL     1       0.773   8.834   5.066  1.00  0.00     0.065 A 
ENDBRANCH  13  27
ENDBRANCH   8  10
ENDBRANCH   7   8
ENDBRANCH   6   7
ENDBRANCH   5   6
ENDBRANCH   4   5
ENDBRANCH   3   4
ENDBRANCH   2   3
ENDBRANCH   1   2
BRANCH   1  32
ATOM     32  C   UNL     1       3.423   1.825  11.625  1.00  0.00     0.188 C 
BRANCH  32  33
ATOM     33  C   UNL     1       4.432   0.661  11.576  1.00  0.00     0.188 C 
BRANCH  33  34
ATOM     34  O   UNL     1       4.258  -0.200  10.450  1.00  0.00    -0.376 OA
BRANCH  34  35
ATOM     35  C   UNL     1       3.566  -1.424  10.674  1.00  0.00     0.202 C 
BRANCH  35  36
ATOM     36  C   UNL     1       2.047  -1.290  10.869  1.00  0.00     0.261 C 
BRANCH  36  37
ATOM     37  O   UNL     1       1.646  -0.613  12.070  1.00  0.00    -0.460 OA
BRANCH  37  38
ATOM     38  C   UNL     1       2.073  -1.137  13.239  1.00  0.00     0.338 C 
ATOM     39  O   UNL     1       2.682  -2.180  13.394  1.00  0.00    -0.246 OA
BRANCH  38  40
ATOM     40  C   UNL     1       1.857  -0.138  14.302  1.00  0.00     0.060 A 
ATOM     41  C   UNL     1       2.950   0.227  15.097  1.00  0.00     0.016 A 
ATOM     42  C   UNL     1       0.591   0.403  14.540  1.00  0.00     0.016 A 
ATOM     43  C   UNL     1       2.764   1.083  16.180  1.00  0.00     0.010 A 
ATOM     44  C   UNL     1       0.404   1.254  15.632  1.00  0.00     0.010 A 
ATOM     45  C   UNL     1       1.480   1.555  16.485  1.00  0.00    -0.014 A 
BRANCH  45  46
ATOM     46  C   UNL     1       1.245   2.192  17.802  1.00  0.00     0.031 A 
ATOM     47  C   UNL     1       0.694   1.351  18.921  1.00  0.00     0.074 A 
ATOM     48  C   UNL     1       1.539   3.486  18.011  1.00  0.00     0.049 A 
ATOM     49  N   UNL     1       0.475   1.674  20.169  1.00  0.00    -0.248 NA
ATOM     50  C   UNL     1       0.338  -0.038  18.588  1.00  0.00     0.031 C 
ATOM     51  C   UNL     1       2.051   4.411  17.002  1.00  0.00     0.029 A 
ATOM     52  N   UNL     1       1.428   4.249  19.146  1.00  0.00    -0.354 N 
ATOM     53  C   UNL     1      -0.061   0.538  20.764  1.00  0.00     0.074 A 
ATOM     54  C   UNL     1      -0.155  -0.475  19.737  1.00  0.00     0.031 C 
ATOM     55  C   UNL     1       2.184   5.628  17.557  1.00  0.00     0.029 A 
ATOM     56  C   UNL     1       1.761   5.568  18.956  1.00  0.00     0.049 A 
ATOM     57  H   UNL     1       1.138   3.886  20.014  1.00  0.00     0.167 HD
ATOM     58  C   UNL     1      -0.423   0.346  22.054  1.00  0.00     0.034 A 
ATOM     59  C   UNL     1       1.720   6.609  19.812  1.00  0.00     0.034 A 
ATOM     60  C   UNL     1      -0.316   1.348  23.079  1.00  0.00     0.049 A 
ATOM     61  C   UNL     1       1.329   6.370  21.247  1.00  0.00     0.074 A 
ATOM     62  C   UNL     1      -0.596   1.232  24.429  1.00  0.00     0.029 A 
ATOM     63  N   UNL     1       0.086   2.658  22.865  1.00  0.00    -0.354 N 
ATOM     64  N   UNL     1       0.976   5.251  21.833  1.00  0.00    -0.248 NA
ATOM     65  C   UNL     1       1.375   7.529  22.152  1.00  0.00     0.031 C 
ATOM     66  C   UNL     1      -0.390   2.482  25.026  1.00  0.00     0.029 A 
ATOM     67  C   UNL     1       0.048   3.366  24.053  1.00  0.00     0.049 A 
ATOM     68  H   UNL     1       0.358   3.029  21.995  1.00  0.00     0.167 HD
ATOM     69  C   UNL     1       0.791   5.562  23.176  1.00  0.00     0.074 A 
ATOM     70  C   UNL     1       1.093   6.971  23.322  1.00  0.00     0.031 C 
ATOM     71  C   UNL     1       0.395   4.758  24.195  1.00  0.00     0.034 A 
BRANCH  58  72
ATOM     72  C   UNL     1      -0.950  -1.013  22.430  1.00  0.00     0.023 A 
ATOM     73  C   UNL     1      -0.069  -2.113  22.491  1.00  0.00     0.012 A 
ATOM     74  C   UNL     1      -2.309  -1.197  22.750  1.00  0.00     0.148 A 
ATOM     75  C   UNL     1      -0.539  -3.381  22.828  1.00  0.00     0.002 A 
ATOM     76  C   UNL     1      -2.761  -2.456  23.129  1.00  0.00     0.091 A 
ATOM     77  F   UNL     1      -3.137  -0.147  22.657  1.00  0.00    -0.205 F 
ATOM     78  C   UNL     1      -1.882  -3.550  23.157  1.00  0.00     0.022 A 
BRANCH  76  79
ATOM     79  S   UNL     1      -4.456  -2.754  23.642  1.00  0.00     0.127 S 
ATOM     80  O   UNL     1      -4.998  -3.452  22.478  1.00  0.00    -0.237 OA
ATOM     81  O   UNL     1      -4.278  -3.593  24.828  1.00  0.00    -0.237 OA
ATOM     82  O   UNL     1      -5.027  -1.442  23.911  1.00  0.00    -0.744 OA
ENDBRANCH  76  79
ENDBRANCH  58  72
BRANCH  59  83
ATOM     83  C   UNL     1       2.105   7.967  19.336  1.00  0.00     0.023 A 
ATOM     84  C   UNL     1       3.304   8.555  19.783  1.00  0.00     0.012 A 
ATOM     85  C   UNL     1       1.301   8.662  18.412  1.00  0.00     0.148 A 
ATOM     86  C   UNL     1       3.682   9.822  19.337  1.00  0.00     0.002 A 
ATOM     87  C   UNL     1       1.711   9.898  17.928  1.00  0.00     0.091 A 
ATOM     88  F   UNL     1       0.155   8.091  18.014  1.00  0.00    -0.205 F 
ATOM     89  C   UNL     1       2.893  10.488  18.402  1.00  0.00     0.022 A 
BRANCH  87  90
ATOM     90  S   UNL     1       0.830  10.761  16.622  1.00  0.00     0.127 S 
ATOM     91  O   UNL     1       0.283  11.910  17.339  1.00  0.00    -0.237 OA
ATOM     92  O   UNL     1       1.911  11.073  15.687  1.00  0.00    -0.237 OA
ATOM     93  O   UNL     1      -0.148   9.810  16.112  1.00  0.00    -0.744 OA
ENDBRANCH  87  90
ENDBRANCH  59  83
BRANCH  71  94
ATOM     94  C   UNL     1       0.293   5.368  25.570  1.00  0.00     0.023 A 
ATOM     95  C   UNL     1      -0.748   6.271  25.864  1.00  0.00     0.012 A 
ATOM     96  C   UNL     1       1.191   4.995  26.591  1.00  0.00     0.148 A 
ATOM     97  C   UNL     1      -0.870   6.823  27.139  1.00  0.00     0.002 A 
ATOM     98  C   UNL     1       1.032   5.511  27.872  1.00  0.00     0.091 A 
ATOM     99  F   UNL     1       2.187   4.149  26.291  1.00  0.00    -0.205 F 
ATOM    100  C   UNL     1       0.011   6.435  28.145  1.00  0.00     0.022 A 
BRANCH  98 101
ATOM    101  S   UNL     1       2.064   4.988  29.247  1.00  0.00     0.127 S 
ATOM    102  O   UNL     1       2.977   6.122  29.383  1.00  0.00    -0.237 OA
ATOM    103  O   UNL     1       1.094   4.853  30.335  1.00  0.00    -0.237 OA
ATOM    104  O   UNL     1       2.675   3.733  28.830  1.00  0.00    -0.744 OA
ENDBRANCH  98 101
ENDBRANCH  71  94
ENDBRANCH  45  46
ENDBRANCH  38  40
ENDBRANCH  37  38
ENDBRANCH  36  37
ENDBRANCH  35  36
ENDBRANCH  34  35
ENDBRANCH  33  34
ENDBRANCH  32  33
ENDBRANCH   1  32
TORSDOF 27
