REMARK SMILES Cc1cc2c(c(C)c1Cl)C=C(C(=O)OCCOCCOCCOCCOC(=O)c1ccc(-c3c4nc(c(-c5cccc(S(=O)(=O)[O-])c5F)c5ccc([nH]5)c(-c5cccc(S(=O)(=O)[O-])c5F)c5nc(c(-c6cccc(S(=O)(=O)[O-])c6F)c6ccc3[nH]6)C=C5)C=C4)cc1)[C@@H](C(F)(F)F)O2
REMARK SMILES IDX 21 1 20 2 19 3 18 4 17 5 16 6 15 7 14 8 12 9 13 10 11 11
REMARK SMILES IDX 1 12 2 13 3 14 8 15 4 16 6 17 9 18 5 19 97 20 7 21 10 22
REMARK SMILES IDX 92 23 93 24 94 25 95 26 96 27 22 28 23 29 24 30 25 31 26 32
REMARK SMILES IDX 27 33 28 34 29 35 30 36 91 37 31 38 90 39 32 40 33 41 34 42
REMARK SMILES IDX 84 43 35 44 89 45 83 46 85 47 36 48 88 49 82 50 81 51 37 53
REMARK SMILES IDX 69 54 49 55 68 56 50 57 53 58 67 59 86 60 51 61 52 62 66 64
REMARK SMILES IDX 87 65 54 66 38 67 39 68 47 69 40 70 42 71 48 72 41 73 43 74
REMARK SMILES IDX 44 75 45 76 46 77 70 78 71 79 79 80 72 81 74 82 80 83 73 84
REMARK SMILES IDX 75 85 76 86 77 87 78 88 55 89 56 90 64 91 57 92 59 93 65 94
REMARK SMILES IDX 58 95 60 96 61 97 62 98 63 99
REMARK H PARENT 85 52 53 63
REMARK Flexibility Score: inf
ROOT
ATOM      1  C   UNL     1      -1.767   7.967   6.235  1.00  0.00     0.188 C 
ENDROOT
BRANCH   1   2
ATOM      2  O   UNL     1      -1.879   7.097   5.108  1.00  0.00    -0.377 OA
BRANCH   2   3
ATOM      3  C   UNL     1      -0.756   6.959   4.254  1.00  0.00     0.188 C 
BRANCH   3   4
ATOM      4  C   UNL     1      -0.619   8.112   3.241  1.00  0.00     0.188 C 
BRANCH   4   5
ATOM      5  O   UNL     1      -1.349   9.271   3.602  1.00  0.00    -0.376 OA
BRANCH   5   6
ATOM      6  C   UNL     1      -2.678   9.472   3.144  1.00  0.00     0.202 C 
BRANCH   6   7
ATOM      7  C   UNL     1      -3.738   8.358   3.047  1.00  0.00     0.261 C 
BRANCH   7   8
ATOM      8  O   UNL     1      -3.277   7.039   2.752  1.00  0.00    -0.460 OA
BRANCH   8   9
ATOM      9  C   UNL     1      -2.954   6.754   1.480  1.00  0.00     0.338 C 
ATOM     10  O   UNL     1      -3.019   7.501   0.519  1.00  0.00    -0.246 OA
BRANCH   9  11
ATOM     11  C   UNL     1      -2.303   5.424   1.478  1.00  0.00     0.087 C 
ATOM     12  C   UNL     1       0.931   0.000   0.133  1.00  0.00     0.046 C 
ATOM     13  C   UNL     1       0.536   1.424   0.416  1.00  0.00    -0.028 A 
ATOM     14  C   UNL     1      -0.594   1.658   1.210  1.00  0.00     0.052 A 
ATOM     15  C   UNL     1       1.214   2.525  -0.143  1.00  0.00     0.047 A 
ATOM     16  C   UNL     1      -1.093   2.947   1.378  1.00  0.00     0.128 A 
ATOM     17  C   UNL     1       0.746   3.845   0.054  1.00  0.00    -0.021 A 
ATOM     18  Cl  UNL     1       2.618   2.224  -1.125  1.00  0.00    -0.084 Cl
ATOM     19  C   UNL     1      -0.466   4.035   0.764  1.00  0.00     0.022 A 
ATOM     20  O   UNL     1      -2.217   3.032   2.148  1.00  0.00    -0.475 OA
ATOM     21  C   UNL     1       1.503   5.046  -0.463  1.00  0.00     0.047 C 
ATOM     22  C   UNL     1      -1.144   5.327   0.815  1.00  0.00     0.027 C 
ATOM     23  C   UNL     1      -2.917   4.299   2.266  1.00  0.00     0.316 C 
BRANCH  23  24
ATOM     24  C   UNL     1      -4.387   4.064   1.891  1.00  0.00     0.430 C 
ATOM     25  F   UNL     1      -4.897   2.995   2.544  1.00  0.00    -0.167 F 
ATOM     26  F   UNL     1      -5.163   5.129   2.193  1.00  0.00    -0.167 F 
ATOM     27  F   UNL     1      -4.522   3.830   0.563  1.00  0.00    -0.167 F 
ENDBRANCH  23  24
ENDBRANCH   9  11
ENDBRANCH   8   9
ENDBRANCH   7   8
ENDBRANCH   6   7
ENDBRANCH   5   6
ENDBRANCH   4   5
ENDBRANCH   3   4
ENDBRANCH   2   3
ENDBRANCH   1   2
BRANCH   1  28
ATOM     28  C   UNL     1      -0.680   9.068   6.319  1.00  0.00     0.188 C 
BRANCH  28  29
ATOM     29  O   UNL     1       0.595   8.680   5.819  1.00  0.00    -0.376 OA
BRANCH  29  30
ATOM     30  C   UNL     1       1.622   8.414   6.761  1.00  0.00     0.202 C 
BRANCH  30  31
ATOM     31  C   UNL     1       1.447   7.140   7.597  1.00  0.00     0.261 C 
BRANCH  31  32
ATOM     32  O   UNL     1       0.253   7.075   8.390  1.00  0.00    -0.460 OA
BRANCH  32  33
ATOM     33  C   UNL     1       0.084   8.019   9.341  1.00  0.00     0.338 C 
ATOM     34  O   UNL     1       0.859   8.913   9.635  1.00  0.00    -0.246 OA
BRANCH  33  35
ATOM     35  C   UNL     1      -1.303   7.906   9.833  1.00  0.00     0.060 A 
ATOM     36  C   UNL     1      -2.166   9.001   9.698  1.00  0.00     0.016 A 
ATOM     37  C   UNL     1      -1.753   6.713  10.405  1.00  0.00     0.016 A 
ATOM     38  C   UNL     1      -3.478   8.915  10.166  1.00  0.00     0.010 A 
ATOM     39  C   UNL     1      -3.058   6.637  10.894  1.00  0.00     0.010 A 
ATOM     40  C   UNL     1      -3.914   7.749  10.808  1.00  0.00    -0.014 A 
BRANCH  40  41
ATOM     41  C   UNL     1      -5.180   7.765  11.578  1.00  0.00     0.031 A 
ATOM     42  C   UNL     1      -5.104   8.043  13.055  1.00  0.00     0.074 A 
ATOM     43  C   UNL     1      -6.369   7.552  10.986  1.00  0.00     0.049 A 
ATOM     44  N   UNL     1      -6.062   8.083  13.941  1.00  0.00    -0.248 NA
ATOM     45  C   UNL     1      -3.763   8.313  13.605  1.00  0.00     0.031 C 
ATOM     46  C   UNL     1      -6.572   7.298   9.562  1.00  0.00     0.029 A 
ATOM     47  N   UNL     1      -7.632   7.501  11.523  1.00  0.00    -0.354 N 
ATOM     48  C   UNL     1      -5.444   8.368  15.152  1.00  0.00     0.074 A 
ATOM     49  C   UNL     1      -4.025   8.470  14.894  1.00  0.00     0.031 C 
ATOM     50  C   UNL     1      -7.884   7.100   9.339  1.00  0.00     0.029 A 
ATOM     51  C   UNL     1      -8.609   7.187  10.606  1.00  0.00     0.049 A 
ATOM     52  H   UNL     1      -7.821   7.672  12.473  1.00  0.00     0.167 HD
ATOM     53  C   UNL     1      -6.008   8.552  16.367  1.00  0.00     0.034 A 
ATOM     54  C   UNL     1      -9.931   6.979  10.778  1.00  0.00     0.034 A 
ATOM     55  C   UNL     1      -7.419   8.462  16.619  1.00  0.00     0.049 A 
ATOM     56  C   UNL     1     -10.527   7.130  12.157  1.00  0.00     0.074 A 
ATOM     57  C   UNL     1      -8.089   8.650  17.814  1.00  0.00     0.029 A 
ATOM     58  N   UNL     1      -8.376   8.149  15.666  1.00  0.00    -0.354 N 
ATOM     59  N   UNL     1      -9.945   7.494  13.274  1.00  0.00    -0.248 NA
ATOM     60  C   UNL     1     -11.968   6.867  12.294  1.00  0.00     0.031 C 
ATOM     61  C   UNL     1      -9.449   8.422  17.590  1.00  0.00     0.029 A 
ATOM     62  C   UNL     1      -9.631   8.127  16.248  1.00  0.00     0.049 A 
ATOM     63  H   UNL     1      -8.191   7.970  14.716  1.00  0.00     0.167 HD
ATOM     64  C   UNL     1     -10.951   7.538  14.236  1.00  0.00     0.074 A 
ATOM     65  C   UNL     1     -12.184   7.184  13.565  1.00  0.00     0.031 C 
ATOM     66  C   UNL     1     -10.859   7.828  15.558  1.00  0.00     0.034 A 
BRANCH  53  67
ATOM     67  C   UNL     1      -5.106   8.910  17.517  1.00  0.00     0.023 A 
ATOM     68  C   UNL     1      -4.545  10.202  17.581  1.00  0.00     0.012 A 
ATOM     69  C   UNL     1      -4.887   8.006  18.574  1.00  0.00     0.148 A 
ATOM     70  C   UNL     1      -3.766  10.583  18.672  1.00  0.00     0.002 A 
ATOM     71  C   UNL     1      -4.150   8.409  19.680  1.00  0.00     0.091 A 
ATOM     72  F   UNL     1      -5.411   6.776  18.481  1.00  0.00    -0.205 F 
ATOM     73  C   UNL     1      -3.580   9.693  19.727  1.00  0.00     0.022 A 
BRANCH  71  74
ATOM     74  S   UNL     1      -3.924   7.372  21.129  1.00  0.00     0.127 S 
ATOM     75  O   UNL     1      -2.481   7.133  21.099  1.00  0.00    -0.237 OA
ATOM     76  O   UNL     1      -4.373   8.252  22.207  1.00  0.00    -0.237 OA
ATOM     77  O   UNL     1      -4.750   6.193  20.915  1.00  0.00    -0.744 OA
ENDBRANCH  71  74
ENDBRANCH  53  67
BRANCH  54  78
ATOM     78  C   UNL     1     -10.795   6.651   9.607  1.00  0.00     0.023 A 
ATOM     79  C   UNL     1     -11.762   7.581   9.177  1.00  0.00     0.012 A 
ATOM     80  C   UNL     1     -10.655   5.436   8.906  1.00  0.00     0.148 A 
ATOM     81  C   UNL     1     -12.589   7.298   8.088  1.00  0.00     0.002 A 
ATOM     82  C   UNL     1     -11.441   5.187   7.787  1.00  0.00     0.091 A 
ATOM     83  F   UNL     1      -9.744   4.554   9.341  1.00  0.00    -0.205 F 
ATOM     84  C   UNL     1     -12.421   6.108   7.387  1.00  0.00     0.022 A 
BRANCH  82  85
ATOM     85  S   UNL     1     -11.209   3.743   6.743  1.00  0.00     0.127 S 
ATOM     86  O   UNL     1     -12.453   3.010   6.965  1.00  0.00    -0.237 OA
ATOM     87  O   UNL     1     -11.079   4.351   5.418  1.00  0.00    -0.237 OA
ATOM     88  O   UNL     1     -10.000   3.094   7.230  1.00  0.00    -0.744 OA
ENDBRANCH  82  85
ENDBRANCH  54  78
BRANCH  66  89
ATOM     89  C   UNL     1     -12.121   7.805  16.385  1.00  0.00     0.023 A 
ATOM     90  C   UNL     1     -12.723   6.572  16.703  1.00  0.00     0.012 A 
ATOM     91  C   UNL     1     -12.632   8.991  16.952  1.00  0.00     0.148 A 
ATOM     92  C   UNL     1     -13.827   6.521  17.555  1.00  0.00     0.002 A 
ATOM     93  C   UNL     1     -13.697   8.927  17.842  1.00  0.00     0.091 A 
ATOM     94  F   UNL     1     -12.051  10.155  16.628  1.00  0.00    -0.205 F 
ATOM     95  C   UNL     1     -14.304   7.694  18.135  1.00  0.00     0.022 A 
BRANCH  93  96
ATOM     96  S   UNL     1     -14.310  10.367  18.726  1.00  0.00     0.127 S 
ATOM     97  O   UNL     1     -15.631  10.545  18.125  1.00  0.00    -0.237 OA
ATOM     98  O   UNL     1     -14.328   9.894  20.110  1.00  0.00    -0.237 OA
ATOM     99  O   UNL     1     -13.358  11.437  18.462  1.00  0.00    -0.744 OA
ENDBRANCH  93  96
ENDBRANCH  66  89
ENDBRANCH  40  41
ENDBRANCH  33  35
ENDBRANCH  32  33
ENDBRANCH  31  32
ENDBRANCH  30  31
ENDBRANCH  29  30
ENDBRANCH  28  29
ENDBRANCH   1  28
TORSDOF 24
