REMARK SMILES CC(=O)c1ccc(N2CCN(c3ccc(C(=O)OCCOCCOCCOCCOC(=O)c4ccc(-c5c6nc(c(-c7cccc(S(=O)(=O)[O-])c7F)c7ccc([nH]7)c(-c7cccc(S(=O)(=O)[O-])c7F)c7nc(c(-c8cccc(S(=O)(=O)[O-])c8F)c8ccc5[nH]8)C=C7)C=C6)cc4)cc3NS(=O)(=O)c3ccc(C)cc3)CC2)cc1
REMARK SMILES IDX 24 1 23 2 22 3 21 4 20 5 19 6 18 7 16 8 17 9 15 10 12 11
REMARK SMILES IDX 13 12 97 13 14 14 96 15 11 16 8 17 9 18 110 19 10 20 109 21
REMARK SMILES IDX 7 22 4 23 5 24 112 25 6 26 111 27 2 28 1 29 3 30 98 31 99 33
REMARK SMILES IDX 100 34 101 35 102 36 103 37 108 38 104 39 107 40 105 41
REMARK SMILES IDX 106 42 25 43 26 44 27 45 28 46 29 47 30 48 31 49 32 50 33 51
REMARK SMILES IDX 34 52 95 53 35 54 94 55 36 56 37 57 38 58 88 59 39 60 93 61
REMARK SMILES IDX 87 62 89 63 40 64 92 65 86 66 85 67 41 69 73 70 53 71 72 72
REMARK SMILES IDX 54 73 57 74 71 75 90 76 55 77 56 78 70 80 91 81 58 82 42 83
REMARK SMILES IDX 43 84 51 85 44 86 46 87 52 88 45 89 47 90 48 91 49 92 50 93
REMARK SMILES IDX 74 94 75 95 83 96 76 97 78 98 84 99 77 100 79 101 80 102
REMARK SMILES IDX 81 103 82 104 59 105 60 106 68 107 61 108 63 109 69 110
REMARK SMILES IDX 62 111 64 112 65 113 66 114 67 115
REMARK H PARENT 98 32 89 68 57 79
REMARK Flexibility Score: inf
ROOT
ATOM      1  O   UNL     1       1.585  -3.438 -15.367  1.00  0.00    -0.377 OA
ENDROOT
BRANCH   1   2
ATOM      2  C   UNL     1       2.764  -2.995 -14.709  1.00  0.00     0.188 C 
BRANCH   2   3
ATOM      3  C   UNL     1       3.743  -2.096 -15.477  1.00  0.00     0.188 C 
BRANCH   3   4
ATOM      4  O   UNL     1       4.461  -2.652 -16.577  1.00  0.00    -0.376 OA
BRANCH   4   5
ATOM      5  C   UNL     1       5.210  -3.854 -16.420  1.00  0.00     0.202 C 
BRANCH   5   6
ATOM      6  C   UNL     1       6.304  -3.872 -15.360  1.00  0.00     0.261 C 
BRANCH   6   7
ATOM      7  O   UNL     1       5.710  -3.934 -14.055  1.00  0.00    -0.460 OA
BRANCH   7   8
ATOM      8  C   UNL     1       6.248  -3.108 -13.130  1.00  0.00     0.338 C 
ATOM      9  O   UNL     1       7.220  -2.386 -13.262  1.00  0.00    -0.246 OA
BRANCH   8  10
ATOM     10  C   UNL     1       5.338  -3.042 -11.969  1.00  0.00     0.062 A 
ATOM     11  C   UNL     1       3.604  -2.754  -9.800  1.00  0.00     0.061 A 
ATOM     12  C   UNL     1       4.215  -1.629 -10.357  1.00  0.00     0.029 A 
ATOM     13  C   UNL     1       3.816  -4.029 -10.393  1.00  0.00     0.073 A 
ATOM     14  C   UNL     1       5.072  -1.771 -11.445  1.00  0.00     0.018 A 
ATOM     15  C   UNL     1       4.712  -4.180 -11.448  1.00  0.00     0.044 A 
BRANCH  11  16
ATOM     16  N   UNL     1       2.866  -2.699  -8.609  1.00  0.00    -0.366 N 
ATOM     17  N   UNL     1       1.888  -2.303  -5.971  1.00  0.00    -0.368 N 
ATOM     18  C   UNL     1       1.057  -1.893  -7.115  1.00  0.00     0.138 C 
ATOM     19  C   UNL     1       2.782  -3.446  -6.232  1.00  0.00     0.138 C 
ATOM     20  C   UNL     1       1.964  -1.568  -8.331  1.00  0.00     0.138 C 
ATOM     21  C   UNL     1       3.679  -3.138  -7.442  1.00  0.00     0.138 C 
BRANCH  17  22
ATOM     22  C   UNL     1       1.479  -2.100  -4.670  1.00  0.00     0.037 A 
ATOM     23  C   UNL     1       0.731  -1.549  -2.014  1.00  0.00     0.017 A 
ATOM     24  C   UNL     1      -0.219  -2.004  -2.932  1.00  0.00     0.014 A 
ATOM     25  C   UNL     1       2.063  -1.411  -2.403  1.00  0.00     0.014 A 
ATOM     26  C   UNL     1       0.155  -2.261  -4.256  1.00  0.00     0.026 A 
ATOM     27  C   UNL     1       2.427  -1.699  -3.718  1.00  0.00     0.026 A 
BRANCH  23  28
ATOM     28  C   UNL     1       0.289  -1.189  -0.643  1.00  0.00     0.159 C 
ATOM     29  C   UNL     1       0.973  -0.029   0.033  1.00  0.00     0.093 C 
ATOM     30  O   UNL     1      -0.645  -1.789  -0.118  1.00  0.00    -0.295 OA
ENDBRANCH  23  28
ENDBRANCH  17  22
ENDBRANCH  11  16
BRANCH  13  31
ATOM     31  N   UNL     1       2.887  -5.029  -9.968  1.00  0.00    -0.277 N 
ATOM     32  H   UNL     1       2.013  -4.702  -9.655  1.00  0.00     0.180 HD
BRANCH  31  33
ATOM     33  S   UNL     1       3.104  -6.677  -9.938  1.00  0.00     0.261 S 
ATOM     34  O   UNL     1       4.459  -6.916  -9.463  1.00  0.00    -0.201 OA
ATOM     35  O   UNL     1       1.956  -7.197  -9.245  1.00  0.00    -0.201 OA
BRANCH  33  36
ATOM     36  C   UNL     1       3.003  -7.197 -11.628  1.00  0.00     0.087 A 
ATOM     37  C   UNL     1       3.578  -8.419 -11.982  1.00  0.00     0.022 A 
ATOM     38  C   UNL     1       2.527  -6.333 -12.613  1.00  0.00     0.022 A 
ATOM     39  C   UNL     1       3.803  -8.713 -13.328  1.00  0.00     0.005 A 
ATOM     40  C   UNL     1       2.780  -6.627 -13.951  1.00  0.00     0.005 A 
ATOM     41  C   UNL     1       3.485  -7.776 -14.315  1.00  0.00    -0.051 A 
ATOM     42  C   UNL     1       3.882  -7.990 -15.743  1.00  0.00     0.044 C 
ENDBRANCH  33  36
ENDBRANCH  31  33
ENDBRANCH  13  31
ENDBRANCH   8  10
ENDBRANCH   7   8
ENDBRANCH   6   7
ENDBRANCH   5   6
ENDBRANCH   4   5
ENDBRANCH   3   4
ENDBRANCH   2   3
ENDBRANCH   1   2
BRANCH   1  43
ATOM     43  C   UNL     1       1.754  -4.144 -16.588  1.00  0.00     0.188 C 
BRANCH  43  44
ATOM     44  C   UNL     1       1.663  -3.234 -17.814  1.00  0.00     0.188 C 
BRANCH  44  45
ATOM     45  O   UNL     1       1.228  -1.922 -17.471  1.00  0.00    -0.376 OA
BRANCH  45  46
ATOM     46  C   UNL     1      -0.169  -1.679 -17.603  1.00  0.00     0.202 C 
BRANCH  46  47
ATOM     47  C   UNL     1      -1.125  -2.470 -16.692  1.00  0.00     0.261 C 
BRANCH  47  48
ATOM     48  O   UNL     1      -1.167  -3.899 -16.861  1.00  0.00    -0.460 OA
BRANCH  48  49
ATOM     49  C   UNL     1      -1.457  -4.405 -18.077  1.00  0.00     0.338 C 
ATOM     50  O   UNL     1      -1.713  -3.780 -19.091  1.00  0.00    -0.246 OA
BRANCH  49  51
ATOM     51  C   UNL     1      -1.251  -5.872 -18.028  1.00  0.00     0.060 A 
ATOM     52  C   UNL     1      -0.409  -6.473 -18.974  1.00  0.00     0.016 A 
ATOM     53  C   UNL     1      -1.897  -6.654 -17.066  1.00  0.00     0.016 A 
ATOM     54  C   UNL     1      -0.256  -7.864 -18.991  1.00  0.00     0.010 A 
ATOM     55  C   UNL     1      -1.753  -8.046 -17.094  1.00  0.00     0.010 A 
ATOM     56  C   UNL     1      -0.966  -8.662 -18.082  1.00  0.00    -0.014 A 
BRANCH  56  57
ATOM     57  C   UNL     1      -1.066 -10.130 -18.295  1.00  0.00     0.031 A 
ATOM     58  C   UNL     1      -2.252 -10.657 -19.057  1.00  0.00     0.074 A 
ATOM     59  C   UNL     1      -0.147 -10.987 -17.815  1.00  0.00     0.049 A 
ATOM     60  N   UNL     1      -2.573 -11.891 -19.341  1.00  0.00    -0.248 NA
ATOM     61  C   UNL     1      -3.207  -9.654 -19.560  1.00  0.00     0.031 C 
ATOM     62  C   UNL     1       1.036 -10.609 -17.053  1.00  0.00     0.029 A 
ATOM     63  N   UNL     1      -0.082 -12.358 -17.878  1.00  0.00    -0.354 N 
ATOM     64  C   UNL     1      -3.776 -11.818 -20.032  1.00  0.00     0.074 A 
ATOM     65  C   UNL     1      -4.134 -10.419 -20.116  1.00  0.00     0.031 C 
ATOM     66  C   UNL     1       1.707 -11.721 -16.701  1.00  0.00     0.029 A 
ATOM     67  C   UNL     1       0.982 -12.894 -17.189  1.00  0.00     0.049 A 
ATOM     68  H   UNL     1      -0.735 -12.907 -18.370  1.00  0.00     0.167 HD
ATOM     69  C   UNL     1      -4.513 -12.820 -20.564  1.00  0.00     0.034 A 
ATOM     70  C   UNL     1       1.318 -14.181 -16.961  1.00  0.00     0.034 A 
ATOM     71  C   UNL     1      -4.158 -14.210 -20.495  1.00  0.00     0.049 A 
ATOM     72  C   UNL     1       0.466 -15.282 -17.545  1.00  0.00     0.074 A 
ATOM     73  C   UNL     1      -4.824 -15.295 -21.037  1.00  0.00     0.029 A 
ATOM     74  N   UNL     1      -3.049 -14.710 -19.832  1.00  0.00    -0.354 N 
ATOM     75  N   UNL     1      -0.597 -15.188 -18.308  1.00  0.00    -0.248 NA
ATOM     76  C   UNL     1       0.875 -16.666 -17.261  1.00  0.00     0.031 C 
ATOM     77  C   UNL     1      -4.124 -16.454 -20.689  1.00  0.00     0.029 A 
ATOM     78  C   UNL     1      -3.013 -16.089 -19.946  1.00  0.00     0.049 A 
ATOM     79  H   UNL     1      -2.384 -14.165 -19.352  1.00  0.00     0.167 HD
ATOM     80  C   UNL     1      -0.958 -16.495 -18.625  1.00  0.00     0.074 A 
ATOM     81  C   UNL     1       0.009 -17.362 -17.986  1.00  0.00     0.031 C 
ATOM     82  C   UNL     1      -2.005 -16.937 -19.363  1.00  0.00     0.034 A 
BRANCH  69  83
ATOM     83  C   UNL     1      -5.767 -12.439 -21.301  1.00  0.00     0.023 A 
ATOM     84  C   UNL     1      -5.667 -11.859 -22.582  1.00  0.00     0.012 A 
ATOM     85  C   UNL     1      -7.037 -12.691 -20.750  1.00  0.00     0.148 A 
ATOM     86  C   UNL     1      -6.814 -11.509 -23.292  1.00  0.00     0.002 A 
ATOM     87  C   UNL     1      -8.176 -12.375 -21.480  1.00  0.00     0.091 A 
ATOM     88  F   UNL     1      -7.107 -13.217 -19.519  1.00  0.00    -0.205 F 
ATOM     89  C   UNL     1      -8.067 -11.776 -22.746  1.00  0.00     0.022 A 
BRANCH  87  90
ATOM     90  S   UNL     1      -9.832 -12.744 -20.892  1.00  0.00     0.127 S 
ATOM     91  O   UNL     1     -10.326 -11.412 -20.547  1.00  0.00    -0.237 OA
ATOM     92  O   UNL     1     -10.456 -13.337 -22.076  1.00  0.00    -0.237 OA
ATOM     93  O   UNL     1      -9.664 -13.661 -19.773  1.00  0.00    -0.744 OA
ENDBRANCH  87  90
ENDBRANCH  69  83
BRANCH  70  94
ATOM     94  C   UNL     1       2.539 -14.511 -16.170  1.00  0.00     0.023 A 
ATOM     95  C   UNL     1       3.638 -15.119 -16.810  1.00  0.00     0.012 A 
ATOM     96  C   UNL     1       2.622 -14.226 -14.794  1.00  0.00     0.148 A 
ATOM     97  C   UNL     1       4.781 -15.465 -16.089  1.00  0.00     0.002 A 
ATOM     98  C   UNL     1       3.787 -14.518 -14.094  1.00  0.00     0.091 A 
ATOM     99  F   UNL     1       1.558 -13.673 -14.194  1.00  0.00    -0.205 F 
ATOM    100  C   UNL     1       4.861 -15.155 -14.734  1.00  0.00     0.022 A 
BRANCH  98 101
ATOM    101  S   UNL     1       4.029 -14.017 -12.386  1.00  0.00     0.127 S 
ATOM    102  O   UNL     1       3.904 -15.289 -11.680  1.00  0.00    -0.237 OA
ATOM    103  O   UNL     1       5.382 -13.459 -12.423  1.00  0.00    -0.237 OA
ATOM    104  O   UNL     1       2.989 -13.031 -12.121  1.00  0.00    -0.744 OA
ENDBRANCH  98 101
ENDBRANCH  70  94
BRANCH  82 105
ATOM    105  C   UNL     1      -2.150 -18.422 -19.569  1.00  0.00     0.023 A 
ATOM    106  C   UNL     1      -2.604 -19.235 -18.512  1.00  0.00     0.012 A 
ATOM    107  C   UNL     1      -1.927 -18.997 -20.837  1.00  0.00     0.148 A 
ATOM    108  C   UNL     1      -2.811 -20.600 -18.707  1.00  0.00     0.002 A 
ATOM    109  C   UNL     1      -2.179 -20.350 -21.035  1.00  0.00     0.091 A 
ATOM    110  F   UNL     1      -1.476 -18.211 -21.826  1.00  0.00    -0.205 F 
ATOM    111  C   UNL     1      -2.611 -21.155 -19.969  1.00  0.00     0.022 A 
BRANCH 109 112
ATOM    112  S   UNL     1      -2.040 -21.125 -22.651  1.00  0.00     0.127 S 
ATOM    113  O   UNL     1      -0.792 -21.873 -22.516  1.00  0.00    -0.237 OA
ATOM    114  O   UNL     1      -3.246 -21.953 -22.705  1.00  0.00    -0.237 OA
ATOM    115  O   UNL     1      -2.017 -20.033 -23.615  1.00  0.00    -0.744 OA
ENDBRANCH 109 112
ENDBRANCH  82 105
ENDBRANCH  56  57
ENDBRANCH  49  51
ENDBRANCH  48  49
ENDBRANCH  47  48
ENDBRANCH  46  47
ENDBRANCH  45  46
ENDBRANCH  44  45
ENDBRANCH  43  44
ENDBRANCH   1  43
TORSDOF 29
