REMARK SMILES O=C(Cc1ccccc1)Nc1ccc(C(=O)NCc2ccc(C(=O)OCCOCCOCCOCCOC(=O)c3ccc(-c4c5nc(c(-c6cccc(S(=O)(=O)[O-])c6F)c6ccc([nH]6)c(-c6cccc(S(=O)(=O)[O-])c6F)c6nc(c(-c7cccc(S(=O)(=O)[O-])c7F)c7ccc4[nH]7)C=C6)C=C5)cc3)cc2)cc1
REMARK SMILES IDX 29 1 28 2 27 3 26 4 25 5 23 6 24 7 22 8 19 9 20 10 104 11
REMARK SMILES IDX 21 12 103 13 18 14 17 15 15 16 16 17 14 19 11 20 12 21
REMARK SMILES IDX 106 22 13 23 105 24 10 25 1 26 2 27 3 29 4 30 5 31 9 32 6 33
REMARK SMILES IDX 8 34 7 35 30 36 31 37 32 38 33 39 34 40 35 41 36 42 37 43
REMARK SMILES IDX 38 44 39 45 40 46 41 47 102 48 42 49 101 50 43 51 44 52
REMARK SMILES IDX 45 53 95 54 46 55 100 56 94 57 96 58 47 59 99 60 93 61 92 62
REMARK SMILES IDX 48 64 80 65 60 66 79 67 61 68 64 69 78 70 97 71 62 72 63 73
REMARK SMILES IDX 77 75 98 76 65 77 49 78 50 79 58 80 51 81 53 82 59 83 52 84
REMARK SMILES IDX 54 85 55 86 56 87 57 88 81 89 82 90 90 91 83 92 85 93 91 94
REMARK SMILES IDX 84 95 86 96 87 97 88 98 89 99 66 100 67 101 75 102 68 103
REMARK SMILES IDX 70 104 76 105 69 106 71 107 72 108 73 109 74 110
REMARK H PARENT 17 18 10 28 96 63 64 74
REMARK Flexibility Score: inf
ROOT
ATOM      1  C   UNL     1      -2.239 -10.699   4.609  1.00  0.00     0.188 C 
ENDROOT
BRANCH   1   2
ATOM      2  O   UNL     1      -1.831 -11.985   4.175  1.00  0.00    -0.376 OA
BRANCH   2   3
ATOM      3  C   UNL     1      -1.418 -12.159   2.831  1.00  0.00     0.202 C 
BRANCH   3   4
ATOM      4  C   UNL     1      -0.267 -11.307   2.272  1.00  0.00     0.261 C 
BRANCH   4   5
ATOM      5  O   UNL     1      -0.307  -9.911   2.589  1.00  0.00    -0.460 OA
BRANCH   5   6
ATOM      6  C   UNL     1      -1.219  -9.155   1.942  1.00  0.00     0.338 C 
ATOM      7  O   UNL     1      -2.009  -9.531   1.094  1.00  0.00    -0.246 OA
BRANCH   6   8
ATOM      8  C   UNL     1      -1.277  -7.831   2.613  1.00  0.00     0.060 A 
ATOM      9  C   UNL     1      -1.506  -5.375   3.983  1.00  0.00    -0.029 A 
ATOM     10  C   UNL     1      -2.649  -6.059   3.537  1.00  0.00     0.006 A 
ATOM     11  C   UNL     1      -0.248  -5.960   3.754  1.00  0.00     0.006 A 
ATOM     12  C   UNL     1      -2.537  -7.274   2.857  1.00  0.00     0.016 A 
ATOM     13  C   UNL     1      -0.131  -7.179   3.075  1.00  0.00     0.016 A 
BRANCH   9  14
ATOM     14  C   UNL     1      -1.675  -4.006   4.607  1.00  0.00     0.152 C 
BRANCH  14  15
ATOM     15  N   UNL     1      -0.665  -3.673   5.587  1.00  0.00    -0.348 N 
ATOM     16  C   UNL     1       0.453  -2.883   5.561  1.00  0.00     0.251 C 
ATOM     17  O   UNL     1       1.000  -2.671   6.646  1.00  0.00    -0.269 OA
ATOM     18  H   UNL     1      -0.813  -4.106   6.458  1.00  0.00     0.164 HD
BRANCH  16  19
ATOM     19  C   UNL     1       1.029  -2.258   4.331  1.00  0.00     0.039 A 
ATOM     20  C   UNL     1       2.202  -0.920   2.127  1.00  0.00     0.041 A 
ATOM     21  C   UNL     1       2.638  -0.650   3.424  1.00  0.00     0.027 A 
ATOM     22  C   UNL     1       1.240  -1.907   1.933  1.00  0.00     0.027 A 
ATOM     23  C   UNL     1       2.042  -1.298   4.514  1.00  0.00     0.016 A 
ATOM     24  C   UNL     1       0.679  -2.583   3.021  1.00  0.00     0.016 A 
BRANCH  20  25
ATOM     25  N   UNL     1       2.787  -0.220   1.058  1.00  0.00    -0.326 N 
ATOM     26  O   UNL     1       1.098  -0.377  -0.531  1.00  0.00    -0.274 OA
ATOM     27  C   UNL     1       2.251  -0.087  -0.213  1.00  0.00     0.228 C 
ATOM     28  H   UNL     1       3.653   0.216   1.228  1.00  0.00     0.169 HD
BRANCH  27  29
ATOM     29  C   UNL     1       3.235   0.402  -1.264  1.00  0.00     0.135 C 
BRANCH  29  30
ATOM     30  C   UNL     1       3.984   1.655  -0.886  1.00  0.00    -0.039 A 
ATOM     31  C   UNL     1       5.237   1.570  -0.261  1.00  0.00     0.004 A 
ATOM     32  C   UNL     1       3.421   2.917  -1.119  1.00  0.00     0.004 A 
ATOM     33  C   UNL     1       5.900   2.725   0.151  1.00  0.00     0.000 A 
ATOM     34  C   UNL     1       4.097   4.072  -0.725  1.00  0.00     0.000 A 
ATOM     35  C   UNL     1       5.330   3.975  -0.081  1.00  0.00     0.000 A 
ENDBRANCH  29  30
ENDBRANCH  27  29
ENDBRANCH  20  25
ENDBRANCH  16  19
ENDBRANCH  14  15
ENDBRANCH   9  14
ENDBRANCH   6   8
ENDBRANCH   5   6
ENDBRANCH   4   5
ENDBRANCH   3   4
ENDBRANCH   2   3
ENDBRANCH   1   2
BRANCH   1  36
ATOM     36  C   UNL     1      -1.211  -9.980   5.506  1.00  0.00     0.188 C 
BRANCH  36  37
ATOM     37  O   UNL     1       0.100 -10.511   5.599  1.00  0.00    -0.377 OA
BRANCH  37  38
ATOM     38  C   UNL     1       0.298 -11.888   5.904  1.00  0.00     0.188 C 
BRANCH  38  39
ATOM     39  C   UNL     1      -0.788 -12.741   6.602  1.00  0.00     0.188 C 
BRANCH  39  40
ATOM     40  O   UNL     1      -1.880 -12.006   7.131  1.00  0.00    -0.376 OA
BRANCH  40  41
ATOM     41  C   UNL     1      -1.956 -11.871   8.538  1.00  0.00     0.202 C 
BRANCH  41  42
ATOM     42  C   UNL     1      -0.830 -11.082   9.218  1.00  0.00     0.261 C 
BRANCH  42  43
ATOM     43  O   UNL     1       0.505 -11.537   8.959  1.00  0.00    -0.460 OA
BRANCH  43  44
ATOM     44  C   UNL     1       0.841 -12.768   9.412  1.00  0.00     0.338 C 
ATOM     45  O   UNL     1       0.134 -13.542  10.023  1.00  0.00    -0.246 OA
BRANCH  44  46
ATOM     46  C   UNL     1       2.175 -13.089   8.861  1.00  0.00     0.060 A 
ATOM     47  C   UNL     1       2.318 -14.200   8.020  1.00  0.00     0.016 A 
ATOM     48  C   UNL     1       3.273 -12.279   9.159  1.00  0.00     0.016 A 
ATOM     49  C   UNL     1       3.573 -14.525   7.502  1.00  0.00     0.010 A 
ATOM     50  C   UNL     1       4.530 -12.616   8.656  1.00  0.00     0.010 A 
ATOM     51  C   UNL     1       4.692 -13.760   7.854  1.00  0.00    -0.014 A 
BRANCH  51  52
ATOM     52  C   UNL     1       6.055 -14.258   7.550  1.00  0.00     0.031 A 
ATOM     53  C   UNL     1       6.817 -14.956   8.643  1.00  0.00     0.074 A 
ATOM     54  C   UNL     1       6.612 -14.085   6.338  1.00  0.00     0.049 A 
ATOM     55  N   UNL     1       8.034 -15.432   8.633  1.00  0.00    -0.248 NA
ATOM     56  C   UNL     1       6.110 -15.138   9.922  1.00  0.00     0.031 C 
ATOM     57  C   UNL     1       5.973 -13.435   5.197  1.00  0.00     0.029 A 
ATOM     58  N   UNL     1       7.862 -14.422   5.879  1.00  0.00    -0.354 N 
ATOM     59  C   UNL     1       8.252 -15.935   9.910  1.00  0.00     0.074 A 
ATOM     60  C   UNL     1       7.046 -15.701  10.671  1.00  0.00     0.031 C 
ATOM     61  C   UNL     1       6.845 -13.395   4.174  1.00  0.00     0.029 A 
ATOM     62  C   UNL     1       8.112 -13.988   4.598  1.00  0.00     0.049 A 
ATOM     63  H   UNL     1       8.515 -14.927   6.415  1.00  0.00     0.167 HD
ATOM     64  C   UNL     1       9.355 -16.546  10.403  1.00  0.00     0.034 A 
ATOM     65  C   UNL     1       9.244 -14.040   3.867  1.00  0.00     0.034 A 
ATOM     66  C   UNL     1      10.549 -16.787   9.641  1.00  0.00     0.049 A 
ATOM     67  C   UNL     1      10.471 -14.694   4.452  1.00  0.00     0.074 A 
ATOM     68  C   UNL     1      11.701 -17.443  10.034  1.00  0.00     0.029 A 
ATOM     69  N   UNL     1      10.755 -16.362   8.338  1.00  0.00    -0.354 N 
ATOM     70  N   UNL     1      10.625 -15.270   5.620  1.00  0.00    -0.248 NA
ATOM     71  C   UNL     1      11.672 -14.734   3.603  1.00  0.00     0.031 C 
ATOM     72  C   UNL     1      12.621 -17.377   8.983  1.00  0.00     0.029 A 
ATOM     73  C   UNL     1      12.023 -16.724   7.917  1.00  0.00     0.049 A 
ATOM     74  H   UNL     1      10.097 -15.874   7.792  1.00  0.00     0.167 HD
ATOM     75  C   UNL     1      11.922 -15.776   5.630  1.00  0.00     0.074 A 
ATOM     76  C   UNL     1      12.505 -15.452   4.345  1.00  0.00     0.031 C 
ATOM     77  C   UNL     1      12.574 -16.440   6.617  1.00  0.00     0.034 A 
BRANCH  64  78
ATOM     78  C   UNL     1       9.319 -17.000  11.838  1.00  0.00     0.023 A 
ATOM     79  C   UNL     1       8.515 -18.096  12.212  1.00  0.00     0.012 A 
ATOM     80  C   UNL     1      10.123 -16.369  12.809  1.00  0.00     0.148 A 
ATOM     81  C   UNL     1       8.484 -18.534  13.535  1.00  0.00     0.002 A 
ATOM     82  C   UNL     1      10.124 -16.843  14.114  1.00  0.00     0.091 A 
ATOM     83  F   UNL     1      10.862 -15.314  12.438  1.00  0.00    -0.205 F 
ATOM     84  C   UNL     1       9.296 -17.916  14.483  1.00  0.00     0.022 A 
BRANCH  82  85
ATOM     85  S   UNL     1      11.195 -16.169  15.388  1.00  0.00     0.127 S 
ATOM     86  O   UNL     1      10.229 -15.519  16.273  1.00  0.00    -0.237 OA
ATOM     87  O   UNL     1      11.812 -17.375  15.939  1.00  0.00    -0.237 OA
ATOM     88  O   UNL     1      12.117 -15.271  14.706  1.00  0.00    -0.744 OA
ENDBRANCH  82  85
ENDBRANCH  64  78
BRANCH  65  89
ATOM     89  C   UNL     1       9.271 -13.477   2.486  1.00  0.00     0.023 A 
ATOM     90  C   UNL     1       9.412 -14.343   1.384  1.00  0.00     0.012 A 
ATOM     91  C   UNL     1       9.159 -12.091   2.259  1.00  0.00     0.148 A 
ATOM     92  C   UNL     1       9.476 -13.837   0.085  1.00  0.00     0.002 A 
ATOM     93  C   UNL     1       9.167 -11.599   0.959  1.00  0.00     0.091 A 
ATOM     94  F   UNL     1       9.042 -11.282   3.321  1.00  0.00    -0.205 F 
ATOM     95  C   UNL     1       9.345 -12.468  -0.128  1.00  0.00     0.022 A 
BRANCH  93  96
ATOM     96  S   UNL     1       8.883  -9.866   0.579  1.00  0.00     0.127 S 
ATOM     97  O   UNL     1      10.180  -9.460   0.043  1.00  0.00    -0.237 OA
ATOM     98  O   UNL     1       7.807  -9.950  -0.409  1.00  0.00    -0.237 OA
ATOM     99  O   UNL     1       8.499  -9.242   1.838  1.00  0.00    -0.744 OA
ENDBRANCH  93  96
ENDBRANCH  65  89
BRANCH  77 100
ATOM    100  C   UNL     1      13.978 -16.917   6.338  1.00  0.00     0.023 A 
ATOM    101  C   UNL     1      15.037 -15.992   6.248  1.00  0.00     0.012 A 
ATOM    102  C   UNL     1      14.256 -18.296   6.243  1.00  0.00     0.148 A 
ATOM    103  C   UNL     1      16.344 -16.429   6.032  1.00  0.00     0.002 A 
ATOM    104  C   UNL     1      15.567 -18.727   6.083  1.00  0.00     0.091 A 
ATOM    105  F   UNL     1      13.234 -19.161   6.317  1.00  0.00    -0.205 F 
ATOM    106  C   UNL     1      16.610 -17.795   5.962  1.00  0.00     0.022 A 
BRANCH 104 107
ATOM    107  S   UNL     1      16.018 -20.466   6.084  1.00  0.00     0.127 S 
ATOM    108  O   UNL     1      16.400 -20.675   4.688  1.00  0.00    -0.237 OA
ATOM    109  O   UNL     1      17.133 -20.495   7.032  1.00  0.00    -0.237 OA
ATOM    110  O   UNL     1      14.833 -21.191   6.520  1.00  0.00    -0.744 OA
ENDBRANCH 104 107
ENDBRANCH  77 100
ENDBRANCH  51  52
ENDBRANCH  44  46
ENDBRANCH  43  44
ENDBRANCH  42  43
ENDBRANCH  41  42
ENDBRANCH  40  41
ENDBRANCH  39  40
ENDBRANCH  38  39
ENDBRANCH  37  38
ENDBRANCH  36  37
ENDBRANCH   1  36
TORSDOF 29
