REMARK SMILES Cc1ccc([C@H](C)[N@H+](CC(=O)OCCOCCOCCOCCOC(=O)c2ccc(-c3c4nc(c(-c5cccc(S(=O)(=O)[O-])c5F)c5ccc([nH]5)c(-c5cccc(S(=O)(=O)[O-])c5F)c5nc(c(-c6cccc(S(=O)(=O)[O-])c6F)c6ccc3[nH]6)C=C5)C=C4)cc2)CC(F)(F)F)cc1
REMARK SMILES IDX 18 1 17 2 16 3 15 4 14 5 13 6 12 7 10 8 11 9 9 10 8 11 6 13
REMARK SMILES IDX 7 14 5 15 1 16 2 17 3 18 96 19 4 20 95 21 90 22 91 23 92 24
REMARK SMILES IDX 93 25 94 26 19 27 20 28 21 29 22 30 23 31 24 32 25 33 26 34
REMARK SMILES IDX 27 35 28 36 89 37 29 38 88 39 30 40 31 41 32 42 82 43 33 44
REMARK SMILES IDX 87 45 81 46 83 47 34 48 86 49 80 50 79 51 35 53 67 54 47 55
REMARK SMILES IDX 66 56 48 57 51 58 65 59 84 60 49 61 50 62 64 64 85 65 52 66
REMARK SMILES IDX 36 67 37 68 45 69 38 70 40 71 46 72 39 73 41 74 42 75 43 76
REMARK SMILES IDX 44 77 68 78 69 79 77 80 70 81 72 82 78 83 71 84 73 85 74 86
REMARK SMILES IDX 75 87 76 88 53 89 54 90 62 91 55 92 57 93 63 94 56 95 58 96
REMARK SMILES IDX 59 97 60 98 61 99
REMARK H PARENT 8 12 83 52 51 63
REMARK Flexibility Score: inf
ROOT
ATOM      1  O   UNL     1      -3.261  -4.539   0.678  1.00  0.00    -0.377 OA
ENDROOT
BRANCH   1   2
ATOM      2  C   UNL     1      -4.516  -4.201   0.068  1.00  0.00     0.188 C 
BRANCH   2   3
ATOM      3  C   UNL     1      -4.327  -3.348  -1.360  1.00  0.00     0.188 C 
BRANCH   3   4
ATOM      4  O   UNL     1      -5.156  -2.648  -2.613  1.00  0.00    -0.376 OA
BRANCH   4   5
ATOM      5  C   UNL     1      -6.648  -1.965  -2.967  1.00  0.00     0.202 C 
BRANCH   5   6
ATOM      6  C   UNL     1      -7.969  -1.396  -1.827  1.00  0.00     0.261 C 
BRANCH   6   7
ATOM      7  O   UNL     1      -8.109  -1.998  -0.060  1.00  0.00    -0.459 OA
BRANCH   7   8
ATOM      8  C   UNL     1      -7.097  -2.384   1.200  1.00  0.00     0.361 C 
ATOM      9  O   UNL     1      -7.571  -3.141   2.057  1.00  0.00    -0.245 OA
BRANCH   8  10
ATOM     10  C   UNL     1      -5.418  -1.562   1.554  1.00  0.00     0.387 C 
BRANCH  10  11
ATOM     11  N   UNL     1      -3.720  -1.604   0.961  1.00  0.00    -0.312 N 
ATOM     12  H   UNL     1      -3.874  -2.388   0.327  1.00  0.00     0.349 HD
BRANCH  11  13
ATOM     13  C   UNL     1      -2.658  -0.921  -0.316  1.00  0.00     0.212 C 
ATOM     14  C   UNL     1      -1.182  -0.785   0.083  1.00  0.00     0.081 C 
BRANCH  13  15
ATOM     15  C   UNL     1      -2.535  -1.403  -1.988  1.00  0.00     0.009 A 
ATOM     16  C   UNL     1      -3.784  -2.727  -6.110  1.00  0.00     0.044 C 
ATOM     17  C   UNL     1      -3.177  -2.323  -4.794  1.00  0.00    -0.051 A 
ATOM     18  C   UNL     1      -3.688  -1.186  -4.267  1.00  0.00     0.004 A 
ATOM     19  C   UNL     1      -2.174  -2.905  -3.996  1.00  0.00     0.004 A 
ATOM     20  C   UNL     1      -3.343  -0.805  -2.953  1.00  0.00     0.010 A 
ATOM     21  C   UNL     1      -1.825  -2.433  -2.624  1.00  0.00     0.010 A 
ENDBRANCH  13  15
ENDBRANCH  11  13
BRANCH  11  22
ATOM     22  C   UNL     1      -3.004  -1.314   2.276  1.00  0.00     0.380 C 
BRANCH  22  23
ATOM     23  C   UNL     1      -2.276  -2.490   2.945  1.00  0.00     0.438 C 
ATOM     24  F   UNL     1      -1.341  -3.055   2.157  1.00  0.00    -0.165 F 
ATOM     25  F   UNL     1      -1.630  -2.037   4.053  1.00  0.00    -0.165 F 
ATOM     26  F   UNL     1      -3.137  -3.442   3.360  1.00  0.00    -0.165 F 
ENDBRANCH  22  23
ENDBRANCH  11  22
ENDBRANCH  10  11
ENDBRANCH   8  10
ENDBRANCH   7   8
ENDBRANCH   6   7
ENDBRANCH   5   6
ENDBRANCH   4   5
ENDBRANCH   3   4
ENDBRANCH   2   3
ENDBRANCH   1   2
BRANCH   1  27
ATOM     27  C   UNL     1      -2.502  -5.330  -0.202  1.00  0.00     0.188 C 
BRANCH  27  28
ATOM     28  C   UNL     1      -2.410  -6.798   0.218  1.00  0.00     0.188 C 
BRANCH  28  29
ATOM     29  O   UNL     1      -1.097  -7.216   0.570  1.00  0.00    -0.376 OA
BRANCH  29  30
ATOM     30  C   UNL     1      -0.075  -6.579  -0.204  1.00  0.00     0.202 C 
BRANCH  30  31
ATOM     31  C   UNL     1      -0.228  -6.585  -1.802  1.00  0.00     0.261 C 
BRANCH  31  32
ATOM     32  O   UNL     1      -1.623  -6.978  -2.250  1.00  0.00    -0.460 OA
BRANCH  32  33
ATOM     33  C   UNL     1      -2.401  -6.962  -3.376  1.00  0.00     0.338 C 
ATOM     34  O   UNL     1      -2.042  -7.292  -4.512  1.00  0.00    -0.246 OA
BRANCH  33  35
ATOM     35  C   UNL     1      -3.849  -6.482  -3.117  1.00  0.00     0.060 A 
ATOM     36  C   UNL     1      -4.433  -5.522  -3.927  1.00  0.00     0.016 A 
ATOM     37  C   UNL     1      -4.690  -6.896  -2.084  1.00  0.00     0.016 A 
ATOM     38  C   UNL     1      -5.587  -4.776  -3.511  1.00  0.00     0.010 A 
ATOM     39  C   UNL     1      -5.786  -6.077  -1.623  1.00  0.00     0.010 A 
ATOM     40  C   UNL     1      -6.081  -4.802  -2.174  1.00  0.00    -0.014 A 
BRANCH  40  41
ATOM     41  C   UNL     1      -6.701  -3.370  -1.167  1.00  0.00     0.031 A 
ATOM     42  C   UNL     1      -8.296  -3.974  -1.222  1.00  0.00     0.074 A 
ATOM     43  C   UNL     1      -6.181  -1.746  -0.761  1.00  0.00     0.049 A 
ATOM     44  N   UNL     1      -9.332  -3.267  -1.598  1.00  0.00    -0.248 NA
ATOM     45  C   UNL     1      -8.733  -5.391  -1.210  1.00  0.00     0.031 C 
ATOM     46  C   UNL     1      -6.852  -0.309   0.120  1.00  0.00     0.029 A 
ATOM     47  N   UNL     1      -5.199  -0.736  -1.217  1.00  0.00    -0.354 N 
ATOM     48  C   UNL     1     -10.410  -3.906  -1.113  1.00  0.00     0.074 A 
ATOM     49  C   UNL     1     -10.061  -5.267  -1.370  1.00  0.00     0.031 C 
ATOM     50  C   UNL     1      -6.203   0.850   0.021  1.00  0.00     0.029 A 
ATOM     51  C   UNL     1      -5.350   0.720  -1.097  1.00  0.00     0.049 A 
ATOM     52  H   UNL     1      -4.373  -1.070  -1.637  1.00  0.00     0.167 HD
ATOM     53  C   UNL     1     -11.178  -3.294  -0.162  1.00  0.00     0.034 A 
ATOM     54  C   UNL     1      -5.229   1.759  -2.018  1.00  0.00     0.034 A 
ATOM     55  C   UNL     1     -10.976  -1.789  -0.009  1.00  0.00     0.049 A 
ATOM     56  C   UNL     1      -6.705   2.166  -2.357  1.00  0.00     0.074 A 
ATOM     57  C   UNL     1     -10.796  -0.923   1.062  1.00  0.00     0.029 A 
ATOM     58  N   UNL     1     -10.782  -0.941  -1.121  1.00  0.00    -0.354 N 
ATOM     59  N   UNL     1      -7.752   1.776  -1.643  1.00  0.00    -0.248 NA
ATOM     60  C   UNL     1      -7.149   2.933  -3.507  1.00  0.00     0.031 C 
ATOM     61  C   UNL     1     -10.410   0.391   0.574  1.00  0.00     0.029 A 
ATOM     62  C   UNL     1     -10.356   0.384  -0.816  1.00  0.00     0.049 A 
ATOM     63  H   UNL     1     -10.931  -1.245  -2.046  1.00  0.00     0.167 HD
ATOM     64  C   UNL     1      -8.943   1.975  -2.284  1.00  0.00     0.074 A 
ATOM     65  C   UNL     1      -8.494   2.799  -3.425  1.00  0.00     0.031 C 
ATOM     66  C   UNL     1     -10.175   1.430  -1.911  1.00  0.00     0.034 A 
BRANCH  53  67
ATOM     67  C   UNL     1     -11.986  -4.212   0.775  1.00  0.00     0.023 A 
ATOM     68  C   UNL     1     -13.069  -3.675   1.481  1.00  0.00     0.012 A 
ATOM     69  C   UNL     1     -11.764  -5.612   0.984  1.00  0.00     0.148 A 
ATOM     70  C   UNL     1     -13.920  -4.489   2.255  1.00  0.00     0.002 A 
ATOM     71  C   UNL     1     -12.697  -6.440   1.601  1.00  0.00     0.091 A 
ATOM     72  F   UNL     1     -10.569  -6.164   0.738  1.00  0.00    -0.205 F 
ATOM     73  C   UNL     1     -13.776  -5.877   2.264  1.00  0.00     0.022 A 
BRANCH  71  74
ATOM     74  S   UNL     1     -12.600  -8.238   1.440  1.00  0.00     0.127 S 
ATOM     75  O   UNL     1     -12.086  -8.650   2.743  1.00  0.00    -0.237 OA
ATOM     76  O   UNL     1     -13.994  -8.610   1.190  1.00  0.00    -0.237 OA
ATOM     77  O   UNL     1     -11.713  -8.483   0.305  1.00  0.00    -0.744 OA
ENDBRANCH  71  74
ENDBRANCH  53  67
BRANCH  54  78
ATOM     78  C   UNL     1      -3.799   2.124  -2.703  1.00  0.00     0.023 A 
ATOM     79  C   UNL     1      -2.736   2.315  -1.764  1.00  0.00     0.012 A 
ATOM     80  C   UNL     1      -3.333   1.843  -4.047  1.00  0.00     0.148 A 
ATOM     81  C   UNL     1      -1.370   2.040  -2.050  1.00  0.00     0.002 A 
ATOM     82  C   UNL     1      -1.949   1.504  -4.313  1.00  0.00     0.091 A 
ATOM     83  F   UNL     1      -4.252   1.718  -5.015  1.00  0.00    -0.205 F 
ATOM     84  C   UNL     1      -0.990   1.567  -3.296  1.00  0.00     0.022 A 
BRANCH  82  85
ATOM     85  S   UNL     1      -1.300   0.673  -5.836  1.00  0.00     0.127 S 
ATOM     86  O   UNL     1      -0.351   1.667  -6.338  1.00  0.00    -0.237 OA
ATOM     87  O   UNL     1      -0.639  -0.531  -5.328  1.00  0.00    -0.237 OA
ATOM     88  O   UNL     1      -2.463   0.450  -6.684  1.00  0.00    -0.744 OA
ENDBRANCH  82  85
ENDBRANCH  54  78
BRANCH  66  89
ATOM     89  C   UNL     1     -11.450   1.929  -2.585  1.00  0.00     0.023 A 
ATOM     90  C   UNL     1     -11.573   3.266  -3.014  1.00  0.00     0.012 A 
ATOM     91  C   UNL     1     -12.621   1.135  -2.665  1.00  0.00     0.148 A 
ATOM     92  C   UNL     1     -12.749   3.750  -3.597  1.00  0.00     0.002 A 
ATOM     93  C   UNL     1     -13.820   1.651  -3.130  1.00  0.00     0.091 A 
ATOM     94  F   UNL     1     -12.585  -0.154  -2.330  1.00  0.00    -0.205 F 
ATOM     95  C   UNL     1     -13.879   2.946  -3.643  1.00  0.00     0.022 A 
BRANCH  93  96
ATOM     96  S   UNL     1     -15.357   0.725  -3.017  1.00  0.00     0.127 S 
ATOM     97  O   UNL     1     -16.199   1.649  -2.255  1.00  0.00    -0.237 OA
ATOM     98  O   UNL     1     -15.717   0.583  -4.426  1.00  0.00    -0.237 OA
ATOM     99  O   UNL     1     -15.041  -0.516  -2.324  1.00  0.00    -0.744 OA
ENDBRANCH  93  96
ENDBRANCH  66  89
ENDBRANCH  40  41
ENDBRANCH  33  35
ENDBRANCH  32  33
ENDBRANCH  31  32
ENDBRANCH  30  31
ENDBRANCH  29  30
ENDBRANCH  28  29
ENDBRANCH  27  28
ENDBRANCH   1  27
TORSDOF 28
