REMARK SMILES Cc1ccccc1C(=O)Nc1cc(C(=O)OCCOCCOCCOCCOC(=O)c2ccc(-c3c4nc(c(-c5cccc(S(=O)(=O)[O-])c5F)c5ccc([nH]5)c(-c5cccc(S(=O)(=O)[O-])c5F)c5nc(c(-c6cccc(S(=O)(=O)[O-])c6F)c6ccc3[nH]6)C=C5)C=C4)cc2)ccc1N1CC[NH+](CC(=O)Nc2ccc(F)cc2)CC1
REMARK SMILES IDX 21 1 20 2 19 3 18 4 17 5 16 6 14 7 15 8 13 9 11 10 12 11
REMARK SMILES IDX 96 12 95 13 94 14 10 15 8 16 9 17 7 19 1 20 2 21 3 22 4 23
REMARK SMILES IDX 6 24 5 25 97 26 98 27 113 28 99 29 112 30 100 31 101 33
REMARK SMILES IDX 102 34 103 35 104 36 105 38 106 39 111 40 107 41 110 42
REMARK SMILES IDX 108 43 109 44 22 45 23 46 24 47 25 48 26 49 27 50 28 51
REMARK SMILES IDX 29 52 30 53 31 54 32 55 93 56 33 57 92 58 34 59 35 60 36 61
REMARK SMILES IDX 86 62 37 63 91 64 85 65 87 66 38 67 90 68 84 69 83 70 39 72
REMARK SMILES IDX 71 73 51 74 70 75 52 76 55 77 69 78 88 79 53 80 54 81 68 83
REMARK SMILES IDX 89 84 56 85 40 86 41 87 49 88 42 89 44 90 50 91 43 92 45 93
REMARK SMILES IDX 46 94 47 95 48 96 72 97 73 98 81 99 74 100 76 101 82 102
REMARK SMILES IDX 75 103 77 104 78 105 79 106 80 107 57 108 58 109 66 110
REMARK SMILES IDX 59 111 61 112 67 113 60 114 62 115 63 116 64 117 65 118
REMARK H PARENT 10 18 100 32 104 37 87 71 55 82
REMARK Flexibility Score: inf
ROOT
ATOM      1  C   UNL     1       5.732  -0.136  -3.021  1.00  0.00     0.188 C 
ENDROOT
BRANCH   1   2
ATOM      2  C   UNL     1       5.500  -1.427  -2.240  1.00  0.00     0.188 C 
BRANCH   2   3
ATOM      3  O   UNL     1       5.968  -2.680  -2.724  1.00  0.00    -0.376 OA
BRANCH   3   4
ATOM      4  C   UNL     1       4.990  -3.721  -2.575  1.00  0.00     0.202 C 
BRANCH   4   5
ATOM      5  C   UNL     1       4.396  -4.036  -1.194  1.00  0.00     0.261 C 
BRANCH   5   6
ATOM      6  O   UNL     1       3.854  -2.894  -0.544  1.00  0.00    -0.460 OA
BRANCH   6   7
ATOM      7  C   UNL     1       4.434  -2.603   0.630  1.00  0.00     0.338 C 
ATOM      8  O   UNL     1       5.028  -3.331   1.388  1.00  0.00    -0.246 OA
BRANCH   7   9
ATOM      9  C   UNL     1       4.556  -1.136   0.642  1.00  0.00     0.062 A 
ATOM     10  C   UNL     1       3.828   1.104   0.163  1.00  0.00     0.065 A 
ATOM     11  C   UNL     1       3.608  -0.258   0.093  1.00  0.00     0.044 A 
ATOM     12  C   UNL     1       5.115   1.592   0.592  1.00  0.00     0.061 A 
ATOM     13  C   UNL     1       6.104   0.651   0.933  1.00  0.00     0.029 A 
ATOM     14  C   UNL     1       5.799  -0.684   1.056  1.00  0.00     0.018 A 
BRANCH  10  15
ATOM     15  N   UNL     1       2.808   2.028  -0.135  1.00  0.00    -0.320 N 
ATOM     16  C   UNL     1       1.454   2.145   0.140  1.00  0.00     0.255 C 
ATOM     17  O   UNL     1       1.011   3.296  -0.025  1.00  0.00    -0.269 OA
ATOM     18  H   UNL     1       3.140   2.782  -0.674  1.00  0.00     0.170 HD
BRANCH  16  19
ATOM     19  C   UNL     1       0.459   1.121   0.629  1.00  0.00     0.043 A 
ATOM     20  C   UNL     1       1.811  -0.351   2.292  1.00  0.00     0.045 C 
ATOM     21  C   UNL     1       0.626  -0.010   1.446  1.00  0.00    -0.038 A 
ATOM     22  C   UNL     1      -0.452  -0.913   1.616  1.00  0.00     0.004 A 
ATOM     23  C   UNL     1      -1.736  -0.612   1.186  1.00  0.00     0.000 A 
ATOM     24  C   UNL     1      -0.879   1.426   0.256  1.00  0.00     0.014 A 
ATOM     25  C   UNL     1      -1.964   0.594   0.555  1.00  0.00     0.001 A 
ENDBRANCH  16  19
ENDBRANCH  10  15
BRANCH  12  26
ATOM     26  N   UNL     1       5.365   2.969   0.882  1.00  0.00    -0.359 N 
ATOM     27  C   UNL     1       6.748   3.332   1.340  1.00  0.00     0.178 C 
ATOM     28  C   UNL     1       4.353   3.481   1.810  1.00  0.00     0.178 C 
ATOM     29  C   UNL     1       6.870   4.759   1.937  1.00  0.00     0.284 C 
ATOM     30  C   UNL     1       4.537   4.987   2.007  1.00  0.00     0.284 C 
ATOM     31  N   UNL     1       5.748   5.261   2.747  1.00  0.00    -0.324 N 
ATOM     32  H   UNL     1       5.968   6.250   2.865  1.00  0.00     0.348 HD
BRANCH  31  33
ATOM     33  C   UNL     1       5.618   4.951   4.193  1.00  0.00     0.364 C 
BRANCH  33  34
ATOM     34  C   UNL     1       5.222   3.554   4.713  1.00  0.00     0.279 C 
ATOM     35  O   UNL     1       6.147   2.765   4.984  1.00  0.00    -0.268 OA
ATOM     36  N   UNL     1       3.975   3.086   5.057  1.00  0.00    -0.321 N 
ATOM     37  H   UNL     1       4.093   2.337   5.684  1.00  0.00     0.170 HD
BRANCH  36  38
ATOM     38  C   UNL     1       2.577   3.274   4.850  1.00  0.00     0.041 A 
ATOM     39  C   UNL     1       1.730   2.512   5.678  1.00  0.00     0.029 A 
ATOM     40  C   UNL     1       1.929   3.998   3.852  1.00  0.00     0.029 A 
ATOM     41  C   UNL     1       0.329   2.506   5.525  1.00  0.00     0.041 A 
ATOM     42  C   UNL     1       0.536   3.965   3.653  1.00  0.00     0.041 A 
ATOM     43  C   UNL     1      -0.258   3.234   4.507  1.00  0.00     0.123 A 
ATOM     44  F   UNL     1      -1.587   3.229   4.346  1.00  0.00    -0.207 F 
ENDBRANCH  36  38
ENDBRANCH  33  34
ENDBRANCH  31  33
ENDBRANCH  12  26
ENDBRANCH   7   9
ENDBRANCH   6   7
ENDBRANCH   5   6
ENDBRANCH   4   5
ENDBRANCH   3   4
ENDBRANCH   2   3
ENDBRANCH   1   2
BRANCH   1  45
ATOM     45  O   UNL     1       4.566   0.418  -3.645  1.00  0.00    -0.377 OA
BRANCH  45  46
ATOM     46  C   UNL     1       3.913  -0.430  -4.595  1.00  0.00     0.188 C 
BRANCH  46  47
ATOM     47  C   UNL     1       4.794  -0.750  -5.793  1.00  0.00     0.188 C 
BRANCH  47  48
ATOM     48  O   UNL     1       5.739  -1.750  -5.426  1.00  0.00    -0.376 OA
BRANCH  48  49
ATOM     49  C   UNL     1       7.095  -1.590  -5.817  1.00  0.00     0.202 C 
BRANCH  49  50
ATOM     50  C   UNL     1       7.320  -1.293  -7.298  1.00  0.00     0.261 C 
BRANCH  50  51
ATOM     51  O   UNL     1       7.034  -2.469  -8.076  1.00  0.00    -0.460 OA
BRANCH  51  52
ATOM     52  C   UNL     1       5.806  -2.464  -8.668  1.00  0.00     0.338 C 
ATOM     53  O   UNL     1       5.448  -1.623  -9.476  1.00  0.00    -0.246 OA
BRANCH  52  54
ATOM     54  C   UNL     1       4.922  -3.487  -8.032  1.00  0.00     0.060 A 
ATOM     55  C   UNL     1       3.555  -3.518  -8.329  1.00  0.00     0.016 A 
ATOM     56  C   UNL     1       5.375  -4.161  -6.908  1.00  0.00     0.016 A 
ATOM     57  C   UNL     1       2.632  -3.993  -7.379  1.00  0.00     0.010 A 
ATOM     58  C   UNL     1       4.452  -4.496  -5.933  1.00  0.00     0.010 A 
ATOM     59  C   UNL     1       3.064  -4.340  -6.112  1.00  0.00    -0.014 A 
BRANCH  59  60
ATOM     60  C   UNL     1       2.218  -4.489  -4.894  1.00  0.00     0.031 A 
ATOM     61  C   UNL     1       2.494  -5.720  -4.049  1.00  0.00     0.074 A 
ATOM     62  C   UNL     1       1.669  -3.361  -4.353  1.00  0.00     0.049 A 
ATOM     63  N   UNL     1       2.194  -5.911  -2.807  1.00  0.00    -0.248 NA
ATOM     64  C   UNL     1       3.206  -6.875  -4.609  1.00  0.00     0.031 C 
ATOM     65  C   UNL     1       1.746  -2.998  -2.936  1.00  0.00     0.029 A 
ATOM     66  N   UNL     1       1.069  -2.217  -4.886  1.00  0.00    -0.354 N 
ATOM     67  C   UNL     1       2.911  -7.019  -2.340  1.00  0.00     0.074 A 
ATOM     68  C   UNL     1       3.467  -7.611  -3.525  1.00  0.00     0.031 C 
ATOM     69  C   UNL     1       1.213  -1.794  -2.711  1.00  0.00     0.029 A 
ATOM     70  C   UNL     1       0.412  -1.509  -3.858  1.00  0.00     0.049 A 
ATOM     71  H   UNL     1       1.101  -1.947  -5.832  1.00  0.00     0.167 HD
ATOM     72  C   UNL     1       3.052  -7.237  -0.991  1.00  0.00     0.034 A 
ATOM     73  C   UNL     1      -0.940  -1.397  -3.671  1.00  0.00     0.034 A 
ATOM     74  C   UNL     1       2.157  -6.337  -0.214  1.00  0.00     0.049 A 
ATOM     75  C   UNL     1      -1.512  -2.251  -2.511  1.00  0.00     0.074 A 
ATOM     76  C   UNL     1       2.329  -5.453   0.842  1.00  0.00     0.029 A 
ATOM     77  N   UNL     1       0.837  -6.153  -0.631  1.00  0.00    -0.354 N 
ATOM     78  N   UNL     1      -0.812  -3.112  -1.797  1.00  0.00    -0.248 NA
ATOM     79  C   UNL     1      -2.897  -2.200  -2.045  1.00  0.00     0.031 C 
ATOM     80  C   UNL     1       1.167  -4.632   0.932  1.00  0.00     0.029 A 
ATOM     81  C   UNL     1       0.236  -5.087   0.013  1.00  0.00     0.049 A 
ATOM     82  H   UNL     1       0.388  -6.715  -1.303  1.00  0.00     0.167 HD
ATOM     83  C   UNL     1      -1.611  -3.789  -0.907  1.00  0.00     0.074 A 
ATOM     84  C   UNL     1      -2.896  -3.124  -1.064  1.00  0.00     0.031 C 
ATOM     85  C   UNL     1      -1.196  -4.859  -0.144  1.00  0.00     0.034 A 
BRANCH  72  86
ATOM     86  C   UNL     1       4.122  -8.129  -0.288  1.00  0.00     0.023 A 
ATOM     87  C   UNL     1       4.092  -8.164   1.131  1.00  0.00     0.012 A 
ATOM     88  C   UNL     1       5.199  -8.863  -0.865  1.00  0.00     0.148 A 
ATOM     89  C   UNL     1       5.065  -8.800   1.920  1.00  0.00     0.002 A 
ATOM     90  C   UNL     1       6.133  -9.569  -0.075  1.00  0.00     0.091 A 
ATOM     91  F   UNL     1       5.382  -8.858  -2.186  1.00  0.00    -0.205 F 
ATOM     92  C   UNL     1       6.084  -9.512   1.318  1.00  0.00     0.022 A 
BRANCH  90  93
ATOM     93  S   UNL     1       7.442 -10.619  -0.757  1.00  0.00     0.127 S 
ATOM     94  O   UNL     1       8.655  -9.990  -0.234  1.00  0.00    -0.237 OA
ATOM     95  O   UNL     1       7.136 -11.922  -0.164  1.00  0.00    -0.237 OA
ATOM     96  O   UNL     1       7.299 -10.562  -2.206  1.00  0.00    -0.744 OA
ENDBRANCH  90  93
ENDBRANCH  72  86
BRANCH  73  97
ATOM     97  C   UNL     1      -1.595  -0.651  -4.794  1.00  0.00     0.023 A 
ATOM     98  C   UNL     1      -1.163   0.702  -4.871  1.00  0.00     0.012 A 
ATOM     99  C   UNL     1      -1.726  -1.374  -5.987  1.00  0.00     0.148 A 
ATOM    100  C   UNL     1      -0.516   1.169  -6.021  1.00  0.00     0.002 A 
ATOM    101  C   UNL     1      -1.030  -0.930  -7.111  1.00  0.00     0.091 A 
ATOM    102  F   UNL     1      -2.309  -2.579  -5.934  1.00  0.00    -0.205 F 
ATOM    103  C   UNL     1      -0.383   0.319  -7.112  1.00  0.00     0.022 A 
BRANCH 101 104
ATOM    104  S   UNL     1      -0.525  -2.109  -8.376  1.00  0.00     0.127 S 
ATOM    105  O   UNL     1      -1.424  -1.802  -9.479  1.00  0.00    -0.237 OA
ATOM    106  O   UNL     1       0.872  -1.730  -8.583  1.00  0.00    -0.237 OA
ATOM    107  O   UNL     1      -0.692  -3.412  -7.748  1.00  0.00    -0.744 OA
ENDBRANCH 101 104
ENDBRANCH  73  97
BRANCH  85 108
ATOM    108  C   UNL     1      -2.114  -5.869   0.564  1.00  0.00     0.023 A 
ATOM    109  C   UNL     1      -3.486  -5.957   0.271  1.00  0.00     0.012 A 
ATOM    110  C   UNL     1      -1.594  -6.893   1.418  1.00  0.00     0.148 A 
ATOM    111  C   UNL     1      -4.312  -6.930   0.845  1.00  0.00     0.002 A 
ATOM    112  C   UNL     1      -2.396  -7.933   1.883  1.00  0.00     0.091 A 
ATOM    113  F   UNL     1      -0.315  -6.867   1.810  1.00  0.00    -0.205 F 
ATOM    114  C   UNL     1      -3.766  -7.930   1.633  1.00  0.00     0.022 A 
BRANCH 112 115
ATOM    115  S   UNL     1      -1.712  -9.398   2.679  1.00  0.00     0.127 S 
ATOM    116  O   UNL     1      -2.108  -9.193   4.071  1.00  0.00    -0.237 OA
ATOM    117  O   UNL     1      -2.429 -10.475   1.994  1.00  0.00    -0.237 OA
ATOM    118  O   UNL     1      -0.280  -9.368   2.417  1.00  0.00    -0.744 OA
ENDBRANCH 112 115
ENDBRANCH  85 108
ENDBRANCH  59  60
ENDBRANCH  52  54
ENDBRANCH  51  52
ENDBRANCH  50  51
ENDBRANCH  49  50
ENDBRANCH  48  49
ENDBRANCH  47  48
ENDBRANCH  46  47
ENDBRANCH  45  46
ENDBRANCH   1  45
TORSDOF 29
