REMARK SMILES COc1cc(/C=C2\SC(=S)N(CC(=O)OCCOCCOCCOCCOC(=O)c3ccc(-c4c5nc(c(-c6cccc(S(=O)(=O)[O-])c6F)c6ccc([nH]6)c(-c6cccc(S(=O)(=O)[O-])c6F)c6nc(c(-c7cccc(S(=O)(=O)[O-])c7F)c7ccc4[nH]7)C=C6)C=C5)cc3)C2=O)cc2c1OCO2
REMARK SMILES IDX 21 1 20 2 19 3 18 4 17 5 16 6 15 7 13 8 14 9 12 10 11 11
REMARK SMILES IDX 6 12 7 13 8 14 93 15 9 16 94 17 10 18 5 19 3 20 4 21 97 22
REMARK SMILES IDX 96 23 98 24 95 25 100 26 99 27 2 28 1 29 22 30 23 31 24 32
REMARK SMILES IDX 25 33 26 34 27 35 28 36 29 37 30 38 31 39 92 40 32 41 91 42
REMARK SMILES IDX 33 43 34 44 35 45 85 46 36 47 90 48 84 49 86 50 37 51 89 52
REMARK SMILES IDX 83 53 82 54 38 56 70 57 50 58 69 59 51 60 54 61 68 62 87 63
REMARK SMILES IDX 52 64 53 65 67 67 88 68 55 69 39 70 40 71 48 72 41 73 43 74
REMARK SMILES IDX 49 75 42 76 44 77 45 78 46 79 47 80 71 81 72 82 80 83 73 84
REMARK SMILES IDX 75 85 81 86 74 87 76 88 77 89 78 90 79 91 56 92 57 93 65 94
REMARK SMILES IDX 58 95 60 96 66 97 59 98 61 99 62 100 63 101 64 102
REMARK H PARENT 86 55 54 66
REMARK Flexibility Score: inf
ROOT
ATOM      1  O   UNL     1      -4.410  -5.760  -4.898  1.00  0.00    -0.377 OA
ENDROOT
BRANCH   1   2
ATOM      2  C   UNL     1      -4.106  -4.957  -6.017  1.00  0.00     0.188 C 
BRANCH   2   3
ATOM      3  C   UNL     1      -5.134  -5.001  -7.163  1.00  0.00     0.188 C 
BRANCH   3   4
ATOM      4  O   UNL     1      -6.168  -5.983  -7.188  1.00  0.00    -0.376 OA
BRANCH   4   5
ATOM      5  C   UNL     1      -6.010  -7.194  -6.462  1.00  0.00     0.202 C 
BRANCH   5   6
ATOM      6  C   UNL     1      -4.828  -8.119  -6.823  1.00  0.00     0.261 C 
BRANCH   6   7
ATOM      7  O   UNL     1      -3.553  -7.476  -7.065  1.00  0.00    -0.462 OA
BRANCH   7   8
ATOM      8  C   UNL     1      -3.137  -7.396  -8.352  1.00  0.00     0.326 C 
ATOM      9  O   UNL     1      -3.742  -7.890  -9.301  1.00  0.00    -0.250 OA
BRANCH   8  10
ATOM     10  C   UNL     1      -1.862  -6.558  -8.583  1.00  0.00     0.250 C 
BRANCH  10  11
ATOM     11  N   UNL     1      -1.077  -5.944  -7.493  1.00  0.00    -0.282 N 
ATOM     12  C   UNL     1      -0.284  -2.926  -5.622  1.00  0.00     0.029 C 
ATOM     13  C   UNL     1      -0.279  -4.171  -6.127  1.00  0.00     0.081 C 
ATOM     14  S   UNL     1       0.658  -5.515  -5.623  1.00  0.00    -0.054 SA
ATOM     15  C   UNL     1      -1.155  -4.578  -7.265  1.00  0.00     0.266 C 
ATOM     16  C   UNL     1      -0.138  -6.622  -6.744  1.00  0.00     0.148 C 
ATOM     17  O   UNL     1      -1.837  -3.781  -7.900  1.00  0.00    -0.268 OA
ATOM     18  S   UNL     1       0.283  -8.227  -6.867  1.00  0.00    -0.052 S 
BRANCH  12  19
ATOM     19  C   UNL     1       0.603  -2.397  -4.572  1.00  0.00    -0.017 A 
ATOM     20  C   UNL     1       0.943  -1.520  -2.296  1.00  0.00     0.165 A 
ATOM     21  C   UNL     1       0.114  -2.086  -3.284  1.00  0.00     0.058 A 
ATOM     22  C   UNL     1       2.273  -1.320  -2.620  1.00  0.00     0.207 A 
ATOM     23  C   UNL     1       2.750  -1.627  -3.878  1.00  0.00     0.170 A 
ATOM     24  O   UNL     1       3.269  -0.844  -1.821  1.00  0.00    -0.450 OA
ATOM     25  C   UNL     1       1.945  -2.144  -4.873  1.00  0.00     0.059 A 
ATOM     26  O   UNL     1       4.080  -1.367  -4.018  1.00  0.00    -0.453 OA
ATOM     27  C   UNL     1       4.422  -1.010  -2.667  1.00  0.00     0.468 C 
BRANCH  20  28
ATOM     28  O   UNL     1       0.336  -1.267  -1.099  1.00  0.00    -0.493 OA
ATOM     29  C   UNL     1       0.918  -0.241  -0.297  1.00  0.00     0.278 C 
ENDBRANCH  20  28
ENDBRANCH  12  19
ENDBRANCH  10  11
ENDBRANCH   8  10
ENDBRANCH   7   8
ENDBRANCH   6   7
ENDBRANCH   5   6
ENDBRANCH   4   5
ENDBRANCH   3   4
ENDBRANCH   2   3
ENDBRANCH   1   2
BRANCH   1  30
ATOM     30  C   UNL     1      -4.877  -5.087  -3.748  1.00  0.00     0.188 C 
BRANCH  30  31
ATOM     31  C   UNL     1      -5.987  -4.051  -3.979  1.00  0.00     0.188 C 
BRANCH  31  32
ATOM     32  O   UNL     1      -5.649  -3.090  -4.972  1.00  0.00    -0.376 OA
BRANCH  32  33
ATOM     33  C   UNL     1      -5.202  -1.806  -4.574  1.00  0.00     0.202 C 
BRANCH  33  34
ATOM     34  C   UNL     1      -3.857  -1.666  -3.840  1.00  0.00     0.261 C 
BRANCH  34  35
ATOM     35  O   UNL     1      -3.594  -2.570  -2.762  1.00  0.00    -0.460 OA
BRANCH  35  36
ATOM     36  C   UNL     1      -4.314  -2.434  -1.627  1.00  0.00     0.338 C 
ATOM     37  O   UNL     1      -5.182  -1.604  -1.415  1.00  0.00    -0.246 OA
BRANCH  36  38
ATOM     38  C   UNL     1      -4.022  -3.606  -0.768  1.00  0.00     0.060 A 
ATOM     39  C   UNL     1      -5.068  -4.487  -0.457  1.00  0.00     0.016 A 
ATOM     40  C   UNL     1      -2.726  -3.867  -0.315  1.00  0.00     0.016 A 
ATOM     41  C   UNL     1      -4.824  -5.624   0.317  1.00  0.00     0.010 A 
ATOM     42  C   UNL     1      -2.491  -4.989   0.489  1.00  0.00     0.010 A 
ATOM     43  C   UNL     1      -3.542  -5.859   0.829  1.00  0.00    -0.014 A 
BRANCH  43  44
ATOM     44  C   UNL     1      -3.341  -6.895   1.871  1.00  0.00     0.031 A 
ATOM     45  C   UNL     1      -3.361  -6.464   3.312  1.00  0.00     0.074 A 
ATOM     46  C   UNL     1      -3.132  -8.186   1.555  1.00  0.00     0.049 A 
ATOM     47  N   UNL     1      -3.139  -7.164   4.392  1.00  0.00    -0.248 NA
ATOM     48  C   UNL     1      -3.675  -5.047   3.565  1.00  0.00     0.031 C 
ATOM     49  C   UNL     1      -3.114  -8.733   0.200  1.00  0.00     0.029 A 
ATOM     50  N   UNL     1      -2.862  -9.266   2.360  1.00  0.00    -0.354 N 
ATOM     51  C   UNL     1      -3.253  -6.270   5.450  1.00  0.00     0.074 A 
ATOM     52  C   UNL     1      -3.560  -4.976   4.883  1.00  0.00     0.031 C 
ATOM     53  C   UNL     1      -2.804 -10.041   0.264  1.00  0.00     0.029 A 
ATOM     54  C   UNL     1      -2.571 -10.414   1.659  1.00  0.00     0.049 A 
ATOM     55  H   UNL     1      -2.874  -9.223   3.343  1.00  0.00     0.167 HD
ATOM     56  C   UNL     1      -3.119  -6.505   6.776  1.00  0.00     0.034 A 
ATOM     57  C   UNL     1      -2.132 -11.613   2.093  1.00  0.00     0.034 A 
ATOM     58  C   UNL     1      -2.812  -7.791   7.338  1.00  0.00     0.049 A 
ATOM     59  C   UNL     1      -1.932 -11.836   3.572  1.00  0.00     0.074 A 
ATOM     60  C   UNL     1      -2.693  -8.140   8.671  1.00  0.00     0.029 A 
ATOM     61  N   UNL     1      -2.550  -8.934   6.599  1.00  0.00    -0.354 N 
ATOM     62  N   UNL     1      -2.150 -11.012   4.570  1.00  0.00    -0.248 NA
ATOM     63  C   UNL     1      -1.448 -13.162   3.988  1.00  0.00     0.031 C 
ATOM     64  C   UNL     1      -2.317  -9.485   8.737  1.00  0.00     0.029 A 
ATOM     65  C   UNL     1      -2.247  -9.985   7.447  1.00  0.00     0.049 A 
ATOM     66  H   UNL     1      -2.576  -8.990   5.617  1.00  0.00     0.167 HD
ATOM     67  C   UNL     1      -1.865 -11.729   5.728  1.00  0.00     0.074 A 
ATOM     68  C   UNL     1      -1.476 -13.060   5.311  1.00  0.00     0.031 C 
ATOM     69  C   UNL     1      -1.911 -11.320   7.021  1.00  0.00     0.034 A 
BRANCH  56  70
ATOM     70  C   UNL     1      -3.305  -5.341   7.713  1.00  0.00     0.023 A 
ATOM     71  C   UNL     1      -4.592  -4.802   7.916  1.00  0.00     0.012 A 
ATOM     72  C   UNL     1      -2.212  -4.809   8.424  1.00  0.00     0.148 A 
ATOM     73  C   UNL     1      -4.783  -3.730   8.787  1.00  0.00     0.002 A 
ATOM     74  C   UNL     1      -2.418  -3.772   9.325  1.00  0.00     0.091 A 
ATOM     75  F   UNL     1      -0.994  -5.320   8.199  1.00  0.00    -0.205 F 
ATOM     76  C   UNL     1      -3.699  -3.223   9.498  1.00  0.00     0.022 A 
BRANCH  74  77
ATOM     77  S   UNL     1      -1.101  -3.101  10.346  1.00  0.00     0.127 S 
ATOM     78  O   UNL     1      -0.944  -1.762   9.781  1.00  0.00    -0.237 OA
ATOM     79  O   UNL     1      -1.703  -3.133  11.680  1.00  0.00    -0.237 OA
ATOM     80  O   UNL     1       0.039  -3.989  10.170  1.00  0.00    -0.744 OA
ENDBRANCH  74  77
ENDBRANCH  56  70
BRANCH  57  81
ATOM     81  C   UNL     1      -1.847 -12.706   1.118  1.00  0.00     0.023 A 
ATOM     82  C   UNL     1      -2.654 -13.860   1.107  1.00  0.00     0.012 A 
ATOM     83  C   UNL     1      -0.779 -12.607   0.205  1.00  0.00     0.148 A 
ATOM     84  C   UNL     1      -2.383 -14.910   0.228  1.00  0.00     0.002 A 
ATOM     85  C   UNL     1      -0.548 -13.632  -0.705  1.00  0.00     0.091 A 
ATOM     86  F   UNL     1      -0.011 -11.509   0.244  1.00  0.00    -0.205 F 
ATOM     87  C   UNL     1      -1.338 -14.792  -0.684  1.00  0.00     0.022 A 
BRANCH  85  88
ATOM     88  S   UNL     1       0.699 -13.519  -1.993  1.00  0.00     0.127 S 
ATOM     89  O   UNL     1       1.644 -14.556  -1.584  1.00  0.00    -0.237 OA
ATOM     90  O   UNL     1      -0.081 -13.833  -3.190  1.00  0.00    -0.237 OA
ATOM     91  O   UNL     1       1.201 -12.153  -1.937  1.00  0.00    -0.744 OA
ENDBRANCH  85  88
ENDBRANCH  57  81
BRANCH  69  92
ATOM     92  C   UNL     1      -1.575 -12.324   8.095  1.00  0.00     0.023 A 
ATOM     93  C   UNL     1      -0.242 -12.736   8.284  1.00  0.00     0.012 A 
ATOM     94  C   UNL     1      -2.573 -12.782   8.979  1.00  0.00     0.148 A 
ATOM     95  C   UNL     1       0.090 -13.608   9.321  1.00  0.00     0.002 A 
ATOM     96  C   UNL     1      -2.227 -13.610  10.041  1.00  0.00     0.091 A 
ATOM     97  F   UNL     1      -3.838 -12.388   8.774  1.00  0.00    -0.205 F 
ATOM     98  C   UNL     1      -0.899 -14.034  10.205  1.00  0.00     0.022 A 
BRANCH  96  99
ATOM     99  S   UNL     1      -3.410 -14.128  11.289  1.00  0.00     0.127 S 
ATOM    100  O   UNL     1      -3.501 -15.565  11.035  1.00  0.00    -0.237 OA
ATOM    101  O   UNL     1      -2.724 -13.770  12.531  1.00  0.00    -0.237 OA
ATOM    102  O   UNL     1      -4.630 -13.375  11.029  1.00  0.00    -0.744 OA
ENDBRANCH  96  99
ENDBRANCH  69  92
ENDBRANCH  43  44
ENDBRANCH  36  38
ENDBRANCH  35  36
ENDBRANCH  34  35
ENDBRANCH  33  34
ENDBRANCH  32  33
ENDBRANCH  31  32
ENDBRANCH  30  31
ENDBRANCH   1  30
TORSDOF 26
