REMARK SMILES COC(=O)c1ccccc1-c1ccc(/C=C(\C#N)C(=O)OCCOCCOCCOCCOC(=O)c2ccc(-c3c4nc(c(-c5cccc(S(=O)(=O)[O-])c5F)c5ccc([nH]5)c(-c5cccc(S(=O)(=O)[O-])c5F)c5nc(c(-c6cccc(S(=O)(=O)[O-])c6F)c6ccc3[nH]6)C=C5)C=C4)cc2)o1
REMARK SMILES IDX 26 1 25 2 24 3 23 4 22 5 21 6 19 7 20 8 16 9 15 10 14 11
REMARK SMILES IDX 11 12 12 13 99 14 13 15 10 16 5 17 6 18 7 19 9 20 8 21 3 22
REMARK SMILES IDX 4 23 2 24 1 25 17 26 18 27 27 28 28 29 29 30 30 31 31 32
REMARK SMILES IDX 32 33 33 34 34 35 35 36 36 37 37 38 98 39 38 40 97 41 39 42
REMARK SMILES IDX 40 43 41 44 91 45 42 46 96 47 90 48 92 49 43 50 95 51 89 52
REMARK SMILES IDX 88 53 44 55 76 56 56 57 75 58 57 59 60 60 74 61 93 62 58 63
REMARK SMILES IDX 59 64 73 66 94 67 61 68 45 69 46 70 54 71 47 72 49 73 55 74
REMARK SMILES IDX 48 75 50 76 51 77 52 78 53 79 77 80 78 81 86 82 79 83 81 84
REMARK SMILES IDX 87 85 80 86 82 87 83 88 84 89 85 90 62 91 63 92 71 93 64 94
REMARK SMILES IDX 66 95 72 96 65 97 67 98 68 99 69 100 70 101
REMARK H PARENT 92 54 60 65
REMARK Flexibility Score: inf
ROOT
ATOM      1  C   UNL     1      -4.130  -4.256  -1.945  1.00  0.00     0.188 C 
ENDROOT
BRANCH   1   2
ATOM      2  C   UNL     1      -5.382  -3.971  -1.098  1.00  0.00     0.188 C 
BRANCH   2   3
ATOM      3  O   UNL     1      -6.426  -4.909  -1.287  1.00  0.00    -0.376 OA
BRANCH   3   4
ATOM      4  C   UNL     1      -7.375  -4.755  -2.334  1.00  0.00     0.202 C 
BRANCH   4   5
ATOM      5  C   UNL     1      -7.108  -4.101  -3.708  1.00  0.00     0.261 C 
BRANCH   5   6
ATOM      6  O   UNL     1      -6.094  -3.099  -3.796  1.00  0.00    -0.459 OA
BRANCH   6   7
ATOM      7  C   UNL     1      -6.383  -1.848  -3.393  1.00  0.00     0.349 C 
ATOM      8  O   UNL     1      -7.448  -1.472  -2.927  1.00  0.00    -0.245 OA
BRANCH   7   9
ATOM      9  C   UNL     1      -5.136  -1.045  -3.401  1.00  0.00     0.141 C 
ATOM     10  C   UNL     1      -4.917  -0.338  -2.278  1.00  0.00     0.074 C 
BRANCH  10  11
ATOM     11  C   UNL     1      -3.764   0.456  -2.030  1.00  0.00     0.129 A 
ATOM     12  C   UNL     1      -1.916   1.640  -2.417  1.00  0.00     0.135 A 
ATOM     13  C   UNL     1      -2.180   1.767  -1.072  1.00  0.00     0.051 A 
ATOM     14  O   UNL     1      -2.868   0.852  -2.990  1.00  0.00    -0.457 OA
ATOM     15  C   UNL     1      -3.344   1.003  -0.823  1.00  0.00     0.051 A 
BRANCH  12  16
ATOM     16  C   UNL     1      -0.907   2.178  -3.325  1.00  0.00     0.032 A 
ATOM     17  C   UNL     1       0.439   2.371  -2.965  1.00  0.00     0.071 A 
ATOM     18  C   UNL     1       1.329   3.014  -3.843  1.00  0.00     0.016 A 
ATOM     19  C   UNL     1       0.896   3.438  -5.098  1.00  0.00     0.001 A 
ATOM     20  C   UNL     1      -1.313   2.594  -4.607  1.00  0.00     0.013 A 
ATOM     21  C   UNL     1      -0.422   3.218  -5.484  1.00  0.00     0.001 A 
BRANCH  17  22
ATOM     22  C   UNL     1       0.998   1.937  -1.668  1.00  0.00     0.338 C 
ATOM     23  O   UNL     1       1.671   2.657  -0.948  1.00  0.00    -0.246 OA
BRANCH  22  24
ATOM     24  O   UNL     1       0.695   0.635  -1.451  1.00  0.00    -0.465 OA
ATOM     25  C   UNL     1       1.148   0.126  -0.197  1.00  0.00     0.282 C 
ENDBRANCH  22  24
ENDBRANCH  17  22
ENDBRANCH  12  16
ENDBRANCH  10  11
BRANCH   9  26
ATOM     26  C   UNL     1      -4.231  -1.173  -4.492  1.00  0.00     0.107 C 
ATOM     27  N   UNL     1      -3.488  -1.265  -5.375  1.00  0.00    -0.192 NA
ENDBRANCH   9  26
ENDBRANCH   7   9
ENDBRANCH   6   7
ENDBRANCH   5   6
ENDBRANCH   4   5
ENDBRANCH   3   4
ENDBRANCH   2   3
ENDBRANCH   1   2
BRANCH   1  28
ATOM     28  O   UNL     1      -4.421  -5.119  -3.031  1.00  0.00    -0.377 OA
BRANCH  28  29
ATOM     29  C   UNL     1      -4.267  -6.519  -2.816  1.00  0.00     0.188 C 
BRANCH  29  30
ATOM     30  C   UNL     1      -4.580  -7.138  -1.434  1.00  0.00     0.188 C 
BRANCH  30  31
ATOM     31  O   UNL     1      -3.950  -6.471  -0.341  1.00  0.00    -0.376 OA
BRANCH  31  32
ATOM     32  C   UNL     1      -2.856  -7.135   0.277  1.00  0.00     0.202 C 
BRANCH  32  33
ATOM     33  C   UNL     1      -1.543  -7.081  -0.514  1.00  0.00     0.261 C 
BRANCH  33  34
ATOM     34  O   UNL     1      -1.573  -7.705  -1.804  1.00  0.00    -0.460 OA
BRANCH  34  35
ATOM     35  C   UNL     1      -1.886  -9.018  -1.864  1.00  0.00     0.338 C 
ATOM     36  O   UNL     1      -2.126  -9.764  -0.933  1.00  0.00    -0.246 OA
BRANCH  35  37
ATOM     37  C   UNL     1      -2.064  -9.357  -3.289  1.00  0.00     0.060 A 
ATOM     38  C   UNL     1      -3.279  -9.906  -3.722  1.00  0.00     0.016 A 
ATOM     39  C   UNL     1      -1.030  -9.112  -4.194  1.00  0.00     0.016 A 
ATOM     40  C   UNL     1      -3.448 -10.247  -5.066  1.00  0.00     0.010 A 
ATOM     41  C   UNL     1      -1.193  -9.469  -5.530  1.00  0.00     0.010 A 
ATOM     42  C   UNL     1      -2.388 -10.069  -5.965  1.00  0.00    -0.014 A 
BRANCH  42  43
ATOM     43  C   UNL     1      -2.401 -10.701  -7.304  1.00  0.00     0.031 A 
ATOM     44  C   UNL     1      -1.697 -12.023  -7.451  1.00  0.00     0.074 A 
ATOM     45  C   UNL     1      -2.941 -10.087  -8.372  1.00  0.00     0.049 A 
ATOM     46  N   UNL     1      -1.384 -12.681  -8.534  1.00  0.00    -0.248 NA
ATOM     47  C   UNL     1      -1.276 -12.682  -6.201  1.00  0.00     0.031 C 
ATOM     48  C   UNL     1      -3.668  -8.820  -8.347  1.00  0.00     0.029 A 
ATOM     49  N   UNL     1      -2.915 -10.436  -9.700  1.00  0.00    -0.354 N 
ATOM     50  C   UNL     1      -0.702 -13.812  -8.100  1.00  0.00     0.074 A 
ATOM     51  C   UNL     1      -0.640 -13.750  -6.658  1.00  0.00     0.031 C 
ATOM     52  C   UNL     1      -3.985  -8.475  -9.608  1.00  0.00     0.029 A 
ATOM     53  C   UNL     1      -3.446  -9.474 -10.529  1.00  0.00     0.049 A 
ATOM     54  H   UNL     1      -2.552 -11.290 -10.027  1.00  0.00     0.167 HD
ATOM     55  C   UNL     1      -0.180 -14.818  -8.838  1.00  0.00     0.034 A 
ATOM     56  C   UNL     1      -3.454  -9.398 -11.876  1.00  0.00     0.034 A 
ATOM     57  C   UNL     1      -0.247 -14.875 -10.271  1.00  0.00     0.049 A 
ATOM     58  C   UNL     1      -2.814 -10.508 -12.677  1.00  0.00     0.074 A 
ATOM     59  C   UNL     1       0.251 -15.849 -11.117  1.00  0.00     0.029 A 
ATOM     60  N   UNL     1      -0.850 -13.916 -11.068  1.00  0.00    -0.354 N 
ATOM     61  N   UNL     1      -2.237 -11.607 -12.255  1.00  0.00    -0.248 NA
ATOM     62  C   UNL     1      -2.848 -10.378 -14.143  1.00  0.00     0.031 C 
ATOM     63  C   UNL     1      -0.039 -15.470 -12.431  1.00  0.00     0.029 A 
ATOM     64  C   UNL     1      -0.745 -14.277 -12.398  1.00  0.00     0.049 A 
ATOM     65  H   UNL     1      -1.287 -13.098 -10.737  1.00  0.00     0.167 HD
ATOM     66  C   UNL     1      -1.897 -12.325 -13.399  1.00  0.00     0.074 A 
ATOM     67  C   UNL     1      -2.332 -11.537 -14.532  1.00  0.00     0.031 C 
ATOM     68  C   UNL     1      -1.272 -13.523 -13.504  1.00  0.00     0.034 A 
BRANCH  55  69
ATOM     69  C   UNL     1       0.481 -15.954  -8.107  1.00  0.00     0.023 A 
ATOM     70  C   UNL     1      -0.315 -16.879  -7.401  1.00  0.00     0.012 A 
ATOM     71  C   UNL     1       1.875 -16.142  -8.165  1.00  0.00     0.148 A 
ATOM     72  C   UNL     1       0.268 -17.960  -6.743  1.00  0.00     0.002 A 
ATOM     73  C   UNL     1       2.445 -17.246  -7.544  1.00  0.00     0.091 A 
ATOM     74  F   UNL     1       2.615 -15.238  -8.823  1.00  0.00    -0.205 F 
ATOM     75  C   UNL     1       1.645 -18.150  -6.824  1.00  0.00     0.022 A 
BRANCH  73  76
ATOM     76  S   UNL     1       4.198 -17.624  -7.650  1.00  0.00     0.127 S 
ATOM     77  O   UNL     1       4.626 -17.426  -6.266  1.00  0.00    -0.237 OA
ATOM     78  O   UNL     1       4.184 -19.018  -8.091  1.00  0.00    -0.237 OA
ATOM     79  O   UNL     1       4.756 -16.684  -8.613  1.00  0.00    -0.744 OA
ENDBRANCH  73  76
ENDBRANCH  55  69
BRANCH  56  80
ATOM     80  C   UNL     1      -4.103  -8.249 -12.573  1.00  0.00     0.023 A 
ATOM     81  C   UNL     1      -5.255  -8.477 -13.352  1.00  0.00     0.012 A 
ATOM     82  C   UNL     1      -3.571  -6.946 -12.506  1.00  0.00     0.148 A 
ATOM     83  C   UNL     1      -5.838  -7.444 -14.086  1.00  0.00     0.002 A 
ATOM     84  C   UNL     1      -4.189  -5.909 -13.197  1.00  0.00     0.091 A 
ATOM     85  F   UNL     1      -2.463  -6.748 -11.778  1.00  0.00    -0.205 F 
ATOM     86  C   UNL     1      -5.310  -6.159 -14.004  1.00  0.00     0.022 A 
BRANCH  84  87
ATOM     87  S   UNL     1      -3.644  -4.202 -13.065  1.00  0.00     0.127 S 
ATOM     88  O   UNL     1      -3.026  -3.984 -14.370  1.00  0.00    -0.237 OA
ATOM     89  O   UNL     1      -4.910  -3.497 -12.857  1.00  0.00    -0.237 OA
ATOM     90  O   UNL     1      -2.743  -4.170 -11.922  1.00  0.00    -0.744 OA
ENDBRANCH  84  87
ENDBRANCH  56  80
BRANCH  68  91
ATOM     91  C   UNL     1      -1.103 -14.122 -14.875  1.00  0.00     0.023 A 
ATOM     92  C   UNL     1      -0.127 -13.616 -15.755  1.00  0.00     0.012 A 
ATOM     93  C   UNL     1      -1.833 -15.273 -15.233  1.00  0.00     0.148 A 
ATOM     94  C   UNL     1       0.106 -14.239 -16.981  1.00  0.00     0.002 A 
ATOM     95  C   UNL     1      -1.560 -15.917 -16.433  1.00  0.00     0.091 A 
ATOM     96  F   UNL     1      -2.766 -15.727 -14.383  1.00  0.00    -0.205 F 
ATOM     97  C   UNL     1      -0.598 -15.395 -17.312  1.00  0.00     0.022 A 
BRANCH  95  98
ATOM     98  S   UNL     1      -2.339 -17.468 -16.896  1.00  0.00     0.127 S 
ATOM     99  O   UNL     1      -3.170 -17.057 -18.026  1.00  0.00    -0.237 OA
ATOM    100  O   UNL     1      -1.188 -18.296 -17.254  1.00  0.00    -0.237 OA
ATOM    101  O   UNL     1      -3.070 -17.921 -15.720  1.00  0.00    -0.744 OA
ENDBRANCH  95  98
ENDBRANCH  68  91
ENDBRANCH  42  43
ENDBRANCH  35  37
ENDBRANCH  34  35
ENDBRANCH  33  34
ENDBRANCH  32  33
ENDBRANCH  31  32
ENDBRANCH  30  31
ENDBRANCH  29  30
ENDBRANCH  28  29
ENDBRANCH   1  28
TORSDOF 28
