REMARK SMILES O=C(C[NH+]1CCN(c2nccc(N3CCCCC3)n2)CC1)OCCOCCOCCOCCOC(=O)c1ccc(-c2c3nc(c(-c4cccc(S(=O)(=O)[O-])c4F)c4ccc([nH]4)c(-c4cccc(S(=O)(=O)[O-])c4F)c4nc(c(-c5cccc(S(=O)(=O)[O-])c5F)c5ccc2[nH]5)C=C4)C=C3)cc1
REMARK SMILES IDX 28 1 27 2 26 3 25 4 24 5 23 6 22 7 2 8 1 9 3 10 4 11 5 12
REMARK SMILES IDX 21 13 6 15 20 16 7 17 8 18 9 19 19 20 10 21 12 22 11 23
REMARK SMILES IDX 13 24 14 25 18 26 15 27 17 28 16 29 29 30 30 31 31 32 32 33
REMARK SMILES IDX 33 34 34 35 35 36 36 37 37 38 38 39 99 40 39 41 98 42 40 43
REMARK SMILES IDX 41 44 42 45 92 46 43 47 97 48 91 49 93 50 44 51 96 52 90 53
REMARK SMILES IDX 89 54 45 56 77 57 57 58 76 59 58 60 61 61 75 62 94 63 59 64
REMARK SMILES IDX 60 65 74 67 95 68 62 69 46 70 47 71 55 72 48 73 50 74 56 75
REMARK SMILES IDX 49 76 51 77 52 78 53 79 54 80 78 81 79 82 87 83 80 84 82 85
REMARK SMILES IDX 88 86 81 87 83 88 84 89 85 90 86 91 63 92 64 93 72 94 65 95
REMARK SMILES IDX 67 96 73 97 66 98 68 99 69 100 70 101 71 102
REMARK H PARENT 4 14 93 55 61 66
REMARK Flexibility Score: inf
ROOT
ATOM      1  O   UNL     1       2.328   3.743  -0.293  1.00  0.00    -0.377 OA
ENDROOT
BRANCH   1   2
ATOM      2  C   UNL     1       1.804   2.447  -0.535  1.00  0.00     0.188 C 
BRANCH   2   3
ATOM      3  C   UNL     1       2.399   1.353   0.347  1.00  0.00     0.188 C 
BRANCH   3   4
ATOM      4  O   UNL     1       3.769   0.996   0.129  1.00  0.00    -0.376 OA
BRANCH   4   5
ATOM      5  C   UNL     1       4.157   0.602  -1.183  1.00  0.00     0.202 C 
BRANCH   5   6
ATOM      6  C   UNL     1       4.069  -0.895  -1.447  1.00  0.00     0.261 C 
BRANCH   6   7
ATOM      7  O   UNL     1       2.740  -1.388  -1.255  1.00  0.00    -0.459 OA
BRANCH   7   8
ATOM      8  C   UNL     1       2.370  -2.170  -0.217  1.00  0.00     0.361 C 
ATOM      9  O   UNL     1       1.406  -2.927  -0.365  1.00  0.00    -0.245 OA
BRANCH   8  10
ATOM     10  C   UNL     1       2.953  -1.951   1.181  1.00  0.00     0.386 C 
BRANCH  10  11
ATOM     11  N   UNL     1       4.342  -2.428   1.416  1.00  0.00    -0.323 N 
ATOM     12  C   UNL     1       5.285  -1.303   1.699  1.00  0.00     0.284 C 
ATOM     13  C   UNL     1       4.382  -3.275   2.646  1.00  0.00     0.284 C 
ATOM     14  H   UNL     1       4.615  -2.928   0.570  1.00  0.00     0.348 HD
ATOM     15  C   UNL     1       4.947  -0.428   2.927  1.00  0.00     0.181 C 
ATOM     16  C   UNL     1       4.075  -2.538   3.976  1.00  0.00     0.181 C 
ATOM     17  N   UNL     1       4.774  -1.268   4.103  1.00  0.00    -0.329 N 
BRANCH  17  18
ATOM     18  C   UNL     1       5.768  -1.110   5.034  1.00  0.00     0.227 A 
ATOM     19  N   UNL     1       5.706   0.004   5.780  1.00  0.00    -0.221 NA
ATOM     20  N   UNL     1       6.774  -1.995   5.090  1.00  0.00    -0.196 NA
ATOM     21  C   UNL     1       6.700   0.214   6.649  1.00  0.00     0.119 A 
ATOM     22  C   UNL     1       7.770  -1.744   5.956  1.00  0.00     0.134 A 
ATOM     23  C   UNL     1       7.761  -0.638   6.783  1.00  0.00     0.067 A 
BRANCH  22  24
ATOM     24  N   UNL     1       8.848  -2.600   6.007  1.00  0.00    -0.356 N 
ATOM     25  C   UNL     1       9.697  -2.750   4.838  1.00  0.00     0.118 C 
ATOM     26  C   UNL     1       8.975  -3.511   7.128  1.00  0.00     0.118 C 
ATOM     27  C   UNL     1       9.725  -4.200   4.362  1.00  0.00     0.022 C 
ATOM     28  C   UNL     1       8.938  -4.952   6.625  1.00  0.00     0.022 C 
ATOM     29  C   UNL     1       9.967  -5.171   5.518  1.00  0.00     0.004 C 
ENDBRANCH  22  24
ENDBRANCH  17  18
ENDBRANCH  10  11
ENDBRANCH   8  10
ENDBRANCH   7   8
ENDBRANCH   6   7
ENDBRANCH   5   6
ENDBRANCH   4   5
ENDBRANCH   3   4
ENDBRANCH   2   3
ENDBRANCH   1   2
BRANCH   1  30
ATOM     30  C   UNL     1       3.697   3.903  -0.641  1.00  0.00     0.188 C 
BRANCH  30  31
ATOM     31  C   UNL     1       4.642   3.825   0.569  1.00  0.00     0.188 C 
BRANCH  31  32
ATOM     32  O   UNL     1       3.956   3.849   1.819  1.00  0.00    -0.376 OA
BRANCH  32  33
ATOM     33  C   UNL     1       3.911   5.119   2.467  1.00  0.00     0.202 C 
BRANCH  33  34
ATOM     34  C   UNL     1       3.014   6.174   1.802  1.00  0.00     0.261 C 
BRANCH  34  35
ATOM     35  O   UNL     1       3.445   6.638   0.510  1.00  0.00    -0.460 OA
BRANCH  35  36
ATOM     36  C   UNL     1       4.691   7.142   0.371  1.00  0.00     0.338 C 
ATOM     37  O   UNL     1       5.489   7.386   1.259  1.00  0.00    -0.246 OA
BRANCH  36  38
ATOM     38  C   UNL     1       5.019   7.102  -1.077  1.00  0.00     0.060 A 
ATOM     39  C   UNL     1       6.232   6.518  -1.476  1.00  0.00     0.016 A 
ATOM     40  C   UNL     1       4.092   7.518  -2.039  1.00  0.00     0.016 A 
ATOM     41  C   UNL     1       6.531   6.379  -2.835  1.00  0.00     0.010 A 
ATOM     42  C   UNL     1       4.397   7.389  -3.396  1.00  0.00     0.010 A 
ATOM     43  C   UNL     1       5.632   6.852  -3.800  1.00  0.00    -0.014 A 
BRANCH  43  44
ATOM     44  C   UNL     1       6.076   7.058  -5.201  1.00  0.00     0.031 A 
ATOM     45  C   UNL     1       6.614   8.418  -5.554  1.00  0.00     0.074 A 
ATOM     46  C   UNL     1       5.954   6.113  -6.151  1.00  0.00     0.049 A 
ATOM     47  N   UNL     1       6.979   8.894  -6.714  1.00  0.00    -0.248 NA
ATOM     48  C   UNL     1       6.744   9.376  -4.441  1.00  0.00     0.031 C 
ATOM     49  C   UNL     1       5.438   4.763  -5.946  1.00  0.00     0.029 A 
ATOM     50  N   UNL     1       6.222   6.173  -7.498  1.00  0.00    -0.354 N 
ATOM     51  C   UNL     1       7.342  10.213  -6.478  1.00  0.00     0.074 A 
ATOM     52  C   UNL     1       7.151  10.466  -5.068  1.00  0.00     0.031 C 
ATOM     53  C   UNL     1       5.383   4.135  -7.136  1.00  0.00     0.029 A 
ATOM     54  C   UNL     1       5.837   5.046  -8.187  1.00  0.00     0.049 A 
ATOM     55  H   UNL     1       6.650   6.948  -7.929  1.00  0.00     0.167 HD
ATOM     56  C   UNL     1       7.804  11.136  -7.352  1.00  0.00     0.034 A 
ATOM     57  C   UNL     1       5.822   4.796  -9.513  1.00  0.00     0.034 A 
ATOM     58  C   UNL     1       8.006  10.889  -8.750  1.00  0.00     0.049 A 
ATOM     59  C   UNL     1       6.328   5.844 -10.476  1.00  0.00     0.074 A 
ATOM     60  C   UNL     1       8.531  11.741  -9.704  1.00  0.00     0.029 A 
ATOM     61  N   UNL     1       7.671   9.712  -9.398  1.00  0.00    -0.354 N 
ATOM     62  N   UNL     1       6.811   7.036 -10.220  1.00  0.00    -0.248 NA
ATOM     63  C   UNL     1       6.314   5.503 -11.908  1.00  0.00     0.031 C 
ATOM     64  C   UNL     1       8.487  11.086 -10.939  1.00  0.00     0.029 A 
ATOM     65  C   UNL     1       7.961   9.818 -10.746  1.00  0.00     0.049 A 
ATOM     66  H   UNL     1       7.283   8.918  -8.964  1.00  0.00     0.167 HD
ATOM     67  C   UNL     1       7.187   7.572 -11.448  1.00  0.00     0.074 A 
ATOM     68  C   UNL     1       6.890   6.569 -12.449  1.00  0.00     0.031 C 
ATOM     69  C   UNL     1       7.718   8.789 -11.724  1.00  0.00     0.034 A 
BRANCH  56  70
ATOM     70  C   UNL     1       8.133  12.496  -6.803  1.00  0.00     0.023 A 
ATOM     71  C   UNL     1       9.279  12.666  -6.001  1.00  0.00     0.012 A 
ATOM     72  C   UNL     1       7.317  13.605  -7.094  1.00  0.00     0.148 A 
ATOM     73  C   UNL     1       9.588  13.915  -5.464  1.00  0.00     0.002 A 
ATOM     74  C   UNL     1       7.657  14.855  -6.592  1.00  0.00     0.091 A 
ATOM     75  F   UNL     1       6.213  13.414  -7.830  1.00  0.00    -0.205 F 
ATOM     76  C   UNL     1       8.784  15.010  -5.768  1.00  0.00     0.022 A 
BRANCH  74  77
ATOM     77  S   UNL     1       6.722  16.335  -6.990  1.00  0.00     0.127 S 
ATOM     78  O   UNL     1       5.993  16.568  -5.744  1.00  0.00    -0.237 OA
ATOM     79  O   UNL     1       7.782  17.305  -7.267  1.00  0.00    -0.237 OA
ATOM     80  O   UNL     1       5.903  15.990  -8.144  1.00  0.00    -0.744 OA
ENDBRANCH  74  77
ENDBRANCH  56  70
BRANCH  57  81
ATOM     81  C   UNL     1       5.320   3.484 -10.017  1.00  0.00     0.023 A 
ATOM     82  C   UNL     1       6.221   2.562 -10.583  1.00  0.00     0.012 A 
ATOM     83  C   UNL     1       3.957   3.142  -9.924  1.00  0.00     0.148 A 
ATOM     84  C   UNL     1       5.771   1.332 -11.067  1.00  0.00     0.002 A 
ATOM     85  C   UNL     1       3.524   1.894 -10.358  1.00  0.00     0.091 A 
ATOM     86  F   UNL     1       3.111   4.042  -9.402  1.00  0.00    -0.205 F 
ATOM     87  C   UNL     1       4.426   0.994 -10.945  1.00  0.00     0.022 A 
BRANCH  85  88
ATOM     88  S   UNL     1       1.837   1.322 -10.124  1.00  0.00     0.127 S 
ATOM     89  O   UNL     1       1.345   1.272 -11.499  1.00  0.00    -0.237 OA
ATOM     90  O   UNL     1       2.050   0.018  -9.496  1.00  0.00    -0.237 OA
ATOM     91  O   UNL     1       1.203   2.309  -9.262  1.00  0.00    -0.744 OA
ENDBRANCH  85  88
ENDBRANCH  57  81
BRANCH  69  92
ATOM     92  C   UNL     1       8.062   9.113 -13.155  1.00  0.00     0.023 A 
ATOM     93  C   UNL     1       7.036   9.422 -14.069  1.00  0.00     0.012 A 
ATOM     94  C   UNL     1       9.408   9.237 -13.556  1.00  0.00     0.148 A 
ATOM     95  C   UNL     1       7.344   9.833 -15.366  1.00  0.00     0.002 A 
ATOM     96  C   UNL     1       9.707   9.692 -14.835  1.00  0.00     0.091 A 
ATOM     97  F   UNL     1      10.368   8.925 -12.674  1.00  0.00    -0.205 F 
ATOM     98  C   UNL     1       8.677   9.982 -15.744  1.00  0.00     0.022 A 
BRANCH  96  99
ATOM     99  S   UNL     1      11.391  10.011 -15.375  1.00  0.00     0.127 S 
ATOM    100  O   UNL     1      11.605   8.932 -16.338  1.00  0.00    -0.237 OA
ATOM    101  O   UNL     1      11.280  11.344 -15.968  1.00  0.00    -0.237 OA
ATOM    102  O   UNL     1      12.217   9.950 -14.177  1.00  0.00    -0.744 OA
ENDBRANCH  96  99
ENDBRANCH  69  92
ENDBRANCH  43  44
ENDBRANCH  36  38
ENDBRANCH  35  36
ENDBRANCH  34  35
ENDBRANCH  33  34
ENDBRANCH  32  33
ENDBRANCH  31  32
ENDBRANCH  30  31
ENDBRANCH   1  30
TORSDOF 26
