REMARK SMILES O=C(OCCOCCOCCOCCOC(=O)c1ccc(-c2c3nc(c(-c4cccc(S(=O)(=O)[O-])c4F)c4ccc([nH]4)c(-c4cccc(S(=O)(=O)[O-])c4F)c4nc(c(-c5cccc(S(=O)(=O)[O-])c5F)c5ccc2[nH]5)C=C4)C=C3)cc1)C1=Cc2cc(Cl)cc(-c3ccc(Cl)cc3)c2O[C@@H]1C(F)(F)F
REMARK SMILES IDX 10 1 9 2 8 3 7 4 6 5 5 6 4 7 3 8 2 9 1 10 81 11 82 12 98 13
REMARK SMILES IDX 83 14 97 15 84 16 96 17 85 18 88 19 86 20 87 21 99 22 100 23
REMARK SMILES IDX 101 24 102 25 89 26 90 27 95 28 91 29 94 30 92 31 93 32
REMARK SMILES IDX 11 33 12 34 13 35 14 36 15 37 16 38 17 39 18 40 19 41 80 42
REMARK SMILES IDX 20 43 79 44 21 45 22 46 23 47 73 48 24 49 78 50 72 51 74 52
REMARK SMILES IDX 25 53 77 54 71 55 70 56 26 58 58 59 38 60 57 61 39 62 42 63
REMARK SMILES IDX 56 64 75 65 40 66 41 67 55 69 76 70 43 71 27 72 28 73 36 74
REMARK SMILES IDX 29 75 31 76 37 77 30 78 32 79 33 80 34 81 35 82 59 83 60 84
REMARK SMILES IDX 68 85 61 86 63 87 69 88 62 89 64 90 65 91 66 92 67 93 44 94
REMARK SMILES IDX 45 95 53 96 46 97 48 98 54 99 47 100 49 101 50 102 51 103
REMARK SMILES IDX 52 104
REMARK H PARENT 74 57 42 68
REMARK Flexibility Score: inf
ROOT
ATOM      1  C   UNL     1       3.721  -1.447   3.527  1.00  0.00     0.188 C 
ENDROOT
BRANCH   1   2
ATOM      2  O   UNL     1       2.446  -2.040   3.512  1.00  0.00    -0.377 OA
BRANCH   2   3
ATOM      3  C   UNL     1       1.715  -1.548   2.426  1.00  0.00     0.188 C 
BRANCH   3   4
ATOM      4  C   UNL     1       2.233  -2.178   1.147  1.00  0.00     0.188 C 
BRANCH   4   5
ATOM      5  O   UNL     1       3.584  -2.025   0.599  1.00  0.00    -0.376 OA
BRANCH   5   6
ATOM      6  C   UNL     1       4.392  -0.886  -0.282  1.00  0.00     0.202 C 
BRANCH   6   7
ATOM      7  C   UNL     1       3.689   1.101  -0.855  1.00  0.00     0.261 C 
BRANCH   7   8
ATOM      8  O   UNL     1       2.802   1.435  -2.051  1.00  0.00    -0.460 OA
BRANCH   8   9
ATOM      9  C   UNL     1       3.019   0.624  -3.093  1.00  0.00     0.338 C 
ATOM     10  O   UNL     1       2.387   0.524  -4.116  1.00  0.00    -0.246 OA
BRANCH   9  11
ATOM     11  C   UNL     1       3.858  -0.328  -2.389  1.00  0.00     0.087 C 
ATOM     12  C   UNL     1       5.233   0.111  -2.188  1.00  0.00     0.027 C 
ATOM     13  C   UNL     1       2.577  -0.614  -0.987  1.00  0.00     0.316 C 
ATOM     14  C   UNL     1       5.888   0.686  -0.618  1.00  0.00     0.019 A 
ATOM     15  O   UNL     1       3.212   0.137   0.709  1.00  0.00    -0.475 OA
ATOM     16  C   UNL     1       7.195   1.101  -0.611  1.00  0.00     0.032 A 
ATOM     17  C   UNL     1       4.909   0.864   0.811  1.00  0.00     0.135 A 
ATOM     18  C   UNL     1       7.642   1.654   0.590  1.00  0.00     0.042 A 
ATOM     19  C   UNL     1       5.432   1.534   1.926  1.00  0.00     0.026 A 
ATOM     20  Cl  UNL     1       9.301   2.150   0.663  1.00  0.00    -0.084 Cl
ATOM     21  C   UNL     1       6.821   1.866   1.758  1.00  0.00     0.033 A 
BRANCH  13  22
ATOM     22  C   UNL     1       2.334  -2.198  -1.599  1.00  0.00     0.430 C 
ATOM     23  F   UNL     1       1.492  -3.050  -0.986  1.00  0.00    -0.167 F 
ATOM     24  F   UNL     1       1.762  -2.039  -2.837  1.00  0.00    -0.167 F 
ATOM     25  F   UNL     1       3.477  -2.889  -1.850  1.00  0.00    -0.167 F 
ENDBRANCH  13  22
BRANCH  19  26
ATOM     26  C   UNL     1       4.835   1.990   3.183  1.00  0.00    -0.015 A 
ATOM     27  C   UNL     1       4.475   3.324   3.433  1.00  0.00     0.010 A 
ATOM     28  C   UNL     1       4.825   1.158   4.287  1.00  0.00     0.010 A 
ATOM     29  C   UNL     1       3.899   3.714   4.659  1.00  0.00     0.021 A 
ATOM     30  C   UNL     1       4.074   1.471   5.417  1.00  0.00     0.021 A 
ATOM     31  C   UNL     1       3.611   2.754   5.613  1.00  0.00     0.041 A 
ATOM     32  Cl  UNL     1       2.751   3.127   7.050  1.00  0.00    -0.084 Cl
ENDBRANCH  19  26
ENDBRANCH   9  11
ENDBRANCH   8   9
ENDBRANCH   7   8
ENDBRANCH   6   7
ENDBRANCH   5   6
ENDBRANCH   4   5
ENDBRANCH   3   4
ENDBRANCH   2   3
ENDBRANCH   1   2
BRANCH   1  33
ATOM     33  C   UNL     1       4.918  -2.368   3.355  1.00  0.00     0.188 C 
BRANCH  33  34
ATOM     34  O   UNL     1       4.599  -3.672   2.946  1.00  0.00    -0.376 OA
BRANCH  34  35
ATOM     35  C   UNL     1       3.959  -4.549   3.863  1.00  0.00     0.202 C 
BRANCH  35  36
ATOM     36  C   UNL     1       3.250  -4.113   5.169  1.00  0.00     0.261 C 
BRANCH  36  37
ATOM     37  O   UNL     1       3.819  -3.053   5.957  1.00  0.00    -0.460 OA
BRANCH  37  38
ATOM     38  C   UNL     1       5.084  -3.180   6.410  1.00  0.00     0.338 C 
ATOM     39  O   UNL     1       5.819  -4.138   6.262  1.00  0.00    -0.246 OA
BRANCH  38  40
ATOM     40  C   UNL     1       5.504  -1.843   6.915  1.00  0.00     0.060 A 
ATOM     41  C   UNL     1       6.720  -1.293   6.477  1.00  0.00     0.016 A 
ATOM     42  C   UNL     1       4.682  -1.112   7.776  1.00  0.00     0.016 A 
ATOM     43  C   UNL     1       7.140  -0.037   6.935  1.00  0.00     0.010 A 
ATOM     44  C   UNL     1       5.100   0.147   8.229  1.00  0.00     0.010 A 
ATOM     45  C   UNL     1       6.356   0.672   7.853  1.00  0.00    -0.014 A 
BRANCH  45  46
ATOM     46  C   UNL     1       6.967   1.750   8.682  1.00  0.00     0.031 A 
ATOM     47  C   UNL     1       7.322   1.365  10.098  1.00  0.00     0.074 A 
ATOM     48  C   UNL     1       7.221   3.002   8.250  1.00  0.00     0.049 A 
ATOM     49  N   UNL     1       7.882   2.075  11.040  1.00  0.00    -0.248 NA
ATOM     50  C   UNL     1       6.986  -0.011  10.510  1.00  0.00     0.031 C 
ATOM     51  C   UNL     1       6.955   3.522   6.912  1.00  0.00     0.029 A 
ATOM     52  N   UNL     1       7.750   4.084   8.920  1.00  0.00    -0.354 N 
ATOM     53  C   UNL     1       7.940   1.238  12.146  1.00  0.00     0.074 A 
ATOM     54  C   UNL     1       7.286   0.004  11.794  1.00  0.00     0.031 C 
ATOM     55  C   UNL     1       7.276   4.830   6.870  1.00  0.00     0.029 A 
ATOM     56  C   UNL     1       7.791   5.242   8.175  1.00  0.00     0.049 A 
ATOM     57  H   UNL     1       8.070   4.034   9.850  1.00  0.00     0.167 HD
ATOM     58  C   UNL     1       8.532   1.443  13.342  1.00  0.00     0.034 A 
ATOM     59  C   UNL     1       8.208   6.484   8.505  1.00  0.00     0.034 A 
ATOM     60  C   UNL     1       9.192   2.659  13.703  1.00  0.00     0.049 A 
ATOM     61  C   UNL     1       8.816   6.715   9.871  1.00  0.00     0.074 A 
ATOM     62  C   UNL     1       9.868   2.954  14.871  1.00  0.00     0.029 A 
ATOM     63  N   UNL     1       9.231   3.793  12.911  1.00  0.00    -0.354 N 
ATOM     64  N   UNL     1       8.991   5.866  10.854  1.00  0.00    -0.248 NA
ATOM     65  C   UNL     1       9.348   8.060  10.146  1.00  0.00     0.031 C 
ATOM     66  C   UNL     1      10.258   4.294  14.813  1.00  0.00     0.029 A 
ATOM     67  C   UNL     1       9.900   4.803  13.574  1.00  0.00     0.049 A 
ATOM     68  H   UNL     1       8.839   3.869  12.011  1.00  0.00     0.167 HD
ATOM     69  C   UNL     1       9.716   6.549  11.828  1.00  0.00     0.074 A 
ATOM     70  C   UNL     1       9.945   7.883  11.316  1.00  0.00     0.031 C 
ATOM     71  C   UNL     1      10.162   6.109  13.031  1.00  0.00     0.034 A 
BRANCH  58  72
ATOM     72  C   UNL     1       8.475   0.314  14.333  1.00  0.00     0.023 A 
ATOM     73  C   UNL     1       9.169  -0.890  14.085  1.00  0.00     0.012 A 
ATOM     74  C   UNL     1       7.712   0.446  15.506  1.00  0.00     0.148 A 
ATOM     75  C   UNL     1       9.057  -1.965  14.963  1.00  0.00     0.002 A 
ATOM     76  C   UNL     1       7.657  -0.606  16.407  1.00  0.00     0.091 A 
ATOM     77  F   UNL     1       7.037   1.587  15.704  1.00  0.00    -0.205 F 
ATOM     78  C   UNL     1       8.310  -1.819  16.129  1.00  0.00     0.022 A 
BRANCH  76  79
ATOM     79  S   UNL     1       6.794  -0.485  17.974  1.00  0.00     0.127 S 
ATOM     80  O   UNL     1       5.726  -1.469  17.799  1.00  0.00    -0.237 OA
ATOM     81  O   UNL     1       7.836  -0.875  18.923  1.00  0.00    -0.237 OA
ATOM     82  O   UNL     1       6.350   0.897  18.087  1.00  0.00    -0.744 OA
ENDBRANCH  76  79
ENDBRANCH  58  72
BRANCH  59  83
ATOM     83  C   UNL     1       8.152   7.606   7.517  1.00  0.00     0.023 A 
ATOM     84  C   UNL     1       9.350   8.149   7.006  1.00  0.00     0.012 A 
ATOM     85  C   UNL     1       6.925   8.173   7.121  1.00  0.00     0.148 A 
ATOM     86  C   UNL     1       9.330   9.264   6.164  1.00  0.00     0.002 A 
ATOM     87  C   UNL     1       6.910   9.252   6.242  1.00  0.00     0.091 A 
ATOM     88  F   UNL     1       5.796   7.649   7.617  1.00  0.00    -0.205 F 
ATOM     89  C   UNL     1       8.111   9.813   5.780  1.00  0.00     0.022 A 
BRANCH  87  90
ATOM     90  S   UNL     1       5.390   9.968   5.606  1.00  0.00     0.127 S 
ATOM     91  O   UNL     1       5.451  11.327   6.140  1.00  0.00    -0.237 OA
ATOM     92  O   UNL     1       5.595   9.863   4.162  1.00  0.00    -0.237 OA
ATOM     93  O   UNL     1       4.313   9.138   6.126  1.00  0.00    -0.744 OA
ENDBRANCH  87  90
ENDBRANCH  59  83
BRANCH  71  94
ATOM     94  C   UNL     1      11.030   7.031  13.848  1.00  0.00     0.023 A 
ATOM     95  C   UNL     1      10.499   8.197  14.433  1.00  0.00     0.012 A 
ATOM     96  C   UNL     1      12.375   6.686  14.092  1.00  0.00     0.148 A 
ATOM     97  C   UNL     1      11.308   9.030  15.205  1.00  0.00     0.002 A 
ATOM     98  C   UNL     1      13.156   7.486  14.915  1.00  0.00     0.091 A 
ATOM     99  F   UNL     1      12.867   5.579  13.517  1.00  0.00    -0.205 F 
ATOM    100  C   UNL     1      12.631   8.669  15.456  1.00  0.00     0.022 A 
BRANCH  98 101
ATOM    101  S   UNL     1      14.831   7.036  15.380  1.00  0.00     0.127 S 
ATOM    102  O   UNL     1      15.619   8.019  14.639  1.00  0.00    -0.237 OA
ATOM    103  O   UNL     1      14.812   7.236  16.829  1.00  0.00    -0.237 OA
ATOM    104  O   UNL     1      15.009   5.652  14.963  1.00  0.00    -0.744 OA
ENDBRANCH  98 101
ENDBRANCH  71  94
ENDBRANCH  45  46
ENDBRANCH  38  40
ENDBRANCH  37  38
ENDBRANCH  36  37
ENDBRANCH  35  36
ENDBRANCH  34  35
ENDBRANCH  33  34
ENDBRANCH   1  33
TORSDOF 25
