REMARK SMILES CC1(C)CCSC[C@@]1(Nc1ccccc1Br)C(=O)OCCOCCOCCOCCOC(=O)c1ccc(-c2c3nc(c(-c4cccc(S(=O)(=O)[O-])c4F)c4ccc([nH]4)c(-c4cccc(S(=O)(=O)[O-])c4F)c4nc(c(-c5cccc(S(=O)(=O)[O-])c5F)c5ccc2[nH]5)C=C4)C=C3)cc1
REMARK SMILES IDX 26 1 25 2 24 3 23 4 22 5 21 6 20 7 19 8 17 9 18 10 8 11 1 12
REMARK SMILES IDX 2 13 3 14 4 15 5 16 7 17 6 18 9 19 10 21 11 22 15 23 12 24
REMARK SMILES IDX 14 25 16 26 13 27 27 28 28 29 29 30 30 31 31 32 32 33 33 34
REMARK SMILES IDX 34 35 35 36 96 37 36 38 95 39 37 40 38 41 39 42 89 43 40 44
REMARK SMILES IDX 94 45 88 46 90 47 41 48 93 49 87 50 86 51 42 53 74 54 54 55
REMARK SMILES IDX 73 56 55 57 58 58 72 59 91 60 56 61 57 62 71 64 92 65 59 66
REMARK SMILES IDX 43 67 44 68 52 69 45 70 47 71 53 72 46 73 48 74 49 75 50 76
REMARK SMILES IDX 51 77 75 78 76 79 84 80 77 81 79 82 85 83 78 84 80 85 81 86
REMARK SMILES IDX 82 87 83 88 60 89 61 90 69 91 62 92 64 93 70 94 63 95 65 96
REMARK SMILES IDX 66 97 67 98 68 99
REMARK H PARENT 9 20 90 52 58 63
REMARK Flexibility Score: inf
ROOT
ATOM      1  C   UNL     1       1.087   8.455  -1.241  1.00  0.00     0.188 C 
ENDROOT
BRANCH   1   2
ATOM      2  O   UNL     1       0.386   7.616  -0.344  1.00  0.00    -0.377 OA
BRANCH   2   3
ATOM      3  C   UNL     1       0.811   6.268  -0.181  1.00  0.00     0.188 C 
BRANCH   3   4
ATOM      4  C   UNL     1       2.277   5.931  -0.471  1.00  0.00     0.188 C 
BRANCH   4   5
ATOM      5  O   UNL     1       2.678   5.839  -1.844  1.00  0.00    -0.376 OA
BRANCH   5   6
ATOM      6  C   UNL     1       1.706   5.514  -2.838  1.00  0.00     0.202 C 
BRANCH   6   7
ATOM      7  C   UNL     1       1.464   4.017  -3.028  1.00  0.00     0.261 C 
BRANCH   7   8
ATOM      8  O   UNL     1       0.564   3.486  -2.041  1.00  0.00    -0.461 OA
BRANCH   8   9
ATOM      9  C   UNL     1       1.120   2.909  -0.947  1.00  0.00     0.333 C 
ATOM     10  O   UNL     1       2.332   2.817  -0.776  1.00  0.00    -0.249 OA
BRANCH   9  11
ATOM     11  C   UNL     1       0.059   2.327   0.043  1.00  0.00     0.150 C 
ATOM     12  C   UNL     1       1.493   0.119   0.007  1.00  0.00     0.014 C 
ATOM     13  C   UNL     1       0.075   0.746  -0.144  1.00  0.00     0.000 C 
ATOM     14  C   UNL     1      -0.408   0.326  -1.558  1.00  0.00     0.014 C 
ATOM     15  C   UNL     1      -0.862   0.093   0.903  1.00  0.00     0.020 C 
ATOM     16  C   UNL     1      -0.410   0.235   2.352  1.00  0.00     0.070 C 
ATOM     17  C   UNL     1       0.562   2.726   1.454  1.00  0.00     0.110 C 
ATOM     18  S   UNL     1      -0.181   1.931   2.929  1.00  0.00    -0.159 SA
BRANCH  11  19
ATOM     19  N   UNL     1      -1.328   2.835  -0.300  1.00  0.00    -0.368 N 
ATOM     20  H   UNL     1      -1.841   2.240  -0.893  1.00  0.00     0.161 HD
BRANCH  19  21
ATOM     21  C   UNL     1      -2.005   3.993   0.075  1.00  0.00     0.049 A 
ATOM     22  C   UNL     1      -2.264   4.327   1.407  1.00  0.00     0.027 A 
ATOM     23  C   UNL     1      -2.516   4.892  -0.895  1.00  0.00     0.041 A 
ATOM     24  C   UNL     1      -2.935   5.505   1.769  1.00  0.00     0.002 A 
ATOM     25  C   UNL     1      -3.160   6.087  -0.542  1.00  0.00     0.018 A 
ATOM     26  Br  UNL     1      -2.394   4.522  -2.760  1.00  0.00    -0.049 Br
ATOM     27  C   UNL     1      -3.364   6.395   0.795  1.00  0.00     0.001 A 
ENDBRANCH  19  21
ENDBRANCH  11  19
ENDBRANCH   9  11
ENDBRANCH   8   9
ENDBRANCH   7   8
ENDBRANCH   6   7
ENDBRANCH   5   6
ENDBRANCH   4   5
ENDBRANCH   3   4
ENDBRANCH   2   3
ENDBRANCH   1   2
BRANCH   1  28
ATOM     28  C   UNL     1       1.407   9.816  -0.612  1.00  0.00     0.188 C 
BRANCH  28  29
ATOM     29  O   UNL     1       2.019   9.816   0.676  1.00  0.00    -0.376 OA
BRANCH  29  30
ATOM     30  C   UNL     1       1.324   9.186   1.753  1.00  0.00     0.202 C 
BRANCH  30  31
ATOM     31  C   UNL     1      -0.105   9.643   2.107  1.00  0.00     0.261 C 
BRANCH  31  32
ATOM     32  O   UNL     1      -1.085   9.471   1.067  1.00  0.00    -0.460 OA
BRANCH  32  33
ATOM     33  C   UNL     1      -1.594  10.605   0.543  1.00  0.00     0.338 C 
ATOM     34  O   UNL     1      -1.306  11.760   0.848  1.00  0.00    -0.246 OA
BRANCH  33  35
ATOM     35  C   UNL     1      -2.519  10.295  -0.556  1.00  0.00     0.060 A 
ATOM     36  C   UNL     1      -2.090  10.430  -1.884  1.00  0.00     0.016 A 
ATOM     37  C   UNL     1      -3.861  10.051  -0.268  1.00  0.00     0.016 A 
ATOM     38  C   UNL     1      -3.011  10.355  -2.929  1.00  0.00     0.010 A 
ATOM     39  C   UNL     1      -4.783   9.976  -1.315  1.00  0.00     0.010 A 
ATOM     40  C   UNL     1      -4.369  10.173  -2.645  1.00  0.00    -0.014 A 
BRANCH  40  41
ATOM     41  C   UNL     1      -5.387  10.391  -3.700  1.00  0.00     0.031 A 
ATOM     42  C   UNL     1      -6.128  11.701  -3.722  1.00  0.00     0.074 A 
ATOM     43  C   UNL     1      -5.680   9.433  -4.596  1.00  0.00     0.049 A 
ATOM     44  N   UNL     1      -7.137  12.071  -4.465  1.00  0.00    -0.248 NA
ATOM     45  C   UNL     1      -5.674  12.727  -2.768  1.00  0.00     0.031 C 
ATOM     46  C   UNL     1      -5.024   8.130  -4.685  1.00  0.00     0.029 A 
ATOM     47  N   UNL     1      -6.640   9.398  -5.577  1.00  0.00    -0.354 N 
ATOM     48  C   UNL     1      -7.473  13.349  -4.035  1.00  0.00     0.074 A 
ATOM     49  C   UNL     1      -6.558  13.693  -2.969  1.00  0.00     0.031 C 
ATOM     50  C   UNL     1      -5.634   7.402  -5.636  1.00  0.00     0.029 A 
ATOM     51  C   UNL     1      -6.741   8.176  -6.198  1.00  0.00     0.049 A 
ATOM     52  H   UNL     1      -7.201  10.172  -5.812  1.00  0.00     0.167 HD
ATOM     53  C   UNL     1      -8.452  14.166  -4.489  1.00  0.00     0.034 A 
ATOM     54  C   UNL     1      -7.647   7.722  -7.088  1.00  0.00     0.034 A 
ATOM     55  C   UNL     1      -9.340  13.834  -5.569  1.00  0.00     0.049 A 
ATOM     56  C   UNL     1      -8.737   8.646  -7.571  1.00  0.00     0.074 A 
ATOM     57  C   UNL     1     -10.319  14.621  -6.149  1.00  0.00     0.029 A 
ATOM     58  N   UNL     1      -9.370  12.611  -6.219  1.00  0.00    -0.354 N 
ATOM     59  N   UNL     1      -8.967   9.895  -7.245  1.00  0.00    -0.248 NA
ATOM     60  C   UNL     1      -9.677   8.107  -8.567  1.00  0.00     0.031 C 
ATOM     61  C   UNL     1     -10.965  13.860  -7.128  1.00  0.00     0.029 A 
ATOM     62  C   UNL     1     -10.364  12.613  -7.182  1.00  0.00     0.049 A 
ATOM     63  H   UNL     1      -8.773  11.853  -6.025  1.00  0.00     0.167 HD
ATOM     64  C   UNL     1     -10.051  10.301  -8.018  1.00  0.00     0.074 A 
ATOM     65  C   UNL     1     -10.424   9.169  -8.840  1.00  0.00     0.031 C 
ATOM     66  C   UNL     1     -10.687  11.498  -8.037  1.00  0.00     0.034 A 
BRANCH  53  67
ATOM     67  C   UNL     1      -8.610  15.506  -3.821  1.00  0.00     0.023 A 
ATOM     68  C   UNL     1      -7.655  16.519  -4.040  1.00  0.00     0.012 A 
ATOM     69  C   UNL     1      -9.729  15.774  -3.009  1.00  0.00     0.148 A 
ATOM     70  C   UNL     1      -7.792  17.766  -3.432  1.00  0.00     0.002 A 
ATOM     71  C   UNL     1      -9.883  17.034  -2.444  1.00  0.00     0.091 A 
ATOM     72  F   UNL     1     -10.613  14.789  -2.792  1.00  0.00    -0.205 F 
ATOM     73  C   UNL     1      -8.910  18.026  -2.643  1.00  0.00     0.022 A 
BRANCH  71  74
ATOM     74  S   UNL     1     -11.329  17.488  -1.480  1.00  0.00     0.127 S 
ATOM     75  O   UNL     1     -10.778  17.536  -0.126  1.00  0.00    -0.237 OA
ATOM     76  O   UNL     1     -11.677  18.793  -2.043  1.00  0.00    -0.237 OA
ATOM     77  O   UNL     1     -12.314  16.443  -1.719  1.00  0.00    -0.744 OA
ENDBRANCH  71  74
ENDBRANCH  53  67
BRANCH  54  78
ATOM     78  C   UNL     1      -7.553   6.322  -7.589  1.00  0.00     0.023 A 
ATOM     79  C   UNL     1      -7.189   6.084  -8.928  1.00  0.00     0.012 A 
ATOM     80  C   UNL     1      -7.798   5.226  -6.738  1.00  0.00     0.148 A 
ATOM     81  C   UNL     1      -7.096   4.781  -9.418  1.00  0.00     0.002 A 
ATOM     82  C   UNL     1      -7.649   3.930  -7.217  1.00  0.00     0.091 A 
ATOM     83  F   UNL     1      -8.159   5.475  -5.471  1.00  0.00    -0.205 F 
ATOM     84  C   UNL     1      -7.315   3.705  -8.561  1.00  0.00     0.022 A 
BRANCH  82  85
ATOM     85  S   UNL     1      -7.784   2.486  -6.157  1.00  0.00     0.127 S 
ATOM     86  O   UNL     1      -8.996   1.852  -6.669  1.00  0.00    -0.237 OA
ATOM     87  O   UNL     1      -6.541   1.775  -6.461  1.00  0.00    -0.237 OA
ATOM     88  O   UNL     1      -7.866   3.000  -4.797  1.00  0.00    -0.744 OA
ENDBRANCH  82  85
ENDBRANCH  54  78
BRANCH  66  89
ATOM     89  C   UNL     1     -11.829  11.682  -9.003  1.00  0.00     0.023 A 
ATOM     90  C   UNL     1     -13.072  11.070  -8.749  1.00  0.00     0.012 A 
ATOM     91  C   UNL     1     -11.700  12.555 -10.103  1.00  0.00     0.148 A 
ATOM     92  C   UNL     1     -14.162  11.305  -9.588  1.00  0.00     0.002 A 
ATOM     93  C   UNL     1     -12.803  12.823 -10.905  1.00  0.00     0.091 A 
ATOM     94  F   UNL     1     -10.504  13.116 -10.336  1.00  0.00    -0.205 F 
ATOM     95  C   UNL     1     -14.031  12.191 -10.655  1.00  0.00     0.022 A 
BRANCH  93  96
ATOM     96  S   UNL     1     -12.757  14.025 -12.240  1.00  0.00     0.127 S 
ATOM     97  O   UNL     1     -12.856  13.165 -13.418  1.00  0.00    -0.237 OA
ATOM     98  O   UNL     1     -13.948  14.832 -11.971  1.00  0.00    -0.237 OA
ATOM     99  O   UNL     1     -11.496  14.740 -12.096  1.00  0.00    -0.744 OA
ENDBRANCH  93  96
ENDBRANCH  66  89
ENDBRANCH  40  41
ENDBRANCH  33  35
ENDBRANCH  32  33
ENDBRANCH  31  32
ENDBRANCH  30  31
ENDBRANCH  29  30
ENDBRANCH  28  29
ENDBRANCH   1  28
TORSDOF 25
