REMARK SMILES CC(C)(C)OC(=O)N[C@H](Cc1ccc(N=[N+]=[N-])cc1)C(=O)OCCOCCOCCOCCOC(=O)c1ccc(-c2c3nc(c(-c4cccc(S(=O)(=O)[O-])c4F)c4ccc([nH]4)c(-c4cccc(S(=O)(=O)[O-])c4F)c4nc(c(-c5cccc(S(=O)(=O)[O-])c5F)c5ccc2[nH]5)C=C4)C=C3)cc1
REMARK SMILES IDX 28 1 27 2 26 3 25 4 24 5 23 6 22 7 20 8 21 9 9 10 8 11 6 12
REMARK SMILES IDX 7 13 5 15 2 16 1 17 3 18 4 19 10 20 11 21 12 22 19 23 13 24
REMARK SMILES IDX 18 25 14 26 15 27 16 28 17 29 29 30 30 31 31 32 32 33 33 34
REMARK SMILES IDX 34 35 35 36 36 37 37 38 38 39 99 40 39 41 98 42 40 43 41 44
REMARK SMILES IDX 42 45 92 46 43 47 97 48 91 49 93 50 44 51 96 52 90 53 89 54
REMARK SMILES IDX 45 56 77 57 57 58 76 59 58 60 61 61 75 62 94 63 59 64 60 65
REMARK SMILES IDX 74 67 95 68 62 69 46 70 47 71 55 72 48 73 50 74 56 75 49 76
REMARK SMILES IDX 51 77 52 78 53 79 54 80 78 81 79 82 87 83 80 84 82 85 88 86
REMARK SMILES IDX 81 87 83 88 84 89 85 90 86 91 63 92 64 93 72 94 65 95 67 96
REMARK SMILES IDX 73 97 66 98 68 99 69 100 70 101 71 102
REMARK H PARENT 8 14 93 55 61 66
REMARK Flexibility Score: inf
ROOT
ATOM      1  O   UNL     1      -0.989   4.368  -4.479  1.00  0.00    -0.377 OA
ENDROOT
BRANCH   1   2
ATOM      2  C   UNL     1      -0.797   4.148  -3.099  1.00  0.00     0.188 C 
BRANCH   2   3
ATOM      3  C   UNL     1      -0.283   5.342  -2.287  1.00  0.00     0.188 C 
BRANCH   3   4
ATOM      4  O   UNL     1      -0.573   6.664  -2.689  1.00  0.00    -0.376 OA
BRANCH   4   5
ATOM      5  C   UNL     1      -0.136   7.196  -3.932  1.00  0.00     0.202 C 
BRANCH   5   6
ATOM      6  C   UNL     1       1.091   6.717  -4.730  1.00  0.00     0.261 C 
BRANCH   6   7
ATOM      7  O   UNL     1       1.341   5.304  -4.765  1.00  0.00    -0.462 OA
BRANCH   7   8
ATOM      8  C   UNL     1       2.413   4.896  -4.057  1.00  0.00     0.329 C 
ATOM      9  O   UNL     1       3.106   5.681  -3.409  1.00  0.00    -0.250 OA
BRANCH   8  10
ATOM     10  C   UNL     1       2.686   3.371  -4.056  1.00  0.00     0.199 C 
BRANCH  10  11
ATOM     11  N   UNL     1       4.073   3.196  -4.476  1.00  0.00    -0.308 N 
ATOM     12  C   UNL     1       5.163   3.507  -3.726  1.00  0.00     0.408 C 
ATOM     13  O   UNL     1       6.283   3.507  -4.214  1.00  0.00    -0.225 OA
ATOM     14  H   UNL     1       4.232   2.822  -5.372  1.00  0.00     0.168 HD
BRANCH  12  15
ATOM     15  O   UNL     1       4.843   3.828  -2.450  1.00  0.00    -0.444 OA
BRANCH  15  16
ATOM     16  C   UNL     1       5.829   4.447  -1.594  1.00  0.00     0.106 C 
ATOM     17  C   UNL     1       5.101   4.733  -0.271  1.00  0.00     0.056 C 
ATOM     18  C   UNL     1       6.312   5.786  -2.169  1.00  0.00     0.056 C 
ATOM     19  C   UNL     1       6.977   3.472  -1.322  1.00  0.00     0.056 C 
ENDBRANCH  15  16
ENDBRANCH  12  15
ENDBRANCH  10  11
BRANCH  10  20
ATOM     20  C   UNL     1       1.764   2.350  -4.750  1.00  0.00     0.072 C 
BRANCH  20  21
ATOM     21  C   UNL     1       1.948   2.170  -6.231  1.00  0.00    -0.045 A 
ATOM     22  C   UNL     1       2.632   1.058  -6.738  1.00  0.00     0.004 A 
ATOM     23  C   UNL     1       1.441   3.120  -7.116  1.00  0.00     0.004 A 
ATOM     24  C   UNL     1       2.839   0.931  -8.113  1.00  0.00     0.010 A 
ATOM     25  C   UNL     1       1.673   3.001  -8.483  1.00  0.00     0.010 A 
ATOM     26  C   UNL     1       2.371   1.902  -9.003  1.00  0.00     0.038 A 
BRANCH  26  27
ATOM     27  N   UNL     1       2.652   1.735 -10.371  1.00  0.00    -0.061 NA
ATOM     28  N   UNL     1       1.784   2.223 -11.130  1.00  0.00     0.005 N 
ATOM     29  N   UNL     1       0.929   2.637 -11.753  1.00  0.00    -0.003 NA
ENDBRANCH  26  27
ENDBRANCH  20  21
ENDBRANCH  10  20
ENDBRANCH   8  10
ENDBRANCH   7   8
ENDBRANCH   6   7
ENDBRANCH   5   6
ENDBRANCH   4   5
ENDBRANCH   3   4
ENDBRANCH   2   3
ENDBRANCH   1   2
BRANCH   1  30
ATOM     30  C   UNL     1      -2.223   4.904  -4.943  1.00  0.00     0.188 C 
BRANCH  30  31
ATOM     31  C   UNL     1      -3.238   5.487  -3.940  1.00  0.00     0.188 C 
BRANCH  31  32
ATOM     32  O   UNL     1      -3.389   4.734  -2.748  1.00  0.00    -0.376 OA
BRANCH  32  33
ATOM     33  C   UNL     1      -4.395   3.735  -2.689  1.00  0.00     0.202 C 
BRANCH  33  34
ATOM     34  C   UNL     1      -4.377   2.597  -3.724  1.00  0.00     0.261 C 
BRANCH  34  35
ATOM     35  O   UNL     1      -4.491   2.963  -5.109  1.00  0.00    -0.460 OA
BRANCH  35  36
ATOM     36  C   UNL     1      -5.528   3.733  -5.500  1.00  0.00     0.338 C 
ATOM     37  O   UNL     1      -6.452   4.124  -4.811  1.00  0.00    -0.246 OA
BRANCH  36  38
ATOM     38  C   UNL     1      -5.240   4.199  -6.875  1.00  0.00     0.060 A 
ATOM     39  C   UNL     1      -5.098   5.572  -7.119  1.00  0.00     0.016 A 
ATOM     40  C   UNL     1      -5.104   3.281  -7.918  1.00  0.00     0.016 A 
ATOM     41  C   UNL     1      -4.849   6.033  -8.414  1.00  0.00     0.010 A 
ATOM     42  C   UNL     1      -4.878   3.745  -9.217  1.00  0.00     0.010 A 
ATOM     43  C   UNL     1      -4.781   5.125  -9.477  1.00  0.00    -0.014 A 
BRANCH  43  44
ATOM     44  C   UNL     1      -4.791   5.609 -10.879  1.00  0.00     0.031 A 
ATOM     45  C   UNL     1      -6.093   5.585 -11.634  1.00  0.00     0.074 A 
ATOM     46  C   UNL     1      -3.666   6.034 -11.484  1.00  0.00     0.049 A 
ATOM     47  N   UNL     1      -6.334   5.868 -12.887  1.00  0.00    -0.248 NA
ATOM     48  C   UNL     1      -7.286   5.178 -10.870  1.00  0.00     0.031 C 
ATOM     49  C   UNL     1      -2.348   6.124 -10.857  1.00  0.00     0.029 A 
ATOM     50  N   UNL     1      -3.452   6.439 -12.779  1.00  0.00    -0.354 N 
ATOM     51  C   UNL     1      -7.691   5.636 -13.074  1.00  0.00     0.074 A 
ATOM     52  C   UNL     1      -8.223   5.186 -11.806  1.00  0.00     0.031 C 
ATOM     53  C   UNL     1      -1.454   6.523 -11.780  1.00  0.00     0.029 A 
ATOM     54  C   UNL     1      -2.129   6.684 -13.066  1.00  0.00     0.049 A 
ATOM     55  H   UNL     1      -4.176   6.543 -13.438  1.00  0.00     0.167 HD
ATOM     56  C   UNL     1      -8.432   5.787 -14.197  1.00  0.00     0.034 A 
ATOM     57  C   UNL     1      -1.532   6.973 -14.240  1.00  0.00     0.034 A 
ATOM     58  C   UNL     1      -7.902   6.241 -15.454  1.00  0.00     0.049 A 
ATOM     59  C   UNL     1      -2.374   7.093 -15.488  1.00  0.00     0.074 A 
ATOM     60  C   UNL     1      -8.579   6.472 -16.638  1.00  0.00     0.029 A 
ATOM     61  N   UNL     1      -6.565   6.511 -15.698  1.00  0.00    -0.354 N 
ATOM     62  N   UNL     1      -3.673   6.979 -15.625  1.00  0.00    -0.248 NA
ATOM     63  C   UNL     1      -1.667   7.409 -16.739  1.00  0.00     0.031 C 
ATOM     64  C   UNL     1      -7.644   6.838 -17.611  1.00  0.00     0.029 A 
ATOM     65  C   UNL     1      -6.391   6.885 -17.019  1.00  0.00     0.049 A 
ATOM     66  H   UNL     1      -5.844   6.447 -15.030  1.00  0.00     0.167 HD
ATOM     67  C   UNL     1      -3.941   7.245 -16.965  1.00  0.00     0.074 A 
ATOM     68  C   UNL     1      -2.672   7.546 -17.593  1.00  0.00     0.031 C 
ATOM     69  C   UNL     1      -5.129   7.231 -17.621  1.00  0.00     0.034 A 
BRANCH  56  70
ATOM     70  C   UNL     1      -9.900   5.456 -14.121  1.00  0.00     0.023 A 
ATOM     71  C   UNL     1     -10.775   6.295 -13.402  1.00  0.00     0.012 A 
ATOM     72  C   UNL     1     -10.420   4.341 -14.807  1.00  0.00     0.148 A 
ATOM     73  C   UNL     1     -12.139   6.010 -13.338  1.00  0.00     0.002 A 
ATOM     74  C   UNL     1     -11.786   4.091 -14.780  1.00  0.00     0.091 A 
ATOM     75  F   UNL     1      -9.569   3.544 -15.469  1.00  0.00    -0.205 F 
ATOM     76  C   UNL     1     -12.645   4.916 -14.035  1.00  0.00     0.022 A 
BRANCH  74  77
ATOM     77  S   UNL     1     -12.547   2.756 -15.709  1.00  0.00     0.127 S 
ATOM     78  O   UNL     1     -12.993   1.868 -14.636  1.00  0.00    -0.237 OA
ATOM     79  O   UNL     1     -13.626   3.450 -16.413  1.00  0.00    -0.237 OA
ATOM     80  O   UNL     1     -11.504   2.217 -16.570  1.00  0.00    -0.744 OA
ENDBRANCH  74  77
ENDBRANCH  56  70
BRANCH  57  81
ATOM     81  C   UNL     1      -0.058   7.195 -14.306  1.00  0.00     0.023 A 
ATOM     82  C   UNL     1       0.434   8.484 -14.594  1.00  0.00     0.012 A 
ATOM     83  C   UNL     1       0.857   6.142 -14.112  1.00  0.00     0.148 A 
ATOM     84  C   UNL     1       1.804   8.711 -14.727  1.00  0.00     0.002 A 
ATOM     85  C   UNL     1       2.224   6.384 -14.201  1.00  0.00     0.091 A 
ATOM     86  F   UNL     1       0.374   4.928 -13.815  1.00  0.00    -0.205 F 
ATOM     87  C   UNL     1       2.698   7.662 -14.530  1.00  0.00     0.022 A 
BRANCH  85  88
ATOM     88  S   UNL     1       3.444   5.103 -13.885  1.00  0.00     0.127 S 
ATOM     89  O   UNL     1       4.472   5.397 -14.883  1.00  0.00    -0.237 OA
ATOM     90  O   UNL     1       3.822   5.398 -12.505  1.00  0.00    -0.237 OA
ATOM     91  O   UNL     1       2.750   3.841 -14.095  1.00  0.00    -0.744 OA
ENDBRANCH  85  88
ENDBRANCH  57  81
BRANCH  69  92
ATOM     92  C   UNL     1      -5.135   7.598 -19.084  1.00  0.00     0.023 A 
ATOM     93  C   UNL     1      -4.591   6.714 -20.038  1.00  0.00     0.012 A 
ATOM     94  C   UNL     1      -5.760   8.784 -19.520  1.00  0.00     0.148 A 
ATOM     95  C   UNL     1      -4.641   7.021 -21.398  1.00  0.00     0.002 A 
ATOM     96  C   UNL     1      -5.854   9.056 -20.880  1.00  0.00     0.091 A 
ATOM     97  F   UNL     1      -6.261   9.618 -18.597  1.00  0.00    -0.205 F 
ATOM     98  C   UNL     1      -5.282   8.183 -21.819  1.00  0.00     0.022 A 
BRANCH  96  99
ATOM     99  S   UNL     1      -6.748  10.476 -21.522  1.00  0.00     0.127 S 
ATOM    100  O   UNL     1      -5.664  11.285 -22.075  1.00  0.00    -0.237 OA
ATOM    101  O   UNL     1      -7.623   9.862 -22.522  1.00  0.00    -0.237 OA
ATOM    102  O   UNL     1      -7.445  11.064 -20.386  1.00  0.00    -0.744 OA
ENDBRANCH  96  99
ENDBRANCH  69  92
ENDBRANCH  43  44
ENDBRANCH  36  38
ENDBRANCH  35  36
ENDBRANCH  34  35
ENDBRANCH  33  34
ENDBRANCH  32  33
ENDBRANCH  31  32
ENDBRANCH  30  31
ENDBRANCH   1  30
TORSDOF 29
