REMARK SMILES COc1ccc(N2C(=O)/C(=C/c3c(C(=O)OCCOCCOCCOCCOC(=O)c4ccc(-c5c6nc(c(-c7cccc(S(=O)(=O)[O-])c7F)c7ccc([nH]7)c(-c7cccc(S(=O)(=O)[O-])c7F)c7nc(c(-c8cccc(S(=O)(=O)[O-])c8F)c8ccc5[nH]8)C=C7)C=C6)cc4)[nH]c4cc(OC)ccc34)SC2=S)cc1
REMARK SMILES IDX 22 1 21 2 20 3 19 4 18 5 17 6 16 7 14 8 15 9 13 10 12 11
REMARK SMILES IDX 102 12 94 13 95 14 101 15 96 17 100 18 97 19 11 20 7 21 8 22
REMARK SMILES IDX 104 23 9 24 10 25 103 26 105 27 6 28 3 29 4 30 107 31 5 32
REMARK SMILES IDX 106 33 2 34 1 35 98 36 99 37 23 38 24 39 25 40 26 41 27 42
REMARK SMILES IDX 28 43 29 44 30 45 31 46 32 47 93 48 33 49 92 50 34 51 35 52
REMARK SMILES IDX 36 53 86 54 37 55 91 56 85 57 87 58 38 59 90 60 84 61 83 62
REMARK SMILES IDX 39 64 71 65 51 66 70 67 52 68 55 69 69 70 88 71 53 72 54 73
REMARK SMILES IDX 68 75 89 76 56 77 40 78 41 79 49 80 42 81 44 82 50 83 43 84
REMARK SMILES IDX 45 85 46 86 47 87 48 88 72 89 73 90 81 91 74 92 76 93 82 94
REMARK SMILES IDX 75 95 77 96 78 97 79 98 80 99 57 100 58 101 66 102 59 103
REMARK SMILES IDX 61 104 67 105 60 106 62 107 63 108 64 109 65 110
REMARK H PARENT 94 16 87 63 55 74
REMARK Flexibility Score: inf
ROOT
ATOM      1  O   UNL     1       1.027   3.855  -9.219  1.00  0.00    -0.377 OA
ENDROOT
BRANCH   1   2
ATOM      2  C   UNL     1       1.626   4.836 -10.069  1.00  0.00     0.188 C 
BRANCH   2   3
ATOM      3  C   UNL     1       2.954   5.390  -9.581  1.00  0.00     0.188 C 
BRANCH   3   4
ATOM      4  O   UNL     1       4.136   4.830 -10.148  1.00  0.00    -0.376 OA
BRANCH   4   5
ATOM      5  C   UNL     1       5.024   4.066  -9.332  1.00  0.00     0.202 C 
BRANCH   5   6
ATOM      6  C   UNL     1       5.431   4.567  -7.929  1.00  0.00     0.261 C 
BRANCH   6   7
ATOM      7  O   UNL     1       4.873   5.830  -7.572  1.00  0.00    -0.459 OA
BRANCH   7   8
ATOM      8  C   UNL     1       5.426   6.904  -8.180  1.00  0.00     0.355 C 
ATOM      9  O   UNL     1       6.538   6.913  -8.698  1.00  0.00    -0.244 OA
BRANCH   8  10
ATOM     10  C   UNL     1       4.447   7.959  -8.351  1.00  0.00     0.133 A 
ATOM     11  C   UNL     1       3.200   8.287  -7.802  1.00  0.00     0.016 A 
ATOM     12  C   UNL     1       2.629   9.328  -8.620  1.00  0.00     0.008 A 
ATOM     13  N   UNL     1       4.619   8.788  -9.439  1.00  0.00    -0.348 N 
ATOM     14  C   UNL     1       3.485   9.502  -9.705  1.00  0.00     0.050 A 
ATOM     15  C   UNL     1       1.417  10.057  -8.619  1.00  0.00     0.015 A 
ATOM     16  H   UNL     1       5.453   8.857  -9.958  1.00  0.00     0.167 HD
ATOM     17  C   UNL     1       3.150  10.244 -10.840  1.00  0.00     0.073 A 
ATOM     18  C   UNL     1       1.089  10.865  -9.723  1.00  0.00     0.047 A 
ATOM     19  C   UNL     1       1.935  10.924 -10.828  1.00  0.00     0.120 A 
BRANCH  11  20
ATOM     20  C   UNL     1       2.459   7.525  -6.825  1.00  0.00     0.032 C 
ATOM     21  N   UNL     1       3.039   5.138  -4.199  1.00  0.00    -0.261 N 
ATOM     22  C   UNL     1       2.151   5.877  -4.999  1.00  0.00     0.270 C 
ATOM     23  C   UNL     1       4.325   5.686  -4.115  1.00  0.00     0.152 C 
ATOM     24  O   UNL     1       0.982   5.641  -5.279  1.00  0.00    -0.268 OA
ATOM     25  C   UNL     1       2.878   7.005  -5.662  1.00  0.00     0.081 C 
ATOM     26  S   UNL     1       4.361   7.282  -4.877  1.00  0.00    -0.054 SA
ATOM     27  S   UNL     1       5.762   5.167  -3.428  1.00  0.00    -0.051 S 
BRANCH  21  28
ATOM     28  C   UNL     1       2.600   3.924  -3.527  1.00  0.00     0.051 A 
ATOM     29  C   UNL     1       1.784   1.676  -1.975  1.00  0.00     0.119 A 
ATOM     30  C   UNL     1       0.851   2.613  -2.399  1.00  0.00     0.048 A 
ATOM     31  C   UNL     1       3.096   1.796  -2.394  1.00  0.00     0.048 A 
ATOM     32  C   UNL     1       1.254   3.721  -3.167  1.00  0.00     0.030 A 
ATOM     33  C   UNL     1       3.488   2.896  -3.167  1.00  0.00     0.030 A 
BRANCH  29  34
ATOM     34  O   UNL     1       1.365   0.599  -1.252  1.00  0.00    -0.497 OA
ATOM     35  C   UNL     1       2.041   0.475  -0.002  1.00  0.00     0.278 C 
ENDBRANCH  29  34
ENDBRANCH  21  28
ENDBRANCH  11  20
BRANCH  19  36
ATOM     36  O   UNL     1       1.583  11.555 -11.991  1.00  0.00    -0.497 OA
ATOM     37  C   UNL     1       1.467  12.963 -11.822  1.00  0.00     0.278 C 
ENDBRANCH  19  36
ENDBRANCH   8  10
ENDBRANCH   7   8
ENDBRANCH   6   7
ENDBRANCH   5   6
ENDBRANCH   4   5
ENDBRANCH   3   4
ENDBRANCH   2   3
ENDBRANCH   1   2
BRANCH   1  38
ATOM     38  C   UNL     1       1.848   2.773  -8.803  1.00  0.00     0.188 C 
BRANCH  38  39
ATOM     39  C   UNL     1       2.249   1.772  -9.893  1.00  0.00     0.188 C 
BRANCH  39  40
ATOM     40  O   UNL     1       2.390   2.352 -11.183  1.00  0.00    -0.376 OA
BRANCH  40  41
ATOM     41  C   UNL     1       1.411   1.933 -12.141  1.00  0.00     0.202 C 
BRANCH  41  42
ATOM     42  C   UNL     1      -0.042   2.403 -11.903  1.00  0.00     0.261 C 
BRANCH  42  43
ATOM     43  O   UNL     1      -0.638   1.939 -10.680  1.00  0.00    -0.460 OA
BRANCH  43  44
ATOM     44  C   UNL     1      -0.824   0.606 -10.592  1.00  0.00     0.338 C 
ATOM     45  O   UNL     1      -0.585  -0.220 -11.457  1.00  0.00    -0.246 OA
BRANCH  44  46
ATOM     46  C   UNL     1      -1.189   0.253  -9.207  1.00  0.00     0.060 A 
ATOM     47  C   UNL     1      -0.434  -0.736  -8.563  1.00  0.00     0.016 A 
ATOM     48  C   UNL     1      -2.310   0.809  -8.586  1.00  0.00     0.016 A 
ATOM     49  C   UNL     1      -0.852  -1.238  -7.332  1.00  0.00     0.010 A 
ATOM     50  C   UNL     1      -2.736   0.293  -7.358  1.00  0.00     0.010 A 
ATOM     51  C   UNL     1      -2.043  -0.773  -6.759  1.00  0.00    -0.014 A 
BRANCH  51  52
ATOM     52  C   UNL     1      -2.672  -1.566  -5.675  1.00  0.00     0.031 A 
ATOM     53  C   UNL     1      -3.668  -2.628  -6.052  1.00  0.00     0.074 A 
ATOM     54  C   UNL     1      -2.381  -1.357  -4.380  1.00  0.00     0.049 A 
ATOM     55  N   UNL     1      -4.274  -3.499  -5.288  1.00  0.00    -0.248 NA
ATOM     56  C   UNL     1      -4.037  -2.714  -7.475  1.00  0.00     0.031 C 
ATOM     57  C   UNL     1      -1.481  -0.325  -3.880  1.00  0.00     0.029 A 
ATOM     58  N   UNL     1      -2.834  -1.994  -3.249  1.00  0.00    -0.354 N 
ATOM     59  C   UNL     1      -5.120  -4.210  -6.128  1.00  0.00     0.074 A 
ATOM     60  C   UNL     1      -4.951  -3.672  -7.460  1.00  0.00     0.031 C 
ATOM     61  C   UNL     1      -1.472  -0.385  -2.538  1.00  0.00     0.029 A 
ATOM     62  C   UNL     1      -2.338  -1.464  -2.082  1.00  0.00     0.049 A 
ATOM     63  H   UNL     1      -3.457  -2.756  -3.273  1.00  0.00     0.167 HD
ATOM     64  C   UNL     1      -5.955  -5.229  -5.821  1.00  0.00     0.034 A 
ATOM     65  C   UNL     1      -2.541  -1.813  -0.795  1.00  0.00     0.034 A 
ATOM     66  C   UNL     1      -6.108  -5.788  -4.507  1.00  0.00     0.049 A 
ATOM     67  C   UNL     1      -3.415  -3.006  -0.497  1.00  0.00     0.074 A 
ATOM     68  C   UNL     1      -6.880  -6.868  -4.115  1.00  0.00     0.029 A 
ATOM     69  N   UNL     1      -5.489  -5.304  -3.367  1.00  0.00    -0.354 N 
ATOM     70  N   UNL     1      -4.038  -3.802  -1.331  1.00  0.00    -0.248 NA
ATOM     71  C   UNL     1      -3.573  -3.381   0.917  1.00  0.00     0.031 C 
ATOM     72  C   UNL     1      -6.734  -7.031  -2.733  1.00  0.00     0.029 A 
ATOM     73  C   UNL     1      -5.862  -6.060  -2.270  1.00  0.00     0.049 A 
ATOM     74  H   UNL     1      -4.874  -4.536  -3.341  1.00  0.00     0.167 HD
ATOM     75  C   UNL     1      -4.617  -4.795  -0.548  1.00  0.00     0.074 A 
ATOM     76  C   UNL     1      -4.241  -4.521   0.822  1.00  0.00     0.031 C 
ATOM     77  C   UNL     1      -5.413  -5.825  -0.924  1.00  0.00     0.034 A 
BRANCH  64  78
ATOM     78  C   UNL     1      -6.750  -5.829  -6.944  1.00  0.00     0.023 A 
ATOM     79  C   UNL     1      -6.118  -6.695  -7.858  1.00  0.00     0.012 A 
ATOM     80  C   UNL     1      -8.129  -5.574  -7.064  1.00  0.00     0.148 A 
ATOM     81  C   UNL     1      -6.844  -7.285  -8.891  1.00  0.00     0.002 A 
ATOM     82  C   UNL     1      -8.854  -6.195  -8.073  1.00  0.00     0.091 A 
ATOM     83  F   UNL     1      -8.700  -4.724  -6.199  1.00  0.00    -0.205 F 
ATOM     84  C   UNL     1      -8.212  -7.043  -8.992  1.00  0.00     0.022 A 
BRANCH  82  85
ATOM     85  S   UNL     1     -10.630  -6.001  -8.249  1.00  0.00     0.127 S 
ATOM     86  O   UNL     1     -10.722  -5.232  -9.489  1.00  0.00    -0.237 OA
ATOM     87  O   UNL     1     -11.080  -7.389  -8.356  1.00  0.00    -0.237 OA
ATOM     88  O   UNL     1     -11.080  -5.307  -7.051  1.00  0.00    -0.744 OA
ENDBRANCH  82  85
ENDBRANCH  64  78
BRANCH  65  89
ATOM     89  C   UNL     1      -1.840  -1.097   0.316  1.00  0.00     0.023 A 
ATOM     90  C   UNL     1      -0.921  -1.802   1.121  1.00  0.00     0.012 A 
ATOM     91  C   UNL     1      -2.079   0.262   0.595  1.00  0.00     0.148 A 
ATOM     92  C   UNL     1      -0.313  -1.193   2.220  1.00  0.00     0.002 A 
ATOM     93  C   UNL     1      -1.399   0.888   1.635  1.00  0.00     0.091 A 
ATOM     94  F   UNL     1      -2.973   0.924  -0.155  1.00  0.00    -0.205 F 
ATOM     95  C   UNL     1      -0.541   0.156   2.470  1.00  0.00     0.022 A 
BRANCH  93  96
ATOM     96  S   UNL     1      -1.478   2.665   1.886  1.00  0.00     0.127 S 
ATOM     97  O   UNL     1      -2.409   2.771   3.005  1.00  0.00    -0.237 OA
ATOM     98  O   UNL     1      -0.087   2.991   2.208  1.00  0.00    -0.237 OA
ATOM     99  O   UNL     1      -1.935   3.211   0.614  1.00  0.00    -0.744 OA
ENDBRANCH  93  96
ENDBRANCH  65  89
BRANCH  77 100
ATOM    100  C   UNL     1      -5.885  -6.761   0.156  1.00  0.00     0.023 A 
ATOM    101  C   UNL     1      -6.860  -6.331   1.078  1.00  0.00     0.012 A 
ATOM    102  C   UNL     1      -5.381  -8.072   0.243  1.00  0.00     0.148 A 
ATOM    103  C   UNL     1      -7.290  -7.175   2.100  1.00  0.00     0.002 A 
ATOM    104  C   UNL     1      -5.848  -8.924   1.238  1.00  0.00     0.091 A 
ATOM    105  F   UNL     1      -4.437  -8.459  -0.628  1.00  0.00    -0.205 F 
ATOM    106  C   UNL     1      -6.792  -8.473   2.175  1.00  0.00     0.022 A 
BRANCH 104 107
ATOM    107  S   UNL     1      -5.313 -10.635   1.347  1.00  0.00     0.127 S 
ATOM    108  O   UNL     1      -4.278 -10.561   2.376  1.00  0.00    -0.237 OA
ATOM    109  O   UNL     1      -6.537 -11.324   1.763  1.00  0.00    -0.237 OA
ATOM    110  O   UNL     1      -4.855 -10.988   0.010  1.00  0.00    -0.744 OA
ENDBRANCH 104 107
ENDBRANCH  77 100
ENDBRANCH  51  52
ENDBRANCH  44  46
ENDBRANCH  43  44
ENDBRANCH  42  43
ENDBRANCH  41  42
ENDBRANCH  40  41
ENDBRANCH  39  40
ENDBRANCH  38  39
ENDBRANCH   1  38
TORSDOF 27
