REMARK SMILES COc1ccc(OC)c([C@H](C(=O)OCCOCCOCCOCCOC(=O)c2ccc(-c3c4nc(c(-c5cccc(S(=O)(=O)[O-])c5F)c5ccc([nH]5)c(-c5cccc(S(=O)(=O)[O-])c5F)c5nc(c(-c6cccc(S(=O)(=O)[O-])c6F)c6ccc3[nH]6)C=C5)C=C4)cc2)[NH+]2CC[NH+](Cc3nccn3C)CC2)c1
REMARK SMILES IDX 19 1 18 2 17 3 16 4 15 5 14 6 13 7 11 8 12 9 10 10 9 11 3 12
REMARK SMILES IDX 4 13 104 14 5 15 6 16 2 17 1 18 7 19 8 20 91 21 92 22 103 23
REMARK SMILES IDX 93 25 102 26 94 27 95 29 96 30 97 31 100 32 98 33 99 34
REMARK SMILES IDX 101 35 20 36 21 37 22 38 23 39 24 40 25 41 26 42 27 43 28 44
REMARK SMILES IDX 29 45 90 46 30 47 89 48 31 49 32 50 33 51 83 52 34 53 88 54
REMARK SMILES IDX 82 55 84 56 35 57 87 58 81 59 80 60 36 62 68 63 48 64 67 65
REMARK SMILES IDX 49 66 52 67 66 68 85 69 50 70 51 71 65 73 86 74 53 75 37 76
REMARK SMILES IDX 38 77 46 78 39 79 41 80 47 81 40 82 42 83 43 84 44 85 45 86
REMARK SMILES IDX 69 87 70 88 78 89 71 90 73 91 79 92 72 93 74 94 75 95 76 96
REMARK SMILES IDX 77 97 54 98 55 99 63 100 56 101 58 102 64 103 57 104 59 105
REMARK SMILES IDX 60 106 61 107 62 108
REMARK H PARENT 91 24 94 28 84 61 52 72
REMARK Flexibility Score: inf
ROOT
ATOM      1  O   UNL     1       2.188  -1.531   1.294  1.00  0.00    -0.377 OA
ENDROOT
BRANCH   1   2
ATOM      2  C   UNL     1       2.581  -1.629  -0.054  1.00  0.00     0.188 C 
BRANCH   2   3
ATOM      3  C   UNL     1       1.455  -2.076  -0.996  1.00  0.00     0.188 C 
BRANCH   3   4
ATOM      4  O   UNL     1       0.143  -2.039  -0.442  1.00  0.00    -0.376 OA
BRANCH   4   5
ATOM      5  C   UNL     1      -0.397  -3.255   0.072  1.00  0.00     0.202 C 
BRANCH   5   6
ATOM      6  C   UNL     1       0.388  -3.941   1.200  1.00  0.00     0.261 C 
BRANCH   6   7
ATOM      7  O   UNL     1       1.711  -4.318   0.795  1.00  0.00    -0.459 OA
BRANCH   7   8
ATOM      8  C   UNL     1       1.774  -5.268  -0.175  1.00  0.00     0.370 C 
ATOM      9  O   UNL     1       0.797  -5.900  -0.555  1.00  0.00    -0.245 OA
BRANCH   8  10
ATOM     10  C   UNL     1       3.234  -5.448  -0.655  1.00  0.00     0.330 C 
BRANCH  10  11
ATOM     11  C   UNL     1       4.033  -6.345   0.297  1.00  0.00     0.067 A 
ATOM     12  C   UNL     1       3.886  -7.773   2.301  1.00  0.00     0.119 A 
ATOM     13  C   UNL     1       5.265  -7.744   2.427  1.00  0.00     0.050 A 
ATOM     14  C   UNL     1       3.297  -7.146   1.208  1.00  0.00     0.060 A 
ATOM     15  C   UNL     1       6.029  -7.020   1.509  1.00  0.00     0.051 A 
ATOM     16  C   UNL     1       5.430  -6.300   0.461  1.00  0.00     0.128 A 
BRANCH  12  17
ATOM     17  O   UNL     1       3.188  -8.418   3.283  1.00  0.00    -0.497 OA
ATOM     18  C   UNL     1       1.866  -7.924   3.520  1.00  0.00     0.278 C 
ENDBRANCH  12  17
BRANCH  16  19
ATOM     19  O   UNL     1       6.317  -5.480  -0.185  1.00  0.00    -0.496 OA
ATOM     20  C   UNL     1       6.266  -5.454  -1.602  1.00  0.00     0.278 C 
ENDBRANCH  16  19
ENDBRANCH  10  11
BRANCH  10  21
ATOM     21  N   UNL     1       3.322  -5.806  -2.092  1.00  0.00    -0.310 N 
ATOM     22  C   UNL     1       2.714  -7.070  -2.517  1.00  0.00     0.325 C 
ATOM     23  C   UNL     1       3.058  -4.719  -3.038  1.00  0.00     0.325 C 
ATOM     24  H   UNL     1       4.324  -5.991  -2.143  1.00  0.00     0.349 HD
ATOM     25  C   UNL     1       1.344  -7.018  -3.256  1.00  0.00     0.324 C 
ATOM     26  C   UNL     1       1.620  -4.627  -3.599  1.00  0.00     0.324 C 
ATOM     27  N   UNL     1       1.048  -5.863  -4.119  1.00  0.00    -0.319 N 
ATOM     28  H   UNL     1       0.040  -5.720  -4.074  1.00  0.00     0.348 HD
BRANCH  27  29
ATOM     29  C   UNL     1       1.250  -6.107  -5.548  1.00  0.00     0.339 C 
BRANCH  29  30
ATOM     30  C   UNL     1       2.675  -6.292  -5.963  1.00  0.00     0.164 A 
ATOM     31  N   UNL     1       3.388  -7.382  -5.740  1.00  0.00    -0.236 NA
ATOM     32  N   UNL     1       3.452  -5.337  -6.578  1.00  0.00    -0.333 N 
ATOM     33  C   UNL     1       4.672  -7.075  -6.089  1.00  0.00     0.131 A 
ATOM     34  C   UNL     1       4.738  -5.809  -6.614  1.00  0.00     0.107 A 
ATOM     35  C   UNL     1       3.060  -4.039  -7.071  1.00  0.00     0.151 C 
ENDBRANCH  29  30
ENDBRANCH  27  29
ENDBRANCH  10  21
ENDBRANCH   8  10
ENDBRANCH   7   8
ENDBRANCH   6   7
ENDBRANCH   5   6
ENDBRANCH   4   5
ENDBRANCH   3   4
ENDBRANCH   2   3
ENDBRANCH   1   2
BRANCH   1  36
ATOM     36  C   UNL     1       1.324  -0.468   1.674  1.00  0.00     0.188 C 
BRANCH  36  37
ATOM     37  C   UNL     1       0.665   0.490   0.650  1.00  0.00     0.188 C 
BRANCH  37  38
ATOM     38  O   UNL     1       1.448   0.784  -0.503  1.00  0.00    -0.376 OA
BRANCH  38  39
ATOM     39  C   UNL     1       2.030   2.078  -0.566  1.00  0.00     0.202 C 
BRANCH  39  40
ATOM     40  C   UNL     1       3.269   2.258   0.320  1.00  0.00     0.261 C 
BRANCH  40  41
ATOM     41  O   UNL     1       3.045   2.087   1.727  1.00  0.00    -0.460 OA
BRANCH  41  42
ATOM     42  C   UNL     1       2.134   2.891   2.319  1.00  0.00     0.338 C 
ATOM     43  O   UNL     1       1.526   3.814   1.802  1.00  0.00    -0.246 OA
BRANCH  42  44
ATOM     44  C   UNL     1       1.817   2.312   3.642  1.00  0.00     0.060 A 
ATOM     45  C   UNL     1       0.474   2.062   3.962  1.00  0.00     0.016 A 
ATOM     46  C   UNL     1       2.836   1.947   4.526  1.00  0.00     0.016 A 
ATOM     47  C   UNL     1       0.146   1.494   5.192  1.00  0.00     0.010 A 
ATOM     48  C   UNL     1       2.506   1.401   5.768  1.00  0.00     0.010 A 
ATOM     49  C   UNL     1       1.158   1.219   6.121  1.00  0.00    -0.014 A 
BRANCH  49  50
ATOM     50  C   UNL     1       0.794   1.038   7.545  1.00  0.00     0.031 A 
ATOM     51  C   UNL     1       0.745   2.275   8.402  1.00  0.00     0.074 A 
ATOM     52  C   UNL     1       0.512  -0.168   8.067  1.00  0.00     0.049 A 
ATOM     53  N   UNL     1       0.438   2.400   9.665  1.00  0.00    -0.248 NA
ATOM     54  C   UNL     1       1.094   3.546   7.739  1.00  0.00     0.031 C 
ATOM     55  C   UNL     1       0.533  -1.435   7.341  1.00  0.00     0.029 A 
ATOM     56  N   UNL     1       0.171  -0.517   9.350  1.00  0.00    -0.354 N 
ATOM     57  C   UNL     1       0.572   3.753   9.950  1.00  0.00     0.074 A 
ATOM     58  C   UNL     1       1.006   4.408   8.738  1.00  0.00     0.031 C 
ATOM     59  C   UNL     1       0.243  -2.431   8.200  1.00  0.00     0.029 A 
ATOM     60  C   UNL     1       0.028  -1.871   9.534  1.00  0.00     0.049 A 
ATOM     61  H   UNL     1       0.040   0.141  10.070  1.00  0.00     0.167 HD
ATOM     62  C   UNL     1       0.338   4.401  11.114  1.00  0.00     0.034 A 
ATOM     63  C   UNL     1      -0.235  -2.571  10.656  1.00  0.00     0.034 A 
ATOM     64  C   UNL     1      -0.096   3.752  12.317  1.00  0.00     0.049 A 
ATOM     65  C   UNL     1      -0.472  -1.828  11.949  1.00  0.00     0.074 A 
ATOM     66  C   UNL     1      -0.396   4.321  13.541  1.00  0.00     0.029 A 
ATOM     67  N   UNL     1      -0.274   2.384  12.453  1.00  0.00    -0.354 N 
ATOM     68  N   UNL     1      -0.475  -0.535  12.172  1.00  0.00    -0.248 NA
ATOM     69  C   UNL     1      -0.779  -2.639  13.137  1.00  0.00     0.031 C 
ATOM     70  C   UNL     1      -0.735   3.292  14.425  1.00  0.00     0.029 A 
ATOM     71  C   UNL     1      -0.674   2.087  13.743  1.00  0.00     0.049 A 
ATOM     72  H   UNL     1      -0.137   1.722  11.737  1.00  0.00     0.167 HD
ATOM     73  C   UNL     1      -0.825  -0.378  13.510  1.00  0.00     0.074 A 
ATOM     74  C   UNL     1      -1.042  -1.707  14.042  1.00  0.00     0.031 C 
ATOM     75  C   UNL     1      -0.946   0.761  14.237  1.00  0.00     0.034 A 
BRANCH  62  76
ATOM     76  C   UNL     1       0.525   5.893  11.124  1.00  0.00     0.023 A 
ATOM     77  C   UNL     1      -0.411   6.716  10.466  1.00  0.00     0.012 A 
ATOM     78  C   UNL     1       1.608   6.480  11.805  1.00  0.00     0.148 A 
ATOM     79  C   UNL     1      -0.257   8.101  10.460  1.00  0.00     0.002 A 
ATOM     80  C   UNL     1       1.731   7.864  11.832  1.00  0.00     0.091 A 
ATOM     81  F   UNL     1       2.504   5.677  12.395  1.00  0.00    -0.205 F 
ATOM     82  C   UNL     1       0.807   8.675  11.151  1.00  0.00     0.022 A 
BRANCH  80  83
ATOM     83  S   UNL     1       3.024   8.700  12.754  1.00  0.00     0.127 S 
ATOM     84  O   UNL     1       3.873   9.209  11.678  1.00  0.00    -0.237 OA
ATOM     85  O   UNL     1       2.272   9.728  13.475  1.00  0.00    -0.237 OA
ATOM     86  O   UNL     1       3.632   7.686  13.603  1.00  0.00    -0.744 OA
ENDBRANCH  80  83
ENDBRANCH  62  76
BRANCH  63  87
ATOM     87  C   UNL     1      -0.336  -4.058  10.607  1.00  0.00     0.023 A 
ATOM     88  C   UNL     1      -1.585  -4.678  10.805  1.00  0.00     0.012 A 
ATOM     89  C   UNL     1       0.797  -4.860  10.368  1.00  0.00     0.148 A 
ATOM     90  C   UNL     1      -1.700  -6.069  10.797  1.00  0.00     0.002 A 
ATOM     91  C   UNL     1       0.666  -6.243  10.308  1.00  0.00     0.091 A 
ATOM     92  F   UNL     1       1.980  -4.253  10.202  1.00  0.00    -0.205 F 
ATOM     93  C   UNL     1      -0.577  -6.851  10.540  1.00  0.00     0.022 A 
BRANCH  91  94
ATOM     94  S   UNL     1       2.030  -7.323   9.861  1.00  0.00     0.127 S 
ATOM     95  O   UNL     1       2.294  -8.008  11.124  1.00  0.00    -0.237 OA
ATOM     96  O   UNL     1       1.423  -8.155   8.822  1.00  0.00    -0.237 OA
ATOM     97  O   UNL     1       3.088  -6.442   9.385  1.00  0.00    -0.744 OA
ENDBRANCH  91  94
ENDBRANCH  63  87
BRANCH  75  98
ATOM     98  C   UNL     1      -1.377   0.638  15.675  1.00  0.00     0.023 A 
ATOM     99  C   UNL     1      -0.480   0.138  16.638  1.00  0.00     0.012 A 
ATOM    100  C   UNL     1      -2.643   1.103  16.084  1.00  0.00     0.148 A 
ATOM    101  C   UNL     1      -0.848   0.072  17.982  1.00  0.00     0.002 A 
ATOM    102  C   UNL     1      -2.984   1.081  17.431  1.00  0.00     0.091 A 
ATOM    103  F   UNL     1      -3.490   1.560  15.150  1.00  0.00    -0.205 F 
ATOM    104  C   UNL     1      -2.093   0.555  18.380  1.00  0.00     0.022 A 
BRANCH 102 105
ATOM    105  S   UNL     1      -4.524   1.776  18.041  1.00  0.00     0.127 S 
ATOM    106  O   UNL     1      -5.301   0.572  18.330  1.00  0.00    -0.237 OA
ATOM    107  O   UNL     1      -4.085   2.517  19.225  1.00  0.00    -0.237 OA
ATOM    108  O   UNL     1      -5.039   2.613  16.966  1.00  0.00    -0.744 OA
ENDBRANCH 102 105
ENDBRANCH  75  98
ENDBRANCH  49  50
ENDBRANCH  42  44
ENDBRANCH  41  42
ENDBRANCH  40  41
ENDBRANCH  39  40
ENDBRANCH  38  39
ENDBRANCH  37  38
ENDBRANCH  36  37
ENDBRANCH   1  36
TORSDOF 29
