REMARK SMILES CC[C@@](C)(NC(=O)CCc1ccc(OC)c(Br)c1)C(=O)OCCOCCOCCOCCOC(=O)c1ccc(-c2c3nc(c(-c4cccc(S(=O)(=O)[O-])c4F)c4ccc([nH]4)c(-c4cccc(S(=O)(=O)[O-])c4F)c4nc(c(-c5cccc(S(=O)(=O)[O-])c5F)c5ccc2[nH]5)C=C4)C=C3)cc1
REMARK SMILES IDX 26 1 25 2 24 3 23 4 22 5 21 6 19 7 20 8 3 9 4 10 2 11 1 12
REMARK SMILES IDX 5 13 6 14 7 16 8 17 9 18 10 19 11 20 18 21 12 22 16 23 13 24
REMARK SMILES IDX 17 25 14 26 15 27 27 28 28 29 29 30 30 31 31 32 32 33 33 34
REMARK SMILES IDX 34 35 35 36 36 37 37 38 98 39 38 40 97 41 39 42 40 43 41 44
REMARK SMILES IDX 91 45 42 46 96 47 90 48 92 49 43 50 95 51 89 52 88 53 44 55
REMARK SMILES IDX 76 56 56 57 75 58 57 59 60 60 74 61 93 62 58 63 59 64 73 66
REMARK SMILES IDX 94 67 61 68 45 69 46 70 54 71 47 72 49 73 55 74 48 75 50 76
REMARK SMILES IDX 51 77 52 78 53 79 77 80 78 81 86 82 79 83 81 84 87 85 80 86
REMARK SMILES IDX 82 87 83 88 84 89 85 90 62 91 63 92 71 93 64 94 66 95 72 96
REMARK SMILES IDX 65 97 67 98 68 99 69 100 70 101
REMARK H PARENT 5 15 92 54 60 65
REMARK Flexibility Score: inf
ROOT
ATOM      1  C   UNL     1       4.550  -3.384  -1.822  1.00  0.00     0.188 C 
ENDROOT
BRANCH   1   2
ATOM      2  C   UNL     1       5.558  -2.591  -0.935  1.00  0.00     0.188 C 
BRANCH   2   3
ATOM      3  O   UNL     1       5.771  -2.488   0.490  1.00  0.00    -0.376 OA
BRANCH   3   4
ATOM      4  C   UNL     1       5.089  -2.853   1.719  1.00  0.00     0.202 C 
BRANCH   4   5
ATOM      5  C   UNL     1       4.117  -1.880   2.645  1.00  0.00     0.261 C 
BRANCH   5   6
ATOM      6  O   UNL     1       2.658  -2.231   2.700  1.00  0.00    -0.462 OA
BRANCH   6   7
ATOM      7  C   UNL     1       1.573  -1.367   2.729  1.00  0.00     0.331 C 
ATOM      8  O   UNL     1       1.696  -0.154   2.859  1.00  0.00    -0.249 OA
BRANCH   7   9
ATOM      9  C   UNL     1       0.103  -2.109   2.614  1.00  0.00     0.135 C 
ATOM     10  C   UNL     1      -0.670  -1.593   3.846  1.00  0.00     0.047 C 
BRANCH   9  11
ATOM     11  C   UNL     1      -0.919  -1.992   1.395  1.00  0.00     0.037 C 
ATOM     12  C   UNL     1      -1.656  -0.739   0.936  1.00  0.00     0.007 C 
ENDBRANCH   9  11
BRANCH   9  13
ATOM     13  N   UNL     1       0.229  -3.586   2.717  1.00  0.00    -0.340 N 
ATOM     14  C   UNL     1       0.634  -4.341   1.647  1.00  0.00     0.221 C 
ATOM     15  H   UNL     1       0.016  -4.031   3.569  1.00  0.00     0.164 HD
ATOM     16  O   UNL     1      -0.088  -5.248   1.239  1.00  0.00    -0.275 OA
BRANCH  14  17
ATOM     17  C   UNL     1       1.987  -4.083   1.062  1.00  0.00     0.105 C 
BRANCH  17  18
ATOM     18  C   UNL     1       2.277  -2.947   0.027  1.00  0.00     0.045 C 
BRANCH  18  19
ATOM     19  C   UNL     1       2.270  -1.408  -0.056  1.00  0.00    -0.046 A 
ATOM     20  C   UNL     1       1.154  -0.721  -0.480  1.00  0.00     0.007 A 
ATOM     21  C   UNL     1       3.384  -0.567   0.152  1.00  0.00     0.023 A 
ATOM     22  C   UNL     1       1.035   0.674  -0.294  1.00  0.00     0.048 A 
ATOM     23  C   UNL     1       3.326   0.824   0.271  1.00  0.00     0.060 A 
ATOM     24  C   UNL     1       2.105   1.436   0.160  1.00  0.00     0.133 A 
ATOM     25  Br  UNL     1       4.917   1.807   0.608  1.00  0.00    -0.047 Br
BRANCH  24  26
ATOM     26  O   UNL     1       1.971   2.711   0.617  1.00  0.00    -0.496 OA
ATOM     27  C   UNL     1       1.492   3.615  -0.358  1.00  0.00     0.278 C 
ENDBRANCH  24  26
ENDBRANCH  18  19
ENDBRANCH  17  18
ENDBRANCH  14  17
ENDBRANCH   9  13
ENDBRANCH   7   9
ENDBRANCH   6   7
ENDBRANCH   5   6
ENDBRANCH   4   5
ENDBRANCH   3   4
ENDBRANCH   2   3
ENDBRANCH   1   2
BRANCH   1  28
ATOM     28  O   UNL     1       4.035  -4.606  -1.332  1.00  0.00    -0.377 OA
BRANCH  28  29
ATOM     29  C   UNL     1       4.995  -5.578  -0.976  1.00  0.00     0.188 C 
BRANCH  29  30
ATOM     30  C   UNL     1       5.885  -5.994  -2.147  1.00  0.00     0.188 C 
BRANCH  30  31
ATOM     31  O   UNL     1       5.332  -6.543  -3.342  1.00  0.00    -0.376 OA
BRANCH  31  32
ATOM     32  C   UNL     1       3.929  -6.671  -3.508  1.00  0.00     0.202 C 
BRANCH  32  33
ATOM     33  C   UNL     1       3.298  -7.963  -2.967  1.00  0.00     0.261 C 
BRANCH  33  34
ATOM     34  O   UNL     1       3.681  -8.308  -1.631  1.00  0.00    -0.460 OA
BRANCH  34  35
ATOM     35  C   UNL     1       4.834  -9.016  -1.551  1.00  0.00     0.338 C 
ATOM     36  O   UNL     1       5.542  -9.385  -2.467  1.00  0.00    -0.246 OA
BRANCH  35  37
ATOM     37  C   UNL     1       5.202  -9.214  -0.138  1.00  0.00     0.060 A 
ATOM     38  C   UNL     1       6.464  -8.779   0.281  1.00  0.00     0.016 A 
ATOM     39  C   UNL     1       4.386  -9.964   0.712  1.00  0.00     0.016 A 
ATOM     40  C   UNL     1       6.952  -9.163   1.523  1.00  0.00     0.010 A 
ATOM     41  C   UNL     1       4.886 -10.368   1.953  1.00  0.00     0.010 A 
ATOM     42  C   UNL     1       6.196 -10.022   2.328  1.00  0.00    -0.014 A 
BRANCH  42  43
ATOM     43  C   UNL     1       6.895 -10.733   3.423  1.00  0.00     0.031 A 
ATOM     44  C   UNL     1       7.388 -12.134   3.171  1.00  0.00     0.074 A 
ATOM     45  C   UNL     1       7.171 -10.107   4.579  1.00  0.00     0.049 A 
ATOM     46  N   UNL     1       8.081 -12.920   3.952  1.00  0.00    -0.248 NA
ATOM     47  C   UNL     1       7.062 -12.725   1.861  1.00  0.00     0.031 C 
ATOM     48  C   UNL     1       6.760  -8.746   4.921  1.00  0.00     0.029 A 
ATOM     49  N   UNL     1       7.860 -10.542   5.681  1.00  0.00    -0.354 N 
ATOM     50  C   UNL     1       8.262 -14.099   3.237  1.00  0.00     0.074 A 
ATOM     51  C   UNL     1       7.584 -13.937   1.971  1.00  0.00     0.031 C 
ATOM     52  C   UNL     1       7.183  -8.466   6.166  1.00  0.00     0.029 A 
ATOM     53  C   UNL     1       7.879  -9.631   6.709  1.00  0.00     0.049 A 
ATOM     54  H   UNL     1       8.299 -11.422   5.731  1.00  0.00     0.167 HD
ATOM     55  C   UNL     1       8.951 -15.209   3.593  1.00  0.00     0.034 A 
ATOM     56  C   UNL     1       8.386  -9.738   7.953  1.00  0.00     0.034 A 
ATOM     57  C   UNL     1       9.634 -15.360   4.849  1.00  0.00     0.049 A 
ATOM     58  C   UNL     1       9.127 -10.992   8.333  1.00  0.00     0.074 A 
ATOM     59  C   UNL     1      10.372 -16.438   5.305  1.00  0.00     0.029 A 
ATOM     60  N   UNL     1       9.656 -14.406   5.855  1.00  0.00    -0.354 N 
ATOM     61  N   UNL     1       9.370 -12.061   7.612  1.00  0.00    -0.248 NA
ATOM     62  C   UNL     1       9.703 -11.037   9.684  1.00  0.00     0.031 C 
ATOM     63  C   UNL     1      10.821 -16.144   6.597  1.00  0.00     0.029 A 
ATOM     64  C   UNL     1      10.390 -14.870   6.933  1.00  0.00     0.049 A 
ATOM     65  H   UNL     1       9.214 -13.528   5.810  1.00  0.00     0.167 HD
ATOM     66  C   UNL     1      10.149 -12.893   8.411  1.00  0.00     0.074 A 
ATOM     67  C   UNL     1      10.365 -12.185   9.656  1.00  0.00     0.031 C 
ATOM     68  C   UNL     1      10.627 -14.135   8.149  1.00  0.00     0.034 A 
BRANCH  55  69
ATOM     69  C   UNL     1       9.023 -16.337   2.595  1.00  0.00     0.023 A 
ATOM     70  C   UNL     1       9.815 -16.194   1.437  1.00  0.00     0.012 A 
ATOM     71  C   UNL     1       8.348 -17.552   2.825  1.00  0.00     0.148 A 
ATOM     72  C   UNL     1       9.912 -17.231   0.509  1.00  0.00     0.002 A 
ATOM     73  C   UNL     1       8.485 -18.597   1.918  1.00  0.00     0.091 A 
ATOM     74  F   UNL     1       7.581 -17.660   3.919  1.00  0.00    -0.205 F 
ATOM     75  C   UNL     1       9.256 -18.434   0.755  1.00  0.00     0.022 A 
BRANCH  73  76
ATOM     76  S   UNL     1       7.745 -20.212   2.178  1.00  0.00     0.127 S 
ATOM     77  O   UNL     1       6.742 -20.253   1.114  1.00  0.00    -0.237 OA
ATOM     78  O   UNL     1       8.884 -21.107   1.976  1.00  0.00    -0.237 OA
ATOM     79  O   UNL     1       7.213 -20.199   3.534  1.00  0.00    -0.744 OA
ENDBRANCH  73  76
ENDBRANCH  55  69
BRANCH  56  80
ATOM     80  C   UNL     1       8.220  -8.618   8.921  1.00  0.00     0.023 A 
ATOM     81  C   UNL     1       9.340  -7.881   9.348  1.00  0.00     0.012 A 
ATOM     82  C   UNL     1       6.944  -8.274   9.410  1.00  0.00     0.148 A 
ATOM     83  C   UNL     1       9.198  -6.846  10.274  1.00  0.00     0.002 A 
ATOM     84  C   UNL     1       6.801  -7.203  10.282  1.00  0.00     0.091 A 
ATOM     85  F   UNL     1       5.892  -9.000   9.006  1.00  0.00    -0.205 F 
ATOM     86  C   UNL     1       7.929  -6.499  10.731  1.00  0.00     0.022 A 
BRANCH  84  87
ATOM     87  S   UNL     1       5.192  -6.604  10.807  1.00  0.00     0.127 S 
ATOM     88  O   UNL     1       5.156  -7.027  12.204  1.00  0.00    -0.237 OA
ATOM     89  O   UNL     1       5.325  -5.161  10.602  1.00  0.00    -0.237 OA
ATOM     90  O   UNL     1       4.228  -7.245   9.924  1.00  0.00    -0.744 OA
ENDBRANCH  84  87
ENDBRANCH  56  80
BRANCH  68  91
ATOM     91  C   UNL     1      11.455 -14.796   9.221  1.00  0.00     0.023 A 
ATOM     92  C   UNL     1      10.840 -15.237  10.411  1.00  0.00     0.012 A 
ATOM     93  C   UNL     1      12.834 -15.016   9.034  1.00  0.00     0.148 A 
ATOM     94  C   UNL     1      11.594 -15.839  11.418  1.00  0.00     0.002 A 
ATOM     95  C   UNL     1      13.568 -15.664  10.021  1.00  0.00     0.091 A 
ATOM     96  F   UNL     1      13.406 -14.576   7.904  1.00  0.00    -0.205 F 
ATOM     97  C   UNL     1      12.954 -16.061  11.219  1.00  0.00     0.022 A 
BRANCH  95  98
ATOM     98  S   UNL     1      15.303 -16.077   9.809  1.00  0.00     0.127 S 
ATOM     99  O   UNL     1      15.953 -15.081  10.658  1.00  0.00    -0.237 OA
ATOM    100  O   UNL     1      15.363 -17.447  10.321  1.00  0.00    -0.237 OA
ATOM    101  O   UNL     1      15.571 -15.957   8.382  1.00  0.00    -0.744 OA
ENDBRANCH  95  98
ENDBRANCH  68  91
ENDBRANCH  42  43
ENDBRANCH  35  37
ENDBRANCH  34  35
ENDBRANCH  33  34
ENDBRANCH  32  33
ENDBRANCH  31  32
ENDBRANCH  30  31
ENDBRANCH  29  30
ENDBRANCH  28  29
ENDBRANCH   1  28
TORSDOF 29
