REMARK SMILES Cc1cc(Cl)c2c(c1)C=C(C(=O)OCCOCCOCCOCCOC(=O)c1ccc(-c3c4nc(c(-c5cccc(S(=O)(=O)[O-])c5F)c5ccc([nH]5)c(-c5cccc(S(=O)(=O)[O-])c5F)c5nc(c(-c6cccc(S(=O)(=O)[O-])c6F)c6ccc3[nH]6)C=C5)C=C4)cc1)[C@@H](C(F)(F)F)O2
REMARK SMILES IDX 20 1 19 2 18 3 17 4 16 5 15 6 14 7 13 8 11 9 12 10 10 11
REMARK SMILES IDX 1 12 2 13 3 14 8 15 4 16 7 17 5 18 6 19 9 20 96 21 91 22
REMARK SMILES IDX 92 23 93 24 94 25 95 26 21 27 22 28 23 29 24 30 25 31 26 32
REMARK SMILES IDX 27 33 28 34 29 35 90 36 30 37 89 38 31 39 32 40 33 41 83 42
REMARK SMILES IDX 34 43 88 44 82 45 84 46 35 47 87 48 81 49 80 50 36 52 68 53
REMARK SMILES IDX 48 54 67 55 49 56 52 57 66 58 85 59 50 60 51 61 65 63 86 64
REMARK SMILES IDX 53 65 37 66 38 67 46 68 39 69 41 70 47 71 40 72 42 73 43 74
REMARK SMILES IDX 44 75 45 76 69 77 70 78 78 79 71 80 73 81 79 82 72 83 74 84
REMARK SMILES IDX 75 85 76 86 77 87 54 88 55 89 63 90 56 91 58 92 64 93 57 94
REMARK SMILES IDX 59 95 60 96 61 97 62 98
REMARK H PARENT 84 51 52 62
REMARK Flexibility Score: inf
ROOT
ATOM      1  C   UNL     1      -0.893  -4.300   8.894  1.00  0.00     0.188 C 
ENDROOT
BRANCH   1   2
ATOM      2  O   UNL     1      -1.055  -4.194   7.479  1.00  0.00    -0.377 OA
BRANCH   2   3
ATOM      3  C   UNL     1      -0.828  -2.938   6.869  1.00  0.00     0.188 C 
BRANCH   3   4
ATOM      4  C   UNL     1      -1.996  -1.952   7.044  1.00  0.00     0.188 C 
BRANCH   4   5
ATOM      5  O   UNL     1      -2.930  -2.358   8.038  1.00  0.00    -0.376 OA
BRANCH   5   6
ATOM      6  C   UNL     1      -4.152  -2.941   7.603  1.00  0.00     0.202 C 
BRANCH   6   7
ATOM      7  C   UNL     1      -4.102  -4.274   6.841  1.00  0.00     0.261 C 
BRANCH   7   8
ATOM      8  O   UNL     1      -3.231  -4.307   5.702  1.00  0.00    -0.460 OA
BRANCH   8   9
ATOM      9  C   UNL     1      -3.547  -3.549   4.637  1.00  0.00     0.338 C 
ATOM     10  O   UNL     1      -4.525  -2.832   4.511  1.00  0.00    -0.246 OA
BRANCH   9  11
ATOM     11  C   UNL     1      -2.398  -3.585   3.703  1.00  0.00     0.087 C 
ATOM     12  C   UNL     1       1.067   0.051   0.113  1.00  0.00     0.044 C 
ATOM     13  C   UNL     1       0.638  -1.220   0.783  1.00  0.00    -0.049 A 
ATOM     14  C   UNL     1       1.241  -2.434   0.438  1.00  0.00     0.028 A 
ATOM     15  C   UNL     1      -0.414  -1.225   1.708  1.00  0.00     0.015 A 
ATOM     16  C   UNL     1       0.824  -3.626   1.038  1.00  0.00     0.084 A 
ATOM     17  C   UNL     1      -0.856  -2.424   2.287  1.00  0.00     0.019 A 
ATOM     18  Cl  UNL     1       1.614  -5.089   0.567  1.00  0.00    -0.080 Cl
ATOM     19  C   UNL     1      -0.220  -3.628   1.973  1.00  0.00     0.146 A 
ATOM     20  C   UNL     1      -2.003  -2.417   3.180  1.00  0.00     0.027 C 
ATOM     21  O   UNL     1      -0.575  -4.823   2.531  1.00  0.00    -0.474 OA
ATOM     22  C   UNL     1      -1.695  -4.896   3.454  1.00  0.00     0.316 C 
BRANCH  22  23
ATOM     23  C   UNL     1      -2.663  -5.975   2.946  1.00  0.00     0.430 C 
ATOM     24  F   UNL     1      -2.017  -7.127   2.662  1.00  0.00    -0.167 F 
ATOM     25  F   UNL     1      -3.622  -6.264   3.855  1.00  0.00    -0.167 F 
ATOM     26  F   UNL     1      -3.293  -5.571   1.816  1.00  0.00    -0.167 F 
ENDBRANCH  22  23
ENDBRANCH   9  11
ENDBRANCH   8   9
ENDBRANCH   7   8
ENDBRANCH   6   7
ENDBRANCH   5   6
ENDBRANCH   4   5
ENDBRANCH   3   4
ENDBRANCH   2   3
ENDBRANCH   1   2
BRANCH   1  27
ATOM     27  C   UNL     1      -0.818  -3.057   9.813  1.00  0.00     0.188 C 
BRANCH  27  28
ATOM     28  O   UNL     1      -0.026  -1.987   9.301  1.00  0.00    -0.376 OA
BRANCH  28  29
ATOM     29  C   UNL     1       1.230  -1.770   9.927  1.00  0.00     0.202 C 
BRANCH  29  30
ATOM     30  C   UNL     1       2.311  -2.786   9.538  1.00  0.00     0.261 C 
BRANCH  30  31
ATOM     31  O   UNL     1       2.041  -4.142   9.928  1.00  0.00    -0.460 OA
BRANCH  31  32
ATOM     32  C   UNL     1       1.877  -4.390  11.245  1.00  0.00     0.338 C 
ATOM     33  O   UNL     1       1.991  -3.598  12.164  1.00  0.00    -0.246 OA
BRANCH  32  34
ATOM     34  C   UNL     1       1.326  -5.754  11.372  1.00  0.00     0.060 A 
ATOM     35  C   UNL     1       0.098  -5.931  12.022  1.00  0.00     0.016 A 
ATOM     36  C   UNL     1       2.009  -6.845  10.829  1.00  0.00     0.016 A 
ATOM     37  C   UNL     1      -0.434  -7.212  12.160  1.00  0.00     0.010 A 
ATOM     38  C   UNL     1       1.485  -8.129  10.987  1.00  0.00     0.010 A 
ATOM     39  C   UNL     1       0.280  -8.320  11.683  1.00  0.00    -0.014 A 
BRANCH  39  40
ATOM     40  C   UNL     1      -0.119  -9.680  12.113  1.00  0.00     0.031 A 
ATOM     41  C   UNL     1       0.528 -10.245  13.347  1.00  0.00     0.074 A 
ATOM     42  C   UNL     1      -1.041 -10.392  11.441  1.00  0.00     0.049 A 
ATOM     43  N   UNL     1       0.318 -11.389  13.941  1.00  0.00    -0.248 NA
ATOM     44  C   UNL     1       1.546  -9.404  14.003  1.00  0.00     0.031 C 
ATOM     45  C   UNL     1      -1.739  -9.951  10.236  1.00  0.00     0.029 A 
ATOM     46  N   UNL     1      -1.539 -11.649  11.679  1.00  0.00    -0.354 N 
ATOM     47  C   UNL     1       1.174 -11.407  15.035  1.00  0.00     0.074 A 
ATOM     48  C   UNL     1       1.929 -10.175  15.008  1.00  0.00     0.031 C 
ATOM     49  C   UNL     1      -2.569 -10.929   9.831  1.00  0.00     0.029 A 
ATOM     50  C   UNL     1      -2.450 -12.070  10.739  1.00  0.00     0.049 A 
ATOM     51  H   UNL     1      -1.268 -12.198  12.450  1.00  0.00     0.167 HD
ATOM     52  C   UNL     1       1.300 -12.351  15.994  1.00  0.00     0.034 A 
ATOM     53  C   UNL     1      -3.107 -13.244  10.627  1.00  0.00     0.034 A 
ATOM     54  C   UNL     1       0.545 -13.571  16.026  1.00  0.00     0.049 A 
ATOM     55  C   UNL     1      -2.896 -14.311  11.675  1.00  0.00     0.074 A 
ATOM     56  C   UNL     1       0.576 -14.572  16.978  1.00  0.00     0.029 A 
ATOM     57  N   UNL     1      -0.362 -13.964  15.055  1.00  0.00    -0.354 N 
ATOM     58  N   UNL     1      -2.188 -14.258  12.777  1.00  0.00    -0.248 NA
ATOM     59  C   UNL     1      -3.594 -15.591  11.476  1.00  0.00     0.031 C 
ATOM     60  C   UNL     1      -0.293 -15.586  16.569  1.00  0.00     0.029 A 
ATOM     61  C   UNL     1      -0.882 -15.205  15.373  1.00  0.00     0.049 A 
ATOM     62  H   UNL     1      -0.601 -13.438  14.258  1.00  0.00     0.167 HD
ATOM     63  C   UNL     1      -2.372 -15.483  13.412  1.00  0.00     0.074 A 
ATOM     64  C   UNL     1      -3.280 -16.249  12.585  1.00  0.00     0.031 C 
ATOM     65  C   UNL     1      -1.823 -15.939  14.566  1.00  0.00     0.034 A 
BRANCH  52  66
ATOM     66  C   UNL     1       2.259 -12.079  17.121  1.00  0.00     0.023 A 
ATOM     67  C   UNL     1       1.911 -11.134  18.107  1.00  0.00     0.012 A 
ATOM     68  C   UNL     1       3.459 -12.803  17.245  1.00  0.00     0.148 A 
ATOM     69  C   UNL     1       2.753 -10.898  19.192  1.00  0.00     0.002 A 
ATOM     70  C   UNL     1       4.274 -12.593  18.352  1.00  0.00     0.091 A 
ATOM     71  F   UNL     1       3.781 -13.679  16.283  1.00  0.00    -0.205 F 
ATOM     72  C   UNL     1       3.926 -11.636  19.320  1.00  0.00     0.022 A 
BRANCH  70  73
ATOM     73  S   UNL     1       5.768 -13.542  18.652  1.00  0.00     0.127 S 
ATOM     74  O   UNL     1       6.803 -12.521  18.492  1.00  0.00    -0.237 OA
ATOM     75  O   UNL     1       5.569 -13.998  20.027  1.00  0.00    -0.237 OA
ATOM     76  O   UNL     1       5.782 -14.601  17.653  1.00  0.00    -0.744 OA
ENDBRANCH  70  73
ENDBRANCH  52  66
BRANCH  53  77
ATOM     77  C   UNL     1      -4.068 -13.457   9.506  1.00  0.00     0.023 A 
ATOM     78  C   UNL     1      -5.445 -13.555   9.787  1.00  0.00     0.012 A 
ATOM     79  C   UNL     1      -3.634 -13.542   8.169  1.00  0.00     0.148 A 
ATOM     80  C   UNL     1      -6.369 -13.753   8.760  1.00  0.00     0.002 A 
ATOM     81  C   UNL     1      -4.564 -13.686   7.145  1.00  0.00     0.091 A 
ATOM     82  F   UNL     1      -2.318 -13.469   7.923  1.00  0.00    -0.205 F 
ATOM     83  C   UNL     1      -5.931 -13.807   7.440  1.00  0.00     0.022 A 
BRANCH  81  84
ATOM     84  S   UNL     1      -4.109 -13.644   5.408  1.00  0.00     0.127 S 
ATOM     85  O   UNL     1      -4.402 -15.013   4.989  1.00  0.00    -0.237 OA
ATOM     86  O   UNL     1      -5.023 -12.630   4.885  1.00  0.00    -0.237 OA
ATOM     87  O   UNL     1      -2.703 -13.264   5.379  1.00  0.00    -0.744 OA
ENDBRANCH  81  84
ENDBRANCH  53  77
BRANCH  65  88
ATOM     88  C   UNL     1      -2.168 -17.333  15.024  1.00  0.00     0.023 A 
ATOM     89  C   UNL     1      -1.598 -18.436  14.360  1.00  0.00     0.012 A 
ATOM     90  C   UNL     1      -2.921 -17.545  16.197  1.00  0.00     0.148 A 
ATOM     91  C   UNL     1      -1.779 -19.730  14.848  1.00  0.00     0.002 A 
ATOM     92  C   UNL     1      -3.056 -18.832  16.706  1.00  0.00     0.091 A 
ATOM     93  F   UNL     1      -3.462 -16.482  16.809  1.00  0.00    -0.205 F 
ATOM     94  C   UNL     1      -2.493 -19.926  16.029  1.00  0.00     0.022 A 
BRANCH  92  95
ATOM     95  S   UNL     1      -3.861 -19.177  18.276  1.00  0.00     0.127 S 
ATOM     96  O   UNL     1      -5.033 -19.939  17.848  1.00  0.00    -0.237 OA
ATOM     97  O   UNL     1      -2.846 -19.962  18.977  1.00  0.00    -0.237 OA
ATOM     98  O   UNL     1      -4.151 -17.881  18.875  1.00  0.00    -0.744 OA
ENDBRANCH  92  95
ENDBRANCH  65  88
ENDBRANCH  39  40
ENDBRANCH  32  34
ENDBRANCH  31  32
ENDBRANCH  30  31
ENDBRANCH  29  30
ENDBRANCH  28  29
ENDBRANCH  27  28
ENDBRANCH   1  27
TORSDOF 24
