REMARK SMILES Cc1c(Br)c(C)c2c(c1Br)O[C@H](C(F)(F)F)C(C(=O)OCCOCCOCCOCCOC(=O)c1ccc(-c3c4nc(c(-c5cccc(S(=O)(=O)[O-])c5F)c5ccc([nH]5)c(-c5cccc(S(=O)(=O)[O-])c5F)c5nc(c(-c6cccc(S(=O)(=O)[O-])c6F)c6ccc3[nH]6)C=C5)C=C4)cc1)=C2
REMARK SMILES IDX 27 1 26 2 25 3 24 4 23 5 22 6 21 7 20 8 18 9 19 10 17 11
REMARK SMILES IDX 1 12 2 13 3 14 9 15 4 16 5 17 8 18 10 19 6 20 7 21 11 22
REMARK SMILES IDX 98 23 12 24 13 25 14 26 15 27 16 28 28 29 29 30 30 31 31 32
REMARK SMILES IDX 32 33 33 34 34 35 35 36 36 37 97 38 37 39 96 40 38 41 39 42
REMARK SMILES IDX 40 43 90 44 41 45 95 46 89 47 91 48 42 49 94 50 88 51 87 52
REMARK SMILES IDX 43 54 75 55 55 56 74 57 56 58 59 59 73 60 92 61 57 62 58 63
REMARK SMILES IDX 72 65 93 66 60 67 44 68 45 69 53 70 46 71 48 72 54 73 47 74
REMARK SMILES IDX 49 75 50 76 51 77 52 78 76 79 77 80 85 81 78 82 80 83 86 84
REMARK SMILES IDX 79 85 81 86 82 87 83 88 84 89 61 90 62 91 70 92 63 93 65 94
REMARK SMILES IDX 71 95 64 96 66 97 67 98 68 99 69 100
REMARK H PARENT 91 53 59 64
REMARK Flexibility Score: inf
ROOT
ATOM      1  C   UNL     1      -1.445 -10.155   1.649  1.00  0.00     0.188 C 
ENDROOT
BRANCH   1   2
ATOM      2  O   UNL     1      -0.836  -9.068   0.951  1.00  0.00    -0.377 OA
BRANCH   2   3
ATOM      3  C   UNL     1      -1.663  -7.990   0.549  1.00  0.00     0.188 C 
BRANCH   3   4
ATOM      4  C   UNL     1      -2.386  -8.255  -0.786  1.00  0.00     0.188 C 
BRANCH   4   5
ATOM      5  O   UNL     1      -2.444  -9.626  -1.138  1.00  0.00    -0.376 OA
BRANCH   5   6
ATOM      6  C   UNL     1      -1.424 -10.234  -1.915  1.00  0.00     0.202 C 
BRANCH   6   7
ATOM      7  C   UNL     1       0.079  -9.903  -1.812  1.00  0.00     0.261 C 
BRANCH   7   8
ATOM      8  O   UNL     1       0.439  -8.582  -1.410  1.00  0.00    -0.460 OA
BRANCH   8   9
ATOM      9  C   UNL     1       0.365  -7.602  -2.324  1.00  0.00     0.338 C 
ATOM     10  O   UNL     1       0.026  -7.707  -3.490  1.00  0.00    -0.246 OA
BRANCH   9  11
ATOM     11  C   UNL     1       0.570  -6.320  -1.613  1.00  0.00     0.087 C 
ATOM     12  C   UNL     1       0.986  -0.074   0.126  1.00  0.00     0.047 C 
ATOM     13  C   UNL     1       0.541  -1.460  -0.274  1.00  0.00    -0.019 A 
ATOM     14  C   UNL     1      -0.652  -1.670  -1.008  1.00  0.00     0.025 A 
ATOM     15  C   UNL     1       1.292  -2.590   0.107  1.00  0.00     0.064 A 
ATOM     16  Br  UNL     1      -1.802  -0.173  -1.356  1.00  0.00    -0.050 Br
ATOM     17  C   UNL     1      -1.008  -2.957  -1.481  1.00  0.00    -0.026 A 
ATOM     18  C   UNL     1       0.970  -3.868  -0.378  1.00  0.00     0.142 A 
ATOM     19  Br  UNL     1       2.787  -2.419   1.294  1.00  0.00    -0.046 Br
ATOM     20  C   UNL     1      -2.297  -3.223  -2.230  1.00  0.00     0.046 C 
ATOM     21  C   UNL     1      -0.130  -4.040  -1.227  1.00  0.00     0.022 A 
ATOM     22  O   UNL     1       1.768  -4.904   0.027  1.00  0.00    -0.474 OA
ATOM     23  C   UNL     1      -0.302  -5.339  -1.875  1.00  0.00     0.027 C 
ATOM     24  C   UNL     1       1.673  -6.206  -0.600  1.00  0.00     0.316 C 
BRANCH  24  25
ATOM     25  C   UNL     1       3.043  -6.559  -1.195  1.00  0.00     0.430 C 
ATOM     26  F   UNL     1       4.035  -6.372  -0.297  1.00  0.00    -0.167 F 
ATOM     27  F   UNL     1       3.099  -7.847  -1.600  1.00  0.00    -0.167 F 
ATOM     28  F   UNL     1       3.318  -5.786  -2.274  1.00  0.00    -0.167 F 
ENDBRANCH  24  25
ENDBRANCH   9  11
ENDBRANCH   8   9
ENDBRANCH   7   8
ENDBRANCH   6   7
ENDBRANCH   5   6
ENDBRANCH   4   5
ENDBRANCH   3   4
ENDBRANCH   2   3
ENDBRANCH   1   2
BRANCH   1  29
ATOM     29  C   UNL     1      -2.955 -10.465   1.509  1.00  0.00     0.188 C 
BRANCH  29  30
ATOM     30  O   UNL     1      -3.796  -9.316   1.524  1.00  0.00    -0.376 OA
BRANCH  30  31
ATOM     31  C   UNL     1      -4.556  -9.067   2.696  1.00  0.00     0.202 C 
BRANCH  31  32
ATOM     32  C   UNL     1      -3.756  -8.605   3.921  1.00  0.00     0.261 C 
BRANCH  32  33
ATOM     33  O   UNL     1      -2.746  -9.513   4.382  1.00  0.00    -0.460 OA
BRANCH  33  34
ATOM     34  C   UNL     1      -3.143 -10.738   4.789  1.00  0.00     0.338 C 
ATOM     35  O   UNL     1      -4.285 -11.162   4.843  1.00  0.00    -0.246 OA
BRANCH  34  36
ATOM     36  C   UNL     1      -1.926 -11.553   4.975  1.00  0.00     0.060 A 
ATOM     37  C   UNL     1      -1.761 -12.718   4.215  1.00  0.00     0.016 A 
ATOM     38  C   UNL     1      -0.940 -11.146   5.876  1.00  0.00     0.016 A 
ATOM     39  C   UNL     1      -0.614 -13.495   4.376  1.00  0.00     0.010 A 
ATOM     40  C   UNL     1       0.198 -11.936   6.050  1.00  0.00     0.010 A 
ATOM     41  C   UNL     1       0.352 -13.129   5.323  1.00  0.00    -0.014 A 
BRANCH  41  42
ATOM     42  C   UNL     1       1.429 -14.080   5.687  1.00  0.00     0.031 A 
ATOM     43  C   UNL     1       1.230 -14.948   6.899  1.00  0.00     0.074 A 
ATOM     44  C   UNL     1       2.555 -14.175   4.958  1.00  0.00     0.049 A 
ATOM     45  N   UNL     1       2.033 -15.837   7.420  1.00  0.00    -0.248 NA
ATOM     46  C   UNL     1      -0.048 -14.796   7.618  1.00  0.00     0.031 C 
ATOM     47  C   UNL     1       2.853 -13.398   3.757  1.00  0.00     0.029 A 
ATOM     48  N   UNL     1       3.666 -14.962   5.135  1.00  0.00    -0.354 N 
ATOM     49  C   UNL     1       1.367 -16.341   8.531  1.00  0.00     0.074 A 
ATOM     50  C   UNL     1       0.104 -15.644   8.625  1.00  0.00     0.031 C 
ATOM     51  C   UNL     1       4.076 -13.737   3.312  1.00  0.00     0.029 A 
ATOM     52  C   UNL     1       4.657 -14.736   4.208  1.00  0.00     0.049 A 
ATOM     53  H   UNL     1       3.747 -15.626   5.858  1.00  0.00     0.167 HD
ATOM     54  C   UNL     1       1.761 -17.316   9.382  1.00  0.00     0.034 A 
ATOM     55  C   UNL     1       5.893 -15.267   4.106  1.00  0.00     0.034 A 
ATOM     56  C   UNL     1       3.012 -18.014   9.279  1.00  0.00     0.049 A 
ATOM     57  C   UNL     1       6.330 -16.312   5.104  1.00  0.00     0.074 A 
ATOM     58  C   UNL     1       3.492 -19.031  10.084  1.00  0.00     0.029 A 
ATOM     59  N   UNL     1       3.982 -17.766   8.321  1.00  0.00    -0.354 N 
ATOM     60  N   UNL     1       5.651 -16.850   6.088  1.00  0.00    -0.248 NA
ATOM     61  C   UNL     1       7.694 -16.846   4.960  1.00  0.00     0.031 C 
ATOM     62  C   UNL     1       4.766 -19.379   9.630  1.00  0.00     0.029 A 
ATOM     63  C   UNL     1       5.064 -18.605   8.520  1.00  0.00     0.049 A 
ATOM     64  H   UNL     1       3.911 -17.093   7.606  1.00  0.00     0.167 HD
ATOM     65  C   UNL     1       6.486 -17.809   6.653  1.00  0.00     0.074 A 
ATOM     66  C   UNL     1       7.717 -17.791   5.891  1.00  0.00     0.031 C 
ATOM     67  C   UNL     1       6.258 -18.622   7.715  1.00  0.00     0.034 A 
BRANCH  54  68
ATOM     68  C   UNL     1       0.813 -17.724  10.477  1.00  0.00     0.023 A 
ATOM     69  C   UNL     1      -0.335 -18.475  10.152  1.00  0.00     0.012 A 
ATOM     70  C   UNL     1       1.107 -17.458  11.828  1.00  0.00     0.148 A 
ATOM     71  C   UNL     1      -1.185 -18.942  11.154  1.00  0.00     0.002 A 
ATOM     72  C   UNL     1       0.282 -17.966  12.824  1.00  0.00     0.091 A 
ATOM     73  F   UNL     1       2.193 -16.724  12.113  1.00  0.00    -0.205 F 
ATOM     74  C   UNL     1      -0.869 -18.700  12.488  1.00  0.00     0.022 A 
BRANCH  72  75
ATOM     75  S   UNL     1       0.644 -17.787  14.574  1.00  0.00     0.127 S 
ATOM     76  O   UNL     1      -0.468 -16.950  15.021  1.00  0.00    -0.237 OA
ATOM     77  O   UNL     1       0.590 -19.173  15.040  1.00  0.00    -0.237 OA
ATOM     78  O   UNL     1       1.958 -17.165  14.653  1.00  0.00    -0.744 OA
ENDBRANCH  72  75
ENDBRANCH  54  68
BRANCH  55  79
ATOM     79  C   UNL     1       6.792 -14.863   2.985  1.00  0.00     0.023 A 
ATOM     80  C   UNL     1       7.119 -15.803   1.988  1.00  0.00     0.012 A 
ATOM     81  C   UNL     1       7.308 -13.556   2.888  1.00  0.00     0.148 A 
ATOM     82  C   UNL     1       7.963 -15.458   0.931  1.00  0.00     0.002 A 
ATOM     83  C   UNL     1       8.100 -13.202   1.802  1.00  0.00     0.091 A 
ATOM     84  F   UNL     1       7.003 -12.680   3.856  1.00  0.00    -0.205 F 
ATOM     85  C   UNL     1       8.444 -14.155   0.831  1.00  0.00     0.022 A 
BRANCH  83  86
ATOM     86  S   UNL     1       8.658 -11.518   1.519  1.00  0.00     0.127 S 
ATOM     87  O   UNL     1      10.100 -11.643   1.712  1.00  0.00    -0.237 OA
ATOM     88  O   UNL     1       8.238 -11.293   0.135  1.00  0.00    -0.237 OA
ATOM     89  O   UNL     1       7.958 -10.701   2.502  1.00  0.00    -0.744 OA
ENDBRANCH  83  86
ENDBRANCH  55  79
BRANCH  67  90
ATOM     90  C   UNL     1       7.336 -19.597   8.117  1.00  0.00     0.023 A 
ATOM     91  C   UNL     1       8.500 -19.129   8.756  1.00  0.00     0.012 A 
ATOM     92  C   UNL     1       7.127 -20.987   7.990  1.00  0.00     0.148 A 
ATOM     93  C   UNL     1       9.449 -20.026   9.246  1.00  0.00     0.002 A 
ATOM     94  C   UNL     1       8.050 -21.875   8.529  1.00  0.00     0.091 A 
ATOM     95  F   UNL     1       6.017 -21.411   7.369  1.00  0.00    -0.205 F 
ATOM     96  C   UNL     1       9.216 -21.396   9.147  1.00  0.00     0.022 A 
BRANCH  94  97
ATOM     97  S   UNL     1       7.785 -23.652   8.553  1.00  0.00     0.127 S 
ATOM     98  O   UNL     1       8.824 -24.120   7.638  1.00  0.00    -0.237 OA
ATOM     99  O   UNL     1       8.018 -23.980   9.960  1.00  0.00    -0.237 OA
ATOM    100  O   UNL     1       6.417 -23.863   8.099  1.00  0.00    -0.744 OA
ENDBRANCH  94  97
ENDBRANCH  67  90
ENDBRANCH  41  42
ENDBRANCH  34  36
ENDBRANCH  33  34
ENDBRANCH  32  33
ENDBRANCH  31  32
ENDBRANCH  30  31
ENDBRANCH  29  30
ENDBRANCH   1  29
TORSDOF 24
