REMARK SMILES C[C@@H]1CCCN(C(=O)CSc2nnc3c4ccccc4n(CC(=O)OCCOCCOCCOCCOC(=O)c4ccc(-c5c6nc(c(-c7cccc(S(=O)(=O)[O-])c7F)c7ccc([nH]7)c(-c7cccc(S(=O)(=O)[O-])c7F)c7nc(c(-c8cccc(S(=O)(=O)[O-])c8F)c8ccc5[nH]8)C=C7)C=C6)cc4)c3n2)C1
REMARK SMILES IDX 30 1 29 2 28 3 27 4 26 5 25 6 23 7 24 8 22 9 21 10 11 11
REMARK SMILES IDX 12 12 104 13 13 14 103 15 14 16 15 17 20 18 16 19 19 20
REMARK SMILES IDX 17 21 18 22 10 23 9 24 7 25 8 26 6 27 1 28 2 29 3 30 105 31
REMARK SMILES IDX 4 32 5 33 31 34 32 35 33 36 34 37 35 38 36 39 37 40 38 41
REMARK SMILES IDX 39 42 40 43 41 44 102 45 42 46 101 47 43 48 44 49 45 50
REMARK SMILES IDX 95 51 46 52 100 53 94 54 96 55 47 56 99 57 93 58 92 59 48 61
REMARK SMILES IDX 80 62 60 63 79 64 61 65 64 66 78 67 97 68 62 69 63 70 77 72
REMARK SMILES IDX 98 73 65 74 49 75 50 76 58 77 51 78 53 79 59 80 52 81 54 82
REMARK SMILES IDX 55 83 56 84 57 85 81 86 82 87 90 88 83 89 85 90 91 91 84 92
REMARK SMILES IDX 86 93 87 94 88 95 89 96 66 97 67 98 75 99 68 100 70 101
REMARK SMILES IDX 76 102 69 103 71 104 72 105 73 106 74 107
REMARK H PARENT 96 60 64 71
REMARK Flexibility Score: inf
ROOT
ATOM      1  C   UNL     1       4.066   5.989   6.781  1.00  0.00     0.188 C 
ENDROOT
BRANCH   1   2
ATOM      2  C   UNL     1       3.517   5.458   8.104  1.00  0.00     0.188 C 
BRANCH   2   3
ATOM      3  O   UNL     1       3.770   4.140   8.577  1.00  0.00    -0.376 OA
BRANCH   3   4
ATOM      4  C   UNL     1       5.039   3.542   8.426  1.00  0.00     0.202 C 
BRANCH   4   5
ATOM      5  C   UNL     1       5.203   2.743   7.117  1.00  0.00     0.261 C 
BRANCH   5   6
ATOM      6  O   UNL     1       4.412   3.220   5.996  1.00  0.00    -0.462 OA
BRANCH   6   7
ATOM      7  C   UNL     1       3.163   2.707   5.865  1.00  0.00     0.326 C 
ATOM      8  O   UNL     1       2.738   1.786   6.563  1.00  0.00    -0.250 OA
BRANCH   7   9
ATOM      9  C   UNL     1       2.241   3.365   4.848  1.00  0.00     0.246 C 
BRANCH   9  10
ATOM     10  N   UNL     1       2.701   4.470   4.001  1.00  0.00    -0.313 N 
ATOM     11  C   UNL     1       4.204   3.349   0.993  1.00  0.00     0.211 A 
ATOM     12  N   UNL     1       4.547   4.550   0.454  1.00  0.00    -0.122 NA
ATOM     13  N   UNL     1       3.617   3.131   2.192  1.00  0.00    -0.201 NA
ATOM     14  N   UNL     1       4.292   5.677   1.107  1.00  0.00    -0.144 NA
ATOM     15  C   UNL     1       3.347   4.297   2.801  1.00  0.00     0.165 A 
ATOM     16  C   UNL     1       3.647   5.550   2.292  1.00  0.00     0.138 A 
ATOM     17  C   UNL     1       3.108   6.521   3.164  1.00  0.00     0.030 A 
ATOM     18  C   UNL     1       2.350   5.820   4.118  1.00  0.00     0.053 A 
ATOM     19  C   UNL     1       3.134   7.931   3.190  1.00  0.00     0.013 A 
ATOM     20  C   UNL     1       1.501   6.510   5.005  1.00  0.00     0.027 A 
ATOM     21  C   UNL     1       2.390   8.616   4.152  1.00  0.00     0.001 A 
ATOM     22  C   UNL     1       1.563   7.914   5.024  1.00  0.00     0.002 A 
BRANCH  11  23
ATOM     23  S   UNL     1       4.563   1.908   0.033  1.00  0.00    -0.074 SA
BRANCH  23  24
ATOM     24  C   UNL     1       3.292   2.083  -1.247  1.00  0.00     0.178 C 
BRANCH  24  25
ATOM     25  C   UNL     1       1.869   2.221  -0.717  1.00  0.00     0.233 C 
ATOM     26  O   UNL     1       1.291   3.308  -0.832  1.00  0.00    -0.274 OA
BRANCH  25  27
ATOM     27  N   UNL     1       1.213   1.100  -0.218  1.00  0.00    -0.342 N 
ATOM     28  C   UNL     1      -2.470   0.115   0.115  1.00  0.00     0.009 C 
ATOM     29  C   UNL     1      -1.011   0.016  -0.321  1.00  0.00     0.005 C 
ATOM     30  C   UNL     1      -0.382  -1.290   0.180  1.00  0.00     0.007 C 
ATOM     31  C   UNL     1      -0.195   1.220   0.172  1.00  0.00     0.122 C 
ATOM     32  C   UNL     1       1.078  -1.376  -0.250  1.00  0.00     0.022 C 
ATOM     33  C   UNL     1       1.870  -0.147   0.182  1.00  0.00     0.119 C 
ENDBRANCH  25  27
ENDBRANCH  24  25
ENDBRANCH  23  24
ENDBRANCH  11  23
ENDBRANCH   9  10
ENDBRANCH   7   9
ENDBRANCH   6   7
ENDBRANCH   5   6
ENDBRANCH   4   5
ENDBRANCH   3   4
ENDBRANCH   2   3
ENDBRANCH   1   2
BRANCH   1  34
ATOM     34  O   UNL     1       5.204   6.781   6.623  1.00  0.00    -0.377 OA
BRANCH  34  35
ATOM     35  C   UNL     1       6.321   6.489   7.393  1.00  0.00     0.188 C 
BRANCH  35  36
ATOM     36  C   UNL     1       6.365   7.288   8.690  1.00  0.00     0.188 C 
BRANCH  36  37
ATOM     37  O   UNL     1       5.441   8.349   8.907  1.00  0.00    -0.376 OA
BRANCH  37  38
ATOM     38  C   UNL     1       4.996   9.182   7.845  1.00  0.00     0.202 C 
BRANCH  38  39
ATOM     39  C   UNL     1       5.927   9.780   6.760  1.00  0.00     0.261 C 
BRANCH  39  40
ATOM     40  O   UNL     1       7.083   9.011   6.427  1.00  0.00    -0.460 OA
BRANCH  40  41
ATOM     41  C   UNL     1       8.315   9.548   6.610  1.00  0.00     0.338 C 
ATOM     42  O   UNL     1       8.593  10.711   6.844  1.00  0.00    -0.246 OA
BRANCH  41  43
ATOM     43  C   UNL     1       9.211   8.383   6.806  1.00  0.00     0.060 A 
ATOM     44  C   UNL     1       9.258   7.351   5.859  1.00  0.00     0.016 A 
ATOM     45  C   UNL     1       9.636   8.167   8.124  1.00  0.00     0.016 A 
ATOM     46  C   UNL     1       9.552   6.059   6.296  1.00  0.00     0.010 A 
ATOM     47  C   UNL     1       9.896   6.870   8.560  1.00  0.00     0.010 A 
ATOM     48  C   UNL     1       9.787   5.806   7.664  1.00  0.00    -0.014 A 
BRANCH  48  49
ATOM     49  C   UNL     1      10.195   4.450   8.055  1.00  0.00     0.031 A 
ATOM     50  C   UNL     1      11.498   4.112   7.435  1.00  0.00     0.074 A 
ATOM     51  C   UNL     1       9.625   3.622   8.959  1.00  0.00     0.049 A 
ATOM     52  N   UNL     1      11.742   3.213   6.539  1.00  0.00    -0.248 NA
ATOM     53  C   UNL     1      12.614   5.034   7.708  1.00  0.00     0.031 C 
ATOM     54  C   UNL     1       8.506   3.913   9.853  1.00  0.00     0.029 A 
ATOM     55  N   UNL     1      10.008   2.362   9.353  1.00  0.00    -0.354 N 
ATOM     56  C   UNL     1      13.109   3.314   6.319  1.00  0.00     0.074 A 
ATOM     57  C   UNL     1      13.544   4.567   6.880  1.00  0.00     0.031 C 
ATOM     58  C   UNL     1       8.431   2.958  10.809  1.00  0.00     0.029 A 
ATOM     59  C   UNL     1       9.448   1.952  10.568  1.00  0.00     0.049 A 
ATOM     60  H   UNL     1      10.621   1.799   8.828  1.00  0.00     0.167 HD
ATOM     61  C   UNL     1      13.862   2.237   5.981  1.00  0.00     0.034 A 
ATOM     62  C   UNL     1       9.855   0.922  11.361  1.00  0.00     0.034 A 
ATOM     63  C   UNL     1      13.092   1.148   5.460  1.00  0.00     0.049 A 
ATOM     64  C   UNL     1      10.627  -0.004  10.501  1.00  0.00     0.074 A 
ATOM     65  C   UNL     1      12.226   0.984   4.399  1.00  0.00     0.029 A 
ATOM     66  N   UNL     1      12.880   0.084   6.299  1.00  0.00    -0.354 N 
ATOM     67  N   UNL     1      10.109  -0.715   9.541  1.00  0.00    -0.248 NA
ATOM     68  C   UNL     1      12.075   0.127  10.479  1.00  0.00     0.031 C 
ATOM     69  C   UNL     1      11.240   0.064   4.859  1.00  0.00     0.029 A 
ATOM     70  C   UNL     1      11.573  -0.304   6.163  1.00  0.00     0.049 A 
ATOM     71  H   UNL     1      13.548  -0.328   6.893  1.00  0.00     0.167 HD
ATOM     72  C   UNL     1      11.095  -0.741   8.565  1.00  0.00     0.074 A 
ATOM     73  C   UNL     1      12.314  -0.310   9.242  1.00  0.00     0.031 C 
ATOM     74  C   UNL     1      10.770  -0.833   7.244  1.00  0.00     0.034 A 
BRANCH  61  75
ATOM     75  C   UNL     1      15.254   2.080   6.512  1.00  0.00     0.023 A 
ATOM     76  C   UNL     1      16.161   1.262   5.821  1.00  0.00     0.012 A 
ATOM     77  C   UNL     1      15.638   2.554   7.790  1.00  0.00     0.148 A 
ATOM     78  C   UNL     1      17.416   0.968   6.364  1.00  0.00     0.002 A 
ATOM     79  C   UNL     1      16.918   2.349   8.275  1.00  0.00     0.091 A 
ATOM     80  F   UNL     1      14.719   3.104   8.596  1.00  0.00    -0.205 F 
ATOM     81  C   UNL     1      17.808   1.536   7.574  1.00  0.00     0.022 A 
BRANCH  79  82
ATOM     82  S   UNL     1      17.473   3.147   9.784  1.00  0.00     0.127 S 
ATOM     83  O   UNL     1      17.381   2.053  10.745  1.00  0.00    -0.237 OA
ATOM     84  O   UNL     1      18.833   3.552   9.428  1.00  0.00    -0.237 OA
ATOM     85  O   UNL     1      16.554   4.262   9.980  1.00  0.00    -0.744 OA
ENDBRANCH  79  82
ENDBRANCH  61  75
BRANCH  62  86
ATOM     86  C   UNL     1       9.858   0.771  12.849  1.00  0.00     0.023 A 
ATOM     87  C   UNL     1      10.226  -0.469  13.424  1.00  0.00     0.012 A 
ATOM     88  C   UNL     1       9.794   1.885  13.715  1.00  0.00     0.148 A 
ATOM     89  C   UNL     1      10.578  -0.578  14.779  1.00  0.00     0.002 A 
ATOM     90  C   UNL     1      10.131   1.770  15.064  1.00  0.00     0.091 A 
ATOM     91  F   UNL     1       9.499   3.089  13.211  1.00  0.00    -0.205 F 
ATOM     92  C   UNL     1      10.543   0.545  15.597  1.00  0.00     0.022 A 
BRANCH  90  93
ATOM     93  S   UNL     1      10.106   3.198  16.159  1.00  0.00     0.127 S 
ATOM     94  O   UNL     1       9.609   2.625  17.410  1.00  0.00    -0.237 OA
ATOM     95  O   UNL     1      11.511   3.590  16.180  1.00  0.00    -0.237 OA
ATOM     96  O   UNL     1       9.187   4.144  15.536  1.00  0.00    -0.744 OA
ENDBRANCH  90  93
ENDBRANCH  62  86
BRANCH  74  97
ATOM     97  C   UNL     1       9.371  -1.262   6.883  1.00  0.00     0.023 A 
ATOM     98  C   UNL     1       8.244  -0.455   7.139  1.00  0.00     0.012 A 
ATOM     99  C   UNL     1       9.221  -2.420   6.100  1.00  0.00     0.148 A 
ATOM    100  C   UNL     1       6.992  -0.802   6.623  1.00  0.00     0.002 A 
ATOM    101  C   UNL     1       7.983  -2.738   5.557  1.00  0.00     0.091 A 
ATOM    102  F   UNL     1      10.309  -3.169   5.867  1.00  0.00    -0.205 F 
ATOM    103  C   UNL     1       6.864  -1.932   5.818  1.00  0.00     0.022 A 
BRANCH 101 104
ATOM    104  S   UNL     1       7.761  -4.120   4.435  1.00  0.00     0.127 S 
ATOM    105  O   UNL     1       6.903  -5.011   5.213  1.00  0.00    -0.237 OA
ATOM    106  O   UNL     1       7.105  -3.486   3.289  1.00  0.00    -0.237 OA
ATOM    107  O   UNL     1       9.096  -4.633   4.154  1.00  0.00    -0.744 OA
ENDBRANCH 101 104
ENDBRANCH  74  97
ENDBRANCH  48  49
ENDBRANCH  41  43
ENDBRANCH  40  41
ENDBRANCH  39  40
ENDBRANCH  38  39
ENDBRANCH  37  38
ENDBRANCH  36  37
ENDBRANCH  35  36
ENDBRANCH  34  35
ENDBRANCH   1  34
TORSDOF 28
