REMARK SMILES C[C@@H](C(=O)OCCOCCOCCOCCOC(=O)c1ccc(-c2c3nc(c(-c4cccc(S(=O)(=O)[O-])c4F)c4ccc([nH]4)c(-c4cccc(S(=O)(=O)[O-])c4F)c4nc(c(-c5cccc(S(=O)(=O)[O-])c5F)c5ccc2[nH]5)C=C4)C=C3)cc1)c1ccc(NC2CCCC2)cc1F
REMARK SMILES IDX 11 1 10 2 9 3 8 4 7 5 6 6 5 7 3 8 4 9 2 10 1 11 83 12 84 13
REMARK SMILES IDX 94 14 85 15 93 16 95 17 86 18 87 19 88 21 89 22 92 23 90 24
REMARK SMILES IDX 91 25 12 26 13 27 14 28 15 29 16 30 17 31 18 32 19 33 20 34
REMARK SMILES IDX 21 35 82 36 22 37 81 38 23 39 24 40 25 41 75 42 26 43 80 44
REMARK SMILES IDX 74 45 76 46 27 47 79 48 73 49 72 50 28 52 60 53 40 54 59 55
REMARK SMILES IDX 41 56 44 57 58 58 77 59 42 60 43 61 57 63 78 64 45 65 29 66
REMARK SMILES IDX 30 67 38 68 31 69 33 70 39 71 32 72 34 73 35 74 36 75 37 76
REMARK SMILES IDX 61 77 62 78 70 79 63 80 65 81 71 82 64 83 66 84 67 85 68 86
REMARK SMILES IDX 69 87 46 88 47 89 55 90 48 91 50 92 56 93 49 94 51 95 52 96
REMARK SMILES IDX 53 97 54 98
REMARK H PARENT 87 20 76 51 44 62
REMARK Flexibility Score: inf
ROOT
ATOM      1  O   UNL     1       2.203   1.505  -2.330  1.00  0.00    -0.377 OA
ENDROOT
BRANCH   1   2
ATOM      2  C   UNL     1       0.791   1.520  -2.307  1.00  0.00     0.188 C 
BRANCH   2   3
ATOM      3  C   UNL     1       0.147   2.911  -2.200  1.00  0.00     0.188 C 
BRANCH   3   4
ATOM      4  O   UNL     1       0.852   4.040  -2.679  1.00  0.00    -0.376 OA
BRANCH   4   5
ATOM      5  C   UNL     1       2.033   4.496  -2.030  1.00  0.00     0.202 C 
BRANCH   5   6
ATOM      6  C   UNL     1       2.479   4.099  -0.605  1.00  0.00     0.261 C 
BRANCH   6   7
ATOM      7  O   UNL     1       1.970   2.858  -0.106  1.00  0.00    -0.463 OA
BRANCH   7   8
ATOM      8  C   UNL     1       1.420   2.854   1.131  1.00  0.00     0.313 C 
ATOM      9  O   UNL     1       1.355   3.841   1.859  1.00  0.00    -0.252 OA
BRANCH   8  10
ATOM     10  C   UNL     1       0.738   1.521   1.477  1.00  0.00     0.129 C 
ATOM     11  C   UNL     1       1.569   0.309   1.024  1.00  0.00     0.025 C 
BRANCH  10  12
ATOM     12  C   UNL     1      -0.760   1.500   1.148  1.00  0.00     0.002 A 
ATOM     13  C   UNL     1      -1.487   2.696   1.047  1.00  0.00     0.010 A 
ATOM     14  C   UNL     1      -1.505   0.324   1.032  1.00  0.00     0.129 A 
ATOM     15  C   UNL     1      -2.872   2.708   0.841  1.00  0.00     0.026 A 
ATOM     16  C   UNL     1      -2.900   0.339   0.858  1.00  0.00     0.065 A 
ATOM     17  F   UNL     1      -0.907  -0.873   1.115  1.00  0.00    -0.207 F 
ATOM     18  C   UNL     1      -3.621   1.536   0.792  1.00  0.00     0.037 A 
BRANCH  18  19
ATOM     19  N   UNL     1      -4.999   1.503   0.707  1.00  0.00    -0.382 N 
ATOM     20  H   UNL     1      -5.402   0.605   0.670  1.00  0.00     0.160 HD
BRANCH  19  21
ATOM     21  C   UNL     1      -5.940   2.616   0.665  1.00  0.00     0.079 C 
ATOM     22  C   UNL     1      -5.866   3.567   1.857  1.00  0.00     0.025 C 
ATOM     23  C   UNL     1      -5.811   3.474  -0.591  1.00  0.00     0.025 C 
ATOM     24  C   UNL     1      -6.420   4.883   1.330  1.00  0.00     0.002 C 
ATOM     25  C   UNL     1      -6.146   4.901  -0.170  1.00  0.00     0.002 C 
ENDBRANCH  19  21
ENDBRANCH  18  19
ENDBRANCH  10  12
ENDBRANCH   8  10
ENDBRANCH   7   8
ENDBRANCH   6   7
ENDBRANCH   5   6
ENDBRANCH   4   5
ENDBRANCH   3   4
ENDBRANCH   2   3
ENDBRANCH   1   2
BRANCH   1  26
ATOM     26  C   UNL     1       2.874   1.692  -3.569  1.00  0.00     0.188 C 
BRANCH  26  27
ATOM     27  C   UNL     1       2.125   2.239  -4.802  1.00  0.00     0.188 C 
BRANCH  27  28
ATOM     28  O   UNL     1       0.802   1.752  -4.974  1.00  0.00    -0.376 OA
BRANCH  28  29
ATOM     29  C   UNL     1       0.594   0.646  -5.840  1.00  0.00     0.202 C 
BRANCH  29  30
ATOM     30  C   UNL     1       1.253  -0.691  -5.463  1.00  0.00     0.261 C 
BRANCH  30  31
ATOM     31  O   UNL     1       2.687  -0.699  -5.392  1.00  0.00    -0.460 OA
BRANCH  31  32
ATOM     32  C   UNL     1       3.378  -0.312  -6.488  1.00  0.00     0.338 C 
ATOM     33  O   UNL     1       2.925  -0.015  -7.573  1.00  0.00    -0.246 OA
BRANCH  32  34
ATOM     34  C   UNL     1       4.786  -0.110  -6.078  1.00  0.00     0.060 A 
ATOM     35  C   UNL     1       5.361   1.157  -6.241  1.00  0.00     0.016 A 
ATOM     36  C   UNL     1       5.530  -1.161  -5.537  1.00  0.00     0.016 A 
ATOM     37  C   UNL     1       6.699   1.366  -5.905  1.00  0.00     0.010 A 
ATOM     38  C   UNL     1       6.875  -0.956  -5.221  1.00  0.00     0.010 A 
ATOM     39  C   UNL     1       7.476   0.297  -5.441  1.00  0.00    -0.014 A 
BRANCH  39  40
ATOM     40  C   UNL     1       8.952   0.434  -5.381  1.00  0.00     0.031 A 
ATOM     41  C   UNL     1       9.765  -0.128  -6.516  1.00  0.00     0.074 A 
ATOM     42  C   UNL     1       9.562   1.046  -4.351  1.00  0.00     0.049 A 
ATOM     43  N   UNL     1      11.063  -0.174  -6.664  1.00  0.00    -0.248 NA
ATOM     44  C   UNL     1       9.010  -0.722  -7.633  1.00  0.00     0.031 C 
ATOM     45  C   UNL     1       8.886   1.643  -3.201  1.00  0.00     0.029 A 
ATOM     46  N   UNL     1      10.897   1.238  -4.096  1.00  0.00    -0.354 N 
ATOM     47  C   UNL     1      11.281  -0.827  -7.872  1.00  0.00     0.074 A 
ATOM     48  C   UNL     1       9.984  -1.171  -8.410  1.00  0.00     0.031 C 
ATOM     49  C   UNL     1       9.814   2.105  -2.344  1.00  0.00     0.029 A 
ATOM     50  C   UNL     1      11.146   1.810  -2.871  1.00  0.00     0.049 A 
ATOM     51  H   UNL     1      11.609   0.991  -4.730  1.00  0.00     0.167 HD
ATOM     52  C   UNL     1      12.455  -1.105  -8.486  1.00  0.00     0.034 A 
ATOM     53  C   UNL     1      12.313   2.037  -2.235  1.00  0.00     0.034 A 
ATOM     54  C   UNL     1      13.744  -0.757  -7.953  1.00  0.00     0.049 A 
ATOM     55  C   UNL     1      13.609   1.682  -2.921  1.00  0.00     0.074 A 
ATOM     56  C   UNL     1      14.991  -0.963  -8.517  1.00  0.00     0.029 A 
ATOM     57  N   UNL     1      13.955  -0.147  -6.727  1.00  0.00    -0.354 N 
ATOM     58  N   UNL     1      13.801   1.159  -4.108  1.00  0.00    -0.248 NA
ATOM     59  C   UNL     1      14.852   1.978  -2.191  1.00  0.00     0.031 C 
ATOM     60  C   UNL     1      15.958  -0.513  -7.612  1.00  0.00     0.029 A 
ATOM     61  C   UNL     1      15.311   0.018  -6.507  1.00  0.00     0.049 A 
ATOM     62  H   UNL     1      13.244   0.128  -6.103  1.00  0.00     0.167 HD
ATOM     63  C   UNL     1      15.180   1.101  -4.283  1.00  0.00     0.074 A 
ATOM     64  C   UNL     1      15.776   1.659  -3.087  1.00  0.00     0.031 C 
ATOM     65  C   UNL     1      15.891   0.621  -5.334  1.00  0.00     0.034 A 
BRANCH  52  66
ATOM     66  C   UNL     1      12.398  -1.816  -9.813  1.00  0.00     0.023 A 
ATOM     67  C   UNL     1      11.927  -1.135 -10.954  1.00  0.00     0.012 A 
ATOM     68  C   UNL     1      12.855  -3.142  -9.938  1.00  0.00     0.148 A 
ATOM     69  C   UNL     1      11.878  -1.775 -12.193  1.00  0.00     0.002 A 
ATOM     70  C   UNL     1      12.850  -3.756 -11.184  1.00  0.00     0.091 A 
ATOM     71  F   UNL     1      13.279  -3.779  -8.838  1.00  0.00    -0.205 F 
ATOM     72  C   UNL     1      12.350  -3.080 -12.309  1.00  0.00     0.022 A 
BRANCH  70  73
ATOM     73  S   UNL     1      13.510  -5.404 -11.456  1.00  0.00     0.127 S 
ATOM     74  O   UNL     1      12.298  -6.160 -11.768  1.00  0.00    -0.237 OA
ATOM     75  O   UNL     1      14.406  -5.191 -12.593  1.00  0.00    -0.237 OA
ATOM     76  O   UNL     1      14.176  -5.781 -10.217  1.00  0.00    -0.744 OA
ENDBRANCH  70  73
ENDBRANCH  52  66
BRANCH  53  77
ATOM     77  C   UNL     1      12.317   2.641  -0.872  1.00  0.00     0.023 A 
ATOM     78  C   UNL     1      12.835   3.936  -0.680  1.00  0.00     0.012 A 
ATOM     79  C   UNL     1      11.811   1.933   0.236  1.00  0.00     0.148 A 
ATOM     80  C   UNL     1      12.882   4.502   0.596  1.00  0.00     0.002 A 
ATOM     81  C   UNL     1      11.806   2.525   1.493  1.00  0.00     0.091 A 
ATOM     82  F   UNL     1      11.338   0.695   0.035  1.00  0.00    -0.205 F 
ATOM     83  C   UNL     1      12.358   3.802   1.679  1.00  0.00     0.022 A 
BRANCH  81  84
ATOM     84  S   UNL     1      11.041   1.750   2.921  1.00  0.00     0.127 S 
ATOM     85  O   UNL     1      12.200   1.471   3.766  1.00  0.00    -0.237 OA
ATOM     86  O   UNL     1      10.166   2.818   3.407  1.00  0.00    -0.237 OA
ATOM     87  O   UNL     1      10.338   0.582   2.408  1.00  0.00    -0.744 OA
ENDBRANCH  81  84
ENDBRANCH  53  77
BRANCH  65  88
ATOM     88  C   UNL     1      17.394   0.723  -5.275  1.00  0.00     0.023 A 
ATOM     89  C   UNL     1      18.127  -0.097  -4.394  1.00  0.00     0.012 A 
ATOM     90  C   UNL     1      18.085   1.581  -6.154  1.00  0.00     0.148 A 
ATOM     91  C   UNL     1      19.520  -0.037  -4.362  1.00  0.00     0.002 A 
ATOM     92  C   UNL     1      19.475   1.597  -6.155  1.00  0.00     0.091 A 
ATOM     93  F   UNL     1      17.371   2.364  -6.975  1.00  0.00    -0.205 F 
ATOM     94  C   UNL     1      20.194   0.800  -5.250  1.00  0.00     0.022 A 
BRANCH  92  95
ATOM     95  S   UNL     1      20.429   2.566  -7.328  1.00  0.00     0.127 S 
ATOM     96  O   UNL     1      21.010   3.592  -6.464  1.00  0.00    -0.237 OA
ATOM     97  O   UNL     1      21.385   1.583  -7.836  1.00  0.00    -0.237 OA
ATOM     98  O   UNL     1      19.477   3.053  -8.318  1.00  0.00    -0.744 OA
ENDBRANCH  92  95
ENDBRANCH  65  88
ENDBRANCH  39  40
ENDBRANCH  32  34
ENDBRANCH  31  32
ENDBRANCH  30  31
ENDBRANCH  29  30
ENDBRANCH  28  29
ENDBRANCH  27  28
ENDBRANCH  26  27
ENDBRANCH   1  26
TORSDOF 26
