REMARK SMILES O=CN1CCN(S(=O)(=O)c2ccc(C(=O)OCCOCCOCCOCCOC(=O)c3ccc(-c4c5nc(c(-c6cccc(S(=O)(=O)[O-])c6F)c6ccc([nH]6)c(-c6cccc(S(=O)(=O)[O-])c6F)c6nc(c(-c7cccc(S(=O)(=O)[O-])c7F)c7ccc4[nH]7)C=C6)C=C5)cc3)cc2)CC1
REMARK SMILES IDX 23 1 22 2 21 3 20 4 19 5 18 6 17 7 16 8 14 9 15 10 13 11
REMARK SMILES IDX 10 12 11 13 95 14 12 15 94 16 7 17 8 18 9 19 6 20 1 21 2 22
REMARK SMILES IDX 3 23 4 24 97 25 5 26 96 27 24 28 25 29 26 30 27 31 28 32
REMARK SMILES IDX 29 33 30 34 31 35 32 36 93 37 33 38 92 39 34 40 35 41 36 42
REMARK SMILES IDX 86 43 37 44 91 45 85 46 87 47 38 48 90 49 84 50 83 51 39 53
REMARK SMILES IDX 71 54 51 55 70 56 52 57 55 58 69 59 88 60 53 61 54 62 68 64
REMARK SMILES IDX 89 65 56 66 40 67 41 68 49 69 42 70 44 71 50 72 43 73 45 74
REMARK SMILES IDX 46 75 47 76 48 77 72 78 73 79 81 80 74 81 76 82 82 83 75 84
REMARK SMILES IDX 77 85 78 86 79 87 80 88 57 89 58 90 66 91 59 92 61 93 67 94
REMARK SMILES IDX 60 95 62 96 63 97 64 98 65 99
REMARK H PARENT 87 52 55 63
REMARK Flexibility Score: inf
ROOT
ATOM      1  C   UNL     1       4.112  -4.609  10.399  1.00  0.00     0.188 C 
ENDROOT
BRANCH   1   2
ATOM      2  O   UNL     1       3.987  -3.444   9.584  1.00  0.00    -0.377 OA
BRANCH   2   3
ATOM      3  C   UNL     1       5.068  -2.534   9.518  1.00  0.00     0.188 C 
BRANCH   3   4
ATOM      4  C   UNL     1       5.290  -1.702  10.793  1.00  0.00     0.188 C 
BRANCH   4   5
ATOM      5  O   UNL     1       4.569  -2.183  11.924  1.00  0.00    -0.376 OA
BRANCH   5   6
ATOM      6  C   UNL     1       3.441  -1.424  12.342  1.00  0.00     0.202 C 
BRANCH   6   7
ATOM      7  C   UNL     1       2.220  -1.437  11.412  1.00  0.00     0.261 C 
BRANCH   7   8
ATOM      8  O   UNL     1       2.473  -0.955  10.087  1.00  0.00    -0.460 OA
BRANCH   8   9
ATOM      9  C   UNL     1       2.827   0.337   9.932  1.00  0.00     0.338 C 
ATOM     10  O   UNL     1       2.904   1.187  10.802  1.00  0.00    -0.246 OA
BRANCH   9  11
ATOM     11  C   UNL     1       3.308   0.513   8.537  1.00  0.00     0.060 A 
ATOM     12  C   UNL     1       4.318   0.833   5.957  1.00  0.00     0.082 A 
ATOM     13  C   UNL     1       4.807   1.634   6.994  1.00  0.00     0.022 A 
ATOM     14  C   UNL     1       3.392  -0.182   6.220  1.00  0.00     0.022 A 
ATOM     15  C   UNL     1       4.302   1.470   8.287  1.00  0.00     0.017 A 
ATOM     16  C   UNL     1       2.859  -0.316   7.500  1.00  0.00     0.017 A 
BRANCH  12  17
ATOM     17  S   UNL     1       4.911   1.060   4.298  1.00  0.00     0.243 S 
ATOM     18  O   UNL     1       5.075  -0.245   3.700  1.00  0.00    -0.207 OA
ATOM     19  O   UNL     1       6.030   1.981   4.352  1.00  0.00    -0.207 OA
BRANCH  17  20
ATOM     20  N   UNL     1       3.632   1.880   3.509  1.00  0.00    -0.194 NA
ATOM     21  O   UNL     1       1.188  -0.536  -0.195  1.00  0.00    -0.279 OA
ATOM     22  C   UNL     1       2.192   0.156  -0.103  1.00  0.00     0.340 C 
ATOM     23  N   UNL     1       2.788   0.559   1.068  1.00  0.00    -0.343 N 
ATOM     24  C   UNL     1       4.026   1.337   1.082  1.00  0.00     0.136 C 
ATOM     25  C   UNL     1       2.289   0.078   2.357  1.00  0.00     0.136 C 
ATOM     26  C   UNL     1       4.006   2.430   2.163  1.00  0.00     0.124 C 
ATOM     27  C   UNL     1       2.296   1.196   3.407  1.00  0.00     0.124 C 
ENDBRANCH  17  20
ENDBRANCH  12  17
ENDBRANCH   9  11
ENDBRANCH   8   9
ENDBRANCH   7   8
ENDBRANCH   6   7
ENDBRANCH   5   6
ENDBRANCH   4   5
ENDBRANCH   3   4
ENDBRANCH   2   3
ENDBRANCH   1   2
BRANCH   1  28
ATOM     28  C   UNL     1       5.335  -4.863  11.313  1.00  0.00     0.188 C 
BRANCH  28  29
ATOM     29  O   UNL     1       6.581  -4.407  10.798  1.00  0.00    -0.376 OA
BRANCH  29  30
ATOM     30  C   UNL     1       7.489  -5.404  10.353  1.00  0.00     0.202 C 
BRANCH  30  31
ATOM     31  C   UNL     1       7.117  -6.026   9.002  1.00  0.00     0.261 C 
BRANCH  31  32
ATOM     32  O   UNL     1       5.890  -6.771   8.999  1.00  0.00    -0.460 OA
BRANCH  32  33
ATOM     33  C   UNL     1       5.809  -7.829   9.835  1.00  0.00     0.338 C 
ATOM     34  O   UNL     1       6.683  -8.259  10.567  1.00  0.00    -0.246 OA
BRANCH  33  35
ATOM     35  C   UNL     1       4.405  -8.277   9.854  1.00  0.00     0.060 A 
ATOM     36  C   UNL     1       3.728  -8.334  11.079  1.00  0.00     0.016 A 
ATOM     37  C   UNL     1       3.765  -8.636   8.666  1.00  0.00     0.016 A 
ATOM     38  C   UNL     1       2.412  -8.795  11.122  1.00  0.00     0.010 A 
ATOM     39  C   UNL     1       2.455  -9.110   8.713  1.00  0.00     0.010 A 
ATOM     40  C   UNL     1       1.786  -9.225   9.944  1.00  0.00    -0.014 A 
BRANCH  40  41
ATOM     41  C   UNL     1       0.511  -9.976  10.013  1.00  0.00     0.031 A 
ATOM     42  C   UNL     1       0.569 -11.478   9.990  1.00  0.00     0.074 A 
ATOM     43  C   UNL     1      -0.672  -9.340  10.062  1.00  0.00     0.049 A 
ATOM     44  N   UNL     1      -0.409 -12.345   9.996  1.00  0.00    -0.248 NA
ATOM     45  C   UNL     1       1.911 -12.084   9.948  1.00  0.00     0.031 C 
ATOM     46  C   UNL     1      -0.855  -7.891  10.081  1.00  0.00     0.029 A 
ATOM     47  N   UNL     1      -1.949  -9.843  10.075  1.00  0.00    -0.354 N 
ATOM     48  C   UNL     1       0.196 -13.594   9.932  1.00  0.00     0.074 A 
ATOM     49  C   UNL     1       1.624 -13.375   9.876  1.00  0.00     0.031 C 
ATOM     50  C   UNL     1      -2.172  -7.619  10.069  1.00  0.00     0.029 A 
ATOM     51  C   UNL     1      -2.922  -8.873  10.021  1.00  0.00     0.049 A 
ATOM     52  H   UNL     1      -2.149 -10.806  10.119  1.00  0.00     0.167 HD
ATOM     53  C   UNL     1      -0.384 -14.817   9.936  1.00  0.00     0.034 A 
ATOM     54  C   UNL     1      -4.262  -8.990   9.924  1.00  0.00     0.034 A 
ATOM     55  C   UNL     1      -1.802 -15.034  10.004  1.00  0.00     0.049 A 
ATOM     56  C   UNL     1      -4.884 -10.364   9.909  1.00  0.00     0.074 A 
ATOM     57  C   UNL     1      -2.485 -16.236  10.066  1.00  0.00     0.029 A 
ATOM     58  N   UNL     1      -2.757 -14.030  10.003  1.00  0.00    -0.354 N 
ATOM     59  N   UNL     1      -4.302 -11.537   9.989  1.00  0.00    -0.248 NA
ATOM     60  C   UNL     1      -6.351 -10.431   9.824  1.00  0.00     0.031 C 
ATOM     61  C   UNL     1      -3.856 -15.957  10.076  1.00  0.00     0.029 A 
ATOM     62  C   UNL     1      -4.024 -14.582  10.049  1.00  0.00     0.049 A 
ATOM     63  H   UNL     1      -2.561 -13.065   9.973  1.00  0.00     0.167 HD
ATOM     64  C   UNL     1      -5.329 -12.475  10.001  1.00  0.00     0.074 A 
ATOM     65  C   UNL     1      -6.572 -11.733   9.940  1.00  0.00     0.031 C 
ATOM     66  C   UNL     1      -5.253 -13.829  10.045  1.00  0.00     0.034 A 
BRANCH  53  67
ATOM     67  C   UNL     1       0.523 -16.016   9.889  1.00  0.00     0.023 A 
ATOM     68  C   UNL     1       1.271 -16.368  11.030  1.00  0.00     0.012 A 
ATOM     69  C   UNL     1       0.600 -16.819   8.735  1.00  0.00     0.148 A 
ATOM     70  C   UNL     1       2.105 -17.485  11.015  1.00  0.00     0.002 A 
ATOM     71  C   UNL     1       1.401 -17.954   8.741  1.00  0.00     0.091 A 
ATOM     72  F   UNL     1      -0.098 -16.450   7.651  1.00  0.00    -0.205 F 
ATOM     73  C   UNL     1       2.162 -18.282   9.875  1.00  0.00     0.022 A 
BRANCH  71  74
ATOM     74  S   UNL     1       1.485 -19.086   7.349  1.00  0.00     0.127 S 
ATOM     75  O   UNL     1       2.829 -18.823   6.835  1.00  0.00    -0.237 OA
ATOM     76  O   UNL     1       1.325 -20.386   8.000  1.00  0.00    -0.237 OA
ATOM     77  O   UNL     1       0.392 -18.712   6.462  1.00  0.00    -0.744 OA
ENDBRANCH  71  74
ENDBRANCH  53  67
BRANCH  54  78
ATOM     78  C   UNL     1      -5.115  -7.768   9.868  1.00  0.00     0.023 A 
ATOM     79  C   UNL     1      -5.953  -7.456  10.956  1.00  0.00     0.012 A 
ATOM     80  C   UNL     1      -5.093  -6.911   8.751  1.00  0.00     0.148 A 
ATOM     81  C   UNL     1      -6.777  -6.331  10.920  1.00  0.00     0.002 A 
ATOM     82  C   UNL     1      -5.875  -5.762   8.744  1.00  0.00     0.091 A 
ATOM     83  F   UNL     1      -4.304  -7.235   7.716  1.00  0.00    -0.205 F 
ATOM     84  C   UNL     1      -6.731  -5.479   9.820  1.00  0.00     0.022 A 
BRANCH  82  85
ATOM     85  S   UNL     1      -5.785  -4.542   7.428  1.00  0.00     0.127 S 
ATOM     86  O   UNL     1      -7.076  -4.716   6.769  1.00  0.00    -0.237 OA
ATOM     87  O   UNL     1      -5.640  -3.296   8.182  1.00  0.00    -0.237 OA
ATOM     88  O   UNL     1      -4.615  -4.902   6.638  1.00  0.00    -0.744 OA
ENDBRANCH  82  85
ENDBRANCH  54  78
BRANCH  66  89
ATOM     89  C   UNL     1      -6.543 -14.608  10.068  1.00  0.00     0.023 A 
ATOM     90  C   UNL     1      -7.323 -14.706   8.899  1.00  0.00     0.012 A 
ATOM     91  C   UNL     1      -6.935 -15.315  11.222  1.00  0.00     0.148 A 
ATOM     92  C   UNL     1      -8.490 -15.470   8.888  1.00  0.00     0.002 A 
ATOM     93  C   UNL     1      -8.072 -16.114  11.189  1.00  0.00     0.091 A 
ATOM     94  F   UNL     1      -6.188 -15.196  12.330  1.00  0.00    -0.205 F 
ATOM     95  C   UNL     1      -8.857 -16.184  10.027  1.00  0.00     0.022 A 
BRANCH  93  96
ATOM     96  S   UNL     1      -8.565 -17.143  12.577  1.00  0.00     0.127 S 
ATOM     97  O   UNL     1      -9.725 -16.417  13.089  1.00  0.00    -0.237 OA
ATOM     98  O   UNL     1      -8.880 -18.415  11.925  1.00  0.00    -0.237 OA
ATOM     99  O   UNL     1      -7.413 -17.193  13.468  1.00  0.00    -0.744 OA
ENDBRANCH  93  96
ENDBRANCH  66  89
ENDBRANCH  40  41
ENDBRANCH  33  35
ENDBRANCH  32  33
ENDBRANCH  31  32
ENDBRANCH  30  31
ENDBRANCH  29  30
ENDBRANCH  28  29
ENDBRANCH   1  28
TORSDOF 25
