REMARK SMILES C[C@H]1Oc2ccccc2C=C1/C=C/C(=O)N[C@H](C(=O)OCCOCCOCCOCCOC(=O)c1ccc(-c2c3nc(c(-c4cccc(S(=O)(=O)[O-])c4F)c4ccc([nH]4)c(-c4cccc(S(=O)(=O)[O-])c4F)c4nc(c(-c5cccc(S(=O)(=O)[O-])c5F)c5ccc2[nH]5)C=C4)C=C3)cc1)c1ccccc1
REMARK SMILES IDX 26 1 25 2 24 3 23 4 22 5 21 6 20 7 18 8 19 9 17 10 16 11
REMARK SMILES IDX 14 12 15 13 13 15 12 16 11 17 1 18 2 19 3 20 4 21 10 22 5 23
REMARK SMILES IDX 9 24 6 25 8 26 7 27 98 28 99 29 103 30 100 31 102 32 101 33
REMARK SMILES IDX 27 34 28 35 29 36 30 37 31 38 32 39 33 40 34 41 35 42 36 43
REMARK SMILES IDX 97 44 37 45 96 46 38 47 39 48 40 49 90 50 41 51 95 52 89 53
REMARK SMILES IDX 91 54 42 55 94 56 88 57 87 58 43 60 75 61 55 62 74 63 56 64
REMARK SMILES IDX 59 65 73 66 92 67 57 68 58 69 72 71 93 72 60 73 44 74 45 75
REMARK SMILES IDX 53 76 46 77 48 78 54 79 47 80 49 81 50 82 51 83 52 84 76 85
REMARK SMILES IDX 77 86 85 87 78 88 80 89 86 90 79 91 81 92 82 93 83 94 84 95
REMARK SMILES IDX 61 96 62 97 70 98 63 99 65 100 71 101 64 102 66 103 67 104
REMARK SMILES IDX 68 105 69 106
REMARK H PARENT 16 14 91 59 59 70
REMARK Flexibility Score: inf
ROOT
ATOM      1  O   UNL     1      -3.058  -1.529  -1.658  1.00  0.00    -0.377 OA
ENDROOT
BRANCH   1   2
ATOM      2  C   UNL     1      -2.335  -2.438  -2.461  1.00  0.00     0.188 C 
BRANCH   2   3
ATOM      3  C   UNL     1      -2.938  -3.806  -2.801  1.00  0.00     0.188 C 
BRANCH   3   4
ATOM      4  O   UNL     1      -4.180  -4.060  -2.169  1.00  0.00    -0.376 OA
BRANCH   4   5
ATOM      5  C   UNL     1      -4.148  -4.715  -0.911  1.00  0.00     0.202 C 
BRANCH   5   6
ATOM      6  C   UNL     1      -3.433  -3.995   0.261  1.00  0.00     0.261 C 
BRANCH   6   7
ATOM      7  O   UNL     1      -2.019  -3.682   0.128  1.00  0.00    -0.461 OA
BRANCH   7   8
ATOM      8  C   UNL     1      -1.220  -4.726  -0.202  1.00  0.00     0.333 C 
ATOM      9  O   UNL     1      -1.706  -5.823  -0.438  1.00  0.00    -0.249 OA
BRANCH   8  10
ATOM     10  C   UNL     1       0.303  -4.426  -0.104  1.00  0.00     0.223 C 
BRANCH  10  11
ATOM     11  N   UNL     1       0.785  -5.394   0.897  1.00  0.00    -0.335 N 
ATOM     12  C   UNL     1       0.800  -6.753   0.964  1.00  0.00     0.244 C 
ATOM     13  O   UNL     1       1.259  -7.247   1.998  1.00  0.00    -0.270 OA
ATOM     14  H   UNL     1       1.182  -4.964   1.689  1.00  0.00     0.165 HD
BRANCH  12  15
ATOM     15  C   UNL     1       0.306  -7.707  -0.086  1.00  0.00     0.071 C 
ATOM     16  C   UNL     1       0.026  -7.511  -1.386  1.00  0.00     0.013 C 
BRANCH  16  17
ATOM     17  C   UNL     1      -0.485  -8.439  -2.383  1.00  0.00    -0.007 C 
ATOM     18  C   UNL     1      -0.355  -6.856  -4.418  1.00  0.00     0.058 C 
ATOM     19  C   UNL     1      -1.207  -7.834  -3.597  1.00  0.00     0.200 C 
ATOM     20  O   UNL     1      -1.737  -8.767  -4.564  1.00  0.00    -0.485 OA
ATOM     21  C   UNL     1      -1.382 -10.077  -4.460  1.00  0.00     0.127 A 
ATOM     22  C   UNL     1      -0.295  -9.758  -2.269  1.00  0.00     0.019 C 
ATOM     23  C   UNL     1      -1.727 -10.893  -5.537  1.00  0.00     0.047 A 
ATOM     24  C   UNL     1      -0.729 -10.617  -3.354  1.00  0.00     0.017 A 
ATOM     25  C   UNL     1      -1.428 -12.255  -5.505  1.00  0.00     0.004 A 
ATOM     26  C   UNL     1      -0.457 -11.987  -3.311  1.00  0.00     0.012 A 
ATOM     27  C   UNL     1      -0.804 -12.804  -4.386  1.00  0.00     0.001 A 
ENDBRANCH  16  17
ENDBRANCH  12  15
ENDBRANCH  10  11
BRANCH  10  28
ATOM     28  C   UNL     1       1.188  -4.377  -1.371  1.00  0.00    -0.014 A 
ATOM     29  C   UNL     1       1.041  -3.397  -2.365  1.00  0.00     0.006 A 
ATOM     30  C   UNL     1       2.236  -5.298  -1.589  1.00  0.00     0.006 A 
ATOM     31  C   UNL     1       1.731  -3.468  -3.588  1.00  0.00     0.000 A 
ATOM     32  C   UNL     1       2.917  -5.390  -2.808  1.00  0.00     0.000 A 
ATOM     33  C   UNL     1       2.638  -4.492  -3.826  1.00  0.00     0.000 A 
ENDBRANCH  10  28
ENDBRANCH   8  10
ENDBRANCH   7   8
ENDBRANCH   6   7
ENDBRANCH   5   6
ENDBRANCH   4   5
ENDBRANCH   3   4
ENDBRANCH   2   3
ENDBRANCH   1   2
BRANCH   1  34
ATOM     34  C   UNL     1      -4.441  -1.336  -1.897  1.00  0.00     0.188 C 
BRANCH  34  35
ATOM     35  C   UNL     1      -5.011  -1.491  -3.315  1.00  0.00     0.188 C 
BRANCH  35  36
ATOM     36  O   UNL     1      -4.034  -1.512  -4.351  1.00  0.00    -0.376 OA
BRANCH  36  37
ATOM     37  C   UNL     1      -3.949  -0.338  -5.145  1.00  0.00     0.202 C 
BRANCH  37  38
ATOM     38  C   UNL     1      -3.175   0.810  -4.488  1.00  0.00     0.261 C 
BRANCH  38  39
ATOM     39  O   UNL     1      -3.733   1.316  -3.266  1.00  0.00    -0.460 OA
BRANCH  39  40
ATOM     40  C   UNL     1      -5.000   1.801  -3.301  1.00  0.00     0.338 C 
ATOM     41  O   UNL     1      -5.717   1.893  -4.270  1.00  0.00    -0.246 OA
BRANCH  40  42
ATOM     42  C   UNL     1      -5.427   2.005  -1.895  1.00  0.00     0.060 A 
ATOM     43  C   UNL     1      -4.588   2.656  -0.986  1.00  0.00     0.016 A 
ATOM     44  C   UNL     1      -6.644   1.455  -1.468  1.00  0.00     0.016 A 
ATOM     45  C   UNL     1      -4.991   2.800   0.342  1.00  0.00     0.010 A 
ATOM     46  C   UNL     1      -7.039   1.586  -0.133  1.00  0.00     0.010 A 
ATOM     47  C   UNL     1      -6.233   2.295   0.771  1.00  0.00    -0.014 A 
BRANCH  47  48
ATOM     48  C   UNL     1      -6.795   2.778   2.054  1.00  0.00     0.031 A 
ATOM     49  C   UNL     1      -6.790   1.975   3.317  1.00  0.00     0.074 A 
ATOM     50  C   UNL     1      -7.336   4.013   2.040  1.00  0.00     0.049 A 
ATOM     51  N   UNL     1      -7.120   2.363   4.522  1.00  0.00    -0.248 NA
ATOM     52  C   UNL     1      -6.381   0.567   3.228  1.00  0.00     0.031 C 
ATOM     53  C   UNL     1      -7.463   4.852   0.845  1.00  0.00     0.029 A 
ATOM     54  N   UNL     1      -7.871   4.777   3.043  1.00  0.00    -0.354 N 
ATOM     55  C   UNL     1      -6.962   1.253   5.341  1.00  0.00     0.074 A 
ATOM     56  C   UNL     1      -6.523   0.167   4.489  1.00  0.00     0.031 C 
ATOM     57  C   UNL     1      -8.016   6.023   1.187  1.00  0.00     0.029 A 
ATOM     58  C   UNL     1      -8.286   6.017   2.621  1.00  0.00     0.049 A 
ATOM     59  H   UNL     1      -7.950   4.468   3.974  1.00  0.00     0.167 HD
ATOM     60  C   UNL     1      -7.149   1.166   6.681  1.00  0.00     0.034 A 
ATOM     61  C   UNL     1      -8.804   7.051   3.309  1.00  0.00     0.034 A 
ATOM     62  C   UNL     1      -7.572   2.261   7.517  1.00  0.00     0.049 A 
ATOM     63  C   UNL     1      -8.955   6.941   4.794  1.00  0.00     0.074 A 
ATOM     64  C   UNL     1      -7.703   2.284   8.896  1.00  0.00     0.029 A 
ATOM     65  N   UNL     1      -7.948   3.515   7.061  1.00  0.00    -0.354 N 
ATOM     66  N   UNL     1      -8.636   5.938   5.575  1.00  0.00    -0.248 NA
ATOM     67  C   UNL     1      -9.500   8.108   5.500  1.00  0.00     0.031 C 
ATOM     68  C   UNL     1      -8.171   3.546   9.271  1.00  0.00     0.029 A 
ATOM     69  C   UNL     1      -8.319   4.314   8.129  1.00  0.00     0.049 A 
ATOM     70  H   UNL     1      -7.950   3.795   6.117  1.00  0.00     0.167 HD
ATOM     71  C   UNL     1      -8.921   6.359   6.867  1.00  0.00     0.074 A 
ATOM     72  C   UNL     1      -9.429   7.712   6.766  1.00  0.00     0.031 C 
ATOM     73  C   UNL     1      -8.782   5.674   8.026  1.00  0.00     0.034 A 
BRANCH  60  74
ATOM     74  C   UNL     1      -6.824  -0.131   7.371  1.00  0.00     0.023 A 
ATOM     75  C   UNL     1      -5.476  -0.428   7.655  1.00  0.00     0.012 A 
ATOM     76  C   UNL     1      -7.840  -0.964   7.881  1.00  0.00     0.148 A 
ATOM     77  C   UNL     1      -5.142  -1.535   8.433  1.00  0.00     0.002 A 
ATOM     78  C   UNL     1      -7.500  -2.053   8.677  1.00  0.00     0.091 A 
ATOM     79  F   UNL     1      -9.115  -0.662   7.597  1.00  0.00    -0.205 F 
ATOM     80  C   UNL     1      -6.152  -2.340   8.952  1.00  0.00     0.022 A 
BRANCH  78  81
ATOM     81  S   UNL     1      -8.724  -3.120   9.447  1.00  0.00     0.127 S 
ATOM     82  O   UNL     1      -8.479  -4.389   8.760  1.00  0.00    -0.237 OA
ATOM     83  O   UNL     1      -8.312  -3.098  10.851  1.00  0.00    -0.237 OA
ATOM     84  O   UNL     1     -10.018  -2.511   9.178  1.00  0.00    -0.744 OA
ENDBRANCH  78  81
ENDBRANCH  60  74
BRANCH  61  85
ATOM     85  C   UNL     1      -9.109   8.309   2.581  1.00  0.00     0.023 A 
ATOM     86  C   UNL     1      -8.215   9.391   2.680  1.00  0.00     0.012 A 
ATOM     87  C   UNL     1     -10.209   8.393   1.706  1.00  0.00     0.148 A 
ATOM     88  C   UNL     1      -8.415  10.543   1.921  1.00  0.00     0.002 A 
ATOM     89  C   UNL     1     -10.379   9.527   0.923  1.00  0.00     0.091 A 
ATOM     90  F   UNL     1     -11.036   7.341   1.628  1.00  0.00    -0.205 F 
ATOM     91  C   UNL     1      -9.489  10.607   1.036  1.00  0.00     0.022 A 
BRANCH  89  92
ATOM     92  S   UNL     1     -11.663   9.658  -0.326  1.00  0.00     0.127 S 
ATOM     93  O   UNL     1     -12.484  10.743   0.205  1.00  0.00    -0.237 OA
ATOM     94  O   UNL     1     -10.885   9.998  -1.518  1.00  0.00    -0.237 OA
ATOM     95  O   UNL     1     -12.305   8.352  -0.373  1.00  0.00    -0.744 OA
ENDBRANCH  89  92
ENDBRANCH  61  85
BRANCH  73  96
ATOM     96  C   UNL     1      -9.175   6.359   9.305  1.00  0.00     0.023 A 
ATOM     97  C   UNL     1     -10.535   6.419   9.664  1.00  0.00     0.012 A 
ATOM     98  C   UNL     1      -8.194   6.807  10.210  1.00  0.00     0.148 A 
ATOM     99  C   UNL     1     -10.914   6.916  10.910  1.00  0.00     0.002 A 
ATOM    100  C   UNL     1      -8.577   7.270  11.463  1.00  0.00     0.091 A 
ATOM    101  F   UNL     1      -6.907   6.743   9.838  1.00  0.00    -0.205 F 
ATOM    102  C   UNL     1      -9.936   7.329  11.813  1.00  0.00     0.022 A 
BRANCH 100 103
ATOM    103  S   UNL     1      -7.393   7.756  12.723  1.00  0.00     0.127 S 
ATOM    104  O   UNL     1      -7.718   9.170  12.909  1.00  0.00    -0.237 OA
ATOM    105  O   UNL     1      -7.765   6.891  13.843  1.00  0.00    -0.237 OA
ATOM    106  O   UNL     1      -6.073   7.498  12.162  1.00  0.00    -0.744 OA
ENDBRANCH 100 103
ENDBRANCH  73  96
ENDBRANCH  47  48
ENDBRANCH  40  42
ENDBRANCH  39  40
ENDBRANCH  38  39
ENDBRANCH  37  38
ENDBRANCH  36  37
ENDBRANCH  35  36
ENDBRANCH  34  35
ENDBRANCH   1  34
TORSDOF 27
