REMARK SMILES CC[C@@H]1CCCN1C(=O)N[C@H]1C=C[C@@H](C(=O)OCCOCCOCCOCCOC(=O)c2ccc(-c3c4nc(c(-c5cccc(S(=O)(=O)[O-])c5F)c5ccc([nH]5)c(-c5cccc(S(=O)(=O)[O-])c5F)c5nc(c(-c6cccc(S(=O)(=O)[O-])c6F)c6ccc3[nH]6)C=C5)C=C4)cc2)C1
REMARK SMILES IDX 23 1 22 2 21 3 20 4 19 5 18 6 17 7 15 8 16 9 14 10 11 11
REMARK SMILES IDX 12 12 95 13 13 14 10 15 8 16 9 17 7 19 3 20 4 21 5 22 6 23
REMARK SMILES IDX 2 24 1 25 24 26 25 27 26 28 27 29 28 30 29 31 30 32 31 33
REMARK SMILES IDX 32 34 33 35 94 36 34 37 93 38 35 39 36 40 37 41 87 42 38 43
REMARK SMILES IDX 92 44 86 45 88 46 39 47 91 48 85 49 84 50 40 52 72 53 52 54
REMARK SMILES IDX 71 55 53 56 56 57 70 58 89 59 54 60 55 61 69 63 90 64 57 65
REMARK SMILES IDX 41 66 42 67 50 68 43 69 45 70 51 71 44 72 46 73 47 74 48 75
REMARK SMILES IDX 49 76 73 77 74 78 82 79 75 80 77 81 83 82 76 83 78 84 79 85
REMARK SMILES IDX 80 86 81 87 58 88 59 89 67 90 60 91 62 92 68 93 61 94 63 95
REMARK SMILES IDX 64 96 65 97 66 98
REMARK H PARENT 10 18 88 51 56 62
REMARK Flexibility Score: inf
ROOT
ATOM      1  O   UNL     1       1.175   4.619   1.984  1.00  0.00    -0.377 OA
ENDROOT
BRANCH   1   2
ATOM      2  C   UNL     1       0.416   5.156   0.925  1.00  0.00     0.188 C 
BRANCH   2   3
ATOM      3  C   UNL     1      -1.072   5.388   1.236  1.00  0.00     0.188 C 
BRANCH   3   4
ATOM      4  O   UNL     1      -1.554   5.304   2.572  1.00  0.00    -0.376 OA
BRANCH   4   5
ATOM      5  C   UNL     1      -1.170   4.207   3.398  1.00  0.00     0.202 C 
BRANCH   5   6
ATOM      6  C   UNL     1      -1.264   2.765   2.859  1.00  0.00     0.261 C 
BRANCH   6   7
ATOM      7  O   UNL     1      -0.621   2.583   1.584  1.00  0.00    -0.463 OA
BRANCH   7   8
ATOM      8  C   UNL     1      -1.318   1.974   0.586  1.00  0.00     0.312 C 
ATOM      9  O   UNL     1      -2.428   1.473   0.721  1.00  0.00    -0.252 OA
BRANCH   8  10
ATOM     10  C   UNL     1      -0.637   2.207  -0.779  1.00  0.00     0.124 C 
ATOM     11  C   UNL     1       1.299   1.064  -1.862  1.00  0.00     0.107 C 
ATOM     12  C   UNL     1      -0.011   0.629  -2.416  1.00  0.00    -0.006 C 
ATOM     13  C   UNL     1       0.894   2.090  -0.791  1.00  0.00     0.048 C 
ATOM     14  C   UNL     1      -1.054   1.229  -1.829  1.00  0.00    -0.014 C 
BRANCH  11  15
ATOM     15  N   UNL     1       2.038   0.018  -1.184  1.00  0.00    -0.332 N 
ATOM     16  C   UNL     1       2.776  -0.990  -1.690  1.00  0.00     0.318 C 
ATOM     17  O   UNL     1       3.982  -0.783  -1.839  1.00  0.00    -0.249 OA
ATOM     18  H   UNL     1       1.993   0.048  -0.201  1.00  0.00     0.165 HD
BRANCH  16  19
ATOM     19  N   UNL     1       2.236  -2.244  -1.669  1.00  0.00    -0.322 N 
ATOM     20  C   UNL     1       0.846  -2.701  -1.765  1.00  0.00     0.086 C 
ATOM     21  C   UNL     1       0.937  -4.234  -1.641  1.00  0.00     0.027 C 
ATOM     22  C   UNL     1       2.367  -4.575  -2.013  1.00  0.00     0.024 C 
ATOM     23  C   UNL     1       3.145  -3.370  -1.535  1.00  0.00     0.122 C 
BRANCH  20  24
ATOM     24  C   UNL     1      -0.196  -2.191  -0.762  1.00  0.00     0.022 C 
ATOM     25  C   UNL     1       0.280  -1.967   0.663  1.00  0.00     0.006 C 
ENDBRANCH  20  24
ENDBRANCH  16  19
ENDBRANCH  11  15
ENDBRANCH   8  10
ENDBRANCH   7   8
ENDBRANCH   6   7
ENDBRANCH   5   6
ENDBRANCH   4   5
ENDBRANCH   3   4
ENDBRANCH   2   3
ENDBRANCH   1   2
BRANCH   1  26
ATOM     26  C   UNL     1       1.965   5.523   2.745  1.00  0.00     0.188 C 
BRANCH  26  27
ATOM     27  C   UNL     1       1.449   6.962   2.922  1.00  0.00     0.188 C 
BRANCH  27  28
ATOM     28  O   UNL     1       1.197   7.654   1.700  1.00  0.00    -0.376 OA
BRANCH  28  29
ATOM     29  C   UNL     1       2.247   8.443   1.149  1.00  0.00     0.202 C 
BRANCH  29  30
ATOM     30  C   UNL     1       3.456   7.682   0.575  1.00  0.00     0.261 C 
BRANCH  30  31
ATOM     31  O   UNL     1       4.291   7.015   1.535  1.00  0.00    -0.460 OA
BRANCH  31  32
ATOM     32  C   UNL     1       4.759   7.740   2.574  1.00  0.00     0.338 C 
ATOM     33  O   UNL     1       4.673   8.941   2.728  1.00  0.00    -0.246 OA
BRANCH  32  34
ATOM     34  C   UNL     1       5.204   6.794   3.618  1.00  0.00     0.060 A 
ATOM     35  C   UNL     1       4.638   6.907   4.893  1.00  0.00     0.016 A 
ATOM     36  C   UNL     1       6.173   5.823   3.352  1.00  0.00     0.016 A 
ATOM     37  C   UNL     1       5.082   6.085   5.925  1.00  0.00     0.010 A 
ATOM     38  C   UNL     1       6.634   5.014   4.394  1.00  0.00     0.010 A 
ATOM     39  C   UNL     1       6.123   5.177   5.692  1.00  0.00    -0.014 A 
BRANCH  39  40
ATOM     40  C   UNL     1       6.826   4.591   6.856  1.00  0.00     0.031 A 
ATOM     41  C   UNL     1       8.039   5.309   7.382  1.00  0.00     0.074 A 
ATOM     42  C   UNL     1       6.380   3.474   7.457  1.00  0.00     0.049 A 
ATOM     43  N   UNL     1       8.784   5.030   8.418  1.00  0.00    -0.248 NA
ATOM     44  C   UNL     1       8.466   6.509   6.641  1.00  0.00     0.031 C 
ATOM     45  C   UNL     1       5.216   2.695   7.041  1.00  0.00     0.029 A 
ATOM     46  N   UNL     1       6.869   2.799   8.546  1.00  0.00    -0.354 N 
ATOM     47  C   UNL     1       9.772   6.006   8.447  1.00  0.00     0.074 A 
ATOM     48  C   UNL     1       9.545   6.876   7.314  1.00  0.00     0.031 C 
ATOM     49  C   UNL     1       5.094   1.630   7.854  1.00  0.00     0.029 A 
ATOM     50  C   UNL     1       6.175   1.650   8.839  1.00  0.00     0.049 A 
ATOM     51  H   UNL     1       7.645   3.108   9.069  1.00  0.00     0.167 HD
ATOM     52  C   UNL     1      10.768   6.179   9.346  1.00  0.00     0.034 A 
ATOM     53  C   UNL     1       6.397   0.720   9.790  1.00  0.00     0.034 A 
ATOM     54  C   UNL     1      10.989   5.319  10.474  1.00  0.00     0.049 A 
ATOM     55  C   UNL     1       7.532   0.920  10.763  1.00  0.00     0.074 A 
ATOM     56  C   UNL     1      11.951   5.426  11.462  1.00  0.00     0.029 A 
ATOM     57  N   UNL     1      10.249   4.181  10.755  1.00  0.00    -0.354 N 
ATOM     58  N   UNL     1       8.377   1.919  10.856  1.00  0.00    -0.248 NA
ATOM     59  C   UNL     1       7.719  -0.118  11.787  1.00  0.00     0.031 C 
ATOM     60  C   UNL     1      11.806   4.338  12.330  1.00  0.00     0.029 A 
ATOM     61  C   UNL     1      10.738   3.569  11.896  1.00  0.00     0.049 A 
ATOM     62  H   UNL     1       9.488   3.857  10.222  1.00  0.00     0.167 HD
ATOM     63  C   UNL     1       9.170   1.649  11.966  1.00  0.00     0.074 A 
ATOM     64  C   UNL     1       8.689   0.403  12.527  1.00  0.00     0.031 C 
ATOM     65  C   UNL     1      10.213   2.357  12.470  1.00  0.00     0.034 A 
BRANCH  52  66
ATOM     66  C   UNL     1      11.677   7.363   9.153  1.00  0.00     0.023 A 
ATOM     67  C   UNL     1      11.200   8.659   9.437  1.00  0.00     0.012 A 
ATOM     68  C   UNL     1      13.008   7.192   8.729  1.00  0.00     0.148 A 
ATOM     69  C   UNL     1      12.025   9.771   9.272  1.00  0.00     0.002 A 
ATOM     70  C   UNL     1      13.837   8.300   8.607  1.00  0.00     0.091 A 
ATOM     71  F   UNL     1      13.431   5.955   8.435  1.00  0.00    -0.205 F 
ATOM     72  C   UNL     1      13.345   9.590   8.868  1.00  0.00     0.022 A 
BRANCH  70  73
ATOM     73  S   UNL     1      15.571   8.165   8.161  1.00  0.00     0.127 S 
ATOM     74  O   UNL     1      15.570   8.709   6.804  1.00  0.00    -0.237 OA
ATOM     75  O   UNL     1      16.213   9.020   9.160  1.00  0.00    -0.237 OA
ATOM     76  O   UNL     1      15.904   6.752   8.269  1.00  0.00    -0.744 OA
ENDBRANCH  70  73
ENDBRANCH  52  66
BRANCH  53  77
ATOM     77  C   UNL     1       5.501  -0.466   9.899  1.00  0.00     0.023 A 
ATOM     78  C   UNL     1       4.646  -0.593  11.012  1.00  0.00     0.012 A 
ATOM     79  C   UNL     1       5.487  -1.465   8.906  1.00  0.00     0.148 A 
ATOM     80  C   UNL     1       3.818  -1.708  11.149  1.00  0.00     0.002 A 
ATOM     81  C   UNL     1       4.621  -2.546   9.023  1.00  0.00     0.091 A 
ATOM     82  F   UNL     1       6.322  -1.336   7.865  1.00  0.00    -0.205 F 
ATOM     83  C   UNL     1       3.798  -2.678  10.151  1.00  0.00     0.022 A 
BRANCH  81  84
ATOM     84  S   UNL     1       4.441  -3.779   7.729  1.00  0.00     0.127 S 
ATOM     85  O   UNL     1       5.059  -4.950   8.344  1.00  0.00    -0.237 OA
ATOM     86  O   UNL     1       2.986  -3.853   7.585  1.00  0.00    -0.237 OA
ATOM     87  O   UNL     1       5.131  -3.234   6.568  1.00  0.00    -0.744 OA
ENDBRANCH  81  84
ENDBRANCH  53  77
BRANCH  65  88
ATOM     88  C   UNL     1      10.889   1.823  13.707  1.00  0.00     0.023 A 
ATOM     89  C   UNL     1      11.704   0.677  13.620  1.00  0.00     0.012 A 
ATOM     90  C   UNL     1      10.773   2.496  14.939  1.00  0.00     0.148 A 
ATOM     91  C   UNL     1      12.364   0.189  14.747  1.00  0.00     0.002 A 
ATOM     92  C   UNL     1      11.473   2.032  16.047  1.00  0.00     0.091 A 
ATOM     93  F   UNL     1       9.979   3.574  15.008  1.00  0.00    -0.205 F 
ATOM     94  C   UNL     1      12.258   0.872  15.956  1.00  0.00     0.022 A 
BRANCH  92  95
ATOM     95  S   UNL     1      11.470   2.907  17.616  1.00  0.00     0.127 S 
ATOM     96  O   UNL     1      10.564   2.084  18.415  1.00  0.00    -0.237 OA
ATOM     97  O   UNL     1      12.875   2.834  18.019  1.00  0.00    -0.237 OA
ATOM     98  O   UNL     1      11.000   4.254  17.319  1.00  0.00    -0.744 OA
ENDBRANCH  92  95
ENDBRANCH  65  88
ENDBRANCH  39  40
ENDBRANCH  32  34
ENDBRANCH  31  32
ENDBRANCH  30  31
ENDBRANCH  29  30
ENDBRANCH  28  29
ENDBRANCH  27  28
ENDBRANCH  26  27
ENDBRANCH   1  26
TORSDOF 26
