REMARK SMILES O=C(CC1(NC(=O)C2(c3ccccc3)CC2)CCC1)OCCOCCOCCOCCOC(=O)c1ccc(-c2c3nc(c(-c4cccc(S(=O)(=O)[O-])c4F)c4ccc([nH]4)c(-c4cccc(S(=O)(=O)[O-])c4F)c4nc(c(-c5cccc(S(=O)(=O)[O-])c5F)c5ccc2[nH]5)C=C4)C=C3)cc1
REMARK SMILES IDX 25 1 24 2 23 3 22 4 21 5 20 6 2 7 1 8 3 9 4 10 17 11 19 12
REMARK SMILES IDX 18 13 5 14 6 15 7 17 8 18 15 19 16 20 9 21 10 22 14 23 11 24
REMARK SMILES IDX 13 25 12 26 26 27 27 28 28 29 29 30 30 31 31 32 32 33 33 34
REMARK SMILES IDX 34 35 35 36 36 37 97 38 37 39 96 40 38 41 39 42 40 43 90 44
REMARK SMILES IDX 41 45 95 46 89 47 91 48 42 49 94 50 88 51 87 52 43 54 75 55
REMARK SMILES IDX 55 56 74 57 56 58 59 59 73 60 92 61 57 62 58 63 72 65 93 66
REMARK SMILES IDX 60 67 44 68 45 69 53 70 46 71 48 72 54 73 47 74 49 75 50 76
REMARK SMILES IDX 51 77 52 78 76 79 77 80 85 81 78 82 80 83 86 84 79 85 81 86
REMARK SMILES IDX 82 87 83 88 84 89 61 90 62 91 70 92 63 93 65 94 71 95 64 96
REMARK SMILES IDX 66 97 67 98 68 99 69 100
REMARK H PARENT 5 16 91 53 59 64
REMARK Flexibility Score: inf
ROOT
ATOM      1  C   UNL     1       2.442   2.927   2.145  1.00  0.00     0.188 C 
ENDROOT
BRANCH   1   2
ATOM      2  C   UNL     1       2.975   1.634   1.531  1.00  0.00     0.188 C 
BRANCH   2   3
ATOM      3  O   UNL     1       4.258   1.132   1.913  1.00  0.00    -0.376 OA
BRANCH   3   4
ATOM      4  C   UNL     1       5.213   0.754   0.908  1.00  0.00     0.202 C 
BRANCH   4   5
ATOM      5  C   UNL     1       4.661  -0.003  -0.277  1.00  0.00     0.261 C 
BRANCH   5   6
ATOM      6  O   UNL     1       3.855  -1.076   0.267  1.00  0.00    -0.463 OA
BRANCH   6   7
ATOM      7  C   UNL     1       4.046  -2.413   0.283  1.00  0.00     0.308 C 
ATOM      8  O   UNL     1       3.231  -3.308   0.496  1.00  0.00    -0.252 OA
BRANCH   7   9
ATOM      9  C   UNL     1       5.211  -2.829  -0.390  1.00  0.00     0.151 C 
BRANCH   9  10
ATOM     10  C   UNL     1       4.786  -2.786  -1.837  1.00  0.00     0.051 C 
ATOM     11  C   UNL     1       6.106  -2.419  -2.600  1.00  0.00     0.029 C 
ATOM     12  C   UNL     1       4.939  -4.180  -2.539  1.00  0.00     0.029 C 
ATOM     13  C   UNL     1       6.469  -3.933  -2.515  1.00  0.00     0.005 C 
BRANCH  10  14
ATOM     14  N   UNL     1       3.448  -2.042  -2.255  1.00  0.00    -0.349 N 
ATOM     15  C   UNL     1       2.116  -1.623  -1.818  1.00  0.00     0.231 C 
ATOM     16  H   UNL     1       3.559  -1.740  -3.186  1.00  0.00     0.164 HD
ATOM     17  O   UNL     1       1.419  -1.443  -2.837  1.00  0.00    -0.274 OA
BRANCH  15  18
ATOM     18  C   UNL     1       1.335  -1.071  -0.395  1.00  0.00     0.074 C 
ATOM     19  C   UNL     1       0.928   0.433  -0.511  1.00  0.00     0.023 C 
ATOM     20  C   UNL     1      -0.139  -0.572  -0.692  1.00  0.00     0.023 C 
BRANCH  18  21
ATOM     21  C   UNL     1       1.326  -1.776   1.114  1.00  0.00    -0.032 A 
ATOM     22  C   UNL     1       2.221  -1.470   2.187  1.00  0.00     0.005 A 
ATOM     23  C   UNL     1       0.537  -2.898   1.387  1.00  0.00     0.005 A 
ATOM     24  C   UNL     1       2.584  -2.346   3.219  1.00  0.00     0.000 A 
ATOM     25  C   UNL     1       0.852  -3.778   2.453  1.00  0.00     0.000 A 
ATOM     26  C   UNL     1       1.927  -3.545   3.313  1.00  0.00     0.000 A 
ENDBRANCH  18  21
ENDBRANCH  15  18
ENDBRANCH  10  14
ENDBRANCH   9  10
ENDBRANCH   7   9
ENDBRANCH   6   7
ENDBRANCH   5   6
ENDBRANCH   4   5
ENDBRANCH   3   4
ENDBRANCH   2   3
ENDBRANCH   1   2
BRANCH   1  27
ATOM     27  O   UNL     1       3.207   4.099   1.987  1.00  0.00    -0.377 OA
BRANCH  27  28
ATOM     28  C   UNL     1       4.584   3.875   1.792  1.00  0.00     0.188 C 
BRANCH  28  29
ATOM     29  C   UNL     1       5.431   3.389   3.000  1.00  0.00     0.188 C 
BRANCH  29  30
ATOM     30  O   UNL     1       4.894   2.493   3.950  1.00  0.00    -0.376 OA
BRANCH  30  31
ATOM     31  C   UNL     1       4.024   2.853   5.005  1.00  0.00     0.202 C 
BRANCH  31  32
ATOM     32  C   UNL     1       3.453   4.252   5.312  1.00  0.00     0.261 C 
BRANCH  32  33
ATOM     33  O   UNL     1       3.704   5.294   4.383  1.00  0.00    -0.460 OA
BRANCH  33  34
ATOM     34  C   UNL     1       4.850   6.001   4.557  1.00  0.00     0.338 C 
ATOM     35  O   UNL     1       5.657   5.877   5.444  1.00  0.00    -0.246 OA
BRANCH  34  36
ATOM     36  C   UNL     1       5.079   6.726   3.281  1.00  0.00     0.060 A 
ATOM     37  C   UNL     1       6.309   6.537   2.622  1.00  0.00     0.016 A 
ATOM     38  C   UNL     1       4.046   7.444   2.674  1.00  0.00     0.016 A 
ATOM     39  C   UNL     1       6.499   7.043   1.339  1.00  0.00     0.010 A 
ATOM     40  C   UNL     1       4.266   8.026   1.429  1.00  0.00     0.010 A 
ATOM     41  C   UNL     1       5.504   7.854   0.783  1.00  0.00    -0.014 A 
BRANCH  41  42
ATOM     42  C   UNL     1       5.909   8.869  -0.207  1.00  0.00     0.031 A 
ATOM     43  C   UNL     1       6.447  10.146   0.372  1.00  0.00     0.074 A 
ATOM     44  C   UNL     1       5.744   8.702  -1.526  1.00  0.00     0.049 A 
ATOM     45  N   UNL     1       6.711  11.279  -0.213  1.00  0.00    -0.248 NA
ATOM     46  C   UNL     1       6.698  10.147   1.827  1.00  0.00     0.031 C 
ATOM     47  C   UNL     1       5.257   7.490  -2.179  1.00  0.00     0.029 A 
ATOM     48  N   UNL     1       5.924   9.596  -2.550  1.00  0.00    -0.354 N 
ATOM     49  C   UNL     1       7.100  12.136   0.809  1.00  0.00     0.074 A 
ATOM     50  C   UNL     1       7.050  11.398   2.046  1.00  0.00     0.031 C 
ATOM     51  C   UNL     1       5.118   7.735  -3.494  1.00  0.00     0.029 A 
ATOM     52  C   UNL     1       5.463   9.132  -3.758  1.00  0.00     0.049 A 
ATOM     53  H   UNL     1       6.342  10.479  -2.432  1.00  0.00     0.167 HD
ATOM     54  C   UNL     1       7.455  13.435   0.728  1.00  0.00     0.034 A 
ATOM     55  C   UNL     1       5.287   9.789  -4.922  1.00  0.00     0.034 A 
ATOM     56  C   UNL     1       7.473  14.159  -0.507  1.00  0.00     0.049 A 
ATOM     57  C   UNL     1       5.660  11.248  -4.995  1.00  0.00     0.074 A 
ATOM     58  C   UNL     1       7.852  15.467  -0.731  1.00  0.00     0.029 A 
ATOM     59  N   UNL     1       7.062  13.637  -1.724  1.00  0.00    -0.354 N 
ATOM     60  N   UNL     1       6.118  12.031  -4.046  1.00  0.00    -0.248 NA
ATOM     61  C   UNL     1       5.518  11.909  -6.300  1.00  0.00     0.031 C 
ATOM     62  C   UNL     1       7.625  15.750  -2.080  1.00  0.00     0.029 A 
ATOM     63  C   UNL     1       7.162  14.601  -2.706  1.00  0.00     0.049 A 
ATOM     64  H   UNL     1       6.745  12.716  -1.866  1.00  0.00     0.167 HD
ATOM     65  C   UNL     1       6.359  13.263  -4.646  1.00  0.00     0.074 A 
ATOM     66  C   UNL     1       5.996  13.120  -6.042  1.00  0.00     0.031 C 
ATOM     67  C   UNL     1       6.838  14.408  -4.097  1.00  0.00     0.034 A 
BRANCH  54  68
ATOM     68  C   UNL     1       7.801  14.134   2.014  1.00  0.00     0.023 A 
ATOM     69  C   UNL     1       8.961  13.773   2.731  1.00  0.00     0.012 A 
ATOM     70  C   UNL     1       6.952  15.131   2.530  1.00  0.00     0.148 A 
ATOM     71  C   UNL     1       9.243  14.357   3.965  1.00  0.00     0.002 A 
ATOM     72  C   UNL     1       7.271  15.750   3.731  1.00  0.00     0.091 A 
ATOM     73  F   UNL     1       5.832  15.430   1.857  1.00  0.00    -0.205 F 
ATOM     74  C   UNL     1       8.404  15.352   4.459  1.00  0.00     0.022 A 
BRANCH  72  75
ATOM     75  S   UNL     1       6.300  17.101   4.403  1.00  0.00     0.127 S 
ATOM     76  O   UNL     1       5.655  16.461   5.548  1.00  0.00    -0.237 OA
ATOM     77  O   UNL     1       7.335  18.075   4.752  1.00  0.00    -0.237 OA
ATOM     78  O   UNL     1       5.406  17.523   3.334  1.00  0.00    -0.744 OA
ENDBRANCH  72  75
ENDBRANCH  54  68
BRANCH  55  79
ATOM     79  C   UNL     1       4.731   9.065  -6.098  1.00  0.00     0.023 A 
ATOM     80  C   UNL     1       5.567   8.758  -7.188  1.00  0.00     0.012 A 
ATOM     81  C   UNL     1       3.393   8.626  -6.112  1.00  0.00     0.148 A 
ATOM     82  C   UNL     1       5.077   8.036  -8.278  1.00  0.00     0.002 A 
ATOM     83  C   UNL     1       2.926   7.862  -7.174  1.00  0.00     0.091 A 
ATOM     84  F   UNL     1       2.613   8.939  -5.068  1.00  0.00    -0.205 F 
ATOM     85  C   UNL     1       3.762   7.578  -8.265  1.00  0.00     0.022 A 
BRANCH  83  86
ATOM     86  S   UNL     1       1.291   7.117  -7.189  1.00  0.00     0.127 S 
ATOM     87  O   UNL     1       0.673   7.775  -8.338  1.00  0.00    -0.237 OA
ATOM     88  O   UNL     1       1.613   5.704  -7.386  1.00  0.00    -0.237 OA
ATOM     89  O   UNL     1       0.701   7.431  -5.895  1.00  0.00    -0.744 OA
ENDBRANCH  83  86
ENDBRANCH  55  79
BRANCH  67  90
ATOM     90  C   UNL     1       7.075  15.582  -5.008  1.00  0.00     0.023 A 
ATOM     91  C   UNL     1       5.992  16.333  -5.501  1.00  0.00     0.012 A 
ATOM     92  C   UNL     1       8.394  16.010  -5.264  1.00  0.00     0.148 A 
ATOM     93  C   UNL     1       6.219  17.482  -6.257  1.00  0.00     0.002 A 
ATOM     94  C   UNL     1       8.611  17.185  -5.968  1.00  0.00     0.091 A 
ATOM     95  F   UNL     1       9.408  15.269  -4.793  1.00  0.00    -0.205 F 
ATOM     96  C   UNL     1       7.526  17.916  -6.477  1.00  0.00     0.022 A 
BRANCH  94  97
ATOM     97  S   UNL     1      10.252  17.876  -6.201  1.00  0.00     0.127 S 
ATOM     98  O   UNL     1      10.442  17.710  -7.641  1.00  0.00    -0.237 OA
ATOM     99  O   UNL     1      10.068  19.260  -5.765  1.00  0.00    -0.237 OA
ATOM    100  O   UNL     1      11.146  17.090  -5.363  1.00  0.00    -0.744 OA
ENDBRANCH  94  97
ENDBRANCH  67  90
ENDBRANCH  41  42
ENDBRANCH  34  36
ENDBRANCH  33  34
ENDBRANCH  32  33
ENDBRANCH  31  32
ENDBRANCH  30  31
ENDBRANCH  29  30
ENDBRANCH  28  29
ENDBRANCH  27  28
ENDBRANCH   1  27
TORSDOF 27
