REMARK SMILES COc1ccc2c(c1)c(CC(=O)OCCOCCOCCOCCOC(=O)c1ccc(-c3c4nc(c(-c5cccc(S(=O)(=O)[O-])c5F)c5ccc([nH]5)c(-c5cccc(S(=O)(=O)[O-])c5F)c5nc(c(-c6cccc(S(=O)(=O)[O-])c6F)c6ccc3[nH]6)C=C5)C=C4)cc1)c(C)n2Cc1ccn(C(F)F)c(=O)c1
REMARK SMILES IDX 18 1 17 2 16 3 15 4 14 5 13 6 11 7 12 8 10 9 9 10 3 11 4 12
REMARK SMILES IDX 8 13 5 14 7 15 6 16 93 17 91 18 92 19 2 20 1 21 94 22 95 23
REMARK SMILES IDX 96 24 104 25 97 26 102 27 98 28 103 29 99 30 100 31 101 32
REMARK SMILES IDX 19 33 20 34 21 35 22 36 23 37 24 38 25 39 26 40 27 41 28 42
REMARK SMILES IDX 29 43 90 44 30 45 89 46 31 47 32 48 33 49 83 50 34 51 88 52
REMARK SMILES IDX 82 53 84 54 35 55 87 56 81 57 80 58 36 60 68 61 48 62 67 63
REMARK SMILES IDX 49 64 52 65 66 66 85 67 50 68 51 69 65 71 86 72 53 73 37 74
REMARK SMILES IDX 38 75 46 76 39 77 41 78 47 79 40 80 42 81 43 82 44 83 45 84
REMARK SMILES IDX 69 85 70 86 78 87 71 88 73 89 79 90 72 91 74 92 75 93 76 94
REMARK SMILES IDX 77 95 54 96 55 97 63 98 56 99 58 100 64 101 57 102 59 103
REMARK SMILES IDX 60 104 61 105 62 106
REMARK H PARENT 84 59 52 70
REMARK Flexibility Score: inf
ROOT
ATOM      1  C   UNL     1      -0.923   0.571   4.194  1.00  0.00     0.188 C 
ENDROOT
BRANCH   1   2
ATOM      2  C   UNL     1      -2.303   0.963   3.669  1.00  0.00     0.188 C 
BRANCH   2   3
ATOM      3  O   UNL     1      -3.351   0.836   4.633  1.00  0.00    -0.376 OA
BRANCH   3   4
ATOM      4  C   UNL     1      -3.253   1.728   5.743  1.00  0.00     0.202 C 
BRANCH   4   5
ATOM      5  C   UNL     1      -2.803   1.028   7.042  1.00  0.00     0.261 C 
BRANCH   5   6
ATOM      6  O   UNL     1      -2.177  -0.257   6.811  1.00  0.00    -0.463 OA
BRANCH   6   7
ATOM      7  C   UNL     1      -3.018  -1.291   6.556  1.00  0.00     0.310 C 
ATOM      8  O   UNL     1      -4.220  -1.265   6.815  1.00  0.00    -0.252 OA
BRANCH   7   9
ATOM      9  C   UNL     1      -2.399  -2.474   5.815  1.00  0.00     0.160 C 
BRANCH   9  10
ATOM     10  C   UNL     1      -0.894  -2.610   5.734  1.00  0.00    -0.008 A 
ATOM     11  C   UNL     1       0.633  -2.260   2.228  1.00  0.00     0.119 A 
ATOM     12  C   UNL     1       1.953  -2.182   2.653  1.00  0.00     0.048 A 
ATOM     13  C   UNL     1      -0.380  -2.524   3.160  1.00  0.00     0.057 A 
ATOM     14  C   UNL     1       2.285  -2.345   4.008  1.00  0.00     0.031 A 
ATOM     15  C   UNL     1      -0.087  -2.588   4.547  1.00  0.00     0.007 A 
ATOM     16  C   UNL     1       1.253  -2.560   4.945  1.00  0.00     0.049 A 
ATOM     17  N   UNL     1       1.275  -2.817   6.316  1.00  0.00    -0.340 N 
ATOM     18  C   UNL     1      -0.033  -2.990   6.756  1.00  0.00     0.020 A 
ATOM     19  C   UNL     1      -0.428  -3.536   8.081  1.00  0.00     0.065 C 
BRANCH  11  20
ATOM     20  O   UNL     1       0.208  -2.102   0.937  1.00  0.00    -0.497 OA
ATOM     21  C   UNL     1       0.915  -1.167   0.126  1.00  0.00     0.278 C 
ENDBRANCH  11  20
BRANCH  17  22
ATOM     22  C   UNL     1       2.503  -3.173   7.052  1.00  0.00     0.158 C 
BRANCH  22  23
ATOM     23  C   UNL     1       2.971  -2.231   8.145  1.00  0.00    -0.021 A 
ATOM     24  C   UNL     1       2.300  -2.240   9.429  1.00  0.00     0.024 A 
ATOM     25  C   UNL     1       4.095  -1.496   8.037  1.00  0.00     0.077 A 
ATOM     26  C   UNL     1       2.710  -1.469  10.441  1.00  0.00     0.095 A 
ATOM     27  C   UNL     1       4.622  -0.691   9.187  1.00  0.00     0.255 A 
ATOM     28  N   UNL     1       3.834  -0.680  10.325  1.00  0.00    -0.258 N 
ATOM     29  O   UNL     1       5.707  -0.133   9.055  1.00  0.00    -0.269 OA
BRANCH  28  30
ATOM     30  C   UNL     1       4.287   0.081  11.464  1.00  0.00     0.451 C 
ATOM     31  F   UNL     1       5.350  -0.534  12.044  1.00  0.00    -0.185 F 
ATOM     32  F   UNL     1       4.673   1.330  11.113  1.00  0.00    -0.185 F 
ENDBRANCH  28  30
ENDBRANCH  22  23
ENDBRANCH  17  22
ENDBRANCH   9  10
ENDBRANCH   7   9
ENDBRANCH   6   7
ENDBRANCH   5   6
ENDBRANCH   4   5
ENDBRANCH   3   4
ENDBRANCH   2   3
ENDBRANCH   1   2
BRANCH   1  33
ATOM     33  O   UNL     1       0.174   1.408   3.944  1.00  0.00    -0.377 OA
BRANCH  33  34
ATOM     34  C   UNL     1       0.030   2.744   4.330  1.00  0.00     0.188 C 
BRANCH  34  35
ATOM     35  C   UNL     1      -0.270   3.677   3.153  1.00  0.00     0.188 C 
BRANCH  35  36
ATOM     36  O   UNL     1       0.057   3.337   1.804  1.00  0.00    -0.376 OA
BRANCH  36  37
ATOM     37  C   UNL     1       0.885   2.227   1.492  1.00  0.00     0.202 C 
BRANCH  37  38
ATOM     38  C   UNL     1       2.390   2.357   1.783  1.00  0.00     0.261 C 
BRANCH  38  39
ATOM     39  O   UNL     1       2.670   2.793   3.112  1.00  0.00    -0.460 OA
BRANCH  39  40
ATOM     40  C   UNL     1       3.571   3.796   3.259  1.00  0.00     0.338 C 
ATOM     41  O   UNL     1       4.387   4.199   2.450  1.00  0.00    -0.246 OA
BRANCH  40  42
ATOM     42  C   UNL     1       3.136   4.497   4.478  1.00  0.00     0.060 A 
ATOM     43  C   UNL     1       3.137   3.835   5.712  1.00  0.00     0.016 A 
ATOM     44  C   UNL     1       2.385   5.660   4.271  1.00  0.00     0.016 A 
ATOM     45  C   UNL     1       2.267   4.276   6.705  1.00  0.00     0.010 A 
ATOM     46  C   UNL     1       1.493   6.071   5.253  1.00  0.00     0.010 A 
ATOM     47  C   UNL     1       1.397   5.347   6.446  1.00  0.00    -0.014 A 
BRANCH  47  48
ATOM     48  C   UNL     1       0.530   5.819   7.524  1.00  0.00     0.031 A 
ATOM     49  C   UNL     1       1.265   6.575   8.564  1.00  0.00     0.074 A 
ATOM     50  C   UNL     1      -0.818   5.795   7.536  1.00  0.00     0.049 A 
ATOM     51  N   UNL     1       1.353   6.322   9.829  1.00  0.00    -0.248 NA
ATOM     52  C   UNL     1       2.096   7.696   8.095  1.00  0.00     0.031 C 
ATOM     53  C   UNL     1      -1.702   5.398   6.444  1.00  0.00     0.029 A 
ATOM     54  N   UNL     1      -1.685   6.281   8.482  1.00  0.00    -0.354 N 
ATOM     55  C   UNL     1       2.104   7.371  10.342  1.00  0.00     0.074 A 
ATOM     56  C   UNL     1       2.678   8.079   9.225  1.00  0.00     0.031 C 
ATOM     57  C   UNL     1      -2.948   5.854   6.691  1.00  0.00     0.029 A 
ATOM     58  C   UNL     1      -2.954   6.540   7.971  1.00  0.00     0.049 A 
ATOM     59  H   UNL     1      -1.436   6.431   9.422  1.00  0.00     0.167 HD
ATOM     60  C   UNL     1       2.026   7.780  11.633  1.00  0.00     0.034 A 
ATOM     61  C   UNL     1      -3.889   7.376   8.488  1.00  0.00     0.034 A 
ATOM     62  C   UNL     1       1.383   6.851  12.504  1.00  0.00     0.049 A 
ATOM     63  C   UNL     1      -3.578   7.565   9.925  1.00  0.00     0.074 A 
ATOM     64  C   UNL     1       1.603   5.536  12.857  1.00  0.00     0.029 A 
ATOM     65  N   UNL     1       0.107   7.153  12.910  1.00  0.00    -0.354 N 
ATOM     66  N   UNL     1      -3.661   6.626  10.827  1.00  0.00    -0.248 NA
ATOM     67  C   UNL     1      -2.836   8.750  10.329  1.00  0.00     0.031 C 
ATOM     68  C   UNL     1       0.310   4.986  13.079  1.00  0.00     0.029 A 
ATOM     69  C   UNL     1      -0.625   5.997  12.843  1.00  0.00     0.049 A 
ATOM     70  H   UNL     1      -0.221   8.036  13.196  1.00  0.00     0.167 HD
ATOM     71  C   UNL     1      -2.651   6.917  11.735  1.00  0.00     0.074 A 
ATOM     72  C   UNL     1      -2.276   8.297  11.453  1.00  0.00     0.031 C 
ATOM     73  C   UNL     1      -2.013   5.929  12.428  1.00  0.00     0.034 A 
BRANCH  60  74
ATOM     74  C   UNL     1       2.273   9.208  11.990  1.00  0.00     0.023 A 
ATOM     75  C   UNL     1       2.828   9.531  13.236  1.00  0.00     0.012 A 
ATOM     76  C   UNL     1       1.835  10.264  11.161  1.00  0.00     0.148 A 
ATOM     77  C   UNL     1       2.999  10.868  13.611  1.00  0.00     0.002 A 
ATOM     78  C   UNL     1       2.103  11.582  11.489  1.00  0.00     0.091 A 
ATOM     79  F   UNL     1       1.084   9.988  10.083  1.00  0.00    -0.205 F 
ATOM     80  C   UNL     1       2.672  11.893  12.724  1.00  0.00     0.022 A 
BRANCH  78  81
ATOM     81  S   UNL     1       1.822  12.884  10.289  1.00  0.00     0.127 S 
ATOM     82  O   UNL     1       0.479  13.331  10.642  1.00  0.00    -0.237 OA
ATOM     83  O   UNL     1       2.894  13.830  10.599  1.00  0.00    -0.237 OA
ATOM     84  O   UNL     1       1.973  12.223   8.997  1.00  0.00    -0.744 OA
ENDBRANCH  78  81
ENDBRANCH  60  74
BRANCH  61  85
ATOM     85  C   UNL     1      -4.909   8.188   7.765  1.00  0.00     0.023 A 
ATOM     86  C   UNL     1      -5.973   8.783   8.473  1.00  0.00     0.012 A 
ATOM     87  C   UNL     1      -4.752   8.559   6.409  1.00  0.00     0.148 A 
ATOM     88  C   UNL     1      -6.837   9.703   7.856  1.00  0.00     0.002 A 
ATOM     89  C   UNL     1      -5.643   9.430   5.786  1.00  0.00     0.091 A 
ATOM     90  F   UNL     1      -3.674   8.148   5.729  1.00  0.00    -0.205 F 
ATOM     91  C   UNL     1      -6.681  10.018   6.509  1.00  0.00     0.022 A 
BRANCH  89  92
ATOM     92  S   UNL     1      -5.482   9.779   4.029  1.00  0.00     0.127 S 
ATOM     93  O   UNL     1      -6.854  10.109   3.638  1.00  0.00    -0.237 OA
ATOM     94  O   UNL     1      -4.555  10.904   4.017  1.00  0.00    -0.237 OA
ATOM     95  O   UNL     1      -4.991   8.529   3.456  1.00  0.00    -0.744 OA
ENDBRANCH  89  92
ENDBRANCH  61  85
BRANCH  73  96
ATOM     96  C   UNL     1      -2.629   4.553  12.462  1.00  0.00     0.023 A 
ATOM     97  C   UNL     1      -2.742   3.773  11.292  1.00  0.00     0.012 A 
ATOM     98  C   UNL     1      -2.859   3.949  13.712  1.00  0.00     0.148 A 
ATOM     99  C   UNL     1      -3.083   2.421  11.366  1.00  0.00     0.002 A 
ATOM    100  C   UNL     1      -3.150   2.591  13.783  1.00  0.00     0.091 A 
ATOM    101  F   UNL     1      -2.724   4.702  14.814  1.00  0.00    -0.205 F 
ATOM    102  C   UNL     1      -3.272   1.827  12.612  1.00  0.00     0.022 A 
BRANCH 100 103
ATOM    103  S   UNL     1      -3.252   1.713  15.346  1.00  0.00     0.127 S 
ATOM    104  O   UNL     1      -4.644   1.268  15.359  1.00  0.00    -0.237 OA
ATOM    105  O   UNL     1      -2.270   0.643  15.158  1.00  0.00    -0.237 OA
ATOM    106  O   UNL     1      -2.900   2.677  16.381  1.00  0.00    -0.744 OA
ENDBRANCH 100 103
ENDBRANCH  73  96
ENDBRANCH  47  48
ENDBRANCH  40  42
ENDBRANCH  39  40
ENDBRANCH  38  39
ENDBRANCH  37  38
ENDBRANCH  36  37
ENDBRANCH  35  36
ENDBRANCH  34  35
ENDBRANCH  33  34
ENDBRANCH   1  33
TORSDOF 28
