REMARK SMILES NS(=O)(=O)c1ccc(-n2nc(C(F)F)cc2-c2ccc(C(=O)OCCOCCOCCOCCOC(=O)c3ccc(-c4c5nc(c(-c6cccc(S(=O)(=O)[O-])c6F)c6ccc([nH]6)c(-c6cccc(S(=O)(=O)[O-])c6F)c6nc(c(-c7cccc(S(=O)(=O)[O-])c7F)c7ccc4[nH]7)C=C6)C=C5)cc3)cc2)cc1
REMARK SMILES IDX 28 1 27 2 26 3 25 4 24 5 23 6 21 7 22 8 20 9 17 10 18 11
REMARK SMILES IDX 102 12 19 13 101 14 16 15 9 16 10 17 11 18 15 19 8 20 5 21
REMARK SMILES IDX 6 22 104 23 7 24 103 25 2 26 3 27 4 28 1 29 12 32 13 33
REMARK SMILES IDX 14 34 29 35 30 36 31 37 32 38 33 39 34 40 35 41 36 42 37 43
REMARK SMILES IDX 38 44 39 45 100 46 40 47 99 48 41 49 42 50 43 51 93 52 44 53
REMARK SMILES IDX 98 54 92 55 94 56 45 57 97 58 91 59 90 60 46 62 78 63 58 64
REMARK SMILES IDX 77 65 59 66 62 67 76 68 95 69 60 70 61 71 75 73 96 74 63 75
REMARK SMILES IDX 47 76 48 77 56 78 49 79 51 80 57 81 50 82 52 83 53 84 54 85
REMARK SMILES IDX 55 86 79 87 80 88 88 89 81 90 83 91 89 92 82 93 84 94 85 95
REMARK SMILES IDX 86 96 87 97 64 98 65 99 73 100 66 101 68 102 74 103 67 104
REMARK SMILES IDX 69 105 70 106 71 107 72 108
REMARK H PARENT 1 30 1 31 94 61 62 72
REMARK Flexibility Score: inf
ROOT
ATOM      1  C   UNL     1      -2.710  -5.837  -5.460  1.00  0.00     0.188 C 
ENDROOT
BRANCH   1   2
ATOM      2  C   UNL     1      -3.810  -4.766  -5.651  1.00  0.00     0.188 C 
BRANCH   2   3
ATOM      3  O   UNL     1      -5.041  -5.007  -6.330  1.00  0.00    -0.376 OA
BRANCH   3   4
ATOM      4  C   UNL     1      -5.210  -6.132  -7.173  1.00  0.00     0.202 C 
BRANCH   4   5
ATOM      5  C   UNL     1      -4.396  -6.200  -8.472  1.00  0.00     0.261 C 
BRANCH   5   6
ATOM      6  O   UNL     1      -3.090  -5.623  -8.399  1.00  0.00    -0.460 OA
BRANCH   6   7
ATOM      7  C   UNL     1      -3.017  -4.317  -8.742  1.00  0.00     0.338 C 
ATOM      8  O   UNL     1      -3.911  -3.617  -9.186  1.00  0.00    -0.246 OA
BRANCH   7   9
ATOM      9  C   UNL     1      -1.685  -3.793  -8.362  1.00  0.00     0.060 A 
ATOM     10  C   UNL     1       0.789  -2.683  -7.656  1.00  0.00     0.000 A 
ATOM     11  C   UNL     1      -0.395  -1.957  -7.463  1.00  0.00     0.011 A 
ATOM     12  C   UNL     1       0.719  -3.987  -8.164  1.00  0.00     0.011 A 
ATOM     13  C   UNL     1      -1.625  -2.503  -7.825  1.00  0.00     0.016 A 
ATOM     14  C   UNL     1      -0.516  -4.548  -8.506  1.00  0.00     0.016 A 
BRANCH  10  15
ATOM     15  C   UNL     1       2.077  -2.010  -7.491  1.00  0.00     0.075 A 
ATOM     16  N   UNL     1       2.473  -1.236  -6.406  1.00  0.00    -0.233 N 
ATOM     17  N   UNL     1       3.436  -0.344  -6.762  1.00  0.00    -0.166 NA
ATOM     18  C   UNL     1       3.843  -0.742  -7.979  1.00  0.00     0.129 A 
ATOM     19  C   UNL     1       3.029  -1.789  -8.467  1.00  0.00     0.060 A 
BRANCH  16  20
ATOM     20  C   UNL     1       1.988  -1.270  -5.071  1.00  0.00     0.065 A 
ATOM     21  C   UNL     1       1.014  -1.312  -2.459  1.00  0.00     0.082 A 
ATOM     22  C   UNL     1       1.092  -2.502  -3.187  1.00  0.00     0.024 A 
ATOM     23  C   UNL     1       1.453  -0.106  -3.013  1.00  0.00     0.024 A 
ATOM     24  C   UNL     1       1.559  -2.479  -4.503  1.00  0.00     0.030 A 
ATOM     25  C   UNL     1       1.966  -0.090  -4.313  1.00  0.00     0.030 A 
BRANCH  21  26
ATOM     26  S   UNL     1       0.366  -1.359  -0.814  1.00  0.00     0.238 S 
ATOM     27  O   UNL     1       0.748  -2.601  -0.191  1.00  0.00    -0.207 OA
ATOM     28  O   UNL     1      -1.004  -0.898  -0.861  1.00  0.00    -0.207 OA
BRANCH  26  29
ATOM     29  N   UNL     1       1.228  -0.168   0.002  1.00  0.00    -0.225 NA
ATOM     30  H   UNL     1       0.914  -0.126   0.971  1.00  0.00     0.137 HD
ATOM     31  H   UNL     1       1.069   0.734  -0.447  1.00  0.00     0.137 HD
ENDBRANCH  26  29
ENDBRANCH  21  26
ENDBRANCH  16  20
BRANCH  18  32
ATOM     32  C   UNL     1       4.962  -0.077  -8.722  1.00  0.00     0.393 C 
ATOM     33  F   UNL     1       4.915   1.281  -8.633  1.00  0.00    -0.203 F 
ATOM     34  F   UNL     1       6.180  -0.457  -8.250  1.00  0.00    -0.203 F 
ENDBRANCH  18  32
ENDBRANCH  10  15
ENDBRANCH   7   9
ENDBRANCH   6   7
ENDBRANCH   5   6
ENDBRANCH   4   5
ENDBRANCH   3   4
ENDBRANCH   2   3
ENDBRANCH   1   2
BRANCH   1  35
ATOM     35  O   UNL     1      -3.079  -7.165  -5.798  1.00  0.00    -0.377 OA
BRANCH  35  36
ATOM     36  C   UNL     1      -3.386  -7.999  -4.683  1.00  0.00     0.188 C 
BRANCH  36  37
ATOM     37  C   UNL     1      -4.575  -7.532  -3.822  1.00  0.00     0.188 C 
BRANCH  37  38
ATOM     38  O   UNL     1      -4.407  -6.213  -3.304  1.00  0.00    -0.376 OA
BRANCH  38  39
ATOM     39  C   UNL     1      -4.220  -6.078  -1.901  1.00  0.00     0.202 C 
BRANCH  39  40
ATOM     40  C   UNL     1      -2.761  -6.240  -1.479  1.00  0.00     0.261 C 
BRANCH  40  41
ATOM     41  O   UNL     1      -2.191  -7.493  -1.845  1.00  0.00    -0.460 OA
BRANCH  41  42
ATOM     42  C   UNL     1      -2.789  -8.587  -1.334  1.00  0.00     0.338 C 
ATOM     43  O   UNL     1      -3.818  -8.631  -0.683  1.00  0.00    -0.246 OA
BRANCH  42  44
ATOM     44  C   UNL     1      -1.979  -9.766  -1.652  1.00  0.00     0.060 A 
ATOM     45  C   UNL     1      -2.552 -11.013  -1.387  1.00  0.00     0.016 A 
ATOM     46  C   UNL     1      -0.621  -9.621  -1.972  1.00  0.00     0.016 A 
ATOM     47  C   UNL     1      -1.717 -12.095  -1.227  1.00  0.00     0.010 A 
ATOM     48  C   UNL     1       0.213 -10.702  -1.807  1.00  0.00     0.010 A 
ATOM     49  C   UNL     1      -0.339 -11.894  -1.341  1.00  0.00    -0.014 A 
BRANCH  49  50
ATOM     50  C   UNL     1       0.525 -12.926  -0.811  1.00  0.00     0.031 A 
ATOM     51  C   UNL     1       0.801 -14.066  -1.701  1.00  0.00     0.074 A 
ATOM     52  C   UNL     1       1.112 -12.776   0.392  1.00  0.00     0.049 A 
ATOM     53  N   UNL     1       0.516 -15.310  -1.502  1.00  0.00    -0.248 NA
ATOM     54  C   UNL     1       1.397 -13.775  -3.011  1.00  0.00     0.031 C 
ATOM     55  C   UNL     1       1.167 -11.552   1.201  1.00  0.00     0.029 A 
ATOM     56  N   UNL     1       1.919 -13.640   1.067  1.00  0.00    -0.354 N 
ATOM     57  C   UNL     1       1.103 -15.989  -2.563  1.00  0.00     0.074 A 
ATOM     58  C   UNL     1       1.482 -14.996  -3.536  1.00  0.00     0.031 C 
ATOM     59  C   UNL     1       2.162 -11.673   2.106  1.00  0.00     0.029 A 
ATOM     60  C   UNL     1       2.714 -13.014   2.016  1.00  0.00     0.049 A 
ATOM     61  H   UNL     1       1.937 -14.610   0.898  1.00  0.00     0.167 HD
ATOM     62  C   UNL     1       1.463 -17.294  -2.465  1.00  0.00     0.034 A 
ATOM     63  C   UNL     1       3.813 -13.530   2.612  1.00  0.00     0.034 A 
ATOM     64  C   UNL     1       0.839 -17.960  -1.355  1.00  0.00     0.049 A 
ATOM     65  C   UNL     1       3.770 -15.001   2.453  1.00  0.00     0.074 A 
ATOM     66  C   UNL     1      -0.460 -18.200  -0.957  1.00  0.00     0.029 A 
ATOM     67  N   UNL     1       1.630 -18.239  -0.269  1.00  0.00    -0.354 N 
ATOM     68  N   UNL     1       2.912 -15.780   3.051  1.00  0.00    -0.248 NA
ATOM     69  C   UNL     1       4.486 -15.602   1.339  1.00  0.00     0.031 C 
ATOM     70  C   UNL     1      -0.422 -18.211   0.467  1.00  0.00     0.029 A 
ATOM     71  C   UNL     1       0.898 -17.978   0.858  1.00  0.00     0.049 A 
ATOM     72  H   UNL     1       2.557 -18.569  -0.296  1.00  0.00     0.167 HD
ATOM     73  C   UNL     1       2.673 -16.802   2.142  1.00  0.00     0.074 A 
ATOM     74  C   UNL     1       3.773 -16.720   1.189  1.00  0.00     0.031 C 
ATOM     75  C   UNL     1       1.454 -17.419   2.075  1.00  0.00     0.034 A 
BRANCH  62  76
ATOM     76  C   UNL     1       2.645 -17.887  -3.182  1.00  0.00     0.023 A 
ATOM     77  C   UNL     1       2.739 -19.292  -3.250  1.00  0.00     0.012 A 
ATOM     78  C   UNL     1       3.781 -17.144  -3.573  1.00  0.00     0.148 A 
ATOM     79  C   UNL     1       3.912 -19.925  -3.672  1.00  0.00     0.002 A 
ATOM     80  C   UNL     1       4.908 -17.775  -4.084  1.00  0.00     0.091 A 
ATOM     81  F   UNL     1       3.842 -15.829  -3.331  1.00  0.00    -0.205 F 
ATOM     82  C   UNL     1       4.992 -19.167  -4.110  1.00  0.00     0.022 A 
BRANCH  80  83
ATOM     83  S   UNL     1       6.266 -16.804  -4.745  1.00  0.00     0.127 S 
ATOM     84  O   UNL     1       7.125 -16.656  -3.576  1.00  0.00    -0.237 OA
ATOM     85  O   UNL     1       6.791 -17.677  -5.796  1.00  0.00    -0.237 OA
ATOM     86  O   UNL     1       5.631 -15.591  -5.250  1.00  0.00    -0.744 OA
ENDBRANCH  80  83
ENDBRANCH  62  76
BRANCH  63  87
ATOM     87  C   UNL     1       5.003 -12.821   3.131  1.00  0.00     0.023 A 
ATOM     88  C   UNL     1       5.806 -13.437   4.108  1.00  0.00     0.012 A 
ATOM     89  C   UNL     1       5.487 -11.644   2.514  1.00  0.00     0.148 A 
ATOM     90  C   UNL     1       7.056 -12.909   4.449  1.00  0.00     0.002 A 
ATOM     91  C   UNL     1       6.720 -11.110   2.874  1.00  0.00     0.091 A 
ATOM     92  F   UNL     1       4.785 -11.100   1.510  1.00  0.00    -0.205 F 
ATOM     93  C   UNL     1       7.513 -11.747   3.834  1.00  0.00     0.022 A 
BRANCH  91  94
ATOM     94  S   UNL     1       7.353  -9.603   2.124  1.00  0.00     0.127 S 
ATOM     95  O   UNL     1       7.942  -8.910   3.271  1.00  0.00    -0.237 OA
ATOM     96  O   UNL     1       8.320 -10.124   1.162  1.00  0.00    -0.237 OA
ATOM     97  O   UNL     1       6.189  -8.930   1.559  1.00  0.00    -0.744 OA
ENDBRANCH  91  94
ENDBRANCH  63  87
BRANCH  75  98
ATOM     98  C   UNL     1       0.486 -17.217   3.216  1.00  0.00     0.023 A 
ATOM     99  C   UNL     1      -0.005 -15.938   3.551  1.00  0.00     0.012 A 
ATOM    100  C   UNL     1      -0.079 -18.343   3.843  1.00  0.00     0.148 A 
ATOM    101  C   UNL     1      -1.009 -15.781   4.508  1.00  0.00     0.002 A 
ATOM    102  C   UNL     1      -1.114 -18.186   4.760  1.00  0.00     0.091 A 
ATOM    103  F   UNL     1       0.385 -19.558   3.513  1.00  0.00    -0.205 F 
ATOM    104  C   UNL     1      -1.573 -16.906   5.104  1.00  0.00     0.022 A 
BRANCH 102 105
ATOM    105  S   UNL     1      -1.975 -19.604   5.449  1.00  0.00     0.127 S 
ATOM    106  O   UNL     1      -1.313 -19.770   6.740  1.00  0.00    -0.237 OA
ATOM    107  O   UNL     1      -3.359 -19.133   5.529  1.00  0.00    -0.237 OA
ATOM    108  O   UNL     1      -1.776 -20.685   4.489  1.00  0.00    -0.744 OA
ENDBRANCH 102 105
ENDBRANCH  75  98
ENDBRANCH  49  50
ENDBRANCH  42  44
ENDBRANCH  41  42
ENDBRANCH  40  41
ENDBRANCH  39  40
ENDBRANCH  38  39
ENDBRANCH  37  38
ENDBRANCH  36  37
ENDBRANCH  35  36
ENDBRANCH   1  35
TORSDOF 28
