REMARK SMILES CC[C@@H]1CCC[C@](CCCCCO)(C(=O)OCCOCCOCCOCCOC(=O)c2ccc(-c3c4nc(c(-c5cccc(S(=O)(=O)[O-])c5F)c5ccc([nH]5)c(-c5cccc(S(=O)(=O)[O-])c5F)c5nc(c(-c6cccc(S(=O)(=O)[O-])c6F)c6ccc3[nH]6)C=C5)C=C4)cc2)C1
REMARK SMILES IDX 20 1 19 2 18 3 17 4 16 5 14 6 15 7 7 8 3 9 4 10 94 11 5 12
REMARK SMILES IDX 6 13 2 14 1 15 8 16 9 17 10 18 11 19 12 20 13 21 21 23 22 24
REMARK SMILES IDX 23 25 24 26 25 27 26 28 27 29 28 30 29 31 30 32 31 33 32 34
REMARK SMILES IDX 93 35 33 36 92 37 34 38 35 39 36 40 86 41 37 42 91 43 85 44
REMARK SMILES IDX 87 45 38 46 90 47 84 48 83 49 39 51 71 52 51 53 70 54 52 55
REMARK SMILES IDX 55 56 69 57 88 58 53 59 54 60 68 62 89 63 56 64 40 65 41 66
REMARK SMILES IDX 49 67 42 68 44 69 50 70 43 71 45 72 46 73 47 74 48 75 72 76
REMARK SMILES IDX 73 77 81 78 74 79 76 80 82 81 75 82 77 83 78 84 79 85 80 86
REMARK SMILES IDX 57 87 58 88 66 89 59 90 61 91 67 92 60 93 62 94 63 95 64 96
REMARK SMILES IDX 65 97
REMARK H PARENT 13 22 87 50 55 61
REMARK Flexibility Score: inf
ROOT
ATOM      1  C   UNL     1      -0.124   6.986   1.271  1.00  0.00     0.188 C 
ENDROOT
BRANCH   1   2
ATOM      2  O   UNL     1       0.085   7.705   0.067  1.00  0.00    -0.376 OA
BRANCH   2   3
ATOM      3  C   UNL     1      -0.095   7.098  -1.207  1.00  0.00     0.202 C 
BRANCH   3   4
ATOM      4  C   UNL     1       0.119   5.599  -1.509  1.00  0.00     0.261 C 
BRANCH   4   5
ATOM      5  O   UNL     1       0.260   4.709  -0.395  1.00  0.00    -0.463 OA
BRANCH   5   6
ATOM      6  C   UNL     1       1.533   4.500   0.010  1.00  0.00     0.312 C 
ATOM      7  O   UNL     1       2.493   5.061  -0.512  1.00  0.00    -0.252 OA
BRANCH   6   8
ATOM      8  C   UNL     1       1.647   3.469   1.194  1.00  0.00     0.068 C 
ATOM      9  C   UNL     1       0.746   1.027   1.657  1.00  0.00    -0.010 C 
ATOM     10  C   UNL     1       0.010   1.520   2.913  1.00  0.00     0.003 C 
ATOM     11  C   UNL     1       1.075   2.138   0.637  1.00  0.00     0.022 C 
ATOM     12  C   UNL     1       0.566   2.814   3.485  1.00  0.00     0.001 C 
ATOM     13  C   UNL     1       0.767   3.847   2.389  1.00  0.00     0.019 C 
BRANCH   9  14
ATOM     14  C   UNL     1      -0.050  -0.141   1.040  1.00  0.00     0.000 C 
ATOM     15  C   UNL     1       0.520  -0.636  -0.280  1.00  0.00     0.004 C 
ENDBRANCH   9  14
BRANCH   8  16
ATOM     16  C   UNL     1       3.164   3.569   1.536  1.00  0.00     0.019 C 
BRANCH  16  17
ATOM     17  C   UNL     1       3.808   3.044   2.812  1.00  0.00     0.001 C 
BRANCH  17  18
ATOM     18  C   UNL     1       3.892   1.536   2.993  1.00  0.00     0.002 C 
BRANCH  18  19
ATOM     19  C   UNL     1       4.238   0.745   1.724  1.00  0.00     0.028 C 
BRANCH  19  20
ATOM     20  C   UNL     1       5.680   0.909   1.273  1.00  0.00     0.156 C 
BRANCH  20  21
ATOM     21  O   UNL     1       6.552   0.175   2.121  1.00  0.00    -0.396 OA
ATOM     22  H   UNL     1       6.473   0.506   3.030  1.00  0.00     0.210 HD
ENDBRANCH  20  21
ENDBRANCH  19  20
ENDBRANCH  18  19
ENDBRANCH  17  18
ENDBRANCH  16  17
ENDBRANCH   8  16
ENDBRANCH   6   8
ENDBRANCH   5   6
ENDBRANCH   4   5
ENDBRANCH   3   4
ENDBRANCH   2   3
ENDBRANCH   1   2
BRANCH   1  23
ATOM     23  C   UNL     1      -1.431   6.212   1.479  1.00  0.00     0.188 C 
BRANCH  23  24
ATOM     24  O   UNL     1      -2.096   5.898   0.280  1.00  0.00    -0.377 OA
BRANCH  24  25
ATOM     25  C   UNL     1      -3.238   6.694   0.009  1.00  0.00     0.188 C 
BRANCH  25  26
ATOM     26  C   UNL     1      -3.167   8.207   0.344  1.00  0.00     0.188 C 
BRANCH  26  27
ATOM     27  O   UNL     1      -2.588   8.556   1.598  1.00  0.00    -0.376 OA
BRANCH  27  28
ATOM     28  C   UNL     1      -3.397   8.732   2.754  1.00  0.00     0.202 C 
BRANCH  28  29
ATOM     29  C   UNL     1      -4.253   7.566   3.296  1.00  0.00     0.261 C 
BRANCH  29  30
ATOM     30  O   UNL     1      -5.103   6.909   2.351  1.00  0.00    -0.460 OA
BRANCH  30  31
ATOM     31  C   UNL     1      -6.052   7.669   1.769  1.00  0.00     0.338 C 
ATOM     32  O   UNL     1      -6.299   8.841   2.016  1.00  0.00    -0.246 OA
BRANCH  31  33
ATOM     33  C   UNL     1      -6.596   6.928   0.615  1.00  0.00     0.060 A 
ATOM     34  C   UNL     1      -6.524   7.531  -0.648  1.00  0.00     0.016 A 
ATOM     35  C   UNL     1      -7.161   5.657   0.764  1.00  0.00     0.016 A 
ATOM     36  C   UNL     1      -7.078   6.901  -1.754  1.00  0.00     0.010 A 
ATOM     37  C   UNL     1      -7.751   5.040  -0.342  1.00  0.00     0.010 A 
ATOM     38  C   UNL     1      -7.763   5.693  -1.588  1.00  0.00    -0.014 A 
BRANCH  38  39
ATOM     39  C   UNL     1      -8.734   5.303  -2.635  1.00  0.00     0.031 A 
ATOM     40  C   UNL     1     -10.170   5.713  -2.438  1.00  0.00     0.074 A 
ATOM     41  C   UNL     1      -8.350   4.676  -3.759  1.00  0.00     0.049 A 
ATOM     42  N   UNL     1     -11.199   5.537  -3.222  1.00  0.00    -0.248 NA
ATOM     43  C   UNL     1     -10.484   6.424  -1.185  1.00  0.00     0.031 C 
ATOM     44  C   UNL     1      -6.985   4.265  -4.077  1.00  0.00     0.029 A 
ATOM     45  N   UNL     1      -9.088   4.272  -4.842  1.00  0.00    -0.354 N 
ATOM     46  C   UNL     1     -12.285   6.078  -2.543  1.00  0.00     0.074 A 
ATOM     47  C   UNL     1     -11.794   6.579  -1.281  1.00  0.00     0.031 C 
ATOM     48  C   UNL     1      -6.986   3.647  -5.272  1.00  0.00     0.029 A 
ATOM     49  C   UNL     1      -8.353   3.602  -5.789  1.00  0.00     0.049 A 
ATOM     50  H   UNL     1     -10.053   4.446  -4.932  1.00  0.00     0.167 HD
ATOM     51  C   UNL     1     -13.576   6.160  -2.938  1.00  0.00     0.034 A 
ATOM     52  C   UNL     1      -8.748   3.009  -6.933  1.00  0.00     0.034 A 
ATOM     53  C   UNL     1     -14.057   5.674  -4.201  1.00  0.00     0.049 A 
ATOM     54  C   UNL     1     -10.200   3.086  -7.336  1.00  0.00     0.074 A 
ATOM     55  C   UNL     1     -15.338   5.743  -4.717  1.00  0.00     0.029 A 
ATOM     56  N   UNL     1     -13.281   5.011  -5.138  1.00  0.00    -0.354 N 
ATOM     57  N   UNL     1     -11.198   3.683  -6.730  1.00  0.00    -0.248 NA
ATOM     58  C   UNL     1     -10.570   2.438  -8.603  1.00  0.00     0.031 C 
ATOM     59  C   UNL     1     -15.347   5.079  -5.947  1.00  0.00     0.029 A 
ATOM     60  C   UNL     1     -14.058   4.650  -6.224  1.00  0.00     0.049 A 
ATOM     61  H   UNL     1     -12.319   4.824  -5.045  1.00  0.00     0.167 HD
ATOM     62  C   UNL     1     -12.300   3.531  -7.567  1.00  0.00     0.074 A 
ATOM     63  C   UNL     1     -11.842   2.792  -8.726  1.00  0.00     0.031 C 
ATOM     64  C   UNL     1     -13.575   3.962  -7.394  1.00  0.00     0.034 A 
BRANCH  51  65
ATOM     65  C   UNL     1     -14.558   6.785  -1.983  1.00  0.00     0.023 A 
ATOM     66  C   UNL     1     -14.513   8.170  -1.720  1.00  0.00     0.012 A 
ATOM     67  C   UNL     1     -15.546   5.996  -1.364  1.00  0.00     0.148 A 
ATOM     68  C   UNL     1     -15.411   8.751  -0.825  1.00  0.00     0.002 A 
ATOM     69  C   UNL     1     -16.470   6.590  -0.515  1.00  0.00     0.091 A 
ATOM     70  F   UNL     1     -15.553   4.677  -1.603  1.00  0.00    -0.205 F 
ATOM     71  C   UNL     1     -16.396   7.964  -0.233  1.00  0.00     0.022 A 
BRANCH  69  72
ATOM     72  S   UNL     1     -17.825   5.677   0.228  1.00  0.00     0.127 S 
ATOM     73  O   UNL     1     -17.432   5.661   1.637  1.00  0.00    -0.237 OA
ATOM     74  O   UNL     1     -18.973   6.531  -0.075  1.00  0.00    -0.237 OA
ATOM     75  O   UNL     1     -17.843   4.378  -0.429  1.00  0.00    -0.744 OA
ENDBRANCH  69  72
ENDBRANCH  51  65
BRANCH  52  76
ATOM     76  C   UNL     1      -7.754   2.320  -7.802  1.00  0.00     0.023 A 
ATOM     77  C   UNL     1      -7.445   2.854  -9.069  1.00  0.00     0.012 A 
ATOM     78  C   UNL     1      -7.116   1.137  -7.381  1.00  0.00     0.148 A 
ATOM     79  C   UNL     1      -6.548   2.202  -9.916  1.00  0.00     0.002 A 
ATOM     80  C   UNL     1      -6.182   0.523  -8.207  1.00  0.00     0.091 A 
ATOM     81  F   UNL     1      -7.433   0.640  -6.178  1.00  0.00    -0.205 F 
ATOM     82  C   UNL     1      -5.911   1.043  -9.482  1.00  0.00     0.022 A 
BRANCH  80  83
ATOM     83  S   UNL     1      -5.225  -0.905  -7.688  1.00  0.00     0.127 S 
ATOM     84  O   UNL     1      -5.715  -1.939  -8.595  1.00  0.00    -0.237 OA
ATOM     85  O   UNL     1      -3.857  -0.455  -7.946  1.00  0.00    -0.237 OA
ATOM     86  O   UNL     1      -5.540  -1.103  -6.280  1.00  0.00    -0.744 OA
ENDBRANCH  80  83
ENDBRANCH  52  76
BRANCH  64  87
ATOM     87  C   UNL     1     -14.556   3.720  -8.513  1.00  0.00     0.023 A 
ATOM     88  C   UNL     1     -15.009   2.418  -8.800  1.00  0.00     0.012 A 
ATOM     89  C   UNL     1     -15.078   4.809  -9.242  1.00  0.00     0.148 A 
ATOM     90  C   UNL     1     -15.928   2.198  -9.827  1.00  0.00     0.002 A 
ATOM     91  C   UNL     1     -16.037   4.588 -10.222  1.00  0.00     0.091 A 
ATOM     92  F   UNL     1     -14.624   6.040  -8.965  1.00  0.00    -0.205 F 
ATOM     93  C   UNL     1     -16.450   3.283 -10.528  1.00  0.00     0.022 A 
BRANCH  91  94
ATOM     94  S   UNL     1     -16.840   5.935 -11.098  1.00  0.00     0.127 S 
ATOM     95  O   UNL     1     -16.227   5.836 -12.421  1.00  0.00    -0.237 OA
ATOM     96  O   UNL     1     -18.248   5.542 -11.047  1.00  0.00    -0.237 OA
ATOM     97  O   UNL     1     -16.525   7.145 -10.351  1.00  0.00    -0.744 OA
ENDBRANCH  91  94
ENDBRANCH  64  87
ENDBRANCH  38  39
ENDBRANCH  31  33
ENDBRANCH  30  31
ENDBRANCH  29  30
ENDBRANCH  28  29
ENDBRANCH  27  28
ENDBRANCH  26  27
ENDBRANCH  25  26
ENDBRANCH  24  25
ENDBRANCH  23  24
ENDBRANCH   1  23
TORSDOF 30
