REMARK SMILES O=C(N[C@@H](CS)C(=O)N[C@@H](CO)C(=O)OCCOCCOCCOCCOC(=O)c1ccc(-c2c3nc(c(-c4cccc(S(=O)(=O)[O-])c4F)c4ccc([nH]4)c(-c4cccc(S(=O)(=O)[O-])c4F)c4nc(c(-c5cccc(S(=O)(=O)[O-])c5F)c5ccc2[nH]5)C=C4)C=C3)cc1)c1ccc(F)cc1
REMARK SMILES IDX 20 1 19 2 18 3 17 4 16 5 15 6 13 7 14 8 10 9 9 10 7 11 8 12
REMARK SMILES IDX 4 14 3 15 1 16 2 17 93 19 94 20 99 21 95 22 98 23 96 24
REMARK SMILES IDX 97 25 5 26 6 27 11 29 12 30 21 32 22 33 23 34 24 35 25 36
REMARK SMILES IDX 26 37 27 38 28 39 29 40 30 41 31 42 92 43 32 44 91 45 33 46
REMARK SMILES IDX 34 47 35 48 85 49 36 50 90 51 84 52 86 53 37 54 89 55 83 56
REMARK SMILES IDX 82 57 38 59 70 60 50 61 69 62 51 63 54 64 68 65 87 66 52 67
REMARK SMILES IDX 53 68 67 70 88 71 55 72 39 73 40 74 48 75 41 76 43 77 49 78
REMARK SMILES IDX 42 79 44 80 45 81 46 82 47 83 71 84 72 85 80 86 73 87 75 88
REMARK SMILES IDX 81 89 74 90 76 91 77 92 78 93 79 94 56 95 57 96 65 97 58 98
REMARK SMILES IDX 60 99 66 100 59 101 61 102 62 103 63 104 64 105
REMARK H PARENT 9 13 3 18 6 28 12 31 86 58 54 69
REMARK Flexibility Score: inf
ROOT
ATOM      1  C   UNL     1       6.596  -4.694   0.808  1.00  0.00     0.188 C 
ENDROOT
BRANCH   1   2
ATOM      2  C   UNL     1       6.115  -5.107   2.207  1.00  0.00     0.188 C 
BRANCH   2   3
ATOM      3  O   UNL     1       6.276  -6.443   2.656  1.00  0.00    -0.376 OA
BRANCH   3   4
ATOM      4  C   UNL     1       5.977  -7.516   1.769  1.00  0.00     0.202 C 
BRANCH   4   5
ATOM      5  C   UNL     1       4.676  -7.522   0.941  1.00  0.00     0.261 C 
BRANCH   5   6
ATOM      6  O   UNL     1       4.350  -6.299   0.248  1.00  0.00    -0.462 OA
BRANCH   6   7
ATOM      7  C   UNL     1       3.180  -5.697   0.582  1.00  0.00     0.331 C 
ATOM      8  O   UNL     1       2.400  -6.114   1.435  1.00  0.00    -0.250 OA
BRANCH   7   9
ATOM      9  C   UNL     1       2.870  -4.425  -0.241  1.00  0.00     0.218 C 
BRANCH   9  10
ATOM     10  N   UNL     1       3.952  -3.773  -0.996  1.00  0.00    -0.339 N 
ATOM     11  C   UNL     1       4.532  -2.545  -0.896  1.00  0.00     0.244 C 
ATOM     12  O   UNL     1       5.521  -2.333  -1.610  1.00  0.00    -0.273 OA
ATOM     13  H   UNL     1       4.331  -4.334  -1.711  1.00  0.00     0.164 HD
BRANCH  11  14
ATOM     14  C   UNL     1       4.109  -1.449   0.108  1.00  0.00     0.181 C 
BRANCH  14  15
ATOM     15  N   UNL     1       2.699  -1.069   0.027  1.00  0.00    -0.339 N 
ATOM     16  O   UNL     1       0.909   0.281   0.042  1.00  0.00    -0.269 OA
ATOM     17  C   UNL     1       2.131   0.179  -0.023  1.00  0.00     0.251 C 
ATOM     18  H   UNL     1       2.063  -1.820   0.005  1.00  0.00     0.164 HD
BRANCH  17  19
ATOM     19  C   UNL     1       2.957   1.408  -0.095  1.00  0.00     0.040 A 
ATOM     20  C   UNL     1       3.971   1.577  -1.048  1.00  0.00     0.017 A 
ATOM     21  C   UNL     1       2.659   2.448   0.796  1.00  0.00     0.017 A 
ATOM     22  C   UNL     1       4.747   2.739  -1.041  1.00  0.00     0.040 A 
ATOM     23  C   UNL     1       3.418   3.620   0.781  1.00  0.00     0.040 A 
ATOM     24  C   UNL     1       4.466   3.746  -0.124  1.00  0.00     0.123 A 
ATOM     25  F   UNL     1       5.209   4.861  -0.120  1.00  0.00    -0.207 F 
ENDBRANCH  17  19
ENDBRANCH  14  15
BRANCH  14  26
ATOM     26  C   UNL     1       4.669  -1.594   1.535  1.00  0.00     0.101 C 
BRANCH  26  27
ATOM     27  S   UNL     1       3.644  -2.446   2.774  1.00  0.00    -0.177 SA
ATOM     28  H   UNL     1       2.512  -1.726   2.999  1.00  0.00     0.102 HD
ENDBRANCH  26  27
ENDBRANCH  14  26
ENDBRANCH  11  14
ENDBRANCH   9  10
BRANCH   9  29
ATOM     29  C   UNL     1       1.729  -4.780  -1.198  1.00  0.00     0.193 C 
BRANCH  29  30
ATOM     30  O   UNL     1       2.155  -5.707  -2.189  1.00  0.00    -0.394 OA
ATOM     31  H   UNL     1       2.871  -5.315  -2.713  1.00  0.00     0.210 HD
ENDBRANCH  29  30
ENDBRANCH   9  29
ENDBRANCH   7   9
ENDBRANCH   6   7
ENDBRANCH   5   6
ENDBRANCH   4   5
ENDBRANCH   3   4
ENDBRANCH   2   3
ENDBRANCH   1   2
BRANCH   1  32
ATOM     32  O   UNL     1       7.010  -5.750  -0.026  1.00  0.00    -0.377 OA
BRANCH  32  33
ATOM     33  C   UNL     1       8.410  -5.963  -0.112  1.00  0.00     0.188 C 
BRANCH  33  34
ATOM     34  C   UNL     1       9.228  -5.740   1.174  1.00  0.00     0.188 C 
BRANCH  34  35
ATOM     35  O   UNL     1       9.098  -4.427   1.716  1.00  0.00    -0.376 OA
BRANCH  35  36
ATOM     36  C   UNL     1      10.081  -3.458   1.375  1.00  0.00     0.202 C 
BRANCH  36  37
ATOM     37  C   UNL     1      10.145  -2.981  -0.086  1.00  0.00     0.261 C 
BRANCH  37  38
ATOM     38  O   UNL     1      10.449  -3.969  -1.084  1.00  0.00    -0.460 OA
BRANCH  38  39
ATOM     39  C   UNL     1      11.545  -4.743  -0.939  1.00  0.00     0.338 C 
ATOM     40  O   UNL     1      12.400  -4.650  -0.076  1.00  0.00    -0.246 OA
BRANCH  39  41
ATOM     41  C   UNL     1      11.401  -5.879  -1.877  1.00  0.00     0.060 A 
ATOM     42  C   UNL     1      11.369  -7.185  -1.365  1.00  0.00     0.016 A 
ATOM     43  C   UNL     1      11.235  -5.656  -3.246  1.00  0.00     0.016 A 
ATOM     44  C   UNL     1      11.174  -8.270  -2.222  1.00  0.00     0.010 A 
ATOM     45  C   UNL     1      11.075  -6.746  -4.106  1.00  0.00     0.010 A 
ATOM     46  C   UNL     1      11.061  -8.059  -3.601  1.00  0.00    -0.014 A 
BRANCH  46  47
ATOM     47  C   UNL     1      11.110  -9.204  -4.540  1.00  0.00     0.031 A 
ATOM     48  C   UNL     1      12.431  -9.556  -5.164  1.00  0.00     0.074 A 
ATOM     49  C   UNL     1      10.003  -9.896  -4.866  1.00  0.00     0.049 A 
ATOM     50  N   UNL     1      12.706 -10.442  -6.083  1.00  0.00    -0.248 NA
ATOM     51  C   UNL     1      13.601  -8.799  -4.685  1.00  0.00     0.031 C 
ATOM     52  C   UNL     1       8.668  -9.666  -4.317  1.00  0.00     0.029 A 
ATOM     53  N   UNL     1       9.826 -10.913  -5.772  1.00  0.00    -0.354 N 
ATOM     54  C   UNL     1      14.070 -10.327  -6.320  1.00  0.00     0.074 A 
ATOM     55  C   UNL     1      14.568  -9.285  -5.449  1.00  0.00     0.031 C 
ATOM     56  C   UNL     1       7.799 -10.491  -4.929  1.00  0.00     0.029 A 
ATOM     57  C   UNL     1       8.510 -11.279  -5.935  1.00  0.00     0.049 A 
ATOM     58  H   UNL     1      10.569 -11.339  -6.258  1.00  0.00     0.167 HD
ATOM     59  C   UNL     1      14.842 -11.030  -7.182  1.00  0.00     0.034 A 
ATOM     60  C   UNL     1       7.943 -12.123  -6.822  1.00  0.00     0.034 A 
ATOM     61  C   UNL     1      14.347 -12.066  -8.046  1.00  0.00     0.049 A 
ATOM     62  C   UNL     1       8.817 -12.853  -7.812  1.00  0.00     0.074 A 
ATOM     63  C   UNL     1      15.059 -12.866  -8.922  1.00  0.00     0.029 A 
ATOM     64  N   UNL     1      13.015 -12.430  -8.163  1.00  0.00    -0.354 N 
ATOM     65  N   UNL     1      10.121 -12.822  -7.946  1.00  0.00    -0.248 NA
ATOM     66  C   UNL     1       8.141 -13.754  -8.760  1.00  0.00     0.031 C 
ATOM     67  C   UNL     1      14.151 -13.686  -9.599  1.00  0.00     0.029 A 
ATOM     68  C   UNL     1      12.879 -13.425  -9.115  1.00  0.00     0.049 A 
ATOM     69  H   UNL     1      12.275 -12.038  -7.646  1.00  0.00     0.167 HD
ATOM     70  C   UNL     1      10.424 -13.717  -8.968  1.00  0.00     0.074 A 
ATOM     71  C   UNL     1       9.168 -14.294  -9.402  1.00  0.00     0.031 C 
ATOM     72  C   UNL     1      11.629 -14.025  -9.508  1.00  0.00     0.034 A 
BRANCH  59  73
ATOM     73  C   UNL     1      16.309 -10.699  -7.230  1.00  0.00     0.023 A 
ATOM     74  C   UNL     1      17.148 -11.068  -6.159  1.00  0.00     0.012 A 
ATOM     75  C   UNL     1      16.865 -10.064  -8.358  1.00  0.00     0.148 A 
ATOM     76  C   UNL     1      18.512 -10.781  -6.195  1.00  0.00     0.002 A 
ATOM     77  C   UNL     1      18.232  -9.824  -8.407  1.00  0.00     0.091 A 
ATOM     78  F   UNL     1      16.046  -9.699  -9.354  1.00  0.00    -0.205 F 
ATOM     79  C   UNL     1      19.055 -10.170  -7.322  1.00  0.00     0.022 A 
BRANCH  77  80
ATOM     80  S   UNL     1      19.039  -9.112  -9.844  1.00  0.00     0.127 S 
ATOM     81  O   UNL     1      19.441  -7.801  -9.337  1.00  0.00    -0.237 OA
ATOM     82  O   UNL     1      20.144 -10.044 -10.067  1.00  0.00    -0.237 OA
ATOM     83  O   UNL     1      18.037  -9.091 -10.900  1.00  0.00    -0.744 OA
ENDBRANCH  77  80
ENDBRANCH  59  73
BRANCH  60  84
ATOM     84  C   UNL     1       6.466 -12.330  -6.821  1.00  0.00     0.023 A 
ATOM     85  C   UNL     1       5.938 -13.581  -6.447  1.00  0.00     0.012 A 
ATOM     86  C   UNL     1       5.584 -11.297  -7.193  1.00  0.00     0.148 A 
ATOM     87  C   UNL     1       4.561 -13.809  -6.474  1.00  0.00     0.002 A 
ATOM     88  C   UNL     1       4.212 -11.512  -7.163  1.00  0.00     0.091 A 
ATOM     89  F   UNL     1       6.107 -10.120  -7.566  1.00  0.00    -0.205 F 
ATOM     90  C   UNL     1       3.698 -12.773  -6.822  1.00  0.00     0.022 A 
BRANCH  88  91
ATOM     91  S   UNL     1       3.022 -10.203  -7.477  1.00  0.00     0.127 S 
ATOM     92  O   UNL     1       2.430 -10.634  -8.741  1.00  0.00    -0.237 OA
ATOM     93  O   UNL     1       2.142 -10.314  -6.314  1.00  0.00    -0.237 OA
ATOM     94  O   UNL     1       3.796  -8.970  -7.530  1.00  0.00    -0.744 OA
ENDBRANCH  88  91
ENDBRANCH  60  84
BRANCH  72  95
ATOM     95  C   UNL     1      11.668 -15.055 -10.609  1.00  0.00     0.023 A 
ATOM     96  C   UNL     1      11.174 -14.734 -11.889  1.00  0.00     0.012 A 
ATOM     97  C   UNL     1      12.271 -16.311 -10.398  1.00  0.00     0.148 A 
ATOM     98  C   UNL     1      11.251 -15.657 -12.932  1.00  0.00     0.002 A 
ATOM     99  C   UNL     1      12.392 -17.206 -11.454  1.00  0.00     0.091 A 
ATOM    100  F   UNL     1      12.724 -16.603  -9.170  1.00  0.00    -0.205 F 
ATOM    101  C   UNL     1      11.871 -16.886 -12.718  1.00  0.00     0.022 A 
BRANCH  99 102
ATOM    102  S   UNL     1      13.259 -18.772 -11.302  1.00  0.00     0.127 S 
ATOM    103  O   UNL     1      12.163 -19.732 -11.421  1.00  0.00    -0.237 OA
ATOM    104  O   UNL     1      14.166 -18.736 -12.449  1.00  0.00    -0.237 OA
ATOM    105  O   UNL     1      13.921 -18.743 -10.004  1.00  0.00    -0.744 OA
ENDBRANCH  99 102
ENDBRANCH  72  95
ENDBRANCH  46  47
ENDBRANCH  39  41
ENDBRANCH  38  39
ENDBRANCH  37  38
ENDBRANCH  36  37
ENDBRANCH  35  36
ENDBRANCH  34  35
ENDBRANCH  33  34
ENDBRANCH  32  33
ENDBRANCH   1  32
TORSDOF 31
