REMARK SMILES O=C(OCCOCCOCCOCCOC(=O)c1nccnc1C(=O)N1CCC(Cc2ccccc2)CC1)c1ccc(-c2c3nc(c(-c4cccc(S(=O)(=O)[O-])c4F)c4ccc([nH]4)c(-c4cccc(S(=O)(=O)[O-])c4F)c4nc(c(-c5cccc(S(=O)(=O)[O-])c5F)c5ccc2[nH]5)C=C4)C=C3)cc1
REMARK SMILES IDX 9 1 8 2 7 3 6 4 5 5 4 6 3 7 2 8 1 9 39 10 40 11 101 12 41 13
REMARK SMILES IDX 100 14 42 15 43 16 44 17 94 18 45 19 99 20 93 21 95 22 46 23
REMARK SMILES IDX 98 24 92 25 91 26 47 28 79 29 59 30 78 31 60 32 63 33 77 34
REMARK SMILES IDX 96 35 61 36 62 37 76 39 97 40 64 41 48 42 49 43 57 44 50 45
REMARK SMILES IDX 52 46 58 47 51 48 53 49 54 50 55 51 56 52 80 53 81 54 89 55
REMARK SMILES IDX 82 56 84 57 90 58 83 59 85 60 86 61 87 62 88 63 65 64 66 65
REMARK SMILES IDX 74 66 67 67 69 68 75 69 68 70 70 71 71 72 72 73 73 74 10 75
REMARK SMILES IDX 11 76 12 77 13 78 14 79 15 80 16 81 17 82 18 83 19 84 23 85
REMARK SMILES IDX 20 86 22 87 21 88 24 89 25 90 26 91 27 92 38 93 28 94 37 95
REMARK SMILES IDX 29 96 30 97 31 98 32 99 36 100 33 101 35 102 34 103
REMARK H PARENT 95 27 63 38
REMARK Flexibility Score: inf
ROOT
ATOM      1  O   UNL     1       1.546   1.888  -3.518  1.00  0.00    -0.377 OA
ENDROOT
BRANCH   1   2
ATOM      2  C   UNL     1       0.878   1.776  -2.265  1.00  0.00     0.188 C 
BRANCH   2   3
ATOM      3  C   UNL     1       1.391   0.657  -1.356  1.00  0.00     0.188 C 
BRANCH   3   4
ATOM      4  O   UNL     1       2.809   0.680  -1.141  1.00  0.00    -0.376 OA
BRANCH   4   5
ATOM      5  C   UNL     1       3.465  -0.552  -1.461  1.00  0.00     0.202 C 
BRANCH   5   6
ATOM      6  C   UNL     1       3.513  -1.517  -0.275  1.00  0.00     0.261 C 
BRANCH   6   7
ATOM      7  O   UNL     1       2.176  -1.826   0.165  1.00  0.00    -0.460 OA
BRANCH   7   8
ATOM      8  C   UNL     1       1.510  -1.185   1.159  1.00  0.00     0.338 C 
ATOM      9  O   UNL     1       0.288  -1.255   1.237  1.00  0.00    -0.246 OA
BRANCH   8  10
ATOM     10  C   UNL     1       2.263  -0.508   2.238  1.00  0.00     0.060 A 
ATOM     11  C   UNL     1       3.030   0.641   2.039  1.00  0.00     0.016 A 
ATOM     12  C   UNL     1       2.115  -1.018   3.528  1.00  0.00     0.016 A 
ATOM     13  C   UNL     1       3.776   1.177   3.091  1.00  0.00     0.010 A 
ATOM     14  C   UNL     1       2.801  -0.430   4.595  1.00  0.00     0.010 A 
ATOM     15  C   UNL     1       3.698   0.630   4.378  1.00  0.00    -0.014 A 
BRANCH  15  16
ATOM     16  C   UNL     1       4.644   1.051   5.455  1.00  0.00     0.031 A 
ATOM     17  C   UNL     1       5.545   0.011   6.078  1.00  0.00     0.074 A 
ATOM     18  C   UNL     1       4.763   2.337   5.845  1.00  0.00     0.049 A 
ATOM     19  N   UNL     1       6.307   0.093   7.137  1.00  0.00    -0.248 NA
ATOM     20  C   UNL     1       5.565  -1.317   5.437  1.00  0.00     0.031 C 
ATOM     21  C   UNL     1       4.037   3.469   5.273  1.00  0.00     0.029 A 
ATOM     22  N   UNL     1       5.587   2.915   6.781  1.00  0.00    -0.354 N 
ATOM     23  C   UNL     1       6.793  -1.190   7.355  1.00  0.00     0.074 A 
ATOM     24  C   UNL     1       6.260  -2.031   6.308  1.00  0.00     0.031 C 
ATOM     25  C   UNL     1       4.536   4.609   5.778  1.00  0.00     0.029 A 
ATOM     26  C   UNL     1       5.548   4.292   6.782  1.00  0.00     0.049 A 
ATOM     27  H   UNL     1       6.154   2.393   7.394  1.00  0.00     0.167 HD
ATOM     28  C   UNL     1       7.613  -1.628   8.338  1.00  0.00     0.034 A 
ATOM     29  C   UNL     1       6.264   5.187   7.496  1.00  0.00     0.034 A 
ATOM     30  C   UNL     1       8.269  -0.762   9.278  1.00  0.00     0.049 A 
ATOM     31  C   UNL     1       7.236   4.685   8.536  1.00  0.00     0.074 A 
ATOM     32  C   UNL     1       9.105  -1.103  10.326  1.00  0.00     0.029 A 
ATOM     33  N   UNL     1       8.199   0.622   9.253  1.00  0.00    -0.354 N 
ATOM     34  N   UNL     1       7.622   3.458   8.790  1.00  0.00    -0.248 NA
ATOM     35  C   UNL     1       7.870   5.699   9.393  1.00  0.00     0.031 C 
ATOM     36  C   UNL     1       9.533   0.077  10.943  1.00  0.00     0.029 A 
ATOM     37  C   UNL     1       8.984   1.152  10.262  1.00  0.00     0.049 A 
ATOM     38  H   UNL     1       7.669   1.149   8.613  1.00  0.00     0.167 HD
ATOM     39  C   UNL     1       8.537   3.551   9.833  1.00  0.00     0.074 A 
ATOM     40  C   UNL     1       8.696   4.960  10.123  1.00  0.00     0.031 C 
ATOM     41  C   UNL     1       9.160   2.558  10.516  1.00  0.00     0.034 A 
BRANCH  28  42
ATOM     42  C   UNL     1       7.813  -3.114   8.470  1.00  0.00     0.023 A 
ATOM     43  C   UNL     1       8.617  -3.823   7.557  1.00  0.00     0.012 A 
ATOM     44  C   UNL     1       7.203  -3.805   9.537  1.00  0.00     0.148 A 
ATOM     45  C   UNL     1       8.777  -5.204   7.682  1.00  0.00     0.002 A 
ATOM     46  C   UNL     1       7.408  -5.171   9.684  1.00  0.00     0.091 A 
ATOM     47  F   UNL     1       6.420  -3.116  10.380  1.00  0.00    -0.205 F 
ATOM     48  C   UNL     1       8.183  -5.875   8.749  1.00  0.00     0.022 A 
BRANCH  46  49
ATOM     49  S   UNL     1       6.751  -6.100  11.073  1.00  0.00     0.127 S 
ATOM     50  O   UNL     1       5.693  -6.879  10.433  1.00  0.00    -0.237 OA
ATOM     51  O   UNL     1       7.913  -6.881  11.497  1.00  0.00    -0.237 OA
ATOM     52  O   UNL     1       6.301  -5.109  12.042  1.00  0.00    -0.744 OA
ENDBRANCH  46  49
ENDBRANCH  28  42
BRANCH  29  53
ATOM     53  C   UNL     1       6.159   6.651   7.206  1.00  0.00     0.023 A 
ATOM     54  C   UNL     1       7.301   7.342   6.751  1.00  0.00     0.012 A 
ATOM     55  C   UNL     1       4.953   7.361   7.345  1.00  0.00     0.148 A 
ATOM     56  C   UNL     1       7.248   8.707   6.462  1.00  0.00     0.002 A 
ATOM     57  C   UNL     1       4.885   8.700   6.973  1.00  0.00     0.091 A 
ATOM     58  F   UNL     1       3.882   6.715   7.829  1.00  0.00    -0.205 F 
ATOM     59  C   UNL     1       6.035   9.382   6.553  1.00  0.00     0.022 A 
BRANCH  57  60
ATOM     60  S   UNL     1       3.313   9.564   6.879  1.00  0.00     0.127 S 
ATOM     61  O   UNL     1       3.286  10.285   8.147  1.00  0.00    -0.237 OA
ATOM     62  O   UNL     1       3.489  10.404   5.693  1.00  0.00    -0.237 OA
ATOM     63  O   UNL     1       2.317   8.511   6.712  1.00  0.00    -0.744 OA
ENDBRANCH  57  60
ENDBRANCH  29  53
BRANCH  41  64
ATOM     64  C   UNL     1      10.055   2.952  11.664  1.00  0.00     0.023 A 
ATOM     65  C   UNL     1       9.478   3.453  12.849  1.00  0.00     0.012 A 
ATOM     66  C   UNL     1      11.447   2.745  11.608  1.00  0.00     0.148 A 
ATOM     67  C   UNL     1      10.274   3.776  13.947  1.00  0.00     0.002 A 
ATOM     68  C   UNL     1      12.229   3.023  12.724  1.00  0.00     0.091 A 
ATOM     69  F   UNL     1      11.980   2.281  10.469  1.00  0.00    -0.205 F 
ATOM     70  C   UNL     1      11.647   3.550  13.888  1.00  0.00     0.022 A 
BRANCH  68  71
ATOM     71  S   UNL     1      13.991   2.672  12.778  1.00  0.00     0.127 S 
ATOM     72  O   UNL     1      14.564   4.015  12.710  1.00  0.00    -0.237 OA
ATOM     73  O   UNL     1      14.136   2.013  14.077  1.00  0.00    -0.237 OA
ATOM     74  O   UNL     1      14.263   1.816  11.632  1.00  0.00    -0.744 OA
ENDBRANCH  68  71
ENDBRANCH  41  64
ENDBRANCH  15  16
ENDBRANCH   8  10
ENDBRANCH   7   8
ENDBRANCH   6   7
ENDBRANCH   5   6
ENDBRANCH   4   5
ENDBRANCH   3   4
ENDBRANCH   2   3
ENDBRANCH   1   2
BRANCH   1  75
ATOM     75  C   UNL     1       2.867   2.402  -3.434  1.00  0.00     0.188 C 
BRANCH  75  76
ATOM     76  C   UNL     1       3.012   3.819  -2.880  1.00  0.00     0.188 C 
BRANCH  76  77
ATOM     77  O   UNL     1       2.638   4.065  -1.530  1.00  0.00    -0.376 OA
BRANCH  77  78
ATOM     78  C   UNL     1       3.116   5.313  -0.978  1.00  0.00     0.202 C 
BRANCH  78  79
ATOM     79  C   UNL     1       3.136   6.546  -1.907  1.00  0.00     0.261 C 
BRANCH  79  80
ATOM     80  O   UNL     1       3.998   6.411  -3.062  1.00  0.00    -0.458 OA
BRANCH  80  81
ATOM     81  C   UNL     1       5.321   6.109  -2.887  1.00  0.00     0.359 C 
ATOM     82  O   UNL     1       5.946   6.256  -1.864  1.00  0.00    -0.244 OA
BRANCH  81  83
ATOM     83  C   UNL     1       5.725   5.294  -4.086  1.00  0.00     0.179 A 
ATOM     84  N   UNL     1       5.007   5.525  -5.237  1.00  0.00    -0.245 NA
ATOM     85  C   UNL     1       6.529   4.161  -3.949  1.00  0.00     0.161 A 
ATOM     86  C   UNL     1       5.162   4.627  -6.233  1.00  0.00     0.132 A 
ATOM     87  N   UNL     1       6.650   3.239  -4.960  1.00  0.00    -0.247 NA
ATOM     88  C   UNL     1       5.957   3.505  -6.093  1.00  0.00     0.132 A 
BRANCH  85  89
ATOM     89  C   UNL     1       7.532   4.051  -2.870  1.00  0.00     0.274 C 
ATOM     90  O   UNL     1       8.632   4.535  -3.152  1.00  0.00    -0.267 OA
ATOM     91  N   UNL     1       7.255   3.468  -1.626  1.00  0.00    -0.337 N 
ATOM     92  C   UNL     1       8.119   3.888  -0.524  1.00  0.00     0.120 C 
ATOM     93  C   UNL     1       6.047   2.734  -1.245  1.00  0.00     0.120 C 
ATOM     94  C   UNL     1       8.402   2.777   0.474  1.00  0.00     0.025 C 
ATOM     95  C   UNL     1       6.314   1.630  -0.207  1.00  0.00     0.025 C 
ATOM     96  C   UNL     1       7.093   2.177   1.002  1.00  0.00    -0.003 C 
BRANCH  96  97
ATOM     97  C   UNL     1       7.361   1.094   2.072  1.00  0.00     0.039 C 
BRANCH  97  98
ATOM     98  C   UNL     1       7.983   1.566   3.373  1.00  0.00    -0.048 A 
ATOM     99  C   UNL     1       8.671   0.642   4.177  1.00  0.00     0.004 A 
ATOM    100  C   UNL     1       7.862   2.881   3.846  1.00  0.00     0.004 A 
ATOM    101  C   UNL     1       9.249   1.030   5.390  1.00  0.00     0.000 A 
ATOM    102  C   UNL     1       8.466   3.274   5.043  1.00  0.00     0.000 A 
ATOM    103  C   UNL     1       9.156   2.349   5.817  1.00  0.00     0.000 A 
ENDBRANCH  97  98
ENDBRANCH  96  97
ENDBRANCH  85  89
ENDBRANCH  81  83
ENDBRANCH  80  81
ENDBRANCH  79  80
ENDBRANCH  78  79
ENDBRANCH  77  78
ENDBRANCH  76  77
ENDBRANCH  75  76
ENDBRANCH   1  75
TORSDOF 26
