REMARK SMILES CC1=C2C(=O)CC(C)(C)CC2=N[C@@H]1C(=O)OCCOCCOCCOCCOC(=O)c1ccc(-c2c3nc(c(-c4cccc(S(=O)(=O)[O-])c4F)c4ccc([nH]4)c(-c4cccc(S(=O)(=O)[O-])c4F)c4nc(c(-c5cccc(S(=O)(=O)[O-])c5F)c5ccc2[nH]5)C=C4)C=C3)cc1
REMARK SMILES IDX 23 1 22 2 21 3 20 4 19 5 18 6 17 7 16 8 14 9 15 10 13 11
REMARK SMILES IDX 1 12 2 13 3 14 4 15 11 16 12 17 5 18 6 19 10 20 7 21 8 22
REMARK SMILES IDX 9 23 24 24 25 25 26 26 27 27 28 28 29 29 30 30 31 31 32 32
REMARK SMILES IDX 93 33 33 34 92 35 34 36 35 37 36 38 86 39 37 40 91 41 85 42
REMARK SMILES IDX 87 43 38 44 90 45 84 46 83 47 39 49 71 50 51 51 70 52 52 53
REMARK SMILES IDX 55 54 69 55 88 56 53 57 54 58 68 60 89 61 56 62 40 63 41 64
REMARK SMILES IDX 49 65 42 66 44 67 50 68 43 69 45 70 46 71 47 72 48 73 72 74
REMARK SMILES IDX 73 75 81 76 74 77 76 78 82 79 75 80 77 81 78 82 79 83 80 84
REMARK SMILES IDX 57 85 58 86 66 87 59 88 61 89 67 90 60 91 62 92 63 93 64 94
REMARK SMILES IDX 65 95
REMARK H PARENT 87 48 55 59
REMARK Flexibility Score: inf
ROOT
ATOM      1  C   UNL     1       4.787   1.860  -1.989  1.00  0.00     0.188 C 
ENDROOT
BRANCH   1   2
ATOM      2  O   UNL     1       3.392   1.641  -2.099  1.00  0.00    -0.377 OA
BRANCH   2   3
ATOM      3  C   UNL     1       3.040   0.320  -2.467  1.00  0.00     0.188 C 
BRANCH   3   4
ATOM      4  C   UNL     1       2.585   0.148  -3.934  1.00  0.00     0.188 C 
BRANCH   4   5
ATOM      5  O   UNL     1       2.573   1.266  -4.812  1.00  0.00    -0.376 OA
BRANCH   5   6
ATOM      6  C   UNL     1       2.147   2.518  -4.300  1.00  0.00     0.202 C 
BRANCH   6   7
ATOM      7  C   UNL     1       0.842   2.617  -3.478  1.00  0.00     0.261 C 
BRANCH   7   8
ATOM      8  O   UNL     1       0.555   1.528  -2.571  1.00  0.00    -0.461 OA
BRANCH   8   9
ATOM      9  C   UNL     1      -0.477   0.706  -2.902  1.00  0.00     0.335 C 
ATOM     10  O   UNL     1      -1.245   0.922  -3.838  1.00  0.00    -0.249 OA
BRANCH   9  11
ATOM     11  C   UNL     1      -0.570  -0.592  -2.044  1.00  0.00     0.242 C 
ATOM     12  C   UNL     1      -0.517   0.577   0.330  1.00  0.00     0.043 C 
ATOM     13  C   UNL     1      -0.455  -0.621  -0.544  1.00  0.00    -0.025 C 
ATOM     14  C   UNL     1      -0.059  -1.843  -0.165  1.00  0.00     0.040 C 
ATOM     15  C   UNL     1       0.136  -2.560   1.103  1.00  0.00     0.165 C 
ATOM     16  C   UNL     1       0.793  -2.128  -1.315  1.00  0.00     0.048 C 
ATOM     17  N   UNL     1       0.478  -1.589  -2.459  1.00  0.00    -0.269 NA
ATOM     18  O   UNL     1      -0.844  -2.833   1.794  1.00  0.00    -0.294 OA
ATOM     19  C   UNL     1       1.526  -3.082   1.423  1.00  0.00     0.088 C 
ATOM     20  C   UNL     1       2.090  -2.854  -1.050  1.00  0.00     0.063 C 
ATOM     21  C   UNL     1       2.601  -2.614   0.413  1.00  0.00    -0.023 C 
ATOM     22  C   UNL     1       2.950  -1.145   0.756  1.00  0.00     0.012 C 
ATOM     23  C   UNL     1       3.904  -3.416   0.603  1.00  0.00     0.012 C 
ENDBRANCH   9  11
ENDBRANCH   8   9
ENDBRANCH   7   8
ENDBRANCH   6   7
ENDBRANCH   5   6
ENDBRANCH   4   5
ENDBRANCH   3   4
ENDBRANCH   2   3
ENDBRANCH   1   2
BRANCH   1  24
ATOM     24  C   UNL     1       5.643   1.512  -3.230  1.00  0.00     0.188 C 
BRANCH  24  25
ATOM     25  O   UNL     1       5.404   0.281  -3.889  1.00  0.00    -0.376 OA
BRANCH  25  26
ATOM     26  C   UNL     1       5.894  -1.014  -3.583  1.00  0.00     0.202 C 
BRANCH  26  27
ATOM     27  C   UNL     1       6.521  -1.466  -2.274  1.00  0.00     0.261 C 
BRANCH  27  28
ATOM     28  O   UNL     1       6.374  -0.545  -1.230  1.00  0.00    -0.460 OA
BRANCH  28  29
ATOM     29  C   UNL     1       7.410   0.303  -1.147  1.00  0.00     0.338 C 
ATOM     30  O   UNL     1       8.321   0.442  -1.972  1.00  0.00    -0.246 OA
BRANCH  29  31
ATOM     31  C   UNL     1       7.370   0.975   0.147  1.00  0.00     0.060 A 
ATOM     32  C   UNL     1       8.459   1.812   0.369  1.00  0.00     0.016 A 
ATOM     33  C   UNL     1       6.699   0.294   1.174  1.00  0.00     0.016 A 
ATOM     34  C   UNL     1       9.138   1.619   1.536  1.00  0.00     0.010 A 
ATOM     35  C   UNL     1       7.393   0.077   2.325  1.00  0.00     0.010 A 
ATOM     36  C   UNL     1       8.651   0.660   2.432  1.00  0.00    -0.014 A 
BRANCH  36  37
ATOM     37  C   UNL     1       9.430   0.410   3.612  1.00  0.00     0.031 A 
ATOM     38  C   UNL     1       9.255   1.523   4.562  1.00  0.00     0.074 A 
ATOM     39  C   UNL     1      10.122  -0.728   3.782  1.00  0.00     0.049 A 
ATOM     40  N   UNL     1      10.087   2.483   4.793  1.00  0.00    -0.248 NA
ATOM     41  C   UNL     1       7.887   1.780   5.048  1.00  0.00     0.031 C 
ATOM     42  C   UNL     1      10.068  -1.950   2.976  1.00  0.00     0.029 A 
ATOM     43  N   UNL     1      10.911  -1.082   4.825  1.00  0.00    -0.354 N 
ATOM     44  C   UNL     1       9.420   3.299   5.699  1.00  0.00     0.074 A 
ATOM     45  C   UNL     1       8.027   3.016   5.523  1.00  0.00     0.031 C 
ATOM     46  C   UNL     1      10.561  -2.975   3.710  1.00  0.00     0.029 A 
ATOM     47  C   UNL     1      11.052  -2.455   4.976  1.00  0.00     0.049 A 
ATOM     48  H   UNL     1      11.343  -0.427   5.420  1.00  0.00     0.167 HD
ATOM     49  C   UNL     1      10.084   3.800   6.776  1.00  0.00     0.034 A 
ATOM     50  C   UNL     1      11.424  -3.094   6.115  1.00  0.00     0.034 A 
ATOM     51  C   UNL     1      11.514   3.748   6.546  1.00  0.00     0.049 A 
ATOM     52  C   UNL     1      12.041  -2.080   7.008  1.00  0.00     0.074 A 
ATOM     53  C   UNL     1      12.368   4.238   5.577  1.00  0.00     0.029 A 
ATOM     54  N   UNL     1      12.201   2.742   7.186  1.00  0.00    -0.354 N 
ATOM     55  N   UNL     1      13.177  -1.493   6.755  1.00  0.00    -0.248 NA
ATOM     56  C   UNL     1      11.172  -1.377   7.941  1.00  0.00     0.031 C 
ATOM     57  C   UNL     1      13.362   3.228   5.405  1.00  0.00     0.029 A 
ATOM     58  C   UNL     1      13.113   2.206   6.322  1.00  0.00     0.049 A 
ATOM     59  H   UNL     1      12.057   2.455   8.117  1.00  0.00     0.167 HD
ATOM     60  C   UNL     1      12.961  -0.163   7.097  1.00  0.00     0.074 A 
ATOM     61  C   UNL     1      11.757  -0.176   7.928  1.00  0.00     0.031 C 
ATOM     62  C   UNL     1      13.588   0.842   6.416  1.00  0.00     0.034 A 
BRANCH  49  63
ATOM     63  C   UNL     1       9.510   3.833   8.191  1.00  0.00     0.023 A 
ATOM     64  C   UNL     1      10.398   4.266   9.201  1.00  0.00     0.012 A 
ATOM     65  C   UNL     1       8.319   3.205   8.633  1.00  0.00     0.148 A 
ATOM     66  C   UNL     1      10.196   3.947  10.547  1.00  0.00     0.002 A 
ATOM     67  C   UNL     1       8.103   2.916   9.975  1.00  0.00     0.091 A 
ATOM     68  F   UNL     1       7.383   2.816   7.773  1.00  0.00    -0.205 F 
ATOM     69  C   UNL     1       9.059   3.251  10.932  1.00  0.00     0.022 A 
BRANCH  67  70
ATOM     70  S   UNL     1       6.634   2.033  10.531  1.00  0.00     0.127 S 
ATOM     71  O   UNL     1       7.216   0.786  11.018  1.00  0.00    -0.237 OA
ATOM     72  O   UNL     1       6.128   2.933  11.566  1.00  0.00    -0.237 OA
ATOM     73  O   UNL     1       5.768   1.906   9.366  1.00  0.00    -0.744 OA
ENDBRANCH  67  70
ENDBRANCH  49  63
BRANCH  50  74
ATOM     74  C   UNL     1      11.022  -4.426   6.627  1.00  0.00     0.023 A 
ATOM     75  C   UNL     1      11.778  -5.030   7.652  1.00  0.00     0.012 A 
ATOM     76  C   UNL     1       9.760  -4.982   6.319  1.00  0.00     0.148 A 
ATOM     77  C   UNL     1      11.282  -6.127   8.368  1.00  0.00     0.002 A 
ATOM     78  C   UNL     1       9.276  -6.080   7.024  1.00  0.00     0.091 A 
ATOM     79  F   UNL     1       8.991  -4.378   5.405  1.00  0.00    -0.205 F 
ATOM     80  C   UNL     1      10.028  -6.648   8.059  1.00  0.00     0.022 A 
BRANCH  78  81
ATOM     81  S   UNL     1       7.656  -6.787   6.691  1.00  0.00     0.127 S 
ATOM     82  O   UNL     1       7.961  -8.215   6.604  1.00  0.00    -0.237 OA
ATOM     83  O   UNL     1       6.903  -6.391   7.877  1.00  0.00    -0.237 OA
ATOM     84  O   UNL     1       7.213  -6.193   5.435  1.00  0.00    -0.744 OA
ENDBRANCH  78  81
ENDBRANCH  50  74
BRANCH  62  85
ATOM     85  C   UNL     1      14.740   0.472   5.519  1.00  0.00     0.023 A 
ATOM     86  C   UNL     1      14.600  -0.360   4.389  1.00  0.00     0.012 A 
ATOM     87  C   UNL     1      15.972   1.105   5.749  1.00  0.00     0.148 A 
ATOM     88  C   UNL     1      15.678  -0.579   3.526  1.00  0.00     0.002 A 
ATOM     89  C   UNL     1      17.025   0.924   4.863  1.00  0.00     0.091 A 
ATOM     90  F   UNL     1      16.089   1.893   6.829  1.00  0.00    -0.205 F 
ATOM     91  C   UNL     1      16.887   0.074   3.756  1.00  0.00     0.022 A 
BRANCH  89  92
ATOM     92  S   UNL     1      18.556   1.838   5.053  1.00  0.00     0.127 S 
ATOM     93  O   UNL     1      19.431   0.842   5.668  1.00  0.00    -0.237 OA
ATOM     94  O   UNL     1      18.894   2.181   3.670  1.00  0.00    -0.237 OA
ATOM     95  O   UNL     1      18.228   2.990   5.884  1.00  0.00    -0.744 OA
ENDBRANCH  89  92
ENDBRANCH  62  85
ENDBRANCH  36  37
ENDBRANCH  29  31
ENDBRANCH  28  29
ENDBRANCH  27  28
ENDBRANCH  26  27
ENDBRANCH  25  26
ENDBRANCH  24  25
ENDBRANCH   1  24
TORSDOF 23
