REMARK SMILES Cc1ccc(N)cc1S(=O)(=O)Nc1cccc(C(=O)OCCOCCOCCOCCOC(=O)c2ccc(-c3c4nc(c(-c5cccc(S(=O)(=O)[O-])c5F)c5ccc([nH]5)c(-c5cccc(S(=O)(=O)[O-])c5F)c5nc(c(-c6cccc(S(=O)(=O)[O-])c6F)c6ccc3[nH]6)C=C5)C=C4)cc2)c1
REMARK SMILES IDX 25 1 24 2 23 3 22 4 21 5 20 6 18 7 19 8 17 9 13 10 14 11
REMARK SMILES IDX 98 12 15 13 16 14 12 15 9 17 10 18 11 19 8 20 1 21 2 22 3 23
REMARK SMILES IDX 4 24 7 25 5 26 6 27 26 30 27 31 28 32 29 33 30 34 31 35
REMARK SMILES IDX 32 36 33 37 34 38 35 39 36 40 97 41 37 42 96 43 38 44 39 45
REMARK SMILES IDX 40 46 90 47 41 48 95 49 89 50 91 51 42 52 94 53 88 54 87 55
REMARK SMILES IDX 43 57 75 58 55 59 74 60 56 61 59 62 73 63 92 64 57 65 58 66
REMARK SMILES IDX 72 68 93 69 60 70 44 71 45 72 53 73 46 74 48 75 54 76 47 77
REMARK SMILES IDX 49 78 50 79 51 80 52 81 76 82 77 83 85 84 78 85 80 86 86 87
REMARK SMILES IDX 79 88 81 89 82 90 83 91 84 92 61 93 62 94 70 95 63 96 65 97
REMARK SMILES IDX 71 98 64 99 66 100 67 101 68 102 69 103
REMARK H PARENT 12 16 6 28 6 29 91 56 59 67
REMARK Flexibility Score: inf
ROOT
ATOM      1  C   UNL     1      -4.722  -1.597   3.691  1.00  0.00     0.188 C 
ENDROOT
BRANCH   1   2
ATOM      2  C   UNL     1      -4.810  -3.065   3.223  1.00  0.00     0.188 C 
BRANCH   2   3
ATOM      3  O   UNL     1      -3.918  -4.072   3.687  1.00  0.00    -0.376 OA
BRANCH   3   4
ATOM      4  C   UNL     1      -2.521  -3.862   3.853  1.00  0.00     0.202 C 
BRANCH   4   5
ATOM      5  C   UNL     1      -1.637  -3.191   2.791  1.00  0.00     0.261 C 
BRANCH   5   6
ATOM      6  O   UNL     1      -2.200  -2.035   2.180  1.00  0.00    -0.460 OA
BRANCH   6   7
ATOM      7  C   UNL     1      -2.809  -2.251   1.000  1.00  0.00     0.338 C 
ATOM      8  O   UNL     1      -2.833  -3.286   0.353  1.00  0.00    -0.246 OA
BRANCH   7   9
ATOM      9  C   UNL     1      -3.619  -1.069   0.641  1.00  0.00     0.062 A 
ATOM     10  C   UNL     1      -3.752   1.257   0.174  1.00  0.00     0.050 A 
ATOM     11  C   UNL     1      -5.008   1.065  -0.424  1.00  0.00     0.027 A 
ATOM     12  C   UNL     1      -3.148   0.226   0.873  1.00  0.00     0.042 A 
ATOM     13  C   UNL     1      -5.564  -0.208  -0.506  1.00  0.00     0.003 A 
ATOM     14  C   UNL     1      -4.833  -1.288  -0.030  1.00  0.00     0.016 A 
BRANCH  10  15
ATOM     15  N   UNL     1      -3.119   2.498  -0.081  1.00  0.00    -0.280 N 
ATOM     16  H   UNL     1      -3.703   3.281  -0.200  1.00  0.00     0.180 HD
BRANCH  15  17
ATOM     17  S   UNL     1      -1.458   2.756  -0.198  1.00  0.00     0.262 S 
ATOM     18  O   UNL     1      -1.075   3.266   1.102  1.00  0.00    -0.201 OA
ATOM     19  O   UNL     1      -1.312   3.576  -1.385  1.00  0.00    -0.201 OA
BRANCH  17  20
ATOM     20  C   UNL     1      -0.495   1.274  -0.491  1.00  0.00     0.092 A 
ATOM     21  C   UNL     1      -2.034   0.030  -2.156  1.00  0.00     0.046 C 
ATOM     22  C   UNL     1      -0.896   0.122  -1.185  1.00  0.00    -0.030 A 
ATOM     23  C   UNL     1      -0.118  -1.044  -1.030  1.00  0.00     0.007 A 
ATOM     24  C   UNL     1       1.120  -1.012  -0.385  1.00  0.00     0.026 A 
ATOM     25  C   UNL     1       0.785   1.301   0.103  1.00  0.00     0.048 A 
ATOM     26  C   UNL     1       1.615   0.181   0.124  1.00  0.00     0.033 A 
BRANCH  26  27
ATOM     27  N   UNL     1       2.929   0.289   0.531  1.00  0.00    -0.399 N 
ATOM     28  H   UNL     1       3.507  -0.507   0.543  1.00  0.00     0.156 HD
ATOM     29  H   UNL     1       3.288   1.162   0.810  1.00  0.00     0.156 HD
ENDBRANCH  26  27
ENDBRANCH  17  20
ENDBRANCH  15  17
ENDBRANCH  10  15
ENDBRANCH   7   9
ENDBRANCH   6   7
ENDBRANCH   5   6
ENDBRANCH   4   5
ENDBRANCH   3   4
ENDBRANCH   2   3
ENDBRANCH   1   2
BRANCH   1  30
ATOM     30  O   UNL     1      -3.531  -1.287   4.378  1.00  0.00    -0.377 OA
BRANCH  30  31
ATOM     31  C   UNL     1      -3.590  -1.337   5.797  1.00  0.00     0.188 C 
BRANCH  31  32
ATOM     32  C   UNL     1      -4.463  -2.431   6.455  1.00  0.00     0.188 C 
BRANCH  32  33
ATOM     33  O   UNL     1      -5.771  -2.562   5.912  1.00  0.00    -0.376 OA
BRANCH  33  34
ATOM     34  C   UNL     1      -6.862  -1.930   6.562  1.00  0.00     0.202 C 
BRANCH  34  35
ATOM     35  C   UNL     1      -6.883  -0.393   6.622  1.00  0.00     0.261 C 
BRANCH  35  36
ATOM     36  O   UNL     1      -5.741   0.234   7.218  1.00  0.00    -0.460 OA
BRANCH  36  37
ATOM     37  C   UNL     1      -5.455  -0.086   8.496  1.00  0.00     0.338 C 
ATOM     38  O   UNL     1      -6.104  -0.815   9.230  1.00  0.00    -0.246 OA
BRANCH  37  39
ATOM     39  C   UNL     1      -4.102   0.421   8.800  1.00  0.00     0.060 A 
ATOM     40  C   UNL     1      -3.125  -0.488   9.229  1.00  0.00     0.016 A 
ATOM     41  C   UNL     1      -3.799   1.778   8.664  1.00  0.00     0.016 A 
ATOM     42  C   UNL     1      -1.857  -0.034   9.581  1.00  0.00     0.010 A 
ATOM     43  C   UNL     1      -2.534   2.236   9.041  1.00  0.00     0.010 A 
ATOM     44  C   UNL     1      -1.578   1.338   9.548  1.00  0.00    -0.014 A 
BRANCH  44  45
ATOM     45  C   UNL     1      -0.393   1.848  10.276  1.00  0.00     0.031 A 
ATOM     46  C   UNL     1      -0.598   2.381  11.668  1.00  0.00     0.074 A 
ATOM     47  C   UNL     1       0.836   1.817   9.733  1.00  0.00     0.049 A 
ATOM     48  N   UNL     1       0.270   2.897  12.497  1.00  0.00    -0.248 NA
ATOM     49  C   UNL     1      -1.973   2.326  12.196  1.00  0.00     0.031 C 
ATOM     50  C   UNL     1       1.162   1.304   8.404  1.00  0.00     0.029 A 
ATOM     51  N   UNL     1       2.038   2.250  10.234  1.00  0.00    -0.354 N 
ATOM     52  C   UNL     1      -0.456   3.259  13.626  1.00  0.00     0.074 A 
ATOM     53  C   UNL     1      -1.837   2.916  13.373  1.00  0.00     0.031 C 
ATOM     54  C   UNL     1       2.477   1.478   8.182  1.00  0.00     0.029 A 
ATOM     55  C   UNL     1       3.077   2.138   9.341  1.00  0.00     0.049 A 
ATOM     56  H   UNL     1       2.146   2.606  11.145  1.00  0.00     0.167 HD
ATOM     57  C   UNL     1      -0.013   3.816  14.777  1.00  0.00     0.034 A 
ATOM     58  C   UNL     1       4.358   2.547   9.443  1.00  0.00     0.034 A 
ATOM     59  C   UNL     1       1.363   4.147  15.027  1.00  0.00     0.049 A 
ATOM     60  C   UNL     1       4.821   3.199  10.722  1.00  0.00     0.074 A 
ATOM     61  C   UNL     1       1.923   4.681  16.173  1.00  0.00     0.029 A 
ATOM     62  N   UNL     1       2.392   3.995  14.111  1.00  0.00    -0.354 N 
ATOM     63  N   UNL     1       4.146   3.443  11.820  1.00  0.00    -0.248 NA
ATOM     64  C   UNL     1       6.234   3.600  10.788  1.00  0.00     0.031 C 
ATOM     65  C   UNL     1       3.285   4.891  15.935  1.00  0.00     0.029 A 
ATOM     66  C   UNL     1       3.583   4.437  14.659  1.00  0.00     0.049 A 
ATOM     67  H   UNL     1       2.290   3.627  13.204  1.00  0.00     0.167 HD
ATOM     68  C   UNL     1       5.060   3.982  12.720  1.00  0.00     0.074 A 
ATOM     69  C   UNL     1       6.340   4.016  12.043  1.00  0.00     0.031 C 
ATOM     70  C   UNL     1       4.859   4.416  13.990  1.00  0.00     0.034 A 
BRANCH  57  71
ATOM     71  C   UNL     1      -1.030   4.102  15.850  1.00  0.00     0.023 A 
ATOM     72  C   UNL     1      -1.634   3.038  16.552  1.00  0.00     0.012 A 
ATOM     73  C   UNL     1      -1.362   5.428  16.187  1.00  0.00     0.148 A 
ATOM     74  C   UNL     1      -2.581   3.289  17.544  1.00  0.00     0.002 A 
ATOM     75  C   UNL     1      -2.268   5.671  17.212  1.00  0.00     0.091 A 
ATOM     76  F   UNL     1      -0.797   6.425  15.492  1.00  0.00    -0.205 F 
ATOM     77  C   UNL     1      -2.889   4.604  17.881  1.00  0.00     0.022 A 
BRANCH  75  78
ATOM     78  S   UNL     1      -2.669   7.328  17.776  1.00  0.00     0.127 S 
ATOM     79  O   UNL     1      -4.058   7.461  17.337  1.00  0.00    -0.237 OA
ATOM     80  O   UNL     1      -2.496   7.208  19.224  1.00  0.00    -0.237 OA
ATOM     81  O   UNL     1      -1.721   8.218  17.121  1.00  0.00    -0.744 OA
ENDBRANCH  75  78
ENDBRANCH  57  71
BRANCH  58  82
ATOM     82  C   UNL     1       5.305   2.327   8.312  1.00  0.00     0.023 A 
ATOM     83  C   UNL     1       6.370   1.417   8.462  1.00  0.00     0.012 A 
ATOM     84  C   UNL     1       5.152   3.009   7.089  1.00  0.00     0.148 A 
ATOM     85  C   UNL     1       7.287   1.219   7.429  1.00  0.00     0.002 A 
ATOM     86  C   UNL     1       6.034   2.763   6.043  1.00  0.00     0.091 A 
ATOM     87  F   UNL     1       4.140   3.880   6.971  1.00  0.00    -0.205 F 
ATOM     88  C   UNL     1       7.115   1.884   6.218  1.00  0.00     0.022 A 
BRANCH  86  89
ATOM     89  S   UNL     1       5.826   3.479   4.409  1.00  0.00     0.127 S 
ATOM     90  O   UNL     1       7.018   4.315   4.295  1.00  0.00    -0.237 OA
ATOM     91  O   UNL     1       5.823   2.288   3.558  1.00  0.00    -0.237 OA
ATOM     92  O   UNL     1       4.558   4.194   4.448  1.00  0.00    -0.744 OA
ENDBRANCH  86  89
ENDBRANCH  58  82
BRANCH  70  93
ATOM     93  C   UNL     1       6.056   4.907  14.765  1.00  0.00     0.023 A 
ATOM     94  C   UNL     1       6.670   6.129  14.428  1.00  0.00     0.012 A 
ATOM     95  C   UNL     1       6.527   4.182  15.879  1.00  0.00     0.148 A 
ATOM     96  C   UNL     1       7.759   6.601  15.162  1.00  0.00     0.002 A 
ATOM     97  C   UNL     1       7.574   4.686  16.640  1.00  0.00     0.091 A 
ATOM     98  F   UNL     1       5.939   3.014  16.177  1.00  0.00    -0.205 F 
ATOM     99  C   UNL     1       8.203   5.887  16.273  1.00  0.00     0.022 A 
BRANCH  97 100
ATOM    100  S   UNL     1       8.143   3.888  18.145  1.00  0.00     0.127 S 
ATOM    101  O   UNL     1       9.445   3.366  17.731  1.00  0.00    -0.237 OA
ATOM    102  O   UNL     1       8.206   5.008  19.084  1.00  0.00    -0.237 OA
ATOM    103  O   UNL     1       7.142   2.881  18.471  1.00  0.00    -0.744 OA
ENDBRANCH  97 100
ENDBRANCH  70  93
ENDBRANCH  44  45
ENDBRANCH  37  39
ENDBRANCH  36  37
ENDBRANCH  35  36
ENDBRANCH  34  35
ENDBRANCH  33  34
ENDBRANCH  32  33
ENDBRANCH  31  32
ENDBRANCH  30  31
ENDBRANCH   1  30
TORSDOF 27
