REMARK SMILES Cc1cscc1-c1noc(SCC(=O)OCCOCCOCCOCCOC(=O)c2ccc(-c3c4nc(c(-c5cccc(S(=O)(=O)[O-])c5F)c5ccc([nH]5)c(-c5cccc(S(=O)(=O)[O-])c5F)c5nc(c(-c6cccc(S(=O)(=O)[O-])c6F)c6ccc3[nH]6)C=C5)C=C4)cc2)n1
REMARK SMILES IDX 21 1 20 2 19 3 18 4 17 5 16 6 15 7 13 8 14 9 12 10 11 11
REMARK SMILES IDX 10 12 7 13 8 14 93 15 9 16 6 17 1 18 2 19 3 20 4 21 5 22
REMARK SMILES IDX 22 23 23 24 24 25 25 26 26 27 27 28 28 29 29 30 30 31 31 32
REMARK SMILES IDX 92 33 32 34 91 35 33 36 34 37 35 38 85 39 36 40 90 41 84 42
REMARK SMILES IDX 86 43 37 44 89 45 83 46 82 47 38 49 70 50 50 51 69 52 51 53
REMARK SMILES IDX 54 54 68 55 87 56 52 57 53 58 67 60 88 61 55 62 39 63 40 64
REMARK SMILES IDX 48 65 41 66 43 67 49 68 42 69 44 70 45 71 46 72 47 73 71 74
REMARK SMILES IDX 72 75 80 76 73 77 75 78 81 79 74 80 76 81 77 82 78 83 79 84
REMARK SMILES IDX 56 85 57 86 65 87 58 88 60 89 66 90 59 91 61 92 62 93 63 94
REMARK SMILES IDX 64 95
REMARK H PARENT 86 48 54 59
REMARK Flexibility Score: inf
ROOT
ATOM      1  O   UNL     1       5.685   1.714  -0.265  1.00  0.00    -0.377 OA
ENDROOT
BRANCH   1   2
ATOM      2  C   UNL     1       4.450   1.757  -0.941  1.00  0.00     0.188 C 
BRANCH   2   3
ATOM      3  C   UNL     1       4.295   0.866  -2.188  1.00  0.00     0.188 C 
BRANCH   3   4
ATOM      4  O   UNL     1       5.329  -0.040  -2.515  1.00  0.00    -0.376 OA
BRANCH   4   5
ATOM      5  C   UNL     1       6.655   0.457  -2.405  1.00  0.00     0.202 C 
BRANCH   5   6
ATOM      6  C   UNL     1       6.990   1.815  -3.072  1.00  0.00     0.261 C 
BRANCH   6   7
ATOM      7  O   UNL     1       6.005   2.887  -2.945  1.00  0.00    -0.463 OA
BRANCH   7   8
ATOM      8  C   UNL     1       5.307   3.221  -4.061  1.00  0.00     0.316 C 
ATOM      9  O   UNL     1       5.555   2.746  -5.170  1.00  0.00    -0.251 OA
BRANCH   8  10
ATOM     10  C   UNL     1       4.141   4.195  -3.919  1.00  0.00     0.202 C 
BRANCH  10  11
ATOM     11  S   UNL     1       3.634   4.859  -2.337  1.00  0.00    -0.053 SA
BRANCH  11  12
ATOM     12  C   UNL     1       2.190   4.016  -1.763  1.00  0.00     0.286 A 
ATOM     13  C   UNL     1       0.745   2.619  -1.047  1.00  0.00     0.204 A 
ATOM     14  N   UNL     1       0.460   3.752  -0.388  1.00  0.00    -0.056 NA
ATOM     15  N   UNL     1       1.811   2.751  -1.938  1.00  0.00    -0.181 NA
ATOM     16  O   UNL     1       1.399   4.655  -0.842  1.00  0.00    -0.327 OA
BRANCH  13  17
ATOM     17  C   UNL     1      -0.129   1.423  -0.826  1.00  0.00     0.036 A 
ATOM     18  C   UNL     1       1.524  -0.645  -0.436  1.00  0.00     0.046 C 
ATOM     19  C   UNL     1       0.205   0.032  -0.559  1.00  0.00    -0.029 A 
ATOM     20  C   UNL     1      -0.935  -0.724  -0.319  1.00  0.00     0.069 A 
ATOM     21  S   UNL     1      -2.366   0.186  -0.330  1.00  0.00    -0.151 S 
ATOM     22  C   UNL     1      -1.497   1.610  -0.671  1.00  0.00     0.077 A 
ENDBRANCH  13  17
ENDBRANCH  11  12
ENDBRANCH  10  11
ENDBRANCH   8  10
ENDBRANCH   7   8
ENDBRANCH   6   7
ENDBRANCH   5   6
ENDBRANCH   4   5
ENDBRANCH   3   4
ENDBRANCH   2   3
ENDBRANCH   1   2
BRANCH   1  23
ATOM     23  C   UNL     1       5.643   1.505   1.135  1.00  0.00     0.188 C 
BRANCH  23  24
ATOM     24  C   UNL     1       4.752   0.325   1.519  1.00  0.00     0.188 C 
BRANCH  24  25
ATOM     25  O   UNL     1       3.341   0.508   1.672  1.00  0.00    -0.376 OA
BRANCH  25  26
ATOM     26  C   UNL     1       2.770   1.790   1.920  1.00  0.00     0.202 C 
BRANCH  26  27
ATOM     27  C   UNL     1       1.943   1.807   3.197  1.00  0.00     0.261 C 
BRANCH  27  28
ATOM     28  O   UNL     1       2.838   2.019   4.288  1.00  0.00    -0.460 OA
BRANCH  28  29
ATOM     29  C   UNL     1       3.524   0.911   4.643  1.00  0.00     0.338 C 
ATOM     30  O   UNL     1       3.141  -0.247   4.555  1.00  0.00    -0.246 OA
BRANCH  29  31
ATOM     31  C   UNL     1       4.919   1.305   4.931  1.00  0.00     0.060 A 
ATOM     32  C   UNL     1       5.907   0.320   4.805  1.00  0.00     0.016 A 
ATOM     33  C   UNL     1       5.266   2.622   5.261  1.00  0.00     0.016 A 
ATOM     34  C   UNL     1       7.234   0.630   5.054  1.00  0.00     0.010 A 
ATOM     35  C   UNL     1       6.592   2.930   5.542  1.00  0.00     0.010 A 
ATOM     36  C   UNL     1       7.559   1.916   5.493  1.00  0.00    -0.014 A 
BRANCH  36  37
ATOM     37  C   UNL     1       8.831   2.094   6.210  1.00  0.00     0.031 A 
ATOM     38  C   UNL     1       8.800   1.911   7.700  1.00  0.00     0.074 A 
ATOM     39  C   UNL     1       9.963   2.367   5.547  1.00  0.00     0.049 A 
ATOM     40  N   UNL     1       9.772   1.995   8.564  1.00  0.00    -0.248 NA
ATOM     41  C   UNL     1       7.490   1.588   8.297  1.00  0.00     0.031 C 
ATOM     42  C   UNL     1      10.075   2.540   4.100  1.00  0.00     0.029 A 
ATOM     43  N   UNL     1      11.231   2.565   6.016  1.00  0.00    -0.354 N 
ATOM     44  C   UNL     1       9.189   1.764   9.803  1.00  0.00     0.074 A 
ATOM     45  C   UNL     1       7.778   1.549   9.587  1.00  0.00     0.031 C 
ATOM     46  C   UNL     1      11.348   2.850   3.800  1.00  0.00     0.029 A 
ATOM     47  C   UNL     1      12.124   2.920   5.036  1.00  0.00     0.049 A 
ATOM     48  H   UNL     1      11.480   2.464   6.963  1.00  0.00     0.167 HD
ATOM     49  C   UNL     1       9.784   1.726  11.016  1.00  0.00     0.034 A 
ATOM     50  C   UNL     1      13.416   3.283   5.146  1.00  0.00     0.034 A 
ATOM     51  C   UNL     1      11.188   1.950  11.205  1.00  0.00     0.049 A 
ATOM     52  C   UNL     1      14.050   3.268   6.512  1.00  0.00     0.074 A 
ATOM     53  C   UNL     1      11.916   1.910  12.377  1.00  0.00     0.029 A 
ATOM     54  N   UNL     1      12.072   2.283  10.189  1.00  0.00    -0.354 N 
ATOM     55  N   UNL     1      13.516   2.947   7.667  1.00  0.00    -0.248 NA
ATOM     56  C   UNL     1      15.471   3.630   6.587  1.00  0.00     0.031 C 
ATOM     57  C   UNL     1      13.235   2.263  12.075  1.00  0.00     0.029 A 
ATOM     58  C   UNL     1      13.338   2.471  10.707  1.00  0.00     0.049 A 
ATOM     59  H   UNL     1      11.832   2.372   9.238  1.00  0.00     0.167 HD
ATOM     60  C   UNL     1      14.542   3.033   8.601  1.00  0.00     0.074 A 
ATOM     61  C   UNL     1      15.733   3.420   7.870  1.00  0.00     0.031 C 
ATOM     62  C   UNL     1      14.508   2.820   9.941  1.00  0.00     0.034 A 
BRANCH  49  63
ATOM     63  C   UNL     1       8.911   1.452  12.210  1.00  0.00     0.023 A 
ATOM     64  C   UNL     1       8.343   0.174  12.396  1.00  0.00     0.012 A 
ATOM     65  C   UNL     1       8.658   2.464  13.156  1.00  0.00     0.148 A 
ATOM     66  C   UNL     1       7.508  -0.081  13.483  1.00  0.00     0.002 A 
ATOM     67  C   UNL     1       7.866   2.188  14.263  1.00  0.00     0.091 A 
ATOM     68  F   UNL     1       9.178   3.681  12.943  1.00  0.00    -0.205 F 
ATOM     69  C   UNL     1       7.278   0.922  14.421  1.00  0.00     0.022 A 
BRANCH  67  70
ATOM     70  S   UNL     1       7.575   3.389  15.566  1.00  0.00     0.127 S 
ATOM     71  O   UNL     1       6.151   3.675  15.390  1.00  0.00    -0.237 OA
ATOM     72  O   UNL     1       7.899   2.620  16.767  1.00  0.00    -0.237 OA
ATOM     73  O   UNL     1       8.472   4.503  15.295  1.00  0.00    -0.744 OA
ENDBRANCH  67  70
ENDBRANCH  49  63
BRANCH  50  74
ATOM     74  C   UNL     1      14.185   3.665   3.930  1.00  0.00     0.023 A 
ATOM     75  C   UNL     1      15.221   2.833   3.465  1.00  0.00     0.012 A 
ATOM     76  C   UNL     1      13.867   4.834   3.212  1.00  0.00     0.148 A 
ATOM     77  C   UNL     1      15.947   3.175   2.323  1.00  0.00     0.002 A 
ATOM     78  C   UNL     1      14.556   5.139   2.044  1.00  0.00     0.091 A 
ATOM     79  F   UNL     1      12.883   5.617   3.677  1.00  0.00    -0.205 F 
ATOM     80  C   UNL     1      15.608   4.321   1.607  1.00  0.00     0.022 A 
BRANCH  78  81
ATOM     81  S   UNL     1      14.104   6.522   0.991  1.00  0.00     0.127 S 
ATOM     82  O   UNL     1      15.266   7.396   1.130  1.00  0.00    -0.237 OA
ATOM     83  O   UNL     1      13.972   5.873  -0.314  1.00  0.00    -0.237 OA
ATOM     84  O   UNL     1      12.856   7.042   1.533  1.00  0.00    -0.744 OA
ENDBRANCH  78  81
ENDBRANCH  50  74
BRANCH  62  85
ATOM     85  C   UNL     1      15.803   2.955  10.697  1.00  0.00     0.023 A 
ATOM     86  C   UNL     1      16.370   4.227  10.905  1.00  0.00     0.012 A 
ATOM     87  C   UNL     1      16.410   1.820  11.270  1.00  0.00     0.148 A 
ATOM     88  C   UNL     1      17.546   4.362  11.643  1.00  0.00     0.002 A 
ATOM     89  C   UNL     1      17.547   1.970  12.051  1.00  0.00     0.091 A 
ATOM     90  F   UNL     1      15.859   0.618  11.046  1.00  0.00    -0.205 F 
ATOM     91  C   UNL     1      18.126   3.237  12.225  1.00  0.00     0.022 A 
BRANCH  89  92
ATOM     92  S   UNL     1      18.299   0.595  12.927  1.00  0.00     0.127 S 
ATOM     93  O   UNL     1      19.544   0.413  12.181  1.00  0.00    -0.237 OA
ATOM     94  O   UNL     1      18.468   1.142  14.273  1.00  0.00    -0.237 OA
ATOM     95  O   UNL     1      17.352  -0.508  12.836  1.00  0.00    -0.744 OA
ENDBRANCH  89  92
ENDBRANCH  62  85
ENDBRANCH  36  37
ENDBRANCH  29  31
ENDBRANCH  28  29
ENDBRANCH  27  28
ENDBRANCH  26  27
ENDBRANCH  25  26
ENDBRANCH  24  25
ENDBRANCH  23  24
ENDBRANCH   1  23
TORSDOF 26
