REMARK SMILES COc1ccc2[nH]cc([C@H](C(=O)OCCOCCOCCOCCOC(=O)c3ccc(-c4c5nc(c(-c6cccc(S(=O)(=O)[O-])c6F)c6ccc([nH]6)c(-c6cccc(S(=O)(=O)[O-])c6F)c6nc(c(-c7cccc(S(=O)(=O)[O-])c7F)c7ccc4[nH]7)C=C6)C=C5)cc3)[NH+]3CC[NH+](Cc4cccc5ccccc45)CC3)c2c1
REMARK SMILES IDX 19 1 18 2 17 3 16 4 15 5 14 6 13 7 11 8 12 9 10 10 9 11 3 12
REMARK SMILES IDX 4 13 109 14 5 15 108 16 6 17 7 18 8 19 2 21 1 22 91 23 92 24
REMARK SMILES IDX 107 25 93 27 106 28 94 29 95 31 96 32 97 33 105 34 98 35
REMARK SMILES IDX 100 36 104 37 99 38 101 39 103 40 102 41 20 42 21 43 22 44
REMARK SMILES IDX 23 45 24 46 25 47 26 48 27 49 28 50 29 51 90 52 30 53 89 54
REMARK SMILES IDX 31 55 32 56 33 57 83 58 34 59 88 60 82 61 84 62 35 63 87 64
REMARK SMILES IDX 81 65 80 66 36 68 68 69 48 70 67 71 49 72 52 73 66 74 85 75
REMARK SMILES IDX 50 76 51 77 65 79 86 80 53 81 37 82 38 83 46 84 39 85 41 86
REMARK SMILES IDX 47 87 40 88 42 89 43 90 44 91 45 92 69 93 70 94 78 95 71 96
REMARK SMILES IDX 73 97 79 98 72 99 74 100 75 101 76 102 77 103 54 104 55 105
REMARK SMILES IDX 63 106 56 107 58 108 64 109 57 110 59 111 60 112 61 113
REMARK SMILES IDX 62 114
REMARK H PARENT 7 20 91 26 94 30 84 67 52 78
REMARK Flexibility Score: inf
ROOT
ATOM      1  O   UNL     1       2.038   4.190   6.267  1.00  0.00    -0.377 OA
ENDROOT
BRANCH   1   2
ATOM      2  C   UNL     1       1.134   3.099   6.335  1.00  0.00     0.188 C 
BRANCH   2   3
ATOM      3  C   UNL     1       1.790   1.811   5.818  1.00  0.00     0.188 C 
BRANCH   3   4
ATOM      4  O   UNL     1       2.759   1.942   4.780  1.00  0.00    -0.376 OA
BRANCH   4   5
ATOM      5  C   UNL     1       2.385   2.741   3.662  1.00  0.00     0.202 C 
BRANCH   5   6
ATOM      6  C   UNL     1       1.176   2.213   2.868  1.00  0.00     0.261 C 
BRANCH   6   7
ATOM      7  O   UNL     1      -0.059   2.383   3.610  1.00  0.00    -0.459 OA
BRANCH   7   8
ATOM      8  C   UNL     1      -1.215   2.128   2.927  1.00  0.00     0.370 C 
ATOM      9  O   UNL     1      -1.292   1.226   2.097  1.00  0.00    -0.245 OA
BRANCH   8  10
ATOM     10  C   UNL     1      -2.360   3.165   3.203  1.00  0.00     0.328 C 
BRANCH  10  11
ATOM     11  C   UNL     1      -3.111   3.056   4.538  1.00  0.00     0.046 A 
ATOM     12  C   UNL     1      -1.656   1.156   7.563  1.00  0.00     0.119 A 
ATOM     13  C   UNL     1      -2.673   1.450   8.459  1.00  0.00     0.048 A 
ATOM     14  C   UNL     1      -1.760   1.527   6.216  1.00  0.00     0.057 A 
ATOM     15  C   UNL     1      -3.813   2.130   8.018  1.00  0.00     0.030 A 
ATOM     16  C   UNL     1      -2.812   2.345   5.766  1.00  0.00     0.013 A 
ATOM     17  C   UNL     1      -3.836   2.589   6.688  1.00  0.00     0.046 A 
ATOM     18  N   UNL     1      -4.787   3.328   6.033  1.00  0.00    -0.361 N 
ATOM     19  C   UNL     1      -4.381   3.585   4.755  1.00  0.00     0.094 A 
ATOM     20  H   UNL     1      -5.637   3.629   6.427  1.00  0.00     0.166 HD
BRANCH  12  21
ATOM     21  O   UNL     1      -0.418   0.728   7.959  1.00  0.00    -0.497 OA
ATOM     22  C   UNL     1      -0.384  -0.517   8.636  1.00  0.00     0.278 C 
ENDBRANCH  12  21
ENDBRANCH  10  11
BRANCH  10  23
ATOM     23  N   UNL     1      -1.955   4.529   2.749  1.00  0.00    -0.310 N 
ATOM     24  C   UNL     1      -0.694   5.055   3.218  1.00  0.00     0.325 C 
ATOM     25  C   UNL     1      -2.913   5.664   2.796  1.00  0.00     0.325 C 
ATOM     26  H   UNL     1      -1.893   4.216   1.780  1.00  0.00     0.349 HD
ATOM     27  C   UNL     1      -0.177   6.032   2.167  1.00  0.00     0.324 C 
ATOM     28  C   UNL     1      -2.314   7.092   2.367  1.00  0.00     0.324 C 
ATOM     29  N   UNL     1      -0.853   7.304   2.393  1.00  0.00    -0.322 N 
ATOM     30  H   UNL     1      -0.786   7.998   1.649  1.00  0.00     0.348 HD
BRANCH  29  31
ATOM     31  C   UNL     1      -0.144   8.060   3.453  1.00  0.00     0.300 C 
BRANCH  31  32
ATOM     32  C   UNL     1      -0.860   8.753   4.596  1.00  0.00     0.014 A 
ATOM     33  C   UNL     1      -0.901  10.157   4.548  1.00  0.00     0.010 A 
ATOM     34  C   UNL     1      -1.407   8.097   5.745  1.00  0.00    -0.010 A 
ATOM     35  C   UNL     1      -1.547  10.887   5.537  1.00  0.00     0.001 A 
ATOM     36  C   UNL     1      -2.232   8.829   6.624  1.00  0.00    -0.018 A 
ATOM     37  C   UNL     1      -1.150   6.766   6.132  1.00  0.00     0.009 A 
ATOM     38  C   UNL     1      -2.264  10.225   6.528  1.00  0.00     0.009 A 
ATOM     39  C   UNL     1      -2.980   8.165   7.616  1.00  0.00     0.009 A 
ATOM     40  C   UNL     1      -1.896   6.098   7.106  1.00  0.00     0.001 A 
ATOM     41  C   UNL     1      -2.856   6.792   7.817  1.00  0.00     0.001 A 
ENDBRANCH  31  32
ENDBRANCH  29  31
ENDBRANCH  10  23
ENDBRANCH   8  10
ENDBRANCH   7   8
ENDBRANCH   6   7
ENDBRANCH   5   6
ENDBRANCH   4   5
ENDBRANCH   3   4
ENDBRANCH   2   3
ENDBRANCH   1   2
BRANCH   1  42
ATOM     42  C   UNL     1       2.022   5.047   7.399  1.00  0.00     0.188 C 
BRANCH  42  43
ATOM     43  C   UNL     1       2.649   4.362   8.618  1.00  0.00     0.188 C 
BRANCH  43  44
ATOM     44  O   UNL     1       1.790   3.571   9.444  1.00  0.00    -0.376 OA
BRANCH  44  45
ATOM     45  C   UNL     1       0.489   4.061   9.768  1.00  0.00     0.202 C 
BRANCH  45  46
ATOM     46  C   UNL     1       0.417   5.296  10.666  1.00  0.00     0.261 C 
BRANCH  46  47
ATOM     47  O   UNL     1       0.762   6.493   9.947  1.00  0.00    -0.460 OA
BRANCH  47  48
ATOM     48  C   UNL     1       1.927   7.059  10.291  1.00  0.00     0.338 C 
ATOM     49  O   UNL     1       2.715   6.663  11.169  1.00  0.00    -0.246 OA
BRANCH  48  50
ATOM     50  C   UNL     1       2.269   8.148   9.379  1.00  0.00     0.060 A 
ATOM     51  C   UNL     1       3.520   8.110   8.750  1.00  0.00     0.016 A 
ATOM     52  C   UNL     1       1.432   9.260   9.244  1.00  0.00     0.016 A 
ATOM     53  C   UNL     1       3.977   9.217   8.050  1.00  0.00     0.010 A 
ATOM     54  C   UNL     1       1.902  10.381   8.557  1.00  0.00     0.010 A 
ATOM     55  C   UNL     1       3.198  10.379   8.012  1.00  0.00    -0.014 A 
BRANCH  55  56
ATOM     56  C   UNL     1       3.843  11.643   7.597  1.00  0.00     0.031 A 
ATOM     57  C   UNL     1       4.410  12.541   8.664  1.00  0.00     0.074 A 
ATOM     58  C   UNL     1       3.969  11.952   6.296  1.00  0.00     0.049 A 
ATOM     59  N   UNL     1       5.042  13.677   8.539  1.00  0.00    -0.248 NA
ATOM     60  C   UNL     1       4.244  12.095  10.059  1.00  0.00     0.031 C 
ATOM     61  C   UNL     1       3.477  11.139   5.186  1.00  0.00     0.029 A 
ATOM     62  N   UNL     1       4.543  13.041   5.695  1.00  0.00    -0.354 N 
ATOM     63  C   UNL     1       5.329  14.094   9.834  1.00  0.00     0.074 A 
ATOM     64  C   UNL     1       4.793  13.095  10.732  1.00  0.00     0.031 C 
ATOM     65  C   UNL     1       3.750  11.771   4.032  1.00  0.00     0.029 A 
ATOM     66  C   UNL     1       4.415  13.040   4.328  1.00  0.00     0.049 A 
ATOM     67  H   UNL     1       5.002  13.754   6.194  1.00  0.00     0.167 HD
ATOM     68  C   UNL     1       5.991  15.203  10.238  1.00  0.00     0.034 A 
ATOM     69  C   UNL     1       4.778  13.972   3.424  1.00  0.00     0.034 A 
ATOM     70  C   UNL     1       6.534  16.180   9.336  1.00  0.00     0.049 A 
ATOM     71  C   UNL     1       5.489  15.211   3.900  1.00  0.00     0.074 A 
ATOM     72  C   UNL     1       7.251  17.324   9.636  1.00  0.00     0.029 A 
ATOM     73  N   UNL     1       6.409  16.134   7.956  1.00  0.00    -0.354 N 
ATOM     74  N   UNL     1       5.845  15.542   5.119  1.00  0.00    -0.248 NA
ATOM     75  C   UNL     1       5.877  16.191   2.876  1.00  0.00     0.031 C 
ATOM     76  C   UNL     1       7.537  17.984   8.436  1.00  0.00     0.029 A 
ATOM     77  C   UNL     1       7.023  17.236   7.388  1.00  0.00     0.049 A 
ATOM     78  H   UNL     1       5.951  15.422   7.454  1.00  0.00     0.167 HD
ATOM     79  C   UNL     1       6.529  16.747   5.004  1.00  0.00     0.074 A 
ATOM     80  C   UNL     1       6.551  17.080   3.594  1.00  0.00     0.031 C 
ATOM     81  C   UNL     1       7.079  17.517   5.976  1.00  0.00     0.034 A 
BRANCH  68  82
ATOM     82  C   UNL     1       6.177  15.407  11.718  1.00  0.00     0.023 A 
ATOM     83  C   UNL     1       7.101  14.611  12.424  1.00  0.00     0.012 A 
ATOM     84  C   UNL     1       5.470  16.416  12.401  1.00  0.00     0.148 A 
ATOM     85  C   UNL     1       7.297  14.795  13.793  1.00  0.00     0.002 A 
ATOM     86  C   UNL     1       5.701  16.621  13.757  1.00  0.00     0.091 A 
ATOM     87  F   UNL     1       4.576  17.145  11.718  1.00  0.00    -0.205 F 
ATOM     88  C   UNL     1       6.606  15.805  14.456  1.00  0.00     0.022 A 
BRANCH  86  89
ATOM     89  S   UNL     1       4.911  17.942  14.683  1.00  0.00     0.127 S 
ATOM     90  O   UNL     1       3.972  17.196  15.520  1.00  0.00    -0.237 OA
ATOM     91  O   UNL     1       6.039  18.529  15.407  1.00  0.00    -0.237 OA
ATOM     92  O   UNL     1       4.304  18.820  13.692  1.00  0.00    -0.744 OA
ENDBRANCH  86  89
ENDBRANCH  68  82
BRANCH  69  93
ATOM     93  C   UNL     1       4.496  13.749   1.979  1.00  0.00     0.023 A 
ATOM     94  C   UNL     1       5.558  13.521   1.085  1.00  0.00     0.012 A 
ATOM     95  C   UNL     1       3.174  13.729   1.495  1.00  0.00     0.148 A 
ATOM     96  C   UNL     1       5.310  13.301  -0.271  1.00  0.00     0.002 A 
ATOM     97  C   UNL     1       2.930  13.455   0.155  1.00  0.00     0.091 A 
ATOM     98  F   UNL     1       2.177  13.970   2.359  1.00  0.00    -0.205 F 
ATOM     99  C   UNL     1       3.997  13.256  -0.734  1.00  0.00     0.022 A 
BRANCH  97 100
ATOM    100  S   UNL     1       1.266  13.246  -0.488  1.00  0.00     0.127 S 
ATOM    101  O   UNL     1       1.083  14.480  -1.248  1.00  0.00    -0.237 OA
ATOM    102  O   UNL     1       1.405  12.037  -1.301  1.00  0.00    -0.237 OA
ATOM    103  O   UNL     1       0.414  13.086   0.682  1.00  0.00    -0.744 OA
ENDBRANCH  97 100
ENDBRANCH  69  93
BRANCH  81 104
ATOM    104  C   UNL     1       7.785  18.779   5.554  1.00  0.00     0.023 A 
ATOM    105  C   UNL     1       7.035  19.894   5.133  1.00  0.00     0.012 A 
ATOM    106  C   UNL     1       9.185  18.886   5.664  1.00  0.00     0.148 A 
ATOM    107  C   UNL     1       7.671  21.089   4.800  1.00  0.00     0.002 A 
ATOM    108  C   UNL     1       9.807  20.095   5.378  1.00  0.00     0.091 A 
ATOM    109  F   UNL     1       9.881  17.807   6.051  1.00  0.00    -0.205 F 
ATOM    110  C   UNL     1       9.053  21.194   4.935  1.00  0.00     0.022 A 
BRANCH 108 111
ATOM    111  S   UNL     1      11.569  20.350   5.619  1.00  0.00     0.127 S 
ATOM    112  O   UNL     1      12.056  20.388   4.241  1.00  0.00    -0.237 OA
ATOM    113  O   UNL     1      11.604  21.638   6.314  1.00  0.00    -0.237 OA
ATOM    114  O   UNL     1      12.033  19.222   6.416  1.00  0.00    -0.744 OA
ENDBRANCH 108 111
ENDBRANCH  81 104
ENDBRANCH  55  56
ENDBRANCH  48  50
ENDBRANCH  47  48
ENDBRANCH  46  47
ENDBRANCH  45  46
ENDBRANCH  44  45
ENDBRANCH  43  44
ENDBRANCH  42  43
ENDBRANCH   1  42
TORSDOF 28
