REMARK SMILES O=C(OCCOCCOCCOCCOC(=O)c1ccc(-n2cc(CSc3nc4ccccc4c(=O)n3-c3ccc(Br)cc3)nn2)cc1)c1ccc(-c2c3nc(c(-c4cccc(S(=O)(=O)[O-])c4F)c4ccc([nH]4)c(-c4cccc(S(=O)(=O)[O-])c4F)c4nc(c(-c5cccc(S(=O)(=O)[O-])c5F)c5ccc2[nH]5)C=C4)C=C3)cc1
REMARK SMILES IDX 10 1 9 2 8 3 7 4 6 5 5 6 4 7 3 8 2 9 1 10 49 11 50 12 111 13
REMARK SMILES IDX 51 14 110 15 52 16 53 17 54 18 104 19 55 20 109 21 103 22
REMARK SMILES IDX 105 23 56 24 108 25 102 26 101 27 57 29 89 30 69 31 88 32
REMARK SMILES IDX 70 33 73 34 87 35 106 36 71 37 72 38 86 40 107 41 74 42
REMARK SMILES IDX 58 43 59 44 67 45 60 46 62 47 68 48 61 49 63 50 64 51 65 52
REMARK SMILES IDX 66 53 90 54 91 55 99 56 92 57 94 58 100 59 93 60 95 61 96 62
REMARK SMILES IDX 97 63 98 64 75 65 76 66 84 67 77 68 79 69 85 70 78 71 80 72
REMARK SMILES IDX 81 73 82 74 83 75 11 76 12 77 13 78 14 79 15 80 16 81 17 82
REMARK SMILES IDX 18 83 19 84 48 85 20 86 47 87 21 88 22 89 23 90 46 91 24 92
REMARK SMILES IDX 45 93 25 94 26 95 27 96 28 97 37 98 29 99 35 100 30 101
REMARK SMILES IDX 34 102 36 103 31 104 33 105 32 106 38 107 39 108 44 109
REMARK SMILES IDX 40 110 43 111 41 112 42 113
REMARK H PARENT 105 28 73 39
REMARK Flexibility Score: inf
ROOT
ATOM      1  C   UNL     1       4.105   2.159   2.571  1.00  0.00     0.188 C 
ENDROOT
BRANCH   1   2
ATOM      2  O   UNL     1       2.779   1.744   2.806  1.00  0.00    -0.377 OA
BRANCH   2   3
ATOM      3  C   UNL     1       2.266   0.880   1.805  1.00  0.00     0.188 C 
BRANCH   3   4
ATOM      4  C   UNL     1       3.024  -0.435   1.537  1.00  0.00     0.188 C 
BRANCH   4   5
ATOM      5  O   UNL     1       4.383  -0.524   1.141  1.00  0.00    -0.376 OA
BRANCH   5   6
ATOM      6  C   UNL     1       5.104   0.181   0.155  1.00  0.00     0.202 C 
BRANCH   6   7
ATOM      7  C   UNL     1       4.539   0.814  -1.114  1.00  0.00     0.261 C 
BRANCH   7   8
ATOM      8  O   UNL     1       3.172   1.179  -1.080  1.00  0.00    -0.460 OA
BRANCH   8   9
ATOM      9  C   UNL     1       2.099   0.431  -1.403  1.00  0.00     0.338 C 
ATOM     10  O   UNL     1       1.001   0.986  -1.419  1.00  0.00    -0.246 OA
BRANCH   9  11
ATOM     11  C   UNL     1       2.142  -1.039  -1.633  1.00  0.00     0.060 A 
ATOM     12  C   UNL     1       3.263  -1.800  -1.971  1.00  0.00     0.016 A 
ATOM     13  C   UNL     1       0.893  -1.684  -1.524  1.00  0.00     0.016 A 
ATOM     14  C   UNL     1       3.108  -3.099  -2.409  1.00  0.00     0.010 A 
ATOM     15  C   UNL     1       0.737  -2.997  -1.920  1.00  0.00     0.010 A 
ATOM     16  C   UNL     1       1.832  -3.650  -2.463  1.00  0.00    -0.014 A 
BRANCH  16  17
ATOM     17  C   UNL     1       1.698  -4.916  -3.150  1.00  0.00     0.031 A 
ATOM     18  C   UNL     1       2.432  -6.038  -2.518  1.00  0.00     0.074 A 
ATOM     19  C   UNL     1       0.973  -5.006  -4.282  1.00  0.00     0.049 A 
ATOM     20  N   UNL     1       3.467  -6.662  -2.977  1.00  0.00    -0.248 NA
ATOM     21  C   UNL     1       2.082  -6.389  -1.135  1.00  0.00     0.031 C 
ATOM     22  C   UNL     1       0.040  -4.021  -4.842  1.00  0.00     0.029 A 
ATOM     23  N   UNL     1       0.821  -6.072  -5.109  1.00  0.00    -0.354 N 
ATOM     24  C   UNL     1       3.752  -7.651  -2.038  1.00  0.00     0.074 A 
ATOM     25  C   UNL     1       2.999  -7.317  -0.859  1.00  0.00     0.031 C 
ATOM     26  C   UNL     1      -0.773  -4.638  -5.727  1.00  0.00     0.029 A 
ATOM     27  C   UNL     1      -0.317  -6.004  -5.904  1.00  0.00     0.049 A 
ATOM     28  H   UNL     1       1.457  -6.822  -5.143  1.00  0.00     0.167 HD
ATOM     29  C   UNL     1       4.391  -8.799  -2.395  1.00  0.00     0.034 A 
ATOM     30  C   UNL     1      -0.889  -7.036  -6.570  1.00  0.00     0.034 A 
ATOM     31  C   UNL     1       5.068  -8.652  -3.656  1.00  0.00     0.049 A 
ATOM     32  C   UNL     1       0.147  -8.084  -6.725  1.00  0.00     0.074 A 
ATOM     33  C   UNL     1       6.083  -7.848  -4.132  1.00  0.00     0.029 A 
ATOM     34  N   UNL     1       4.438  -9.168  -4.762  1.00  0.00    -0.354 N 
ATOM     35  N   UNL     1       1.219  -7.927  -7.452  1.00  0.00    -0.248 NA
ATOM     36  C   UNL     1       0.224  -9.119  -5.706  1.00  0.00     0.031 C 
ATOM     37  C   UNL     1       5.709  -7.546  -5.473  1.00  0.00     0.029 A 
ATOM     38  C   UNL     1       4.528  -8.235  -5.758  1.00  0.00     0.049 A 
ATOM     39  H   UNL     1       4.002 -10.048  -4.826  1.00  0.00     0.167 HD
ATOM     40  C   UNL     1       2.233  -8.503  -6.697  1.00  0.00     0.074 A 
ATOM     41  C   UNL     1       1.547  -9.306  -5.686  1.00  0.00     0.031 C 
ATOM     42  C   UNL     1       3.516  -8.044  -6.773  1.00  0.00     0.034 A 
BRANCH  29  43
ATOM     43  C   UNL     1       4.090 -10.166  -1.823  1.00  0.00     0.023 A 
ATOM     44  C   UNL     1       4.907 -11.238  -2.250  1.00  0.00     0.012 A 
ATOM     45  C   UNL     1       2.894 -10.504  -1.149  1.00  0.00     0.148 A 
ATOM     46  C   UNL     1       4.517 -12.571  -2.086  1.00  0.00     0.002 A 
ATOM     47  C   UNL     1       2.543 -11.830  -0.926  1.00  0.00     0.091 A 
ATOM     48  F   UNL     1       2.012  -9.555  -0.829  1.00  0.00    -0.205 F 
ATOM     49  C   UNL     1       3.333 -12.868  -1.423  1.00  0.00     0.022 A 
BRANCH  47  50
ATOM     50  S   UNL     1       1.040 -12.271  -0.045  1.00  0.00     0.127 S 
ATOM     51  O   UNL     1       0.206 -12.781  -1.130  1.00  0.00    -0.237 OA
ATOM     52  O   UNL     1       1.531 -13.283   0.890  1.00  0.00    -0.237 OA
ATOM     53  O   UNL     1       0.582 -11.043   0.592  1.00  0.00    -0.744 OA
ENDBRANCH  47  50
ENDBRANCH  29  43
BRANCH  30  54
ATOM     54  C   UNL     1      -2.332  -7.314  -6.765  1.00  0.00     0.023 A 
ATOM     55  C   UNL     1      -2.743  -8.200  -7.779  1.00  0.00     0.012 A 
ATOM     56  C   UNL     1      -3.280  -6.933  -5.788  1.00  0.00     0.148 A 
ATOM     57  C   UNL     1      -4.047  -8.709  -7.806  1.00  0.00     0.002 A 
ATOM     58  C   UNL     1      -4.577  -7.434  -5.823  1.00  0.00     0.091 A 
ATOM     59  F   UNL     1      -2.885  -6.153  -4.773  1.00  0.00    -0.205 F 
ATOM     60  C   UNL     1      -4.962  -8.333  -6.825  1.00  0.00     0.022 A 
BRANCH  58  61
ATOM     61  S   UNL     1      -5.802  -7.015  -4.574  1.00  0.00     0.127 S 
ATOM     62  O   UNL     1      -6.945  -6.615  -5.396  1.00  0.00    -0.237 OA
ATOM     63  O   UNL     1      -5.966  -8.286  -3.874  1.00  0.00    -0.237 OA
ATOM     64  O   UNL     1      -5.220  -5.933  -3.791  1.00  0.00    -0.744 OA
ENDBRANCH  58  61
ENDBRANCH  30  54
BRANCH  42  65
ATOM     65  C   UNL     1       3.862  -7.061  -7.861  1.00  0.00     0.023 A 
ATOM     66  C   UNL     1       3.345  -5.748  -7.887  1.00  0.00     0.012 A 
ATOM     67  C   UNL     1       4.902  -7.403  -8.740  1.00  0.00     0.148 A 
ATOM     68  C   UNL     1       3.853  -4.800  -8.780  1.00  0.00     0.002 A 
ATOM     69  C   UNL     1       5.439  -6.445  -9.588  1.00  0.00     0.091 A 
ATOM     70  F   UNL     1       5.381  -8.655  -8.693  1.00  0.00    -0.205 F 
ATOM     71  C   UNL     1       4.913  -5.144  -9.618  1.00  0.00     0.022 A 
BRANCH  69  72
ATOM     72  S   UNL     1       6.897  -6.783 -10.577  1.00  0.00     0.127 S 
ATOM     73  O   UNL     1       6.344  -6.832 -11.928  1.00  0.00    -0.237 OA
ATOM     74  O   UNL     1       7.738  -5.617 -10.300  1.00  0.00    -0.237 OA
ATOM     75  O   UNL     1       7.441  -8.040 -10.078  1.00  0.00    -0.744 OA
ENDBRANCH  69  72
ENDBRANCH  42  65
ENDBRANCH  16  17
ENDBRANCH   9  11
ENDBRANCH   8   9
ENDBRANCH   7   8
ENDBRANCH   6   7
ENDBRANCH   5   6
ENDBRANCH   4   5
ENDBRANCH   3   4
ENDBRANCH   2   3
ENDBRANCH   1   2
BRANCH   1  76
ATOM     76  C   UNL     1       5.151   1.399   3.412  1.00  0.00     0.188 C 
BRANCH  76  77
ATOM     77  O   UNL     1       4.780   0.340   4.280  1.00  0.00    -0.376 OA
BRANCH  77  78
ATOM     78  C   UNL     1       3.591   0.424   5.049  1.00  0.00     0.202 C 
BRANCH  78  79
ATOM     79  C   UNL     1       3.276   1.669   5.900  1.00  0.00     0.261 C 
BRANCH  79  80
ATOM     80  O   UNL     1       3.586   2.947   5.322  1.00  0.00    -0.460 OA
BRANCH  80  81
ATOM     81  C   UNL     1       4.705   3.561   5.768  1.00  0.00     0.338 C 
ATOM     82  O   UNL     1       5.470   3.177   6.641  1.00  0.00    -0.246 OA
BRANCH  81  83
ATOM     83  C   UNL     1       5.001   4.707   4.880  1.00  0.00     0.060 A 
ATOM     84  C   UNL     1       6.204   4.694   4.158  1.00  0.00     0.018 A 
ATOM     85  C   UNL     1       4.095   5.763   4.727  1.00  0.00     0.018 A 
ATOM     86  C   UNL     1       6.505   5.727   3.277  1.00  0.00     0.029 A 
ATOM     87  C   UNL     1       4.396   6.810   3.847  1.00  0.00     0.029 A 
ATOM     88  C   UNL     1       5.607   6.788   3.138  1.00  0.00     0.066 A 
BRANCH  88  89
ATOM     89  N   UNL     1       6.037   7.939   2.452  1.00  0.00    -0.220 N 
ATOM     90  C   UNL     1       7.161   8.659   2.810  1.00  0.00     0.141 A 
ATOM     91  N   UNL     1       5.258   8.683   1.649  1.00  0.00    -0.062 NA
ATOM     92  C   UNL     1       6.968   9.916   2.291  1.00  0.00     0.093 A 
ATOM     93  N   UNL     1       5.856   9.854   1.474  1.00  0.00    -0.134 NA
BRANCH  92  94
ATOM     94  C   UNL     1       7.445  11.269   2.676  1.00  0.00     0.138 C 
BRANCH  94  95
ATOM     95  S   UNL     1       9.097  11.787   3.085  1.00  0.00    -0.081 SA
BRANCH  95  96
ATOM     96  C   UNL     1      10.148  10.565   3.731  1.00  0.00     0.176 A 
ATOM     97  N   UNL     1      11.377  10.758   3.349  1.00  0.00    -0.223 NA
ATOM     98  N   UNL     1       9.803   9.495   4.540  1.00  0.00    -0.255 N 
ATOM     99  C   UNL     1      12.332   9.778   3.630  1.00  0.00     0.079 A 
ATOM    100  C   UNL     1      10.508   8.317   4.241  1.00  0.00     0.266 A 
ATOM    101  C   UNL     1      13.695  10.042   3.509  1.00  0.00     0.029 A 
ATOM    102  C   UNL     1      11.924   8.481   3.896  1.00  0.00     0.066 A 
ATOM    103  O   UNL     1      10.034   7.182   4.206  1.00  0.00    -0.268 OA
ATOM    104  C   UNL     1      14.621   8.994   3.576  1.00  0.00     0.002 A 
ATOM    105  C   UNL     1      12.825   7.414   3.900  1.00  0.00     0.016 A 
ATOM    106  C   UNL     1      14.182   7.676   3.727  1.00  0.00     0.001 A 
BRANCH  98 107
ATOM    107  C   UNL     1       8.763   9.437   5.553  1.00  0.00     0.051 A 
ATOM    108  C   UNL     1       8.633   8.289   6.364  1.00  0.00     0.028 A 
ATOM    109  C   UNL     1       7.836  10.454   5.793  1.00  0.00     0.028 A 
ATOM    110  C   UNL     1       7.508   8.062   7.163  1.00  0.00     0.018 A 
ATOM    111  C   UNL     1       6.670  10.215   6.537  1.00  0.00     0.018 A 
ATOM    112  C   UNL     1       6.492   9.000   7.184  1.00  0.00     0.018 A 
ATOM    113  Br  UNL     1       4.878   8.626   8.085  1.00  0.00    -0.051 Br
ENDBRANCH  98 107
ENDBRANCH  95  96
ENDBRANCH  94  95
ENDBRANCH  92  94
ENDBRANCH  88  89
ENDBRANCH  81  83
ENDBRANCH  80  81
ENDBRANCH  79  80
ENDBRANCH  78  79
ENDBRANCH  77  78
ENDBRANCH  76  77
ENDBRANCH   1  76
TORSDOF 28
