REMARK SMILES C[C@@H]1[NH2+]CC[C@H]1C(=O)NCc1cccc(C(=O)OCCOCCOCCOCCOC(=O)c2ccc(-c3c4nc(c(-c5cccc(S(=O)(=O)[O-])c5F)c5ccc([nH]5)c(-c5cccc(S(=O)(=O)[O-])c5F)c5nc(c(-c6cccc(S(=O)(=O)[O-])c6F)c6ccc3[nH]6)C=C5)C=C4)cc2)c1
REMARK SMILES IDX 24 1 23 2 22 3 21 4 20 5 19 6 18 7 16 8 17 9 15 10 11 11
REMARK SMILES IDX 12 12 96 13 13 14 14 15 10 16 9 17 7 18 8 19 6 21 1 22 2 23
REMARK SMILES IDX 3 24 4 25 5 28 25 29 26 30 27 31 28 32 29 33 30 34 31 35
REMARK SMILES IDX 32 36 33 37 34 38 95 39 35 40 94 41 36 42 37 43 38 44 88 45
REMARK SMILES IDX 39 46 93 47 87 48 89 49 40 50 92 51 86 52 85 53 41 55 73 56
REMARK SMILES IDX 53 57 72 58 54 59 57 60 71 61 90 62 55 63 56 64 70 66 91 67
REMARK SMILES IDX 58 68 42 69 43 70 51 71 44 72 46 73 52 74 45 75 47 76 48 77
REMARK SMILES IDX 49 78 50 79 74 80 75 81 83 82 76 83 78 84 84 85 77 86 79 87
REMARK SMILES IDX 80 88 81 89 82 90 59 91 60 92 68 93 61 94 63 95 69 96 62 97
REMARK SMILES IDX 64 98 65 99 66 100 67 101
REMARK H PARENT 9 20 3 26 3 27 89 54 57 65
REMARK Flexibility Score: inf
ROOT
ATOM      1  O   UNL     1      -0.173   2.539   7.800  1.00  0.00    -0.377 OA
ENDROOT
BRANCH   1   2
ATOM      2  C   UNL     1       0.247   1.201   8.017  1.00  0.00     0.188 C 
BRANCH   2   3
ATOM      3  C   UNL     1       1.617   0.915   8.670  1.00  0.00     0.188 C 
BRANCH   3   4
ATOM      4  O   UNL     1       2.273   2.063   9.178  1.00  0.00    -0.376 OA
BRANCH   4   5
ATOM      5  C   UNL     1       3.469   2.497   8.556  1.00  0.00     0.202 C 
BRANCH   5   6
ATOM      6  C   UNL     1       3.401   2.956   7.093  1.00  0.00     0.261 C 
BRANCH   6   7
ATOM      7  O   UNL     1       2.649   2.110   6.218  1.00  0.00    -0.460 OA
BRANCH   7   8
ATOM      8  C   UNL     1       3.204   0.942   5.826  1.00  0.00     0.338 C 
ATOM      9  O   UNL     1       4.299   0.510   6.139  1.00  0.00    -0.246 OA
BRANCH   8  10
ATOM     10  C   UNL     1       2.133   0.157   5.160  1.00  0.00     0.060 A 
ATOM     11  C   UNL     1       0.061   0.071   3.877  1.00  0.00    -0.028 A 
ATOM     12  C   UNL     1      -0.062  -1.286   4.219  1.00  0.00     0.005 A 
ATOM     13  C   UNL     1       1.166   0.787   4.364  1.00  0.00     0.021 A 
ATOM     14  C   UNL     1       0.906  -1.919   5.003  1.00  0.00     0.001 A 
ATOM     15  C   UNL     1       2.009  -1.202   5.467  1.00  0.00     0.016 A 
BRANCH  11  16
ATOM     16  C   UNL     1      -1.030   0.733   3.065  1.00  0.00     0.151 C 
BRANCH  16  17
ATOM     17  N   UNL     1      -0.610   1.961   2.427  1.00  0.00    -0.352 N 
ATOM     18  C   UNL     1      -0.120   2.220   1.189  1.00  0.00     0.229 C 
ATOM     19  O   UNL     1       0.335   3.347   0.991  1.00  0.00    -0.275 OA
ATOM     20  H   UNL     1      -0.695   2.759   2.998  1.00  0.00     0.163 HD
BRANCH  18  21
ATOM     21  C   UNL     1      -0.106   1.199   0.067  1.00  0.00     0.142 C 
ATOM     22  C   UNL     1       2.008  -0.030  -0.595  1.00  0.00     0.076 C 
ATOM     23  C   UNL     1       0.797  -0.003   0.338  1.00  0.00     0.192 C 
ATOM     24  N   UNL     1      -0.020  -1.217   0.133  1.00  0.00    -0.343 N 
ATOM     25  C   UNL     1      -1.204  -0.811  -0.629  1.00  0.00     0.261 C 
ATOM     26  H   UNL     1      -0.299  -1.607   1.033  1.00  0.00     0.346 HD
ATOM     27  H   UNL     1       0.508  -1.932  -0.367  1.00  0.00     0.346 HD
ATOM     28  C   UNL     1      -1.472   0.641  -0.293  1.00  0.00     0.081 C 
ENDBRANCH  18  21
ENDBRANCH  16  17
ENDBRANCH  11  16
ENDBRANCH   8  10
ENDBRANCH   7   8
ENDBRANCH   6   7
ENDBRANCH   5   6
ENDBRANCH   4   5
ENDBRANCH   3   4
ENDBRANCH   2   3
ENDBRANCH   1   2
BRANCH   1  29
ATOM     29  C   UNL     1       0.035   3.522   8.810  1.00  0.00     0.188 C 
BRANCH  29  30
ATOM     30  C   UNL     1       0.006   3.136  10.308  1.00  0.00     0.188 C 
BRANCH  30  31
ATOM     31  O   UNL     1      -0.370   1.792  10.568  1.00  0.00    -0.376 OA
BRANCH  31  32
ATOM     32  C   UNL     1      -1.661   1.581  11.114  1.00  0.00     0.202 C 
BRANCH  32  33
ATOM     33  C   UNL     1      -2.854   1.976  10.233  1.00  0.00     0.261 C 
BRANCH  33  34
ATOM     34  O   UNL     1      -2.881   3.339   9.782  1.00  0.00    -0.460 OA
BRANCH  34  35
ATOM     35  C   UNL     1      -3.004   4.306  10.717  1.00  0.00     0.338 C 
ATOM     36  O   UNL     1      -3.107   4.154  11.924  1.00  0.00    -0.246 OA
BRANCH  35  37
ATOM     37  C   UNL     1      -2.793   5.601  10.040  1.00  0.00     0.060 A 
ATOM     38  C   UNL     1      -1.708   6.405  10.415  1.00  0.00     0.016 A 
ATOM     39  C   UNL     1      -3.648   6.001   9.011  1.00  0.00     0.016 A 
ATOM     40  C   UNL     1      -1.487   7.624   9.771  1.00  0.00     0.010 A 
ATOM     41  C   UNL     1      -3.439   7.231   8.384  1.00  0.00     0.010 A 
ATOM     42  C   UNL     1      -2.375   8.060   8.779  1.00  0.00    -0.014 A 
BRANCH  42  43
ATOM     43  C   UNL     1      -2.304   9.452   8.275  1.00  0.00     0.031 A 
ATOM     44  C   UNL     1      -3.242  10.471   8.861  1.00  0.00     0.074 A 
ATOM     45  C   UNL     1      -1.444   9.804   7.303  1.00  0.00     0.049 A 
ATOM     46  N   UNL     1      -3.415  11.724   8.535  1.00  0.00    -0.248 NA
ATOM     47  C   UNL     1      -4.106  10.008   9.960  1.00  0.00     0.031 C 
ATOM     48  C   UNL     1      -0.478   8.913   6.663  1.00  0.00     0.029 A 
ATOM     49  N   UNL     1      -1.272  11.006   6.663  1.00  0.00    -0.354 N 
ATOM     50  C   UNL     1      -4.427  12.193   9.364  1.00  0.00     0.074 A 
ATOM     51  C   UNL     1      -4.836  11.087  10.202  1.00  0.00     0.031 C 
ATOM     52  C   UNL     1       0.166   9.592   5.697  1.00  0.00     0.029 A 
ATOM     53  C   UNL     1      -0.365  10.953   5.630  1.00  0.00     0.049 A 
ATOM     54  H   UNL     1      -1.751  11.827   6.919  1.00  0.00     0.167 HD
ATOM     55  C   UNL     1      -4.962  13.434   9.429  1.00  0.00     0.034 A 
ATOM     56  C   UNL     1      -0.029  11.887   4.718  1.00  0.00     0.034 A 
ATOM     57  C   UNL     1      -4.551  14.534   8.599  1.00  0.00     0.049 A 
ATOM     58  C   UNL     1      -0.676  13.248   4.779  1.00  0.00     0.074 A 
ATOM     59  C   UNL     1      -5.000  15.842   8.622  1.00  0.00     0.029 A 
ATOM     60  N   UNL     1      -3.613  14.450   7.582  1.00  0.00    -0.354 N 
ATOM     61  N   UNL     1      -1.547  13.713   5.641  1.00  0.00    -0.248 NA
ATOM     62  C   UNL     1      -0.273  14.222   3.752  1.00  0.00     0.031 C 
ATOM     63  C   UNL     1      -4.363  16.540   7.591  1.00  0.00     0.029 A 
ATOM     64  C   UNL     1      -3.485  15.677   6.954  1.00  0.00     0.049 A 
ATOM     65  H   UNL     1      -3.112  13.638   7.342  1.00  0.00     0.167 HD
ATOM     66  C   UNL     1      -1.771  15.039   5.283  1.00  0.00     0.074 A 
ATOM     67  C   UNL     1      -0.925  15.309   4.139  1.00  0.00     0.031 C 
ATOM     68  C   UNL     1      -2.609  15.947   5.843  1.00  0.00     0.034 A 
BRANCH  55  69
ATOM     69  C   UNL     1      -6.053  13.668  10.441  1.00  0.00     0.023 A 
ATOM     70  C   UNL     1      -5.740  13.699  11.816  1.00  0.00     0.012 A 
ATOM     71  C   UNL     1      -7.380  13.895  10.029  1.00  0.00     0.148 A 
ATOM     72  C   UNL     1      -6.738  13.915  12.766  1.00  0.00     0.002 A 
ATOM     73  C   UNL     1      -8.360  14.158  10.978  1.00  0.00     0.091 A 
ATOM     74  F   UNL     1      -7.661  13.838   8.719  1.00  0.00    -0.205 F 
ATOM     75  C   UNL     1      -8.044  14.155  12.347  1.00  0.00     0.022 A 
BRANCH  73  76
ATOM     76  S   UNL     1     -10.054  14.556  10.536  1.00  0.00     0.127 S 
ATOM     77  O   UNL     1     -10.766  13.364  10.995  1.00  0.00    -0.237 OA
ATOM     78  O   UNL     1     -10.303  15.759  11.331  1.00  0.00    -0.237 OA
ATOM     79  O   UNL     1     -10.056  14.768   9.095  1.00  0.00    -0.744 OA
ENDBRANCH  73  76
ENDBRANCH  55  69
BRANCH  56  80
ATOM     80  C   UNL     1       0.981  11.577   3.666  1.00  0.00     0.023 A 
ATOM     81  C   UNL     1       2.232  12.223   3.689  1.00  0.00     0.012 A 
ATOM     82  C   UNL     1       0.706  10.648   2.644  1.00  0.00     0.148 A 
ATOM     83  C   UNL     1       3.180  11.972   2.697  1.00  0.00     0.002 A 
ATOM     84  C   UNL     1       1.674  10.363   1.690  1.00  0.00     0.091 A 
ATOM     85  F   UNL     1      -0.498  10.058   2.632  1.00  0.00    -0.205 F 
ATOM     86  C   UNL     1       2.906  11.035   1.704  1.00  0.00     0.022 A 
BRANCH  84  87
ATOM     87  S   UNL     1       1.457   9.091   0.442  1.00  0.00     0.127 S 
ATOM     88  O   UNL     1       1.440   9.880  -0.787  1.00  0.00    -0.237 OA
ATOM     89  O   UNL     1       2.659   8.280   0.638  1.00  0.00    -0.237 OA
ATOM     90  O   UNL     1       0.207   8.423   0.777  1.00  0.00    -0.744 OA
ENDBRANCH  84  87
ENDBRANCH  56  80
BRANCH  68  91
ATOM     91  C   UNL     1      -2.635  17.336   5.254  1.00  0.00     0.023 A 
ATOM     92  C   UNL     1      -3.219  17.555   3.991  1.00  0.00     0.012 A 
ATOM     93  C   UNL     1      -2.146  18.436   5.988  1.00  0.00     0.148 A 
ATOM     94  C   UNL     1      -3.284  18.840   3.451  1.00  0.00     0.002 A 
ATOM     95  C   UNL     1      -2.261  19.719   5.468  1.00  0.00     0.091 A 
ATOM     96  F   UNL     1      -1.581  18.207   7.182  1.00  0.00    -0.205 F 
ATOM     97  C   UNL     1      -2.817  19.922   4.194  1.00  0.00     0.022 A 
BRANCH  95  98
ATOM     98  S   UNL     1      -1.778  21.183   6.390  1.00  0.00     0.127 S 
ATOM     99  O   UNL     1      -0.603  21.631   5.644  1.00  0.00    -0.237 OA
ATOM    100  O   UNL     1      -2.955  22.041   6.247  1.00  0.00    -0.237 OA
ATOM    101  O   UNL     1      -1.518  20.735   7.751  1.00  0.00    -0.744 OA
ENDBRANCH  95  98
ENDBRANCH  68  91
ENDBRANCH  42  43
ENDBRANCH  35  37
ENDBRANCH  34  35
ENDBRANCH  33  34
ENDBRANCH  32  33
ENDBRANCH  31  32
ENDBRANCH  30  31
ENDBRANCH  29  30
ENDBRANCH   1  29
TORSDOF 26
