REMARK SMILES C/C(C(=O)OCCOCCOCCOCCOC(=O)c1ccc(-c2c3nc(c(-c4cccc(S(=O)(=O)[O-])c4F)c4ccc([nH]4)c(-c4cccc(S(=O)(=O)[O-])c4F)c4nc(c(-c5cccc(S(=O)(=O)[O-])c5F)c5ccc2[nH]5)C=C4)C=C3)cc1)=C(\C)c1ccc(C)c(F)c1
REMARK SMILES IDX 12 1 11 2 10 3 9 4 8 5 7 6 6 7 5 8 3 9 4 10 2 11 1 12 83 13
REMARK SMILES IDX 84 14 85 15 86 16 92 17 87 18 90 19 88 20 91 21 89 22 13 23
REMARK SMILES IDX 14 24 15 25 16 26 17 27 18 28 19 29 20 30 21 31 82 32 22 33
REMARK SMILES IDX 81 34 23 35 24 36 25 37 75 38 26 39 80 40 74 41 76 42 27 43
REMARK SMILES IDX 79 44 73 45 72 46 28 48 60 49 40 50 59 51 41 52 44 53 58 54
REMARK SMILES IDX 77 55 42 56 43 57 57 59 78 60 45 61 29 62 30 63 38 64 31 65
REMARK SMILES IDX 33 66 39 67 32 68 34 69 35 70 36 71 37 72 61 73 62 74 70 75
REMARK SMILES IDX 63 76 65 77 71 78 64 79 66 80 67 81 68 82 69 83 46 84 47 85
REMARK SMILES IDX 55 86 48 87 50 88 56 89 49 90 51 91 52 92 53 93 54 94
REMARK H PARENT 76 47 44 58
REMARK Flexibility Score: inf
ROOT
ATOM      1  C   UNL     1      -3.890  -1.746  -0.722  1.00  0.00     0.188 C 
ENDROOT
BRANCH   1   2
ATOM      2  O   UNL     1      -2.778  -0.895  -0.482  1.00  0.00    -0.377 OA
BRANCH   2   3
ATOM      3  C   UNL     1      -2.186  -0.212  -1.579  1.00  0.00     0.188 C 
BRANCH   3   4
ATOM      4  C   UNL     1      -2.153  -0.866  -2.983  1.00  0.00     0.188 C 
BRANCH   4   5
ATOM      5  O   UNL     1      -2.553  -2.223  -2.984  1.00  0.00    -0.376 OA
BRANCH   5   6
ATOM      6  C   UNL     1      -1.564  -3.204  -3.208  1.00  0.00     0.202 C 
BRANCH   6   7
ATOM      7  C   UNL     1      -0.335  -3.242  -2.290  1.00  0.00     0.261 C 
BRANCH   7   8
ATOM      8  O   UNL     1       0.135  -1.977  -1.804  1.00  0.00    -0.460 OA
BRANCH   8   9
ATOM      9  C   UNL     1       1.022  -1.261  -2.535  1.00  0.00     0.334 C 
ATOM     10  O   UNL     1       1.455  -1.562  -3.634  1.00  0.00    -0.247 OA
BRANCH   9  11
ATOM     11  C   UNL     1       1.370  -0.012  -1.772  1.00  0.00     0.038 C 
ATOM     12  C   UNL     1       1.638  -0.229  -0.300  1.00  0.00     0.052 C 
ATOM     13  C   UNL     1       1.359   1.226  -2.334  1.00  0.00    -0.034 C 
ATOM     14  C   UNL     1       1.789   2.482  -1.612  1.00  0.00     0.045 C 
BRANCH  13  15
ATOM     15  C   UNL     1       0.829   1.518  -3.685  1.00  0.00    -0.019 A 
ATOM     16  C   UNL     1       1.635   1.491  -4.825  1.00  0.00     0.009 A 
ATOM     17  C   UNL     1      -0.519   1.872  -3.828  1.00  0.00     0.048 A 
ATOM     18  C   UNL     1       1.080   1.723  -6.093  1.00  0.00     0.007 A 
ATOM     19  C   UNL     1      -1.072   2.057  -5.091  1.00  0.00     0.126 A 
ATOM     20  C   UNL     1      -0.294   1.953  -6.240  1.00  0.00    -0.015 A 
ATOM     21  F   UNL     1      -2.384   2.318  -5.188  1.00  0.00    -0.207 F 
ATOM     22  C   UNL     1      -0.916   2.117  -7.593  1.00  0.00     0.047 C 
ENDBRANCH  13  15
ENDBRANCH   9  11
ENDBRANCH   8   9
ENDBRANCH   7   8
ENDBRANCH   6   7
ENDBRANCH   5   6
ENDBRANCH   4   5
ENDBRANCH   3   4
ENDBRANCH   2   3
ENDBRANCH   1   2
BRANCH   1  23
ATOM     23  C   UNL     1      -4.957  -1.301  -1.747  1.00  0.00     0.188 C 
BRANCH  23  24
ATOM     24  O   UNL     1      -4.750  -0.004  -2.287  1.00  0.00    -0.376 OA
BRANCH  24  25
ATOM     25  C   UNL     1      -5.535   1.064  -1.790  1.00  0.00     0.202 C 
BRANCH  25  26
ATOM     26  C   UNL     1      -5.425   1.409  -0.297  1.00  0.00     0.261 C 
BRANCH  26  27
ATOM     27  O   UNL     1      -5.620   0.326   0.623  1.00  0.00    -0.460 OA
BRANCH  27  28
ATOM     28  C   UNL     1      -6.836  -0.259   0.643  1.00  0.00     0.338 C 
ATOM     29  O   UNL     1      -7.814   0.057  -0.018  1.00  0.00    -0.246 OA
BRANCH  28  30
ATOM     30  C   UNL     1      -6.722  -1.496   1.443  1.00  0.00     0.060 A 
ATOM     31  C   UNL     1      -7.016  -2.722   0.831  1.00  0.00     0.016 A 
ATOM     32  C   UNL     1      -6.295  -1.451   2.773  1.00  0.00     0.016 A 
ATOM     33  C   UNL     1      -6.932  -3.903   1.562  1.00  0.00     0.010 A 
ATOM     34  C   UNL     1      -6.240  -2.634   3.515  1.00  0.00     0.010 A 
ATOM     35  C   UNL     1      -6.607  -3.856   2.923  1.00  0.00    -0.014 A 
BRANCH  35  36
ATOM     36  C   UNL     1      -6.924  -5.037   3.759  1.00  0.00     0.031 A 
ATOM     37  C   UNL     1      -8.245  -5.047   4.482  1.00  0.00     0.074 A 
ATOM     38  C   UNL     1      -6.106  -6.102   3.819  1.00  0.00     0.049 A 
ATOM     39  N   UNL     1      -8.783  -5.985   5.215  1.00  0.00    -0.248 NA
ATOM     40  C   UNL     1      -9.072  -3.834   4.357  1.00  0.00     0.031 C 
ATOM     41  C   UNL     1      -4.813  -6.217   3.149  1.00  0.00     0.029 A 
ATOM     42  N   UNL     1      -6.250  -7.291   4.487  1.00  0.00    -0.354 N 
ATOM     43  C   UNL     1      -9.997  -5.469   5.654  1.00  0.00     0.074 A 
ATOM     44  C   UNL     1     -10.107  -4.128   5.126  1.00  0.00     0.031 C 
ATOM     45  C   UNL     1      -4.271  -7.410   3.455  1.00  0.00     0.029 A 
ATOM     46  C   UNL     1      -5.172  -8.132   4.353  1.00  0.00     0.049 A 
ATOM     47  H   UNL     1      -7.050  -7.521   5.013  1.00  0.00     0.167 HD
ATOM     48  C   UNL     1     -10.946  -6.062   6.414  1.00  0.00     0.034 A 
ATOM     49  C   UNL     1      -4.939  -9.341   4.902  1.00  0.00     0.034 A 
ATOM     50  C   UNL     1     -10.838  -7.397   6.934  1.00  0.00     0.049 A 
ATOM     51  C   UNL     1      -6.001  -9.970   5.770  1.00  0.00     0.074 A 
ATOM     52  C   UNL     1     -11.754  -8.101   7.694  1.00  0.00     0.029 A 
ATOM     53  N   UNL     1      -9.740  -8.225   6.760  1.00  0.00    -0.354 N 
ATOM     54  N   UNL     1      -7.186  -9.511   6.095  1.00  0.00    -0.248 NA
ATOM     55  C   UNL     1      -5.709 -11.306   6.311  1.00  0.00     0.031 C 
ATOM     56  C   UNL     1     -11.193  -9.342   8.012  1.00  0.00     0.029 A 
ATOM     57  C   UNL     1      -9.950  -9.431   7.405  1.00  0.00     0.049 A 
ATOM     58  H   UNL     1      -8.930  -7.989   6.253  1.00  0.00     0.167 HD
ATOM     59  C   UNL     1      -7.798 -10.520   6.833  1.00  0.00     0.074 A 
ATOM     60  C   UNL     1      -6.858 -11.619   6.892  1.00  0.00     0.031 C 
ATOM     61  C   UNL     1      -9.025 -10.535   7.412  1.00  0.00     0.034 A 
BRANCH  48  62
ATOM     62  C   UNL     1     -12.186  -5.265   6.723  1.00  0.00     0.023 A 
ATOM     63  C   UNL     1     -13.119  -4.987   5.703  1.00  0.00     0.012 A 
ATOM     64  C   UNL     1     -12.441  -4.817   8.034  1.00  0.00     0.148 A 
ATOM     65  C   UNL     1     -14.268  -4.245   5.974  1.00  0.00     0.002 A 
ATOM     66  C   UNL     1     -13.613  -4.123   8.307  1.00  0.00     0.091 A 
ATOM     67  F   UNL     1     -11.529  -5.068   8.984  1.00  0.00    -0.205 F 
ATOM     68  C   UNL     1     -14.520  -3.823   7.277  1.00  0.00     0.022 A 
BRANCH  66  69
ATOM     69  S   UNL     1     -14.068  -3.610   9.966  1.00  0.00     0.127 S 
ATOM     70  O   UNL     1     -13.955  -2.155   9.867  1.00  0.00    -0.237 OA
ATOM     71  O   UNL     1     -15.439  -4.109  10.075  1.00  0.00    -0.237 OA
ATOM     72  O   UNL     1     -13.114  -4.249  10.862  1.00  0.00    -0.744 OA
ENDBRANCH  66  69
ENDBRANCH  48  62
BRANCH  49  73
ATOM     73  C   UNL     1      -3.663 -10.060   4.623  1.00  0.00     0.023 A 
ATOM     74  C   UNL     1      -3.679 -11.249   3.868  1.00  0.00     0.012 A 
ATOM     75  C   UNL     1      -2.436  -9.573   5.111  1.00  0.00     0.148 A 
ATOM     76  C   UNL     1      -2.501 -11.962   3.639  1.00  0.00     0.002 A 
ATOM     77  C   UNL     1      -1.259 -10.257   4.831  1.00  0.00     0.091 A 
ATOM     78  F   UNL     1      -2.444  -8.448   5.839  1.00  0.00    -0.205 F 
ATOM     79  C   UNL     1      -1.291 -11.462   4.113  1.00  0.00     0.022 A 
BRANCH  77  80
ATOM     80  S   UNL     1       0.357  -9.626   5.295  1.00  0.00     0.127 S 
ATOM     81  O   UNL     1       0.787 -10.606   6.289  1.00  0.00    -0.237 OA
ATOM     82  O   UNL     1       1.076  -9.682   4.021  1.00  0.00    -0.237 OA
ATOM     83  O   UNL     1       0.127  -8.278   5.797  1.00  0.00    -0.744 OA
ENDBRANCH  77  80
ENDBRANCH  49  73
BRANCH  61  84
ATOM     84  C   UNL     1      -9.457 -11.805   8.103  1.00  0.00     0.023 A 
ATOM     85  C   UNL     1      -8.841 -12.211   9.303  1.00  0.00     0.012 A 
ATOM     86  C   UNL     1     -10.517 -12.573   7.579  1.00  0.00     0.148 A 
ATOM     87  C   UNL     1      -9.235 -13.388   9.940  1.00  0.00     0.002 A 
ATOM     88  C   UNL     1     -10.943 -13.712   8.250  1.00  0.00     0.091 A 
ATOM     89  F   UNL     1     -11.084 -12.181   6.428  1.00  0.00    -0.205 F 
ATOM     90  C   UNL     1     -10.291 -14.132   9.420  1.00  0.00     0.022 A 
BRANCH  88  91
ATOM     91  S   UNL     1     -12.363 -14.669   7.707  1.00  0.00     0.127 S 
ATOM     92  O   UNL     1     -11.723 -15.853   7.136  1.00  0.00    -0.237 OA
ATOM     93  O   UNL     1     -13.076 -14.907   8.963  1.00  0.00    -0.237 OA
ATOM     94  O   UNL     1     -13.077 -13.824   6.760  1.00  0.00    -0.744 OA
ENDBRANCH  88  91
ENDBRANCH  61  84
ENDBRANCH  35  36
ENDBRANCH  28  30
ENDBRANCH  27  28
ENDBRANCH  26  27
ENDBRANCH  25  26
ENDBRANCH  24  25
ENDBRANCH  23  24
ENDBRANCH   1  23
TORSDOF 24
