REMARK SMILES Cc1cc2c(=O)cc(-c3ccc(F)cc3)oc2c(C(=O)OCCOCCOCCOCCOC(=O)c2ccc(-c3c4nc(c(-c5cccc(S(=O)(=O)[O-])c5F)c5ccc([nH]5)c(-c5cccc(S(=O)(=O)[O-])c5F)c5nc(c(-c6cccc(S(=O)(=O)[O-])c6F)c6ccc3[nH]6)C=C5)C=C4)cc2)c1C
REMARK SMILES IDX 28 1 27 2 26 3 25 4 24 5 23 6 22 7 21 8 19 9 20 10 18 11
REMARK SMILES IDX 1 12 2 13 3 14 99 15 4 16 100 17 5 18 17 19 6 20 7 21 16 22
REMARK SMILES IDX 8 23 9 24 10 25 15 26 11 27 14 28 12 29 13 30 29 31 30 32
REMARK SMILES IDX 31 33 32 34 33 35 34 36 35 37 36 38 37 39 98 40 38 41 97 42
REMARK SMILES IDX 39 43 40 44 41 45 91 46 42 47 96 48 90 49 92 50 43 51 95 52
REMARK SMILES IDX 89 53 88 54 44 56 76 57 56 58 75 59 57 60 60 61 74 62 93 63
REMARK SMILES IDX 58 64 59 65 73 67 94 68 61 69 45 70 46 71 54 72 47 73 49 74
REMARK SMILES IDX 55 75 48 76 50 77 51 78 52 79 53 80 77 81 78 82 86 83 79 84
REMARK SMILES IDX 81 85 87 86 80 87 82 88 83 89 84 90 85 91 62 92 63 93 71 94
REMARK SMILES IDX 64 95 66 96 72 97 65 98 67 99 68 100 69 101 70 102
REMARK H PARENT 92 55 60 66
REMARK Flexibility Score: inf
ROOT
ATOM      1  C   UNL     1      -4.238   1.646   4.624  1.00  0.00     0.188 C 
ENDROOT
BRANCH   1   2
ATOM      2  O   UNL     1      -3.708   0.670   3.743  1.00  0.00    -0.377 OA
BRANCH   2   3
ATOM      3  C   UNL     1      -2.836  -0.323   4.269  1.00  0.00     0.188 C 
BRANCH   3   4
ATOM      4  C   UNL     1      -2.560  -0.512   5.781  1.00  0.00     0.188 C 
BRANCH   4   5
ATOM      5  O   UNL     1      -2.608   0.668   6.576  1.00  0.00    -0.376 OA
BRANCH   5   6
ATOM      6  C   UNL     1      -1.378   1.121   7.126  1.00  0.00     0.202 C 
BRANCH   6   7
ATOM      7  C   UNL     1      -0.533   1.900   6.122  1.00  0.00     0.261 C 
BRANCH   7   8
ATOM      8  O   UNL     1      -0.265   1.143   4.934  1.00  0.00    -0.460 OA
BRANCH   8   9
ATOM      9  C   UNL     1       0.679   0.181   5.009  1.00  0.00     0.342 C 
ATOM     10  O   UNL     1       1.329  -0.118   5.995  1.00  0.00    -0.246 OA
BRANCH   9  11
ATOM     11  C   UNL     1       0.728  -0.546   3.709  1.00  0.00     0.106 A 
ATOM     12  C   UNL     1       1.001   0.029  -0.093  1.00  0.00     0.044 C 
ATOM     13  C   UNL     1       0.902  -0.612   1.268  1.00  0.00    -0.046 A 
ATOM     14  C   UNL     1       0.949  -2.011   1.336  1.00  0.00     0.019 A 
ATOM     15  C   UNL     1       0.803   0.142   2.462  1.00  0.00    -0.030 A 
ATOM     16  C   UNL     1       0.808  -2.668   2.559  1.00  0.00     0.066 A 
ATOM     17  C   UNL     1       0.667   1.647   2.392  1.00  0.00     0.046 C 
ATOM     18  C   UNL     1       0.758  -4.137   2.586  1.00  0.00     0.193 A 
ATOM     19  C   UNL     1       0.671  -1.952   3.747  1.00  0.00     0.153 A 
ATOM     20  O   UNL     1       0.988  -4.827   1.602  1.00  0.00    -0.289 OA
ATOM     21  C   UNL     1       0.373  -4.752   3.859  1.00  0.00     0.100 A 
ATOM     22  O   UNL     1       0.398  -2.592   4.941  1.00  0.00    -0.455 OA
ATOM     23  C   UNL     1       0.203  -3.963   4.927  1.00  0.00     0.138 A 
BRANCH  23  24
ATOM     24  C   UNL     1      -0.262  -4.561   6.186  1.00  0.00     0.018 A 
ATOM     25  C   UNL     1      -1.579  -4.353   6.624  1.00  0.00     0.015 A 
ATOM     26  C   UNL     1       0.572  -5.427   6.910  1.00  0.00     0.015 A 
ATOM     27  C   UNL     1      -2.057  -5.011   7.761  1.00  0.00     0.040 A 
ATOM     28  C   UNL     1       0.092  -6.083   8.046  1.00  0.00     0.040 A 
ATOM     29  C   UNL     1      -1.218  -5.873   8.457  1.00  0.00     0.123 A 
ATOM     30  F   UNL     1      -1.683  -6.522   9.534  1.00  0.00    -0.207 F 
ENDBRANCH  23  24
ENDBRANCH   9  11
ENDBRANCH   8   9
ENDBRANCH   7   8
ENDBRANCH   6   7
ENDBRANCH   5   6
ENDBRANCH   4   5
ENDBRANCH   3   4
ENDBRANCH   2   3
ENDBRANCH   1   2
BRANCH   1  31
ATOM     31  C   UNL     1      -5.285   1.094   5.608  1.00  0.00     0.188 C 
BRANCH  31  32
ATOM     32  O   UNL     1      -5.449  -0.321   5.504  1.00  0.00    -0.376 OA
BRANCH  32  33
ATOM     33  C   UNL     1      -6.600  -0.769   4.800  1.00  0.00     0.202 C 
BRANCH  33  34
ATOM     34  C   UNL     1      -6.660  -0.463   3.296  1.00  0.00     0.261 C 
BRANCH  34  35
ATOM     35  O   UNL     1      -6.648   0.924   2.925  1.00  0.00    -0.460 OA
BRANCH  35  36
ATOM     36  C   UNL     1      -7.627   1.730   3.393  1.00  0.00     0.338 C 
ATOM     37  O   UNL     1      -8.570   1.414   4.094  1.00  0.00    -0.246 OA
BRANCH  36  38
ATOM     38  C   UNL     1      -7.228   3.112   3.050  1.00  0.00     0.060 A 
ATOM     39  C   UNL     1      -6.924   3.441   1.726  1.00  0.00     0.016 A 
ATOM     40  C   UNL     1      -7.082   4.063   4.069  1.00  0.00     0.016 A 
ATOM     41  C   UNL     1      -6.483   4.729   1.418  1.00  0.00     0.010 A 
ATOM     42  C   UNL     1      -6.625   5.347   3.759  1.00  0.00     0.010 A 
ATOM     43  C   UNL     1      -6.338   5.692   2.430  1.00  0.00    -0.014 A 
BRANCH  43  44
ATOM     44  C   UNL     1      -6.068   7.103   2.064  1.00  0.00     0.031 A 
ATOM     45  C   UNL     1      -4.701   7.710   2.154  1.00  0.00     0.074 A 
ATOM     46  C   UNL     1      -7.113   7.848   1.656  1.00  0.00     0.049 A 
ATOM     47  N   UNL     1      -4.320   8.913   1.807  1.00  0.00    -0.248 NA
ATOM     48  C   UNL     1      -3.624   6.872   2.701  1.00  0.00     0.031 C 
ATOM     49  C   UNL     1      -8.496   7.372   1.572  1.00  0.00     0.029 A 
ATOM     50  N   UNL     1      -7.181   9.154   1.248  1.00  0.00    -0.354 N 
ATOM     51  C   UNL     1      -2.964   8.985   2.093  1.00  0.00     0.074 A 
ATOM     52  C   UNL     1      -2.588   7.704   2.658  1.00  0.00     0.031 C 
ATOM     53  C   UNL     1      -9.277   8.373   1.140  1.00  0.00     0.029 A 
ATOM     54  C   UNL     1      -8.454   9.560   0.928  1.00  0.00     0.049 A 
ATOM     55  H   UNL     1      -6.395   9.744   1.190  1.00  0.00     0.167 HD
ATOM     56  C   UNL     1      -2.113  10.017   1.884  1.00  0.00     0.034 A 
ATOM     57  C   UNL     1      -8.913  10.753   0.506  1.00  0.00     0.034 A 
ATOM     58  C   UNL     1      -2.491  11.284   1.310  1.00  0.00     0.049 A 
ATOM     59  C   UNL     1      -7.948  11.879   0.288  1.00  0.00     0.074 A 
ATOM     60  C   UNL     1      -1.677  12.360   0.998  1.00  0.00     0.029 A 
ATOM     61  N   UNL     1      -3.784  11.655   0.980  1.00  0.00    -0.354 N 
ATOM     62  N   UNL     1      -6.645  11.880   0.428  1.00  0.00    -0.248 NA
ATOM     63  C   UNL     1      -8.508  13.158  -0.170  1.00  0.00     0.031 C 
ATOM     64  C   UNL     1      -2.480  13.387   0.493  1.00  0.00     0.029 A 
ATOM     65  C   UNL     1      -3.794  12.947   0.482  1.00  0.00     0.049 A 
ATOM     66  H   UNL     1      -4.579  11.084   1.083  1.00  0.00     0.167 HD
ATOM     67  C   UNL     1      -6.226  13.154   0.064  1.00  0.00     0.074 A 
ATOM     68  C   UNL     1      -7.411  13.891  -0.324  1.00  0.00     0.031 C 
ATOM     69  C   UNL     1      -4.972  13.666   0.069  1.00  0.00     0.034 A 
BRANCH  56  70
ATOM     70  C   UNL     1      -0.658   9.818   2.209  1.00  0.00     0.023 A 
ATOM     71  C   UNL     1       0.155   9.126   1.289  1.00  0.00     0.012 A 
ATOM     72  C   UNL     1      -0.071  10.421   3.338  1.00  0.00     0.148 A 
ATOM     73  C   UNL     1       1.531   9.033   1.489  1.00  0.00     0.002 A 
ATOM     74  C   UNL     1       1.306  10.344   3.519  1.00  0.00     0.091 A 
ATOM     75  F   UNL     1      -0.867  11.069   4.201  1.00  0.00    -0.205 F 
ATOM     76  C   UNL     1       2.107   9.649   2.597  1.00  0.00     0.022 A 
BRANCH  74  77
ATOM     77  S   UNL     1       2.158  11.142   4.885  1.00  0.00     0.127 S 
ATOM     78  O   UNL     1       2.669   9.989   5.624  1.00  0.00    -0.237 OA
ATOM     79  O   UNL     1       3.181  11.925   4.192  1.00  0.00    -0.237 OA
ATOM     80  O   UNL     1       1.152  11.929   5.584  1.00  0.00    -0.744 OA
ENDBRANCH  74  77
ENDBRANCH  56  70
BRANCH  57  81
ATOM     81  C   UNL     1     -10.359  10.901   0.202  1.00  0.00     0.023 A 
ATOM     82  C   UNL     1     -10.780  10.905  -1.141  1.00  0.00     0.012 A 
ATOM     83  C   UNL     1     -11.318  10.946   1.232  1.00  0.00     0.148 A 
ATOM     84  C   UNL     1     -12.137  10.957  -1.455  1.00  0.00     0.002 A 
ATOM     85  C   UNL     1     -12.670  10.960   0.912  1.00  0.00     0.091 A 
ATOM     86  F   UNL     1     -10.886  10.939   2.500  1.00  0.00    -0.205 F 
ATOM     87  C   UNL     1     -13.081  10.975  -0.431  1.00  0.00     0.022 A 
BRANCH  85  88
ATOM     88  S   UNL     1     -13.962  10.878   2.156  1.00  0.00     0.127 S 
ATOM     89  O   UNL     1     -14.636  12.161   1.970  1.00  0.00    -0.237 OA
ATOM     90  O   UNL     1     -14.725   9.710   1.716  1.00  0.00    -0.237 OA
ATOM     91  O   UNL     1     -13.277  10.712   3.430  1.00  0.00    -0.744 OA
ENDBRANCH  85  88
ENDBRANCH  57  81
BRANCH  69  92
ATOM     92  C   UNL     1      -4.800  15.102  -0.342  1.00  0.00     0.023 A 
ATOM     93  C   UNL     1      -5.123  16.121   0.574  1.00  0.00     0.012 A 
ATOM     94  C   UNL     1      -4.228  15.439  -1.584  1.00  0.00     0.148 A 
ATOM     95  C   UNL     1      -4.889  17.458   0.257  1.00  0.00     0.002 A 
ATOM     96  C   UNL     1      -3.967  16.772  -1.881  1.00  0.00     0.091 A 
ATOM     97  F   UNL     1      -3.940  14.451  -2.443  1.00  0.00    -0.205 F 
ATOM     98  C   UNL     1      -4.302  17.783  -0.964  1.00  0.00     0.022 A 
BRANCH  96  99
ATOM     99  S   UNL     1      -3.150  17.288  -3.396  1.00  0.00     0.127 S 
ATOM    100  O   UNL     1      -4.222  18.010  -4.080  1.00  0.00    -0.237 OA
ATOM    101  O   UNL     1      -2.069  18.134  -2.891  1.00  0.00    -0.237 OA
ATOM    102  O   UNL     1      -2.709  16.065  -4.053  1.00  0.00    -0.744 OA
ENDBRANCH  96  99
ENDBRANCH  69  92
ENDBRANCH  43  44
ENDBRANCH  36  38
ENDBRANCH  35  36
ENDBRANCH  34  35
ENDBRANCH  33  34
ENDBRANCH  32  33
ENDBRANCH  31  32
ENDBRANCH   1  31
TORSDOF 24
