REMARK SMILES C[C@H](CCC(=O)OCCOCCOCCOCCOC(=O)c1ccc(-c2c3nc(c(-c4cccc(S(=O)(=O)[O-])c4F)c4ccc([nH]4)c(-c4cccc(S(=O)(=O)[O-])c4F)c4nc(c(-c5cccc(S(=O)(=O)[O-])c5F)c5ccc2[nH]5)C=C4)C=C3)cc1)NC(=O)OC(C)(C)C
REMARK SMILES IDX 12 1 11 2 10 3 9 4 8 5 7 6 5 7 6 8 4 9 3 10 2 11 1 12 85 13
REMARK SMILES IDX 86 14 87 16 88 17 89 18 90 19 91 20 92 21 13 22 14 23 15 24
REMARK SMILES IDX 16 25 17 26 18 27 19 28 20 29 21 30 22 31 23 32 84 33 24 34
REMARK SMILES IDX 83 35 25 36 26 37 27 38 77 39 28 40 82 41 76 42 78 43 29 44
REMARK SMILES IDX 81 45 75 46 74 47 30 49 62 50 42 51 61 52 43 53 46 54 60 55
REMARK SMILES IDX 79 56 44 57 45 58 59 60 80 61 47 62 31 63 32 64 40 65 33 66
REMARK SMILES IDX 35 67 41 68 34 69 36 70 37 71 38 72 39 73 63 74 64 75 72 76
REMARK SMILES IDX 65 77 67 78 73 79 66 80 68 81 69 82 70 83 71 84 48 85 49 86
REMARK SMILES IDX 57 87 50 88 52 89 58 90 51 91 53 92 54 93 55 94 56 95
REMARK H PARENT 85 15 78 48 46 59
REMARK Flexibility Score: inf
ROOT
ATOM      1  C   UNL     1       2.327  -2.257   0.816  1.00  0.00     0.188 C 
ENDROOT
BRANCH   1   2
ATOM      2  C   UNL     1       1.876  -3.317   1.825  1.00  0.00     0.188 C 
BRANCH   2   3
ATOM      3  O   UNL     1       1.516  -4.539   1.224  1.00  0.00    -0.376 OA
BRANCH   3   4
ATOM      4  C   UNL     1       0.187  -4.878   0.883  1.00  0.00     0.202 C 
BRANCH   4   5
ATOM      5  C   UNL     1      -0.859  -3.900   0.310  1.00  0.00     0.261 C 
BRANCH   5   6
ATOM      6  O   UNL     1      -0.508  -2.516   0.227  1.00  0.00    -0.463 OA
BRANCH   6   7
ATOM      7  C   UNL     1      -1.030  -1.681   1.147  1.00  0.00     0.305 C 
ATOM      8  O   UNL     1      -1.745  -2.046   2.074  1.00  0.00    -0.252 OA
BRANCH   7   9
ATOM      9  C   UNL     1      -0.602  -0.230   0.997  1.00  0.00     0.125 C 
BRANCH   9  10
ATOM     10  C   UNL     1       0.300   0.316  -0.126  1.00  0.00     0.036 C 
BRANCH  10  11
ATOM     11  C   UNL     1       0.006  -0.009  -1.598  1.00  0.00     0.083 C 
ATOM     12  C   UNL     1       0.794  -1.143  -2.243  1.00  0.00     0.031 C 
BRANCH  11  13
ATOM     13  N   UNL     1      -1.415  -0.156  -1.816  1.00  0.00    -0.319 N 
ATOM     14  C   UNL     1      -2.170   0.667  -2.589  1.00  0.00     0.407 C 
ATOM     15  H   UNL     1      -1.869  -0.908  -1.371  1.00  0.00     0.167 HD
ATOM     16  O   UNL     1      -3.394   0.601  -2.575  1.00  0.00    -0.225 OA
BRANCH  14  17
ATOM     17  O   UNL     1      -1.411   1.518  -3.307  1.00  0.00    -0.444 OA
BRANCH  17  18
ATOM     18  C   UNL     1      -1.993   2.420  -4.270  1.00  0.00     0.106 C 
ATOM     19  C   UNL     1      -2.788   1.661  -5.334  1.00  0.00     0.056 C 
ATOM     20  C   UNL     1      -2.819   3.487  -3.549  1.00  0.00     0.056 C 
ATOM     21  C   UNL     1      -0.786   3.092  -4.944  1.00  0.00     0.056 C 
ENDBRANCH  17  18
ENDBRANCH  14  17
ENDBRANCH  11  13
ENDBRANCH  10  11
ENDBRANCH   9  10
ENDBRANCH   7   9
ENDBRANCH   6   7
ENDBRANCH   5   6
ENDBRANCH   4   5
ENDBRANCH   3   4
ENDBRANCH   2   3
ENDBRANCH   1   2
BRANCH   1  22
ATOM     22  O   UNL     1       3.205  -2.597  -0.237  1.00  0.00    -0.377 OA
BRANCH  22  23
ATOM     23  C   UNL     1       2.897  -3.752  -0.996  1.00  0.00     0.188 C 
BRANCH  23  24
ATOM     24  C   UNL     1       3.734  -4.975  -0.583  1.00  0.00     0.188 C 
BRANCH  24  25
ATOM     25  O   UNL     1       4.951  -4.848   0.147  1.00  0.00    -0.376 OA
BRANCH  25  26
ATOM     26  C   UNL     1       5.578  -3.589   0.313  1.00  0.00     0.202 C 
BRANCH  26  27
ATOM     27  C   UNL     1       6.072  -2.810  -0.923  1.00  0.00     0.261 C 
BRANCH  27  28
ATOM     28  O   UNL     1       5.431  -3.083  -2.176  1.00  0.00    -0.460 OA
BRANCH  28  29
ATOM     29  C   UNL     1       5.909  -4.151  -2.855  1.00  0.00     0.338 C 
ATOM     30  O   UNL     1       6.828  -4.880  -2.525  1.00  0.00    -0.246 OA
BRANCH  29  31
ATOM     31  C   UNL     1       5.054  -4.397  -4.037  1.00  0.00     0.060 A 
ATOM     32  C   UNL     1       4.406  -5.633  -4.139  1.00  0.00     0.016 A 
ATOM     33  C   UNL     1       4.942  -3.456  -5.064  1.00  0.00     0.016 A 
ATOM     34  C   UNL     1       3.666  -5.946  -5.276  1.00  0.00     0.010 A 
ATOM     35  C   UNL     1       4.226  -3.785  -6.222  1.00  0.00     0.010 A 
ATOM     36  C   UNL     1       3.614  -5.045  -6.345  1.00  0.00    -0.014 A 
BRANCH  36  37
ATOM     37  C   UNL     1       3.075  -5.518  -7.644  1.00  0.00     0.031 A 
ATOM     38  C   UNL     1       4.041  -5.965  -8.708  1.00  0.00     0.074 A 
ATOM     39  C   UNL     1       1.749  -5.614  -7.847  1.00  0.00     0.049 A 
ATOM     40  N   UNL     1       3.797  -6.430  -9.905  1.00  0.00    -0.248 NA
ATOM     41  C   UNL     1       5.474  -5.883  -8.376  1.00  0.00     0.031 C 
ATOM     42  C   UNL     1       0.717  -5.242  -6.881  1.00  0.00     0.029 A 
ATOM     43  N   UNL     1       1.045  -6.044  -8.944  1.00  0.00    -0.354 N 
ATOM     44  C   UNL     1       5.040  -6.672 -10.479  1.00  0.00     0.074 A 
ATOM     45  C   UNL     1       6.038  -6.293  -9.503  1.00  0.00     0.031 C 
ATOM     46  C   UNL     1      -0.491  -5.435  -7.439  1.00  0.00     0.029 A 
ATOM     47  C   UNL     1      -0.317  -5.914  -8.808  1.00  0.00     0.049 A 
ATOM     48  H   UNL     1       1.474  -6.410  -9.751  1.00  0.00     0.167 HD
ATOM     49  C   UNL     1       5.325  -7.176 -11.702  1.00  0.00     0.034 A 
ATOM     50  C   UNL     1      -1.305  -6.129  -9.699  1.00  0.00     0.034 A 
ATOM     51  C   UNL     1       4.330  -7.562 -12.666  1.00  0.00     0.049 A 
ATOM     52  C   UNL     1      -0.955  -6.644 -11.072  1.00  0.00     0.074 A 
ATOM     53  C   UNL     1       4.518  -8.109 -13.923  1.00  0.00     0.029 A 
ATOM     54  N   UNL     1       2.962  -7.427 -12.489  1.00  0.00    -0.354 N 
ATOM     55  N   UNL     1       0.219  -6.956 -11.566  1.00  0.00    -0.248 NA
ATOM     56  C   UNL     1      -2.073  -6.867 -12.002  1.00  0.00     0.031 C 
ATOM     57  C   UNL     1       3.264  -8.265 -14.523  1.00  0.00     0.029 A 
ATOM     58  C   UNL     1       2.293  -7.864 -13.620  1.00  0.00     0.049 A 
ATOM     59  H   UNL     1       2.530  -7.073 -11.679  1.00  0.00     0.167 HD
ATOM     60  C   UNL     1      -0.022  -7.446 -12.845  1.00  0.00     0.074 A 
ATOM     61  C   UNL     1      -1.457  -7.416 -13.039  1.00  0.00     0.031 C 
ATOM     62  C   UNL     1       0.862  -7.870 -13.782  1.00  0.00     0.034 A 
BRANCH  49  63
ATOM     63  C   UNL     1       6.776  -7.348 -12.073  1.00  0.00     0.023 A 
ATOM     64  C   UNL     1       7.540  -8.367 -11.470  1.00  0.00     0.012 A 
ATOM     65  C   UNL     1       7.360  -6.544 -13.071  1.00  0.00     0.148 A 
ATOM     66  C   UNL     1       8.871  -8.566 -11.836  1.00  0.00     0.002 A 
ATOM     67  C   UNL     1       8.671  -6.780 -13.465  1.00  0.00     0.091 A 
ATOM     68  F   UNL     1       6.621  -5.568 -13.618  1.00  0.00    -0.205 F 
ATOM     69  C   UNL     1       9.432  -7.782 -12.841  1.00  0.00     0.022 A 
BRANCH  67  70
ATOM     70  S   UNL     1       9.460  -5.879 -14.804  1.00  0.00     0.127 S 
ATOM     71  O   UNL     1      10.510  -5.151 -14.091  1.00  0.00    -0.237 OA
ATOM     72  O   UNL     1       9.943  -6.964 -15.658  1.00  0.00    -0.237 OA
ATOM     73  O   UNL     1       8.424  -5.046 -15.398  1.00  0.00    -0.744 OA
ENDBRANCH  67  70
ENDBRANCH  49  63
BRANCH  50  74
ATOM     74  C   UNL     1      -2.724  -5.856  -9.332  1.00  0.00     0.023 A 
ATOM     75  C   UNL     1      -3.650  -6.915  -9.259  1.00  0.00     0.012 A 
ATOM     76  C   UNL     1      -3.164  -4.542  -9.080  1.00  0.00     0.148 A 
ATOM     77  C   UNL     1      -4.996  -6.664  -8.985  1.00  0.00     0.002 A 
ATOM     78  C   UNL     1      -4.492  -4.307  -8.748  1.00  0.00     0.091 A 
ATOM     79  F   UNL     1      -2.272  -3.545  -9.173  1.00  0.00    -0.205 F 
ATOM     80  C   UNL     1      -5.415  -5.363  -8.722  1.00  0.00     0.022 A 
BRANCH  78  81
ATOM     81  S   UNL     1      -5.088  -2.682  -8.269  1.00  0.00     0.127 S 
ATOM     82  O   UNL     1      -5.929  -2.325  -9.408  1.00  0.00    -0.237 OA
ATOM     83  O   UNL     1      -5.814  -2.985  -7.035  1.00  0.00    -0.237 OA
ATOM     84  O   UNL     1      -3.896  -1.866  -8.081  1.00  0.00    -0.744 OA
ENDBRANCH  78  81
ENDBRANCH  50  74
BRANCH  62  85
ATOM     85  C   UNL     1       0.305  -8.385 -15.085  1.00  0.00     0.023 A 
ATOM     86  C   UNL     1      -0.300  -7.496 -15.997  1.00  0.00     0.012 A 
ATOM     87  C   UNL     1       0.426  -9.747 -15.427  1.00  0.00     0.148 A 
ATOM     88  C   UNL     1      -0.819  -7.963 -17.205  1.00  0.00     0.002 A 
ATOM     89  C   UNL     1      -0.042 -10.195 -16.656  1.00  0.00     0.091 A 
ATOM     90  F   UNL     1       0.992 -10.580 -14.542  1.00  0.00    -0.205 F 
ATOM     91  C   UNL     1      -0.680  -9.308 -17.538  1.00  0.00     0.022 A 
BRANCH  89  92
ATOM     92  S   UNL     1       0.180 -11.887 -17.214  1.00  0.00     0.127 S 
ATOM     93  O   UNL     1      -1.188 -12.401 -17.158  1.00  0.00    -0.237 OA
ATOM     94  O   UNL     1       0.706 -11.700 -18.566  1.00  0.00    -0.237 OA
ATOM     95  O   UNL     1       1.115 -12.500 -16.280  1.00  0.00    -0.744 OA
ENDBRANCH  89  92
ENDBRANCH  62  85
ENDBRANCH  36  37
ENDBRANCH  29  31
ENDBRANCH  28  29
ENDBRANCH  27  28
ENDBRANCH  26  27
ENDBRANCH  25  26
ENDBRANCH  24  25
ENDBRANCH  23  24
ENDBRANCH  22  23
ENDBRANCH   1  22
TORSDOF 28
