REMARK SMILES CCC(CC)(NC(=O)c1ccc(N)c(F)c1)C(=O)OCCOCCOCCOCCOC(=O)c1ccc(-c2c3nc(c(-c4cccc(S(=O)(=O)[O-])c4F)c4ccc([nH]4)c(-c4cccc(S(=O)(=O)[O-])c4F)c4nc(c(-c5cccc(S(=O)(=O)[O-])c5F)c5ccc2[nH]5)C=C4)C=C3)cc1
REMARK SMILES IDX 25 1 24 2 23 3 22 4 21 5 20 6 19 7 17 8 18 9 3 10 2 11 1 12
REMARK SMILES IDX 4 13 5 14 6 15 7 16 8 18 9 19 10 20 16 21 11 22 14 23 12 24
REMARK SMILES IDX 15 25 13 26 26 29 27 30 28 31 29 32 30 33 31 34 32 35 33 36
REMARK SMILES IDX 34 37 35 38 96 39 36 40 95 41 37 42 38 43 39 44 89 45 40 46
REMARK SMILES IDX 94 47 88 48 90 49 41 50 93 51 87 52 86 53 42 55 74 56 54 57
REMARK SMILES IDX 73 58 55 59 58 60 72 61 91 62 56 63 57 64 71 66 92 67 59 68
REMARK SMILES IDX 43 69 44 70 52 71 45 72 47 73 53 74 46 75 48 76 49 77 50 78
REMARK SMILES IDX 51 79 75 80 76 81 84 82 77 83 79 84 85 85 78 86 80 87 81 88
REMARK SMILES IDX 82 89 83 90 60 91 61 92 69 93 62 94 64 95 70 96 63 97 65 98
REMARK SMILES IDX 66 99 67 100 68 101
REMARK H PARENT 6 17 13 27 13 28 90 54 58 65
REMARK Flexibility Score: inf
ROOT
ATOM      1  O   UNL     1       2.447   3.783  -2.347  1.00  0.00    -0.377 OA
ENDROOT
BRANCH   1   2
ATOM      2  C   UNL     1       2.835   3.694  -0.971  1.00  0.00     0.188 C 
BRANCH   2   3
ATOM      3  C   UNL     1       3.267   2.267  -0.553  1.00  0.00     0.188 C 
BRANCH   3   4
ATOM      4  O   UNL     1       4.632   1.933  -0.830  1.00  0.00    -0.376 OA
BRANCH   4   5
ATOM      5  C   UNL     1       4.986   0.567  -0.523  1.00  0.00     0.202 C 
BRANCH   5   6
ATOM      6  C   UNL     1       4.627  -0.539  -1.544  1.00  0.00     0.261 C 
BRANCH   6   7
ATOM      7  O   UNL     1       3.397  -0.276  -2.212  1.00  0.00    -0.461 OA
BRANCH   7   8
ATOM      8  C   UNL     1       2.247  -0.806  -1.766  1.00  0.00     0.331 C 
ATOM      9  O   UNL     1       2.191  -1.695  -0.925  1.00  0.00    -0.249 OA
BRANCH   8  10
ATOM     10  C   UNL     1       1.020  -0.071  -2.401  1.00  0.00     0.137 C 
BRANCH  10  11
ATOM     11  C   UNL     1       0.235   0.664  -1.228  1.00  0.00     0.037 C 
ATOM     12  C   UNL     1       0.129  -0.046   0.120  1.00  0.00     0.007 C 
ENDBRANCH  10  11
BRANCH  10  13
ATOM     13  C   UNL     1       0.123  -1.158  -3.066  1.00  0.00     0.037 C 
ATOM     14  C   UNL     1      -1.369  -0.836  -3.176  1.00  0.00     0.007 C 
ENDBRANCH  10  13
BRANCH  10  15
ATOM     15  N   UNL     1       1.357   1.028  -3.414  1.00  0.00    -0.336 N 
ATOM     16  C   UNL     1       2.131   1.100  -4.568  1.00  0.00     0.252 C 
ATOM     17  H   UNL     1       0.924   1.885  -3.197  1.00  0.00     0.165 HD
ATOM     18  O   UNL     1       1.587   1.558  -5.575  1.00  0.00    -0.269 OA
BRANCH  16  19
ATOM     19  C   UNL     1       3.629   0.980  -4.621  1.00  0.00     0.042 A 
ATOM     20  C   UNL     1       4.308   0.314  -5.640  1.00  0.00     0.016 A 
ATOM     21  C   UNL     1       4.413   1.747  -3.768  1.00  0.00     0.055 A 
ATOM     22  C   UNL     1       5.727   0.355  -5.715  1.00  0.00     0.029 A 
ATOM     23  C   UNL     1       5.798   1.834  -3.862  1.00  0.00     0.146 A 
ATOM     24  C   UNL     1       6.486   1.133  -4.835  1.00  0.00     0.068 A 
ATOM     25  F   UNL     1       6.477   2.579  -2.973  1.00  0.00    -0.205 F 
BRANCH  24  26
ATOM     26  N   UNL     1       7.882   1.098  -4.818  1.00  0.00    -0.396 N 
ATOM     27  H   UNL     1       8.370   0.598  -5.512  1.00  0.00     0.156 HD
ATOM     28  H   UNL     1       8.378   1.573  -4.113  1.00  0.00     0.156 HD
ENDBRANCH  24  26
ENDBRANCH  16  19
ENDBRANCH  10  15
ENDBRANCH   8  10
ENDBRANCH   7   8
ENDBRANCH   6   7
ENDBRANCH   5   6
ENDBRANCH   4   5
ENDBRANCH   3   4
ENDBRANCH   2   3
ENDBRANCH   1   2
BRANCH   1  29
ATOM     29  C   UNL     1       3.185   4.603  -3.265  1.00  0.00     0.188 C 
BRANCH  29  30
ATOM     30  C   UNL     1       4.460   5.290  -2.762  1.00  0.00     0.188 C 
BRANCH  30  31
ATOM     31  O   UNL     1       4.262   6.445  -1.939  1.00  0.00    -0.376 OA
BRANCH  31  32
ATOM     32  C   UNL     1       3.100   7.225  -2.204  1.00  0.00     0.202 C 
BRANCH  32  33
ATOM     33  C   UNL     1       3.096   8.050  -3.504  1.00  0.00     0.261 C 
BRANCH  33  34
ATOM     34  O   UNL     1       3.428   7.310  -4.696  1.00  0.00    -0.460 OA
BRANCH  34  35
ATOM     35  C   UNL     1       4.686   7.494  -5.162  1.00  0.00     0.338 C 
ATOM     36  O   UNL     1       5.550   8.213  -4.663  1.00  0.00    -0.246 OA
BRANCH  35  37
ATOM     37  C   UNL     1       4.967   6.608  -6.312  1.00  0.00     0.060 A 
ATOM     38  C   UNL     1       6.139   5.835  -6.288  1.00  0.00     0.016 A 
ATOM     39  C   UNL     1       4.168   6.630  -7.456  1.00  0.00     0.016 A 
ATOM     40  C   UNL     1       6.551   5.138  -7.427  1.00  0.00     0.010 A 
ATOM     41  C   UNL     1       4.590   5.941  -8.601  1.00  0.00     0.010 A 
ATOM     42  C   UNL     1       5.810   5.236  -8.610  1.00  0.00    -0.014 A 
BRANCH  42  43
ATOM     43  C   UNL     1       6.407   4.829  -9.912  1.00  0.00     0.031 A 
ATOM     44  C   UNL     1       6.994   5.907 -10.790  1.00  0.00     0.074 A 
ATOM     45  C   UNL     1       6.408   3.552 -10.335  1.00  0.00     0.049 A 
ATOM     46  N   UNL     1       7.441   5.833 -12.017  1.00  0.00    -0.248 NA
ATOM     47  C   UNL     1       7.076   7.255 -10.202  1.00  0.00     0.031 C 
ATOM     48  C   UNL     1       5.907   2.407  -9.579  1.00  0.00     0.029 A 
ATOM     49  N   UNL     1       6.812   3.014 -11.535  1.00  0.00    -0.354 N 
ATOM     50  C   UNL     1       7.811   7.128 -12.364  1.00  0.00     0.074 A 
ATOM     51  C   UNL     1       7.536   7.968 -11.218  1.00  0.00     0.031 C 
ATOM     52  C   UNL     1       5.991   1.308 -10.350  1.00  0.00     0.029 A 
ATOM     53  C   UNL     1       6.516   1.677 -11.665  1.00  0.00     0.049 A 
ATOM     54  H   UNL     1       7.270   3.536 -12.233  1.00  0.00     0.167 HD
ATOM     55  C   UNL     1       8.336   7.582 -13.526  1.00  0.00     0.034 A 
ATOM     56  C   UNL     1       6.617   0.858 -12.733  1.00  0.00     0.034 A 
ATOM     57  C   UNL     1       8.627   6.748 -14.660  1.00  0.00     0.049 A 
ATOM     58  C   UNL     1       7.164   1.395 -14.035  1.00  0.00     0.074 A 
ATOM     59  C   UNL     1       9.202   7.107 -15.866  1.00  0.00     0.029 A 
ATOM     60  N   UNL     1       8.351   5.393 -14.736  1.00  0.00    -0.354 N 
ATOM     61  N   UNL     1       7.599   2.599 -14.319  1.00  0.00    -0.248 NA
ATOM     62  C   UNL     1       7.257   0.450 -15.160  1.00  0.00     0.031 C 
ATOM     63  C   UNL     1       9.234   5.976 -16.688  1.00  0.00     0.029 A 
ATOM     64  C   UNL     1       8.725   4.903 -15.976  1.00  0.00     0.049 A 
ATOM     65  H   UNL     1       7.948   4.857 -14.015  1.00  0.00     0.167 HD
ATOM     66  C   UNL     1       8.052   2.545 -15.634  1.00  0.00     0.074 A 
ATOM     67  C   UNL     1       7.855   1.185 -16.088  1.00  0.00     0.031 C 
ATOM     68  C   UNL     1       8.576   3.535 -16.401  1.00  0.00     0.034 A 
BRANCH  55  69
ATOM     69  C   UNL     1       8.633   9.056 -13.634  1.00  0.00     0.023 A 
ATOM     70  C   UNL     1       9.702   9.615 -12.905  1.00  0.00     0.012 A 
ATOM     71  C   UNL     1       7.882   9.879 -14.497  1.00  0.00     0.148 A 
ATOM     72  C   UNL     1       9.995  10.975 -13.003  1.00  0.00     0.002 A 
ATOM     73  C   UNL     1       8.211  11.222 -14.628  1.00  0.00     0.091 A 
ATOM     74  F   UNL     1       6.857   9.334 -15.168  1.00  0.00    -0.205 F 
ATOM     75  C   UNL     1       9.257  11.775 -13.872  1.00  0.00     0.022 A 
BRANCH  73  76
ATOM     76  S   UNL     1       7.375  12.318 -15.780  1.00  0.00     0.127 S 
ATOM     77  O   UNL     1       6.665  13.217 -14.871  1.00  0.00    -0.237 OA
ATOM     78  O   UNL     1       8.499  12.931 -16.489  1.00  0.00    -0.237 OA
ATOM     79  O   UNL     1       6.527  11.469 -16.604  1.00  0.00    -0.744 OA
ENDBRANCH  73  76
ENDBRANCH  55  69
BRANCH  56  80
ATOM     80  C   UNL     1       6.196  -0.570 -12.626  1.00  0.00     0.023 A 
ATOM     81  C   UNL     1       7.165  -1.590 -12.713  1.00  0.00     0.012 A 
ATOM     82  C   UNL     1       4.844  -0.924 -12.446  1.00  0.00     0.148 A 
ATOM     83  C   UNL     1       6.792  -2.934 -12.658  1.00  0.00     0.002 A 
ATOM     84  C   UNL     1       4.487  -2.263 -12.332  1.00  0.00     0.091 A 
ATOM     85  F   UNL     1       3.934   0.058 -12.386  1.00  0.00    -0.205 F 
ATOM     86  C   UNL     1       5.456  -3.270 -12.458  1.00  0.00     0.022 A 
BRANCH  84  87
ATOM     87  S   UNL     1       2.813  -2.791 -11.950  1.00  0.00     0.127 S 
ATOM     88  O   UNL     1       2.433  -3.490 -13.175  1.00  0.00    -0.237 OA
ATOM     89  O   UNL     1       3.033  -3.655 -10.790  1.00  0.00    -0.237 OA
ATOM     90  O   UNL     1       2.069  -1.573 -11.664  1.00  0.00    -0.744 OA
ENDBRANCH  84  87
ENDBRANCH  56  80
BRANCH  68  91
ATOM     91  C   UNL     1       9.031   3.188 -17.797  1.00  0.00     0.023 A 
ATOM     92  C   UNL     1       8.084   2.919 -18.805  1.00  0.00     0.012 A 
ATOM     93  C   UNL     1      10.401   3.222 -18.129  1.00  0.00     0.148 A 
ATOM     94  C   UNL     1       8.495   2.658 -20.113  1.00  0.00     0.002 A 
ATOM     95  C   UNL     1      10.800   3.013 -19.444  1.00  0.00     0.091 A 
ATOM     96  F   UNL     1      11.289   3.468 -17.154  1.00  0.00    -0.205 F 
ATOM     97  C   UNL     1       9.850   2.717 -20.434  1.00  0.00     0.022 A 
BRANCH  95  98
ATOM     98  S   UNL     1      12.510   3.167 -19.973  1.00  0.00     0.127 S 
ATOM     99  O   UNL     1      12.847   1.782 -20.299  1.00  0.00    -0.237 OA
ATOM    100  O   UNL     1      12.396   4.055 -21.130  1.00  0.00    -0.237 OA
ATOM    101  O   UNL     1      13.234   3.733 -18.843  1.00  0.00    -0.744 OA
ENDBRANCH  95  98
ENDBRANCH  68  91
ENDBRANCH  42  43
ENDBRANCH  35  37
ENDBRANCH  34  35
ENDBRANCH  33  34
ENDBRANCH  32  33
ENDBRANCH  31  32
ENDBRANCH  30  31
ENDBRANCH  29  30
ENDBRANCH   1  29
TORSDOF 28
