REMARK SMILES Cc1ccc(C(=O)OCCOCCOCCOCCOC(=O)c2ccc(-c3c4nc(c(-c5cccc(S(=O)(=O)[O-])c5F)c5ccc([nH]5)c(-c5cccc(S(=O)(=O)[O-])c5F)c5nc(c(-c6cccc(S(=O)(=O)[O-])c6F)c6ccc3[nH]6)C=C5)C=C4)cc2)cc1/[NH+]=C1\NCCS1
REMARK SMILES IDX 15 1 14 2 13 3 12 4 11 5 10 6 9 7 8 8 6 9 7 10 5 11 1 12
REMARK SMILES IDX 2 13 3 14 87 15 4 16 86 17 88 18 89 19 90 21 93 22 91 23
REMARK SMILES IDX 92 25 16 26 17 27 18 28 19 29 20 30 21 31 22 32 23 33 24 34
REMARK SMILES IDX 85 35 25 36 84 37 26 38 27 39 28 40 78 41 29 42 83 43 77 44
REMARK SMILES IDX 79 45 30 46 82 47 76 48 75 49 31 51 63 52 43 53 62 54 44 55
REMARK SMILES IDX 47 56 61 57 80 58 45 59 46 60 60 62 81 63 48 64 32 65 33 66
REMARK SMILES IDX 41 67 34 68 36 69 42 70 35 71 37 72 38 73 39 74 40 75 64 76
REMARK SMILES IDX 65 77 73 78 66 79 68 80 74 81 67 82 69 83 70 84 71 85 72 86
REMARK SMILES IDX 49 87 50 88 58 89 51 90 53 91 59 92 52 93 54 94 55 95 56 96
REMARK SMILES IDX 57 97
REMARK H PARENT 88 20 90 24 79 50 47 61
REMARK Flexibility Score: inf
ROOT
ATOM      1  C   UNL     1      -3.852   0.371  -5.183  1.00  0.00     0.188 C 
ENDROOT
BRANCH   1   2
ATOM      2  O   UNL     1      -2.694   1.144  -4.970  1.00  0.00    -0.377 OA
BRANCH   2   3
ATOM      3  C   UNL     1      -2.377   1.204  -3.608  1.00  0.00     0.188 C 
BRANCH   3   4
ATOM      4  C   UNL     1      -3.489   0.781  -2.651  1.00  0.00     0.188 C 
BRANCH   4   5
ATOM      5  O   UNL     1      -4.777   1.758  -2.331  1.00  0.00    -0.376 OA
BRANCH   5   6
ATOM      6  C   UNL     1      -5.768   1.878  -0.860  1.00  0.00     0.202 C 
BRANCH   6   7
ATOM      7  C   UNL     1      -5.797   0.986   0.793  1.00  0.00     0.261 C 
BRANCH   7   8
ATOM      8  O   UNL     1      -4.584  -0.248   1.447  1.00  0.00    -0.460 OA
BRANCH   8   9
ATOM      9  C   UNL     1      -3.398  -1.264   1.058  1.00  0.00     0.338 C 
ATOM     10  O   UNL     1      -3.631  -2.480   1.132  1.00  0.00    -0.246 OA
BRANCH   9  11
ATOM     11  C   UNL     1      -1.763  -1.056   0.642  1.00  0.00     0.064 A 
ATOM     12  C   UNL     1       2.653  -0.836   0.287  1.00  0.00     0.049 C 
ATOM     13  C   UNL     1       1.156  -0.907   0.347  1.00  0.00    -0.004 A 
ATOM     14  C   UNL     1       0.490  -2.082   0.745  1.00  0.00     0.008 A 
ATOM     15  C   UNL     1       0.379   0.181  -0.004  1.00  0.00     0.129 A 
ATOM     16  C   UNL     1      -0.922  -2.138   0.927  1.00  0.00     0.016 A 
ATOM     17  C   UNL     1      -1.024   0.025   0.056  1.00  0.00     0.067 A 
BRANCH  15  18
ATOM     18  N   UNL     1       0.889   1.495  -0.124  1.00  0.00    -0.235 N 
ATOM     19  C   UNL     1       1.599   1.925  -1.099  1.00  0.00     0.309 C 
ATOM     20  H   UNL     1       0.681   2.129   0.600  1.00  0.00     0.313 HD
ATOM     21  N   UNL     1       2.020   1.359  -2.262  1.00  0.00    -0.268 N 
ATOM     22  S   UNL     1       2.247   3.575  -0.981  1.00  0.00    -0.035 SA
ATOM     23  C   UNL     1       2.808   2.186  -3.150  1.00  0.00     0.246 C 
ATOM     24  H   UNL     1       1.799   0.427  -2.489  1.00  0.00     0.305 HD
ATOM     25  C   UNL     1       3.472   3.254  -2.285  1.00  0.00     0.128 C 
ENDBRANCH  15  18
ENDBRANCH   9  11
ENDBRANCH   8   9
ENDBRANCH   7   8
ENDBRANCH   6   7
ENDBRANCH   5   6
ENDBRANCH   4   5
ENDBRANCH   3   4
ENDBRANCH   2   3
ENDBRANCH   1   2
BRANCH   1  26
ATOM     26  C   UNL     1      -3.578  -1.118  -5.479  1.00  0.00     0.188 C 
BRANCH  26  27
ATOM     27  O   UNL     1      -2.835  -1.363  -6.655  1.00  0.00    -0.376 OA
BRANCH  27  28
ATOM     28  C   UNL     1      -3.099  -0.425  -7.693  1.00  0.00     0.202 C 
BRANCH  28  29
ATOM     29  C   UNL     1      -4.570   0.141  -7.933  1.00  0.00     0.261 C 
BRANCH  29  30
ATOM     30  O   UNL     1      -5.639  -0.512  -7.123  1.00  0.00    -0.460 OA
BRANCH  30  31
ATOM     31  C   UNL     1      -6.649   0.224  -6.510  1.00  0.00     0.338 C 
ATOM     32  O   UNL     1      -7.076   1.270  -6.978  1.00  0.00    -0.246 OA
BRANCH  31  33
ATOM     33  C   UNL     1      -6.938  -0.262  -5.056  1.00  0.00     0.060 A 
ATOM     34  C   UNL     1      -7.402   0.593  -4.064  1.00  0.00     0.016 A 
ATOM     35  C   UNL     1      -6.449  -1.466  -4.553  1.00  0.00     0.016 A 
ATOM     36  C   UNL     1      -7.068   0.345  -2.690  1.00  0.00     0.010 A 
ATOM     37  C   UNL     1      -5.854  -1.522  -3.242  1.00  0.00     0.010 A 
ATOM     38  C   UNL     1      -5.977  -0.481  -2.304  1.00  0.00    -0.014 A 
BRANCH  38  39
ATOM     39  C   UNL     1      -4.925  -0.345  -0.863  1.00  0.00     0.031 A 
ATOM     40  C   UNL     1      -5.835  -1.598   0.030  1.00  0.00     0.074 A 
ATOM     41  C   UNL     1      -3.838   0.846  -0.259  1.00  0.00     0.049 A 
ATOM     42  N   UNL     1      -6.408  -1.471   1.215  1.00  0.00    -0.248 NA
ATOM     43  C   UNL     1      -6.236  -2.911  -0.516  1.00  0.00     0.031 C 
ATOM     44  C   UNL     1      -3.034   1.227   1.187  1.00  0.00     0.029 A 
ATOM     45  N   UNL     1      -3.384   2.297  -0.722  1.00  0.00    -0.354 N 
ATOM     46  C   UNL     1      -6.521  -2.725   1.745  1.00  0.00     0.074 A 
ATOM     47  C   UNL     1      -6.763  -3.510   0.563  1.00  0.00     0.031 C 
ATOM     48  C   UNL     1      -2.508   2.452   1.296  1.00  0.00     0.029 A 
ATOM     49  C   UNL     1      -3.173   3.222   0.326  1.00  0.00     0.049 A 
ATOM     50  H   UNL     1      -3.259   2.535  -1.669  1.00  0.00     0.167 HD
ATOM     51  C   UNL     1      -6.008  -3.035   2.988  1.00  0.00     0.034 A 
ATOM     52  C   UNL     1      -3.974   4.279   0.703  1.00  0.00     0.034 A 
ATOM     53  C   UNL     1      -5.330  -1.870   3.695  1.00  0.00     0.049 A 
ATOM     54  C   UNL     1      -4.533   4.016   2.155  1.00  0.00     0.074 A 
ATOM     55  C   UNL     1      -4.003  -1.657   4.077  1.00  0.00     0.029 A 
ATOM     56  N   UNL     1      -5.941  -0.614   3.890  1.00  0.00    -0.354 N 
ATOM     57  N   UNL     1      -4.568   2.831   2.730  1.00  0.00    -0.248 NA
ATOM     58  C   UNL     1      -5.012   5.034   3.079  1.00  0.00     0.031 C 
ATOM     59  C   UNL     1      -3.808  -0.284   4.410  1.00  0.00     0.029 A 
ATOM     60  C   UNL     1      -5.018   0.382   4.281  1.00  0.00     0.049 A 
ATOM     61  H   UNL     1      -6.904  -0.449   3.768  1.00  0.00     0.167 HD
ATOM     62  C   UNL     1      -5.128   2.860   3.977  1.00  0.00     0.074 A 
ATOM     63  C   UNL     1      -5.302   4.300   4.177  1.00  0.00     0.031 C 
ATOM     64  C   UNL     1      -5.436   1.734   4.722  1.00  0.00     0.034 A 
BRANCH  51  65
ATOM     65  C   UNL     1      -5.697  -4.521   3.340  1.00  0.00     0.023 A 
ATOM     66  C   UNL     1      -4.705  -4.814   4.302  1.00  0.00     0.012 A 
ATOM     67  C   UNL     1      -6.289  -5.666   2.743  1.00  0.00     0.148 A 
ATOM     68  C   UNL     1      -4.211  -6.111   4.527  1.00  0.00     0.002 A 
ATOM     69  C   UNL     1      -5.756  -6.954   2.908  1.00  0.00     0.091 A 
ATOM     70  F   UNL     1      -7.459  -5.546   2.104  1.00  0.00    -0.205 F 
ATOM     71  C   UNL     1      -4.701  -7.177   3.792  1.00  0.00     0.022 A 
BRANCH  69  72
ATOM     72  S   UNL     1      -6.342  -8.377   1.965  1.00  0.00     0.127 S 
ATOM     73  O   UNL     1      -5.094  -8.990   1.504  1.00  0.00    -0.237 OA
ATOM     74  O   UNL     1      -7.056  -9.154   2.977  1.00  0.00    -0.237 OA
ATOM     75  O   UNL     1      -7.166  -7.836   0.889  1.00  0.00    -0.744 OA
ENDBRANCH  69  72
ENDBRANCH  51  65
BRANCH  52  76
ATOM     76  C   UNL     1      -4.672   5.019  -0.431  1.00  0.00     0.023 A 
ATOM     77  C   UNL     1      -3.891   5.292  -1.588  1.00  0.00     0.012 A 
ATOM     78  C   UNL     1      -6.074   5.095  -0.569  1.00  0.00     0.148 A 
ATOM     79  C   UNL     1      -4.470   5.426  -2.856  1.00  0.00     0.002 A 
ATOM     80  C   UNL     1      -6.648   5.187  -1.850  1.00  0.00     0.091 A 
ATOM     81  F   UNL     1      -6.837   4.893   0.514  1.00  0.00    -0.205 F 
ATOM     82  C   UNL     1      -5.848   5.326  -2.993  1.00  0.00     0.022 A 
BRANCH  80  83
ATOM     83  S   UNL     1      -8.405   4.845  -2.104  1.00  0.00     0.127 S 
ATOM     84  O   UNL     1      -8.994   6.170  -1.939  1.00  0.00    -0.237 OA
ATOM     85  O   UNL     1      -8.451   4.316  -3.468  1.00  0.00    -0.237 OA
ATOM     86  O   UNL     1      -8.726   3.858  -1.080  1.00  0.00    -0.744 OA
ENDBRANCH  80  83
ENDBRANCH  52  76
BRANCH  64  87
ATOM     87  C   UNL     1      -6.169   1.774   6.056  1.00  0.00     0.023 A 
ATOM     88  C   UNL     1      -7.090   2.787   6.366  1.00  0.00     0.012 A 
ATOM     89  C   UNL     1      -6.078   0.688   6.974  1.00  0.00     0.148 A 
ATOM     90  C   UNL     1      -7.848   2.756   7.540  1.00  0.00     0.002 A 
ATOM     91  C   UNL     1      -6.928   0.600   8.072  1.00  0.00     0.091 A 
ATOM     92  F   UNL     1      -5.144  -0.259   6.818  1.00  0.00    -0.205 F 
ATOM     93  C   UNL     1      -7.793   1.648   8.375  1.00  0.00     0.022 A 
BRANCH  91  94
ATOM     94  S   UNL     1      -7.050  -0.932   9.011  1.00  0.00     0.127 S 
ATOM     95  O   UNL     1      -6.096  -0.691  10.106  1.00  0.00    -0.237 OA
ATOM     96  O   UNL     1      -8.459  -0.920   9.439  1.00  0.00    -0.237 OA
ATOM     97  O   UNL     1      -6.718  -1.984   8.090  1.00  0.00    -0.744 OA
ENDBRANCH  91  94
ENDBRANCH  64  87
ENDBRANCH  38  39
ENDBRANCH  31  33
ENDBRANCH  30  31
ENDBRANCH  29  30
ENDBRANCH  28  29
ENDBRANCH  27  28
ENDBRANCH  26  27
ENDBRANCH   1  26
TORSDOF 24
