REMARK SMILES COc1ccccc1[C@@H]1C[N@@H+](Cc2cn3cc(C)ccc3n2)C[C@H]1C(=O)OCCOCCOCCOCCOC(=O)c1ccc(-c2c3nc(c(-c4cccc(S(=O)(=O)[O-])c4F)c4ccc([nH]4)c(-c4cccc(S(=O)(=O)[O-])c4F)c4nc(c(-c5cccc(S(=O)(=O)[O-])c5F)c5ccc2[nH]5)C=C4)C=C3)cc1
REMARK SMILES IDX 34 1 33 2 32 3 31 4 30 5 29 6 28 7 27 8 25 9 26 10 24 11
REMARK SMILES IDX 9 12 10 13 11 14 23 15 8 17 3 18 4 19 5 20 7 21 6 22 2 23
REMARK SMILES IDX 1 24 12 25 13 26 14 27 22 28 15 29 21 30 16 31 20 32 17 33
REMARK SMILES IDX 19 34 18 35 35 36 36 37 37 38 38 39 39 40 40 41 41 42 42 43
REMARK SMILES IDX 43 44 104 45 44 46 103 47 45 48 46 49 47 50 97 51 48 52
REMARK SMILES IDX 102 53 96 54 98 55 49 56 101 57 95 58 94 59 50 61 82 62
REMARK SMILES IDX 62 63 81 64 63 65 66 66 80 67 99 68 64 69 65 70 79 72 100 73
REMARK SMILES IDX 67 74 51 75 52 76 60 77 53 78 55 79 61 80 54 81 56 82 57 83
REMARK SMILES IDX 58 84 59 85 83 86 84 87 92 88 85 89 87 90 93 91 86 92 88 93
REMARK SMILES IDX 89 94 90 95 91 96 68 97 69 98 77 99 70 100 72 101 78 102
REMARK SMILES IDX 71 103 73 104 74 105 75 106 76 107
REMARK H PARENT 11 16 98 60 66 71
REMARK Flexibility Score: inf
ROOT
ATOM      1  C   UNL     1       4.054   1.710   6.454  1.00  0.00     0.188 C 
ENDROOT
BRANCH   1   2
ATOM      2  O   UNL     1       4.002   1.331   5.091  1.00  0.00    -0.377 OA
BRANCH   2   3
ATOM      3  C   UNL     1       2.779   1.102   4.424  1.00  0.00     0.188 C 
BRANCH   3   4
ATOM      4  C   UNL     1       1.873  -0.067   4.852  1.00  0.00     0.188 C 
BRANCH   4   5
ATOM      5  O   UNL     1       2.392  -1.054   5.735  1.00  0.00    -0.376 OA
BRANCH   5   6
ATOM      6  C   UNL     1       3.693  -1.562   5.479  1.00  0.00     0.202 C 
BRANCH   6   7
ATOM      7  C   UNL     1       3.916  -2.248   4.136  1.00  0.00     0.261 C 
BRANCH   7   8
ATOM      8  O   UNL     1       3.798  -1.343   3.018  1.00  0.00    -0.463 OA
BRANCH   8   9
ATOM      9  C   UNL     1       2.839  -1.648   2.120  1.00  0.00     0.315 C 
ATOM     10  O   UNL     1       2.093  -2.623   2.220  1.00  0.00    -0.252 OA
BRANCH   9  11
ATOM     11  C   UNL     1       2.774  -0.780   0.884  1.00  0.00     0.167 C 
ATOM     12  C   UNL     1       3.060   0.720   0.805  1.00  0.00     0.098 C 
ATOM     13  C   UNL     1       3.635   0.889  -0.617  1.00  0.00     0.272 C 
ATOM     14  N   UNL     1       4.339  -0.354  -0.934  1.00  0.00    -0.329 N 
ATOM     15  C   UNL     1       3.697  -1.418  -0.154  1.00  0.00     0.278 C 
ATOM     16  H   UNL     1       4.255  -0.547  -1.932  1.00  0.00     0.348 HD
BRANCH  12  17
ATOM     17  C   UNL     1       2.022   1.826   1.036  1.00  0.00     0.004 A 
ATOM     18  C   UNL     1       0.628   1.834   0.847  1.00  0.00     0.122 A 
ATOM     19  C   UNL     1      -0.107   3.002   1.170  1.00  0.00     0.047 A 
ATOM     20  C   UNL     1       0.497   4.167   1.640  1.00  0.00     0.004 A 
ATOM     21  C   UNL     1       2.610   3.049   1.490  1.00  0.00     0.008 A 
ATOM     22  C   UNL     1       1.869   4.194   1.788  1.00  0.00     0.001 A 
BRANCH  18  23
ATOM     23  O   UNL     1      -0.222   0.817   0.522  1.00  0.00    -0.496 OA
ATOM     24  C   UNL     1       0.011  -0.030  -0.589  1.00  0.00     0.278 C 
ENDBRANCH  18  23
ENDBRANCH  12  17
BRANCH  14  25
ATOM     25  C   UNL     1       5.804  -0.290  -0.757  1.00  0.00     0.321 C 
BRANCH  25  26
ATOM     26  C   UNL     1       6.263   0.308   0.538  1.00  0.00     0.114 A 
ATOM     27  C   UNL     1       6.622   1.621   0.784  1.00  0.00     0.122 A 
ATOM     28  N   UNL     1       6.362  -0.439   1.695  1.00  0.00    -0.228 NA
ATOM     29  N   UNL     1       6.894   1.694   2.124  1.00  0.00    -0.306 N 
ATOM     30  C   UNL     1       6.737   0.411   2.633  1.00  0.00     0.137 A 
ATOM     31  C   UNL     1       7.261   2.797   2.889  1.00  0.00     0.096 A 
ATOM     32  C   UNL     1       6.984   0.244   4.025  1.00  0.00     0.048 A 
ATOM     33  C   UNL     1       7.509   2.639   4.204  1.00  0.00    -0.034 A 
ATOM     34  C   UNL     1       7.354   1.301   4.776  1.00  0.00     0.009 A 
ATOM     35  C   UNL     1       7.918   3.766   5.099  1.00  0.00     0.046 C 
ENDBRANCH  25  26
ENDBRANCH  14  25
ENDBRANCH   9  11
ENDBRANCH   8   9
ENDBRANCH   7   8
ENDBRANCH   6   7
ENDBRANCH   5   6
ENDBRANCH   4   5
ENDBRANCH   3   4
ENDBRANCH   2   3
ENDBRANCH   1   2
BRANCH   1  36
ATOM     36  C   UNL     1       2.785   1.914   7.295  1.00  0.00     0.188 C 
BRANCH  36  37
ATOM     37  O   UNL     1       1.589   2.108   6.563  1.00  0.00    -0.376 OA
BRANCH  37  38
ATOM     38  C   UNL     1       1.070   3.411   6.397  1.00  0.00     0.202 C 
BRANCH  38  39
ATOM     39  C   UNL     1       1.894   4.426   5.622  1.00  0.00     0.261 C 
BRANCH  39  40
ATOM     40  O   UNL     1       3.289   4.393   5.854  1.00  0.00    -0.460 OA
BRANCH  40  41
ATOM     41  C   UNL     1       3.699   5.068   6.944  1.00  0.00     0.338 C 
ATOM     42  O   UNL     1       3.147   5.133   8.023  1.00  0.00    -0.246 OA
BRANCH  41  43
ATOM     43  C   UNL     1       4.865   5.854   6.533  1.00  0.00     0.060 A 
ATOM     44  C   UNL     1       5.769   6.269   7.507  1.00  0.00     0.016 A 
ATOM     45  C   UNL     1       4.912   6.336   5.212  1.00  0.00     0.016 A 
ATOM     46  C   UNL     1       6.656   7.274   7.178  1.00  0.00     0.010 A 
ATOM     47  C   UNL     1       5.793   7.337   4.889  1.00  0.00     0.010 A 
ATOM     48  C   UNL     1       6.607   7.841   5.894  1.00  0.00    -0.014 A 
BRANCH  48  49
ATOM     49  C   UNL     1       7.495   8.943   5.597  1.00  0.00     0.031 A 
ATOM     50  C   UNL     1       8.923   8.570   5.627  1.00  0.00     0.074 A 
ATOM     51  C   UNL     1       7.054  10.169   5.258  1.00  0.00     0.049 A 
ATOM     52  N   UNL     1       9.776   8.878   6.545  1.00  0.00    -0.248 NA
ATOM     53  C   UNL     1       9.419   7.598   4.644  1.00  0.00     0.031 C 
ATOM     54  C   UNL     1       5.682  10.583   4.949  1.00  0.00     0.029 A 
ATOM     55  N   UNL     1       7.780  11.288   4.993  1.00  0.00    -0.354 N 
ATOM     56  C   UNL     1      10.991   8.375   6.098  1.00  0.00     0.074 A 
ATOM     57  C   UNL     1      10.674   7.423   5.065  1.00  0.00     0.031 C 
ATOM     58  C   UNL     1       5.715  11.770   4.301  1.00  0.00     0.029 A 
ATOM     59  C   UNL     1       7.083  12.257   4.282  1.00  0.00     0.049 A 
ATOM     60  H   UNL     1       8.716  11.401   5.278  1.00  0.00     0.167 HD
ATOM     61  C   UNL     1      12.151   9.013   6.413  1.00  0.00     0.034 A 
ATOM     62  C   UNL     1       7.616  13.340   3.663  1.00  0.00     0.034 A 
ATOM     63  C   UNL     1      11.966   9.924   7.520  1.00  0.00     0.049 A 
ATOM     64  C   UNL     1       8.918  13.622   4.312  1.00  0.00     0.074 A 
ATOM     65  C   UNL     1      11.465   9.810   8.803  1.00  0.00     0.029 A 
ATOM     66  N   UNL     1      11.945  11.268   7.231  1.00  0.00    -0.354 N 
ATOM     67  N   UNL     1       9.022  14.036   5.544  1.00  0.00    -0.248 NA
ATOM     68  C   UNL     1      10.115  13.015   3.753  1.00  0.00     0.031 C 
ATOM     69  C   UNL     1      10.716  11.006   9.011  1.00  0.00     0.029 A 
ATOM     70  C   UNL     1      10.874  11.814   7.884  1.00  0.00     0.049 A 
ATOM     71  H   UNL     1      12.585  11.750   6.658  1.00  0.00     0.167 HD
ATOM     72  C   UNL     1      10.085  13.305   6.057  1.00  0.00     0.074 A 
ATOM     73  C   UNL     1      10.791  12.790   4.884  1.00  0.00     0.031 C 
ATOM     74  C   UNL     1      10.117  12.935   7.373  1.00  0.00     0.034 A 
BRANCH  61  75
ATOM     75  C   UNL     1      13.331   9.149   5.476  1.00  0.00     0.023 A 
ATOM     76  C   UNL     1      14.492   9.764   5.996  1.00  0.00     0.012 A 
ATOM     77  C   UNL     1      13.261   8.999   4.071  1.00  0.00     0.148 A 
ATOM     78  C   UNL     1      15.484  10.284   5.159  1.00  0.00     0.002 A 
ATOM     79  C   UNL     1      14.286   9.447   3.248  1.00  0.00     0.091 A 
ATOM     80  F   UNL     1      12.147   8.546   3.495  1.00  0.00    -0.205 F 
ATOM     81  C   UNL     1      15.382  10.125   3.784  1.00  0.00     0.022 A 
BRANCH  79  82
ATOM     82  S   UNL     1      14.224   9.228   1.465  1.00  0.00     0.127 S 
ATOM     83  O   UNL     1      13.978  10.595   1.015  1.00  0.00    -0.237 OA
ATOM     84  O   UNL     1      15.562   8.710   1.184  1.00  0.00    -0.237 OA
ATOM     85  O   UNL     1      13.150   8.272   1.224  1.00  0.00    -0.744 OA
ENDBRANCH  79  82
ENDBRANCH  61  75
BRANCH  62  86
ATOM     86  C   UNL     1       7.207  13.989   2.396  1.00  0.00     0.023 A 
ATOM     87  C   UNL     1       7.674  15.283   2.089  1.00  0.00     0.012 A 
ATOM     88  C   UNL     1       6.597  13.242   1.364  1.00  0.00     0.148 A 
ATOM     89  C   UNL     1       7.569  15.800   0.791  1.00  0.00     0.002 A 
ATOM     90  C   UNL     1       6.487  13.761   0.079  1.00  0.00     0.091 A 
ATOM     91  F   UNL     1       6.210  11.985   1.618  1.00  0.00    -0.205 F 
ATOM     92  C   UNL     1       6.984  15.036  -0.215  1.00  0.00     0.022 A 
BRANCH  90  93
ATOM     93  S   UNL     1       5.764  12.818  -1.271  1.00  0.00     0.127 S 
ATOM     94  O   UNL     1       4.840  13.789  -1.859  1.00  0.00    -0.237 OA
ATOM     95  O   UNL     1       6.935  12.512  -2.088  1.00  0.00    -0.237 OA
ATOM     96  O   UNL     1       5.110  11.672  -0.651  1.00  0.00    -0.744 OA
ENDBRANCH  90  93
ENDBRANCH  62  86
BRANCH  74  97
ATOM     97  C   UNL     1       9.118  13.560   8.317  1.00  0.00     0.023 A 
ATOM     98  C   UNL     1       7.723  13.437   8.142  1.00  0.00     0.012 A 
ATOM     99  C   UNL     1       9.599  14.160   9.492  1.00  0.00     0.148 A 
ATOM    100  C   UNL     1       6.832  13.934   9.098  1.00  0.00     0.002 A 
ATOM    101  C   UNL     1       8.712  14.611  10.462  1.00  0.00     0.091 A 
ATOM    102  F   UNL     1      10.927  14.266   9.653  1.00  0.00    -0.205 F 
ATOM    103  C   UNL     1       7.327  14.512  10.264  1.00  0.00     0.022 A 
BRANCH 101 104
ATOM    104  S   UNL     1       9.297  15.254  12.031  1.00  0.00     0.127 S 
ATOM    105  O   UNL     1       9.165  16.696  11.839  1.00  0.00    -0.237 OA
ATOM    106  O   UNL     1       8.350  14.674  12.985  1.00  0.00    -0.237 OA
ATOM    107  O   UNL     1      10.661  14.758  12.179  1.00  0.00    -0.744 OA
ENDBRANCH 101 104
ENDBRANCH  74  97
ENDBRANCH  48  49
ENDBRANCH  41  43
ENDBRANCH  40  41
ENDBRANCH  39  40
ENDBRANCH  38  39
ENDBRANCH  37  38
ENDBRANCH  36  37
ENDBRANCH   1  36
TORSDOF 27
