REMARK SMILES COc1ccccc1[C@@H]1C[N@@H+](Cc2cc3c(cc2C)OCO3)C[C@H]1C(=O)OCCOCCOCCOCCOC(=O)c1ccc(-c2c3nc(c(-c4cccc(S(=O)(=O)[O-])c4F)c4ccc([nH]4)c(-c4cccc(S(=O)(=O)[O-])c4F)c4nc(c(-c5cccc(S(=O)(=O)[O-])c5F)c5ccc2[nH]5)C=C4)C=C3)cc1
REMARK SMILES IDX 34 1 33 2 32 3 31 4 30 5 29 6 28 7 27 8 25 9 26 10 24 11
REMARK SMILES IDX 9 12 10 13 11 14 23 15 8 17 3 18 4 19 5 20 7 21 6 22 2 23
REMARK SMILES IDX 1 24 12 25 13 26 14 27 18 28 15 29 17 30 19 31 16 32 22 33
REMARK SMILES IDX 20 34 21 35 35 36 36 37 37 38 38 39 39 40 40 41 41 42 42 43
REMARK SMILES IDX 43 44 104 45 44 46 103 47 45 48 46 49 47 50 97 51 48 52
REMARK SMILES IDX 102 53 96 54 98 55 49 56 101 57 95 58 94 59 50 61 82 62
REMARK SMILES IDX 62 63 81 64 63 65 66 66 80 67 99 68 64 69 65 70 79 72 100 73
REMARK SMILES IDX 67 74 51 75 52 76 60 77 53 78 55 79 61 80 54 81 56 82 57 83
REMARK SMILES IDX 58 84 59 85 83 86 84 87 92 88 85 89 87 90 93 91 86 92 88 93
REMARK SMILES IDX 89 94 90 95 91 96 68 97 69 98 77 99 70 100 72 101 78 102
REMARK SMILES IDX 71 103 73 104 74 105 75 106 76 107
REMARK H PARENT 11 16 98 60 66 71
REMARK Flexibility Score: inf
ROOT
ATOM      1  C   UNL     1       3.648  -5.418   3.015  1.00  0.00     0.188 C 
ENDROOT
BRANCH   1   2
ATOM      2  O   UNL     1       2.848  -4.280   3.199  1.00  0.00    -0.377 OA
BRANCH   2   3
ATOM      3  C   UNL     1       1.961  -3.930   2.165  1.00  0.00     0.188 C 
BRANCH   3   4
ATOM      4  C   UNL     1       1.122  -4.940   1.380  1.00  0.00     0.188 C 
BRANCH   4   5
ATOM      5  O   UNL     1       1.735  -6.092   0.836  1.00  0.00    -0.376 OA
BRANCH   5   6
ATOM      6  C   UNL     1       2.695  -6.021  -0.209  1.00  0.00     0.202 C 
BRANCH   6   7
ATOM      7  C   UNL     1       2.821  -4.800  -1.128  1.00  0.00     0.261 C 
BRANCH   7   8
ATOM      8  O   UNL     1       2.974  -3.535  -0.454  1.00  0.00    -0.463 OA
BRANCH   8   9
ATOM      9  C   UNL     1       2.458  -2.469  -1.108  1.00  0.00     0.315 C 
ATOM     10  O   UNL     1       1.985  -2.562  -2.243  1.00  0.00    -0.252 OA
BRANCH   9  11
ATOM     11  C   UNL     1       2.392  -1.130  -0.376  1.00  0.00     0.167 C 
ATOM     12  C   UNL     1       2.848  -0.798   1.059  1.00  0.00     0.098 C 
ATOM     13  C   UNL     1       3.511   0.593   0.939  1.00  0.00     0.272 C 
ATOM     14  N   UNL     1       3.963   0.747  -0.440  1.00  0.00    -0.330 N 
ATOM     15  C   UNL     1       3.064  -0.067  -1.257  1.00  0.00     0.278 C 
ATOM     16  H   UNL     1       3.899   1.722  -0.734  1.00  0.00     0.348 HD
BRANCH  12  17
ATOM     17  C   UNL     1       1.852  -0.711   2.231  1.00  0.00     0.004 A 
ATOM     18  C   UNL     1       0.455  -0.536   2.172  1.00  0.00     0.122 A 
ATOM     19  C   UNL     1      -0.320  -0.565   3.347  1.00  0.00     0.047 A 
ATOM     20  C   UNL     1       0.269  -0.732   4.599  1.00  0.00     0.004 A 
ATOM     21  C   UNL     1       2.424  -0.838   3.526  1.00  0.00     0.008 A 
ATOM     22  C   UNL     1       1.647  -0.859   4.689  1.00  0.00     0.001 A 
BRANCH  18  23
ATOM     23  O   UNL     1      -0.283  -0.521   1.019  1.00  0.00    -0.496 OA
ATOM     24  C   UNL     1      -0.209   0.699   0.282  1.00  0.00     0.278 C 
ENDBRANCH  18  23
ENDBRANCH  12  17
BRANCH  14  25
ATOM     25  C   UNL     1       5.407   0.518  -0.645  1.00  0.00     0.299 C 
BRANCH  25  26
ATOM     26  C   UNL     1       5.922  -0.846  -0.240  1.00  0.00     0.013 A 
ATOM     27  C   UNL     1       6.431  -0.975   1.067  1.00  0.00     0.060 A 
ATOM     28  C   UNL     1       5.851  -1.995  -1.078  1.00  0.00    -0.038 A 
ATOM     29  C   UNL     1       6.711  -2.232   1.530  1.00  0.00     0.166 A 
ATOM     30  C   UNL     1       6.080  -3.270  -0.537  1.00  0.00     0.054 A 
ATOM     31  C   UNL     1       5.602  -1.942  -2.559  1.00  0.00     0.045 C 
ATOM     32  C   UNL     1       6.499  -3.352   0.762  1.00  0.00     0.166 A 
ATOM     33  O   UNL     1       7.231  -2.535   2.746  1.00  0.00    -0.454 OA
ATOM     34  O   UNL     1       6.843  -4.492   1.414  1.00  0.00    -0.454 OA
ATOM     35  C   UNL     1       7.619  -3.889   2.469  1.00  0.00     0.468 C 
ENDBRANCH  25  26
ENDBRANCH  14  25
ENDBRANCH   9  11
ENDBRANCH   8   9
ENDBRANCH   7   8
ENDBRANCH   6   7
ENDBRANCH   5   6
ENDBRANCH   4   5
ENDBRANCH   3   4
ENDBRANCH   2   3
ENDBRANCH   1   2
BRANCH   1  36
ATOM     36  C   UNL     1       3.027  -6.670   3.642  1.00  0.00     0.188 C 
BRANCH  36  37
ATOM     37  O   UNL     1       1.908  -6.590   4.523  1.00  0.00    -0.376 OA
BRANCH  37  38
ATOM     38  C   UNL     1       1.580  -5.392   5.208  1.00  0.00     0.202 C 
BRANCH  38  39
ATOM     39  C   UNL     1       2.599  -4.671   6.115  1.00  0.00     0.261 C 
BRANCH  39  40
ATOM     40  O   UNL     1       3.991  -4.769   5.790  1.00  0.00    -0.460 OA
BRANCH  40  41
ATOM     41  C   UNL     1       4.642  -5.819   6.330  1.00  0.00     0.338 C 
ATOM     42  O   UNL     1       4.161  -6.701   7.034  1.00  0.00    -0.246 OA
BRANCH  41  43
ATOM     43  C   UNL     1       6.045  -5.832   5.872  1.00  0.00     0.060 A 
ATOM     44  C   UNL     1       6.506  -6.945   5.157  1.00  0.00     0.016 A 
ATOM     45  C   UNL     1       6.927  -4.808   6.225  1.00  0.00     0.016 A 
ATOM     46  C   UNL     1       7.857  -7.066   4.832  1.00  0.00     0.010 A 
ATOM     47  C   UNL     1       8.288  -4.938   5.916  1.00  0.00     0.010 A 
ATOM     48  C   UNL     1       8.765  -6.087   5.250  1.00  0.00    -0.014 A 
BRANCH  48  49
ATOM     49  C   UNL     1      10.224  -6.353   5.163  1.00  0.00     0.031 A 
ATOM     50  C   UNL     1      10.930  -6.792   6.410  1.00  0.00     0.074 A 
ATOM     51  C   UNL     1      10.911  -6.218   4.013  1.00  0.00     0.049 A 
ATOM     52  N   UNL     1      12.194  -7.063   6.583  1.00  0.00    -0.248 NA
ATOM     53  C   UNL     1      10.099  -6.972   7.612  1.00  0.00     0.031 C 
ATOM     54  C   UNL     1      10.319  -5.889   2.726  1.00  0.00     0.029 A 
ATOM     55  N   UNL     1      12.254  -6.299   3.740  1.00  0.00    -0.354 N 
ATOM     56  C   UNL     1      12.315  -7.437   7.913  1.00  0.00     0.074 A 
ATOM     57  C   UNL     1      11.002  -7.330   8.511  1.00  0.00     0.031 C 
ATOM     58  C   UNL     1      11.289  -5.654   1.829  1.00  0.00     0.029 A 
ATOM     59  C   UNL     1      12.579  -5.900   2.462  1.00  0.00     0.049 A 
ATOM     60  H   UNL     1      12.920  -6.612   4.394  1.00  0.00     0.167 HD
ATOM     61  C   UNL     1      13.421  -7.856   8.569  1.00  0.00     0.034 A 
ATOM     62  C   UNL     1      13.777  -5.763   1.861  1.00  0.00     0.034 A 
ATOM     63  C   UNL     1      14.721  -7.944   7.963  1.00  0.00     0.049 A 
ATOM     64  C   UNL     1      15.002  -6.180   2.622  1.00  0.00     0.074 A 
ATOM     65  C   UNL     1      15.904  -8.381   8.527  1.00  0.00     0.029 A 
ATOM     66  N   UNL     1      15.015  -7.560   6.661  1.00  0.00    -0.354 N 
ATOM     67  N   UNL     1      15.085  -6.633   3.850  1.00  0.00    -0.248 NA
ATOM     68  C   UNL     1      16.285  -6.127   1.909  1.00  0.00     0.031 C 
ATOM     69  C   UNL     1      16.922  -8.220   7.581  1.00  0.00     0.029 A 
ATOM     70  C   UNL     1      16.364  -7.731   6.409  1.00  0.00     0.049 A 
ATOM     71  H   UNL     1      14.359  -7.216   6.012  1.00  0.00     0.167 HD
ATOM     72  C   UNL     1      16.420  -6.953   4.049  1.00  0.00     0.074 A 
ATOM     73  C   UNL     1      17.107  -6.657   2.806  1.00  0.00     0.031 C 
ATOM     74  C   UNL     1      17.023  -7.446   5.158  1.00  0.00     0.034 A 
BRANCH  61  75
ATOM     75  C   UNL     1      13.256  -8.238  10.014  1.00  0.00     0.023 A 
ATOM     76  C   UNL     1      12.540  -9.403  10.360  1.00  0.00     0.012 A 
ATOM     77  C   UNL     1      13.817  -7.443  11.031  1.00  0.00     0.148 A 
ATOM     78  C   UNL     1      12.350  -9.748  11.697  1.00  0.00     0.002 A 
ATOM     79  C   UNL     1      13.667  -7.821  12.359  1.00  0.00     0.091 A 
ATOM     80  F   UNL     1      14.466  -6.323  10.682  1.00  0.00    -0.205 F 
ATOM     81  C   UNL     1      12.921  -8.963  12.695  1.00  0.00     0.022 A 
BRANCH  79  82
ATOM     82  S   UNL     1      14.430  -6.920  13.710  1.00  0.00     0.127 S 
ATOM     83  O   UNL     1      13.262  -6.354  14.384  1.00  0.00    -0.237 OA
ATOM     84  O   UNL     1      15.102  -7.990  14.448  1.00  0.00    -0.237 OA
ATOM     85  O   UNL     1      15.324  -5.950  13.094  1.00  0.00    -0.744 OA
ENDBRANCH  79  82
ENDBRANCH  61  75
BRANCH  62  86
ATOM     86  C   UNL     1      13.859  -5.267   0.456  1.00  0.00     0.023 A 
ATOM     87  C   UNL     1      14.225  -6.144  -0.584  1.00  0.00     0.012 A 
ATOM     88  C   UNL     1      13.534  -3.932   0.143  1.00  0.00     0.148 A 
ATOM     89  C   UNL     1      14.290  -5.694  -1.905  1.00  0.00     0.002 A 
ATOM     90  C   UNL     1      13.550  -3.504  -1.180  1.00  0.00     0.091 A 
ATOM     91  F   UNL     1      13.198  -3.111   1.148  1.00  0.00    -0.205 F 
ATOM     92  C   UNL     1      13.944  -4.378  -2.204  1.00  0.00     0.022 A 
BRANCH  90  93
ATOM     93  S   UNL     1      12.998  -1.867  -1.673  1.00  0.00     0.127 S 
ATOM     94  O   UNL     1      14.240  -1.262  -2.147  1.00  0.00    -0.237 OA
ATOM     95  O   UNL     1      12.027  -2.182  -2.722  1.00  0.00    -0.237 OA
ATOM     96  O   UNL     1      12.420  -1.268  -0.478  1.00  0.00    -0.744 OA
ENDBRANCH  90  93
ENDBRANCH  62  86
BRANCH  74  97
ATOM     97  C   UNL     1      18.498  -7.726   5.070  1.00  0.00     0.023 A 
ATOM     98  C   UNL     1      19.419  -6.661   5.019  1.00  0.00     0.012 A 
ATOM     99  C   UNL     1      18.970  -9.052   5.098  1.00  0.00     0.148 A 
ATOM    100  C   UNL     1      20.788  -6.914   4.956  1.00  0.00     0.002 A 
ATOM    101  C   UNL     1      20.337  -9.295   5.093  1.00  0.00     0.091 A 
ATOM    102  F   UNL     1      18.074 -10.049   5.127  1.00  0.00    -0.205 F 
ATOM    103  C   UNL     1      21.247  -8.229   5.006  1.00  0.00     0.022 A 
BRANCH 101 104
ATOM    104  S   UNL     1      21.019 -10.947   5.256  1.00  0.00     0.127 S 
ATOM    105  O   UNL     1      21.584 -11.168   3.926  1.00  0.00    -0.237 OA
ATOM    106  O   UNL     1      22.009 -10.767   6.318  1.00  0.00    -0.237 OA
ATOM    107  O   UNL     1      19.902 -11.813   5.609  1.00  0.00    -0.744 OA
ENDBRANCH 101 104
ENDBRANCH  74  97
ENDBRANCH  48  49
ENDBRANCH  41  43
ENDBRANCH  40  41
ENDBRANCH  39  40
ENDBRANCH  38  39
ENDBRANCH  37  38
ENDBRANCH  36  37
ENDBRANCH   1  36
TORSDOF 27
