REMARK SMILES CC(C)(C)OC(=O)N1CCC[C@H]1C(=O)N[C@@H](Cc1ccccc1)C(=O)OCCOCCOCCOCCOC(=O)c1ccc(-c2c3nc(c(-c4cccc(S(=O)(=O)[O-])c4F)c4ccc([nH]4)c(-c4cccc(S(=O)(=O)[O-])c4F)c4nc(c(-c5cccc(S(=O)(=O)[O-])c5F)c5ccc2[nH]5)C=C4)C=C3)cc1
REMARK SMILES IDX 31 1 30 2 29 3 28 4 27 5 26 6 24 7 25 8 16 9 15 10 13 11
REMARK SMILES IDX 14 12 12 14 8 15 9 16 10 17 11 18 6 19 7 20 5 21 2 22 1 23
REMARK SMILES IDX 3 24 4 25 17 26 18 27 19 28 23 29 20 30 22 31 21 32 32 33
REMARK SMILES IDX 33 34 34 35 35 36 36 37 37 38 38 39 39 40 40 41 41 42 42 43
REMARK SMILES IDX 103 44 43 45 102 46 44 47 45 48 46 49 96 50 47 51 101 52
REMARK SMILES IDX 95 53 97 54 48 55 100 56 94 57 93 58 49 60 81 61 61 62 80 63
REMARK SMILES IDX 62 64 65 65 79 66 98 67 63 68 64 69 78 71 99 72 66 73 50 74
REMARK SMILES IDX 51 75 59 76 52 77 54 78 60 79 53 80 55 81 56 82 57 83 58 84
REMARK SMILES IDX 82 85 83 86 91 87 84 88 86 89 92 90 85 91 87 92 88 93 89 94
REMARK SMILES IDX 90 95 67 96 68 97 76 98 69 99 71 100 77 101 70 102 72 103
REMARK SMILES IDX 73 104 74 105 75 106
REMARK H PARENT 15 13 97 59 65 70
REMARK Flexibility Score: inf
ROOT
ATOM      1  C   UNL     1       1.093   6.228   1.124  1.00  0.00     0.188 C 
ENDROOT
BRANCH   1   2
ATOM      2  C   UNL     1       1.016   4.961   0.272  1.00  0.00     0.188 C 
BRANCH   2   3
ATOM      3  O   UNL     1       0.866   5.090  -1.135  1.00  0.00    -0.376 OA
BRANCH   3   4
ATOM      4  C   UNL     1      -0.202   5.865  -1.661  1.00  0.00     0.202 C 
BRANCH   4   5
ATOM      5  C   UNL     1      -1.548   6.063  -0.931  1.00  0.00     0.261 C 
BRANCH   5   6
ATOM      6  O   UNL     1      -1.560   5.899   0.498  1.00  0.00    -0.462 OA
BRANCH   6   7
ATOM      7  C   UNL     1      -2.266   4.861   1.019  1.00  0.00     0.329 C 
ATOM      8  O   UNL     1      -2.873   4.039   0.338  1.00  0.00    -0.250 OA
BRANCH   7   9
ATOM      9  C   UNL     1      -2.400   4.950   2.566  1.00  0.00     0.196 C 
BRANCH   9  10
ATOM     10  N   UNL     1      -1.384   5.717   3.319  1.00  0.00    -0.341 N 
ATOM     11  C   UNL     1      -0.319   5.366   4.098  1.00  0.00     0.243 C 
ATOM     12  O   UNL     1       0.391   6.301   4.493  1.00  0.00    -0.273 OA
ATOM     13  H   UNL     1      -1.500   6.692   3.241  1.00  0.00     0.164 HD
BRANCH  11  14
ATOM     14  C   UNL     1       0.061   3.893   4.434  1.00  0.00     0.178 C 
ATOM     15  N   UNL     1       0.867   3.226   3.392  1.00  0.00    -0.296 N 
ATOM     16  C   UNL     1       2.259   3.126   3.783  1.00  0.00     0.124 C 
ATOM     17  C   UNL     1       2.154   2.931   5.286  1.00  0.00     0.024 C 
ATOM     18  C   UNL     1       0.990   3.842   5.678  1.00  0.00     0.037 C 
BRANCH  15  19
ATOM     19  C   UNL     1       0.261   2.470   2.411  1.00  0.00     0.410 C 
ATOM     20  O   UNL     1      -0.951   2.363   2.365  1.00  0.00    -0.224 OA
BRANCH  19  21
ATOM     21  O   UNL     1       1.126   1.890   1.534  1.00  0.00    -0.444 OA
BRANCH  21  22
ATOM     22  C   UNL     1       0.681   1.143   0.349  1.00  0.00     0.106 C 
ATOM     23  C   UNL     1       1.425  -0.196   0.372  1.00  0.00     0.056 C 
ATOM     24  C   UNL     1       1.128   1.908  -0.902  1.00  0.00     0.056 C 
ATOM     25  C   UNL     1      -0.824   0.863   0.229  1.00  0.00     0.056 C 
ENDBRANCH  21  22
ENDBRANCH  19  21
ENDBRANCH  15  19
ENDBRANCH  11  14
ENDBRANCH   9  10
BRANCH   9  26
ATOM     26  C   UNL     1      -3.812   5.513   2.839  1.00  0.00     0.072 C 
BRANCH  26  27
ATOM     27  C   UNL     1      -4.058   6.902   2.284  1.00  0.00    -0.045 A 
ATOM     28  C   UNL     1      -3.739   8.039   3.037  1.00  0.00     0.004 A 
ATOM     29  C   UNL     1      -4.567   7.071   0.986  1.00  0.00     0.004 A 
ATOM     30  C   UNL     1      -3.917   9.316   2.499  1.00  0.00     0.000 A 
ATOM     31  C   UNL     1      -4.738   8.348   0.449  1.00  0.00     0.000 A 
ATOM     32  C   UNL     1      -4.415   9.470   1.207  1.00  0.00     0.000 A 
ENDBRANCH  26  27
ENDBRANCH   9  26
ENDBRANCH   7   9
ENDBRANCH   6   7
ENDBRANCH   5   6
ENDBRANCH   4   5
ENDBRANCH   3   4
ENDBRANCH   2   3
ENDBRANCH   1   2
BRANCH   1  33
ATOM     33  O   UNL     1       0.794   7.402   0.406  1.00  0.00    -0.377 OA
BRANCH  33  34
ATOM     34  C   UNL     1       1.912   8.085  -0.131  1.00  0.00     0.188 C 
BRANCH  34  35
ATOM     35  C   UNL     1       3.097   7.248  -0.665  1.00  0.00     0.188 C 
BRANCH  35  36
ATOM     36  O   UNL     1       3.543   6.207   0.198  1.00  0.00    -0.376 OA
BRANCH  36  37
ATOM     37  C   UNL     1       4.643   6.418   1.067  1.00  0.00     0.202 C 
BRANCH  37  38
ATOM     38  C   UNL     1       4.526   7.472   2.181  1.00  0.00     0.261 C 
BRANCH  38  39
ATOM     39  O   UNL     1       4.136   8.790   1.782  1.00  0.00    -0.460 OA
BRANCH  39  40
ATOM     40  C   UNL     1       4.914   9.438   0.888  1.00  0.00     0.338 C 
ATOM     41  O   UNL     1       5.965   9.049   0.416  1.00  0.00    -0.246 OA
BRANCH  40  42
ATOM     42  C   UNL     1       4.143  10.608   0.406  1.00  0.00     0.060 A 
ATOM     43  C   UNL     1       3.865  10.715  -0.965  1.00  0.00     0.016 A 
ATOM     44  C   UNL     1       3.645  11.555   1.303  1.00  0.00     0.016 A 
ATOM     45  C   UNL     1       3.114  11.786  -1.445  1.00  0.00     0.010 A 
ATOM     46  C   UNL     1       2.925  12.648   0.817  1.00  0.00     0.010 A 
ATOM     47  C   UNL     1       2.688  12.786  -0.563  1.00  0.00    -0.014 A 
BRANCH  47  48
ATOM     48  C   UNL     1       2.223  14.082  -1.107  1.00  0.00     0.031 A 
ATOM     49  C   UNL     1       3.231  15.196  -1.208  1.00  0.00     0.074 A 
ATOM     50  C   UNL     1       0.956  14.267  -1.518  1.00  0.00     0.049 A 
ATOM     51  N   UNL     1       3.065  16.433  -1.593  1.00  0.00    -0.248 NA
ATOM     52  C   UNL     1       4.615  14.867  -0.822  1.00  0.00     0.031 C 
ATOM     53  C   UNL     1      -0.099  13.256  -1.499  1.00  0.00     0.029 A 
ATOM     54  N   UNL     1       0.339  15.390  -2.010  1.00  0.00    -0.354 N 
ATOM     55  C   UNL     1       4.312  17.034  -1.472  1.00  0.00     0.074 A 
ATOM     56  C   UNL     1       5.223  16.034  -0.965  1.00  0.00     0.031 C 
ATOM     57  C   UNL     1      -1.245  13.816  -1.929  1.00  0.00     0.029 A 
ATOM     58  C   UNL     1      -1.010  15.229  -2.221  1.00  0.00     0.049 A 
ATOM     59  H   UNL     1       0.817  16.231  -2.195  1.00  0.00     0.167 HD
ATOM     60  C   UNL     1       4.672  18.303  -1.772  1.00  0.00     0.034 A 
ATOM     61  C   UNL     1      -1.947  16.131  -2.577  1.00  0.00     0.034 A 
ATOM     62  C   UNL     1       3.766  19.294  -2.282  1.00  0.00     0.049 A 
ATOM     63  C   UNL     1      -1.528  17.558  -2.843  1.00  0.00     0.074 A 
ATOM     64  C   UNL     1       4.035  20.604  -2.632  1.00  0.00     0.029 A 
ATOM     65  N   UNL     1       2.415  19.087  -2.504  1.00  0.00    -0.354 N 
ATOM     66  N   UNL     1      -0.330  18.090  -2.811  1.00  0.00    -0.248 NA
ATOM     67  C   UNL     1      -2.589  18.502  -3.226  1.00  0.00     0.031 C 
ATOM     68  C   UNL     1       2.837  21.201  -3.034  1.00  0.00     0.029 A 
ATOM     69  C   UNL     1       1.833  20.248  -2.980  1.00  0.00     0.049 A 
ATOM     70  H   UNL     1       1.939  18.240  -2.347  1.00  0.00     0.167 HD
ATOM     71  C   UNL     1      -0.487  19.412  -3.216  1.00  0.00     0.074 A 
ATOM     72  C   UNL     1      -1.893  19.595  -3.506  1.00  0.00     0.031 C 
ATOM     73  C   UNL     1       0.444  20.393  -3.327  1.00  0.00     0.034 A 
BRANCH  60  74
ATOM     74  C   UNL     1       6.113  18.690  -1.573  1.00  0.00     0.023 A 
ATOM     75  C   UNL     1       7.097  18.194  -2.452  1.00  0.00     0.012 A 
ATOM     76  C   UNL     1       6.481  19.598  -0.562  1.00  0.00     0.148 A 
ATOM     77  C   UNL     1       8.430  18.579  -2.314  1.00  0.00     0.002 A 
ATOM     78  C   UNL     1       7.802  20.014  -0.460  1.00  0.00     0.091 A 
ATOM     79  F   UNL     1       5.532  20.039   0.276  1.00  0.00    -0.205 F 
ATOM     80  C   UNL     1       8.779  19.498  -1.328  1.00  0.00     0.022 A 
BRANCH  78  81
ATOM     81  S   UNL     1       8.342  21.252   0.723  1.00  0.00     0.127 S 
ATOM     82  O   UNL     1       9.241  20.474   1.575  1.00  0.00    -0.237 OA
ATOM     83  O   UNL     1       9.010  22.226  -0.140  1.00  0.00    -0.237 OA
ATOM     84  O   UNL     1       7.137  21.739   1.379  1.00  0.00    -0.744 OA
ENDBRANCH  78  81
ENDBRANCH  60  74
BRANCH  61  85
ATOM     85  C   UNL     1      -3.379  15.733  -2.711  1.00  0.00     0.023 A 
ATOM     86  C   UNL     1      -4.008  15.797  -3.970  1.00  0.00     0.012 A 
ATOM     87  C   UNL     1      -4.132  15.333  -1.590  1.00  0.00     0.148 A 
ATOM     88  C   UNL     1      -5.371  15.527  -4.100  1.00  0.00     0.002 A 
ATOM     89  C   UNL     1      -5.474  15.003  -1.738  1.00  0.00     0.091 A 
ATOM     90  F   UNL     1      -3.524  15.294  -0.396  1.00  0.00    -0.205 F 
ATOM     91  C   UNL     1      -6.102  15.123  -2.987  1.00  0.00     0.022 A 
BRANCH  89  92
ATOM     92  S   UNL     1      -6.457  14.348  -0.385  1.00  0.00     0.127 S 
ATOM     93  O   UNL     1      -7.354  15.463  -0.100  1.00  0.00    -0.237 OA
ATOM     94  O   UNL     1      -7.092  13.187  -1.010  1.00  0.00    -0.237 OA
ATOM     95  O   UNL     1      -5.504  14.013   0.665  1.00  0.00    -0.744 OA
ENDBRANCH  89  92
ENDBRANCH  61  85
BRANCH  73  96
ATOM     96  C   UNL     1      -0.004  21.734  -3.849  1.00  0.00     0.023 A 
ATOM     97  C   UNL     1      -0.811  22.573  -3.056  1.00  0.00     0.012 A 
ATOM     98  C   UNL     1       0.443  22.191  -5.106  1.00  0.00     0.148 A 
ATOM     99  C   UNL     1      -1.199  23.829  -3.522  1.00  0.00     0.002 A 
ATOM    100  C   UNL     1       0.100  23.465  -5.539  1.00  0.00     0.091 A 
ATOM    101  F   UNL     1       1.201  21.373  -5.851  1.00  0.00    -0.205 F 
ATOM    102  C   UNL     1      -0.735  24.279  -4.756  1.00  0.00     0.022 A 
BRANCH 100 103
ATOM    103  S   UNL     1       0.733  24.170  -7.064  1.00  0.00     0.127 S 
ATOM    104  O   UNL     1      -0.473  24.223  -7.890  1.00  0.00    -0.237 OA
ATOM    105  O   UNL     1       1.225  25.474  -6.620  1.00  0.00    -0.237 OA
ATOM    106  O   UNL     1       1.768  23.258  -7.532  1.00  0.00    -0.744 OA
ENDBRANCH 100 103
ENDBRANCH  73  96
ENDBRANCH  47  48
ENDBRANCH  40  42
ENDBRANCH  39  40
ENDBRANCH  38  39
ENDBRANCH  37  38
ENDBRANCH  36  37
ENDBRANCH  35  36
ENDBRANCH  34  35
ENDBRANCH  33  34
ENDBRANCH   1  33
TORSDOF 30
