REMARK SMILES O=C(CS(=O)(=O)NCc1ccc(N2CCOCC2)nc1)OCCOCCOCCOCCOC(=O)c1ccc(-c2c3nc(c(-c4cccc(S(=O)(=O)[O-])c4F)c4ccc([nH]4)c(-c4cccc(S(=O)(=O)[O-])c4F)c4nc(c(-c5cccc(S(=O)(=O)[O-])c5F)c5ccc2[nH]5)C=C4)C=C3)cc1
REMARK SMILES IDX 26 1 25 2 24 3 23 4 22 5 21 6 2 7 1 8 3 9 4 10 5 11 6 12
REMARK SMILES IDX 7 13 8 15 9 16 10 17 20 18 11 19 19 20 12 21 13 22 14 23
REMARK SMILES IDX 18 24 15 25 17 26 16 27 27 28 28 29 29 30 30 31 31 32 32 33
REMARK SMILES IDX 33 34 34 35 35 36 36 37 37 38 98 39 38 40 97 41 39 42 40 43
REMARK SMILES IDX 41 44 91 45 42 46 96 47 90 48 92 49 43 50 95 51 89 52 88 53
REMARK SMILES IDX 44 55 76 56 56 57 75 58 57 59 60 60 74 61 93 62 58 63 59 64
REMARK SMILES IDX 73 66 94 67 61 68 45 69 46 70 54 71 47 72 49 73 55 74 48 75
REMARK SMILES IDX 50 76 51 77 52 78 53 79 77 80 78 81 86 82 79 83 81 84 87 85
REMARK SMILES IDX 80 86 82 87 83 88 84 89 85 90 62 91 63 92 71 93 64 94 66 95
REMARK SMILES IDX 72 96 65 97 67 98 68 99 69 100 70 101
REMARK H PARENT 7 14 92 54 60 65
REMARK Flexibility Score: inf
ROOT
ATOM      1  C   UNL     1       2.200   2.170   0.265  1.00  0.00     0.188 C 
ENDROOT
BRANCH   1   2
ATOM      2  C   UNL     1       2.930   1.515   1.448  1.00  0.00     0.188 C 
BRANCH   2   3
ATOM      3  O   UNL     1       4.330   1.356   1.279  1.00  0.00    -0.376 OA
BRANCH   3   4
ATOM      4  C   UNL     1       4.930   0.280   0.582  1.00  0.00     0.202 C 
BRANCH   4   5
ATOM      5  C   UNL     1       4.287  -0.247  -0.691  1.00  0.00     0.261 C 
BRANCH   5   6
ATOM      6  O   UNL     1       2.896  -0.637  -0.613  1.00  0.00    -0.462 OA
BRANCH   6   7
ATOM      7  C   UNL     1       2.206  -1.358   0.278  1.00  0.00     0.322 C 
ATOM      8  O   UNL     1       0.977  -1.383   0.180  1.00  0.00    -0.251 OA
BRANCH   7   9
ATOM      9  C   UNL     1       2.854  -2.034   1.416  1.00  0.00     0.276 C 
BRANCH   9  10
ATOM     10  S   UNL     1       3.806  -3.435   0.957  1.00  0.00     0.222 S 
ATOM     11  O   UNL     1       4.958  -3.014   0.201  1.00  0.00    -0.212 OA
ATOM     12  O   UNL     1       4.011  -4.202   2.170  1.00  0.00    -0.212 OA
BRANCH  10  13
ATOM     13  N   UNL     1       2.842  -4.401   0.015  1.00  0.00    -0.210 NA
ATOM     14  H   UNL     1       2.012  -4.585   0.579  1.00  0.00     0.141 HD
BRANCH  13  15
ATOM     15  C   UNL     1       2.335  -4.059  -1.322  1.00  0.00     0.135 C 
BRANCH  15  16
ATOM     16  C   UNL     1       3.310  -3.533  -2.328  1.00  0.00    -0.015 A 
ATOM     17  C   UNL     1       3.034  -2.390  -3.079  1.00  0.00     0.010 A 
ATOM     18  C   UNL     1       4.507  -4.180  -2.601  1.00  0.00     0.118 A 
ATOM     19  C   UNL     1       3.967  -1.928  -4.003  1.00  0.00     0.047 A 
ATOM     20  N   UNL     1       5.423  -3.755  -3.501  1.00  0.00    -0.239 NA
ATOM     21  C   UNL     1       5.151  -2.630  -4.191  1.00  0.00     0.128 A 
BRANCH  21  22
ATOM     22  N   UNL     1       6.052  -2.200  -5.120  1.00  0.00    -0.352 N 
ATOM     23  C   UNL     1       7.149  -1.310  -4.779  1.00  0.00     0.146 C 
ATOM     24  C   UNL     1       5.914  -2.608  -6.511  1.00  0.00     0.146 C 
ATOM     25  C   UNL     1       7.184  -0.142  -5.781  1.00  0.00     0.181 C 
ATOM     26  C   UNL     1       5.989  -1.367  -7.412  1.00  0.00     0.181 C 
ATOM     27  O   UNL     1       7.186  -0.607  -7.143  1.00  0.00    -0.378 OA
ENDBRANCH  21  22
ENDBRANCH  15  16
ENDBRANCH  13  15
ENDBRANCH  10  13
ENDBRANCH   9  10
ENDBRANCH   7   9
ENDBRANCH   6   7
ENDBRANCH   5   6
ENDBRANCH   4   5
ENDBRANCH   3   4
ENDBRANCH   2   3
ENDBRANCH   1   2
BRANCH   1  28
ATOM     28  O   UNL     1       2.659   3.480  -0.047  1.00  0.00    -0.377 OA
BRANCH  28  29
ATOM     29  C   UNL     1       4.014   3.547  -0.463  1.00  0.00     0.188 C 
BRANCH  29  30
ATOM     30  C   UNL     1       5.032   3.980   0.618  1.00  0.00     0.188 C 
BRANCH  30  31
ATOM     31  O   UNL     1       4.634   4.372   1.926  1.00  0.00    -0.376 OA
BRANCH  31  32
ATOM     32  C   UNL     1       3.399   5.033   2.137  1.00  0.00     0.202 C 
BRANCH  32  33
ATOM     33  C   UNL     1       3.115   6.369   1.440  1.00  0.00     0.261 C 
BRANCH  33  34
ATOM     34  O   UNL     1       3.444   6.418   0.049  1.00  0.00    -0.460 OA
BRANCH  34  35
ATOM     35  C   UNL     1       4.638   6.998  -0.241  1.00  0.00     0.338 C 
ATOM     36  O   UNL     1       5.426   7.491   0.533  1.00  0.00    -0.246 OA
BRANCH  35  37
ATOM     37  C   UNL     1       4.935   6.758  -1.671  1.00  0.00     0.060 A 
ATOM     38  C   UNL     1       6.163   6.164  -2.002  1.00  0.00     0.016 A 
ATOM     39  C   UNL     1       4.020   7.104  -2.666  1.00  0.00     0.016 A 
ATOM     40  C   UNL     1       6.494   5.939  -3.335  1.00  0.00     0.010 A 
ATOM     41  C   UNL     1       4.370   6.918  -4.003  1.00  0.00     0.010 A 
ATOM     42  C   UNL     1       5.623   6.373  -4.338  1.00  0.00    -0.014 A 
BRANCH  42  43
ATOM     43  C   UNL     1       6.129   6.518  -5.719  1.00  0.00     0.031 A 
ATOM     44  C   UNL     1       6.681   7.859  -6.113  1.00  0.00     0.074 A 
ATOM     45  C   UNL     1       6.076   5.506  -6.599  1.00  0.00     0.049 A 
ATOM     46  N   UNL     1       7.093   8.276  -7.279  1.00  0.00    -0.248 NA
ATOM     47  C   UNL     1       6.770   8.870  -5.044  1.00  0.00     0.031 C 
ATOM     48  C   UNL     1       5.581   4.161  -6.316  1.00  0.00     0.029 A 
ATOM     49  N   UNL     1       6.412   5.474  -7.929  1.00  0.00    -0.354 N 
ATOM     50  C   UNL     1       7.449   9.605  -7.095  1.00  0.00     0.074 A 
ATOM     51  C   UNL     1       7.207   9.928  -5.707  1.00  0.00     0.031 C 
ATOM     52  C   UNL     1       5.597   3.446  -7.455  1.00  0.00     0.029 A 
ATOM     53  C   UNL     1       6.070   4.296  -8.548  1.00  0.00     0.049 A 
ATOM     54  H   UNL     1       6.853   6.221  -8.393  1.00  0.00     0.167 HD
ATOM     55  C   UNL     1       7.939  10.481  -8.001  1.00  0.00     0.034 A 
ATOM     56  C   UNL     1       6.095   3.965  -9.854  1.00  0.00     0.034 A 
ATOM     57  C   UNL     1       8.182  10.150  -9.377  1.00  0.00     0.049 A 
ATOM     58  C   UNL     1       6.613   4.967 -10.855  1.00  0.00     0.074 A 
ATOM     59  C   UNL     1       8.727  10.944 -10.368  1.00  0.00     0.029 A 
ATOM     60  N   UNL     1       7.872   8.931  -9.959  1.00  0.00    -0.354 N 
ATOM     61  N   UNL     1       7.058   6.184 -10.652  1.00  0.00    -0.248 NA
ATOM     62  C   UNL     1       6.661   4.542 -12.262  1.00  0.00     0.031 C 
ATOM     63  C   UNL     1       8.710  10.217 -11.562  1.00  0.00     0.029 A 
ATOM     64  C   UNL     1       8.194   8.956 -11.304  1.00  0.00     0.049 A 
ATOM     65  H   UNL     1       7.481   8.162  -9.486  1.00  0.00     0.167 HD
ATOM     66  C   UNL     1       7.473   6.655 -11.894  1.00  0.00     0.074 A 
ATOM     67  C   UNL     1       7.236   5.587 -12.843  1.00  0.00     0.031 C 
ATOM     68  C   UNL     1       7.997   7.863 -12.222  1.00  0.00     0.034 A 
BRANCH  55  69
ATOM     69  C   UNL     1       8.235  11.878  -7.529  1.00  0.00     0.023 A 
ATOM     70  C   UNL     1       9.327  12.116  -6.670  1.00  0.00     0.012 A 
ATOM     71  C   UNL     1       7.441  12.960  -7.955  1.00  0.00     0.148 A 
ATOM     72  C   UNL     1       9.603  13.404  -6.214  1.00  0.00     0.002 A 
ATOM     73  C   UNL     1       7.751  14.247  -7.536  1.00  0.00     0.091 A 
ATOM     74  F   UNL     1       6.388  12.709  -8.746  1.00  0.00    -0.205 F 
ATOM     75  C   UNL     1       8.822  14.470  -6.655  1.00  0.00     0.022 A 
BRANCH  73  76
ATOM     76  S   UNL     1       6.855  15.692  -8.113  1.00  0.00     0.127 S 
ATOM     77  O   UNL     1       6.114  16.078  -6.913  1.00  0.00    -0.237 OA
ATOM     78  O   UNL     1       7.941  16.602  -8.478  1.00  0.00    -0.237 OA
ATOM     79  O   UNL     1       6.041  15.239  -9.232  1.00  0.00    -0.744 OA
ENDBRANCH  73  76
ENDBRANCH  55  69
BRANCH  56  80
ATOM     80  C   UNL     1       5.616   2.622 -10.285  1.00  0.00     0.023 A 
ATOM     81  C   UNL     1       6.535   1.677 -10.779  1.00  0.00     0.012 A 
ATOM     82  C   UNL     1       4.258   2.265 -10.173  1.00  0.00     0.148 A 
ATOM     83  C   UNL     1       6.106   0.413 -11.185  1.00  0.00     0.002 A 
ATOM     84  C   UNL     1       3.848   0.983 -10.517  1.00  0.00     0.091 A 
ATOM     85  F   UNL     1       3.396   3.182  -9.710  1.00  0.00    -0.205 F 
ATOM     86  C   UNL     1       4.766   0.063 -11.046  1.00  0.00     0.022 A 
BRANCH  84  87
ATOM     87  S   UNL     1       2.184   0.384 -10.209  1.00  0.00     0.127 S 
ATOM     88  O   UNL     1       1.689   0.157 -11.564  1.00  0.00    -0.237 OA
ATOM     89  O   UNL     1       2.450  -0.830  -9.434  1.00  0.00    -0.237 OA
ATOM     90  O   UNL     1       1.514   1.438  -9.460  1.00  0.00    -0.744 OA
ENDBRANCH  84  87
ENDBRANCH  56  80
BRANCH  68  91
ATOM     91  C   UNL     1       8.398   8.094 -13.656  1.00  0.00     0.023 A 
ATOM     92  C   UNL     1       7.412   8.290 -14.641  1.00  0.00     0.012 A 
ATOM     93  C   UNL     1       9.758   8.228 -14.000  1.00  0.00     0.148 A 
ATOM     94  C   UNL     1       7.774   8.590 -15.954  1.00  0.00     0.002 A 
ATOM     95  C   UNL     1      10.110   8.579 -15.297  1.00  0.00     0.091 A 
ATOM     96  F   UNL     1      10.681   8.025 -13.048  1.00  0.00    -0.205 F 
ATOM     97  C   UNL     1       9.120   8.749 -16.279  1.00  0.00     0.022 A 
BRANCH  95  98
ATOM     98  S   UNL     1      11.809   8.906 -15.782  1.00  0.00     0.127 S 
ATOM     99  O   UNL     1      12.091   7.771 -16.660  1.00  0.00    -0.237 OA
ATOM    100  O   UNL     1      11.691  10.193 -16.468  1.00  0.00    -0.237 OA
ATOM    101  O   UNL     1      12.581   8.945 -14.548  1.00  0.00    -0.744 OA
ENDBRANCH  95  98
ENDBRANCH  68  91
ENDBRANCH  42  43
ENDBRANCH  35  37
ENDBRANCH  34  35
ENDBRANCH  33  34
ENDBRANCH  32  33
ENDBRANCH  31  32
ENDBRANCH  30  31
ENDBRANCH  29  30
ENDBRANCH  28  29
ENDBRANCH   1  28
TORSDOF 28
