REMARK SMILES O=C(OCCOCCOCCOCCOC(=O)c1ccc(-c2c3nc(c(-c4cccc(S(=O)(=O)[O-])c4F)c4ccc([nH]4)c(-c4cccc(S(=O)(=O)[O-])c4F)c4nc(c(-c5cccc(S(=O)(=O)[O-])c5F)c5ccc2[nH]5)C=C4)C=C3)cc1)C1=Cc2cc(Cl)c(Cl)cc2O[C@@H]1C(F)(F)F
REMARK SMILES IDX 10 1 9 2 8 3 7 4 6 5 5 6 4 7 3 8 2 9 1 10 81 11 82 12 92 13
REMARK SMILES IDX 83 14 91 15 84 16 90 17 85 18 89 19 86 20 87 21 88 22 93 23
REMARK SMILES IDX 94 24 95 25 96 26 11 27 12 28 13 29 14 30 15 31 16 32 17 33
REMARK SMILES IDX 18 34 19 35 80 36 20 37 79 38 21 39 22 40 23 41 73 42 24 43
REMARK SMILES IDX 78 44 72 45 74 46 25 47 77 48 71 49 70 50 26 52 58 53 38 54
REMARK SMILES IDX 57 55 39 56 42 57 56 58 75 59 40 60 41 61 55 63 76 64 43 65
REMARK SMILES IDX 27 66 28 67 36 68 29 69 31 70 37 71 30 72 32 73 33 74 34 75
REMARK SMILES IDX 35 76 59 77 60 78 68 79 61 80 63 81 69 82 62 83 64 84 65 85
REMARK SMILES IDX 66 86 67 87 44 88 45 89 53 90 46 91 48 92 54 93 47 94 49 95
REMARK SMILES IDX 50 96 51 97 52 98
REMARK H PARENT 74 51 42 62
REMARK Flexibility Score: inf
ROOT
ATOM      1  C   UNL     1       3.053  -4.000  -1.642  1.00  0.00     0.188 C 
ENDROOT
BRANCH   1   2
ATOM      2  O   UNL     1       1.751  -3.650  -2.099  1.00  0.00    -0.377 OA
BRANCH   2   3
ATOM      3  C   UNL     1       1.009  -2.803  -1.232  1.00  0.00     0.188 C 
BRANCH   3   4
ATOM      4  C   UNL     1       1.434  -1.346  -1.344  1.00  0.00     0.188 C 
BRANCH   4   5
ATOM      5  O   UNL     1       2.800  -1.123  -1.034  1.00  0.00    -0.376 OA
BRANCH   5   6
ATOM      6  C   UNL     1       3.232  -1.276   0.311  1.00  0.00     0.202 C 
BRANCH   6   7
ATOM      7  C   UNL     1       2.747  -0.210   1.293  1.00  0.00     0.261 C 
BRANCH   7   8
ATOM      8  O   UNL     1       2.161   0.925   0.627  1.00  0.00    -0.460 OA
BRANCH   8   9
ATOM      9  C   UNL     1       2.715   2.135   0.873  1.00  0.00     0.338 C 
ATOM     10  O   UNL     1       2.265   2.918   1.695  1.00  0.00    -0.246 OA
BRANCH   9  11
ATOM     11  C   UNL     1       3.817   2.487  -0.068  1.00  0.00     0.087 C 
ATOM     12  C   UNL     1       4.901   2.960   0.571  1.00  0.00     0.027 C 
ATOM     13  C   UNL     1       3.963   1.633  -1.300  1.00  0.00     0.316 C 
ATOM     14  C   UNL     1       6.049   2.050   0.558  1.00  0.00     0.019 A 
ATOM     15  O   UNL     1       5.120   0.759  -1.280  1.00  0.00    -0.475 OA
ATOM     16  C   UNL     1       7.074   2.211   1.495  1.00  0.00     0.034 A 
ATOM     17  C   UNL     1       6.029   0.926  -0.270  1.00  0.00     0.129 A 
ATOM     18  C   UNL     1       8.004   1.186   1.692  1.00  0.00     0.060 A 
ATOM     19  C   UNL     1       6.931  -0.114  -0.047  1.00  0.00     0.069 A 
ATOM     20  Cl  UNL     1       9.245   1.444   2.865  1.00  0.00    -0.083 Cl
ATOM     21  C   UNL     1       7.891  -0.004   0.964  1.00  0.00     0.063 A 
ATOM     22  Cl  UNL     1       8.870  -1.386   1.299  1.00  0.00    -0.083 Cl
BRANCH  13  23
ATOM     23  C   UNL     1       3.867   2.467  -2.579  1.00  0.00     0.430 C 
ATOM     24  F   UNL     1       3.554   1.698  -3.650  1.00  0.00    -0.167 F 
ATOM     25  F   UNL     1       2.881   3.397  -2.478  1.00  0.00    -0.167 F 
ATOM     26  F   UNL     1       5.010   3.127  -2.862  1.00  0.00    -0.167 F 
ENDBRANCH  13  23
ENDBRANCH   9  11
ENDBRANCH   8   9
ENDBRANCH   7   8
ENDBRANCH   6   7
ENDBRANCH   5   6
ENDBRANCH   4   5
ENDBRANCH   3   4
ENDBRANCH   2   3
ENDBRANCH   1   2
BRANCH   1  27
ATOM     27  C   UNL     1       4.247  -3.316  -2.353  1.00  0.00     0.188 C 
BRANCH  27  28
ATOM     28  O   UNL     1       4.259  -2.995  -3.742  1.00  0.00    -0.376 OA
BRANCH  28  29
ATOM     29  C   UNL     1       3.127  -3.283  -4.537  1.00  0.00     0.202 C 
BRANCH  29  30
ATOM     30  C   UNL     1       2.964  -4.756  -4.949  1.00  0.00     0.261 C 
BRANCH  30  31
ATOM     31  O   UNL     1       3.363  -5.707  -3.947  1.00  0.00    -0.460 OA
BRANCH  31  32
ATOM     32  C   UNL     1       4.671  -6.086  -3.990  1.00  0.00     0.338 C 
ATOM     33  O   UNL     1       5.460  -5.853  -4.875  1.00  0.00    -0.246 OA
BRANCH  32  34
ATOM     34  C   UNL     1       5.067  -6.684  -2.680  1.00  0.00     0.060 A 
ATOM     35  C   UNL     1       6.321  -6.321  -2.170  1.00  0.00     0.016 A 
ATOM     36  C   UNL     1       4.241  -7.540  -1.941  1.00  0.00     0.016 A 
ATOM     37  C   UNL     1       6.779  -6.854  -0.965  1.00  0.00     0.010 A 
ATOM     38  C   UNL     1       4.706  -8.085  -0.732  1.00  0.00     0.010 A 
ATOM     39  C   UNL     1       6.001  -7.788  -0.269  1.00  0.00    -0.014 A 
BRANCH  39  40
ATOM     40  C   UNL     1       6.674  -8.636   0.751  1.00  0.00     0.031 A 
ATOM     41  C   UNL     1       7.170  -9.993   0.315  1.00  0.00     0.074 A 
ATOM     42  C   UNL     1       6.933  -8.199   1.998  1.00  0.00     0.049 A 
ATOM     43  N   UNL     1       7.853 -10.885   0.984  1.00  0.00    -0.248 NA
ATOM     44  C   UNL     1       6.858 -10.393  -1.069  1.00  0.00     0.031 C 
ATOM     45  C   UNL     1       6.527  -6.907   2.547  1.00  0.00     0.029 A 
ATOM     46  N   UNL     1       7.603  -8.808   3.032  1.00  0.00    -0.354 N 
ATOM     47  C   UNL     1       8.043 -11.949   0.109  1.00  0.00     0.074 A 
ATOM     48  C   UNL     1       7.376 -11.608  -1.127  1.00  0.00     0.031 C 
ATOM     49  C   UNL     1       6.934  -6.831   3.828  1.00  0.00     0.029 A 
ATOM     50  C   UNL     1       7.620  -8.071   4.193  1.00  0.00     0.049 A 
ATOM     51  H   UNL     1       8.031  -9.691   2.949  1.00  0.00     0.167 HD
ATOM     52  C   UNL     1       8.735 -13.097   0.298  1.00  0.00     0.034 A 
ATOM     53  C   UNL     1       8.118  -8.370   5.411  1.00  0.00     0.034 A 
ATOM     54  C   UNL     1       9.408 -13.441   1.520  1.00  0.00     0.049 A 
ATOM     55  C   UNL     1       8.855  -9.672   5.610  1.00  0.00     0.074 A 
ATOM     56  C   UNL     1      10.146 -14.575   1.805  1.00  0.00     0.029 A 
ATOM     57  N   UNL     1       9.418 -12.659   2.664  1.00  0.00    -0.354 N 
ATOM     58  N   UNL     1       9.110 -10.621   4.742  1.00  0.00    -0.248 NA
ATOM     59  C   UNL     1       9.411  -9.924   6.949  1.00  0.00     0.031 C 
ATOM     60  C   UNL     1      10.577 -14.493   3.133  1.00  0.00     0.029 A 
ATOM     61  C   UNL     1      10.142 -13.289   3.661  1.00  0.00     0.049 A 
ATOM     62  H   UNL     1       8.975 -11.784   2.754  1.00  0.00     0.167 HD
ATOM     63  C   UNL     1       9.879 -11.564   5.418  1.00  0.00     0.074 A 
ATOM     64  C   UNL     1      10.077 -11.054   6.759  1.00  0.00     0.031 C 
ATOM     65  C   UNL     1      10.364 -12.753   4.979  1.00  0.00     0.034 A 
BRANCH  52  66
ATOM     66  C   UNL     1       8.817 -14.056  -0.860  1.00  0.00     0.023 A 
ATOM     67  C   UNL     1       9.610 -13.732  -1.981  1.00  0.00     0.012 A 
ATOM     68  C   UNL     1       8.147 -15.294  -0.822  1.00  0.00     0.148 A 
ATOM     69  C   UNL     1       9.710 -14.612  -3.058  1.00  0.00     0.002 A 
ATOM     70  C   UNL     1       8.290 -16.186  -1.878  1.00  0.00     0.091 A 
ATOM     71  F   UNL     1       7.378 -15.571   0.241  1.00  0.00    -0.205 F 
ATOM     72  C   UNL     1       9.060 -15.841  -3.002  1.00  0.00     0.022 A 
BRANCH  70  73
ATOM     73  S   UNL     1       7.558 -17.825  -1.870  1.00  0.00     0.127 S 
ATOM     74  O   UNL     1       6.575 -17.715  -2.947  1.00  0.00    -0.237 OA
ATOM     75  O   UNL     1       8.708 -18.674  -2.178  1.00  0.00    -0.237 OA
ATOM     76  O   UNL     1       7.000 -18.012  -0.538  1.00  0.00    -0.744 OA
ENDBRANCH  70  73
ENDBRANCH  52  66
BRANCH  53  77
ATOM     77  C   UNL     1       7.945  -7.418   6.549  1.00  0.00     0.023 A 
ATOM     78  C   UNL     1       9.064  -6.780   7.120  1.00  0.00     0.012 A 
ATOM     79  C   UNL     1       6.666  -7.157   7.078  1.00  0.00     0.148 A 
ATOM     80  C   UNL     1       8.916  -5.934   8.221  1.00  0.00     0.002 A 
ATOM     81  C   UNL     1       6.518  -6.264   8.133  1.00  0.00     0.091 A 
ATOM     82  F   UNL     1       5.615  -7.791   6.540  1.00  0.00    -0.205 F 
ATOM     83  C   UNL     1       7.644  -5.667   8.720  1.00  0.00     0.022 A 
BRANCH  81  84
ATOM     84  S   UNL     1       4.906  -5.759   8.742  1.00  0.00     0.127 S 
ATOM     85  O   UNL     1       4.867  -6.399  10.054  1.00  0.00    -0.237 OA
ATOM     86  O   UNL     1       5.038  -4.302   8.769  1.00  0.00    -0.237 OA
ATOM     87  O   UNL     1       3.945  -6.253   7.766  1.00  0.00    -0.744 OA
ENDBRANCH  81  84
ENDBRANCH  53  77
BRANCH  65  88
ATOM     88  C   UNL     1      11.185 -13.572   5.945  1.00  0.00     0.023 A 
ATOM     89  C   UNL     1      10.567 -14.177   7.058  1.00  0.00     0.012 A 
ATOM     90  C   UNL     1      12.563 -13.775   5.727  1.00  0.00     0.148 A 
ATOM     91  C   UNL     1      11.316 -14.924   7.967  1.00  0.00     0.002 A 
ATOM     92  C   UNL     1      13.292 -14.566   6.608  1.00  0.00     0.091 A 
ATOM     93  F   UNL     1      13.139 -13.183   4.671  1.00  0.00    -0.205 F 
ATOM     94  C   UNL     1      12.674 -15.126   7.738  1.00  0.00     0.022 A 
BRANCH  92  95
ATOM     95  S   UNL     1      15.023 -14.960   6.339  1.00  0.00     0.127 S 
ATOM     96  O   UNL     1      15.679 -14.126   7.344  1.00  0.00    -0.237 OA
ATOM     97  O   UNL     1      15.062 -16.396   6.619  1.00  0.00    -0.237 OA
ATOM     98  O   UNL     1      15.303 -14.609   4.953  1.00  0.00    -0.744 OA
ENDBRANCH  92  95
ENDBRANCH  65  88
ENDBRANCH  39  40
ENDBRANCH  32  34
ENDBRANCH  31  32
ENDBRANCH  30  31
ENDBRANCH  29  30
ENDBRANCH  28  29
ENDBRANCH  27  28
ENDBRANCH   1  27
TORSDOF 24
