REMARK SMILES CS(=O)(=O)c1ccc(/C=C(/C(=O)OCCOCCOCCOCCOC(=O)c2ccc(-c3c4nc(c(-c5cccc(S(=O)(=O)[O-])c5F)c5ccc([nH]5)c(-c5cccc(S(=O)(=O)[O-])c5F)c5nc(c(-c6cccc(S(=O)(=O)[O-])c6F)c6ccc3[nH]6)C=C5)C=C4)cc2)c2cccc(-c3ccc(S(C)(=O)=O)cc3)c2)cc1
REMARK SMILES IDX 19 1 18 2 17 3 16 4 15 5 14 6 13 7 11 8 12 9 10 10 9 11 8 12
REMARK SMILES IDX 5 13 6 14 108 15 7 16 107 17 2 18 1 19 3 20 4 21 91 22 92 23
REMARK SMILES IDX 106 24 93 25 95 26 94 27 96 28 97 29 105 30 98 31 104 32
REMARK SMILES IDX 99 33 100 34 101 35 102 36 103 37 20 38 21 39 22 40 23 41
REMARK SMILES IDX 24 42 25 43 26 44 27 45 28 46 29 47 90 48 30 49 89 50 31 51
REMARK SMILES IDX 32 52 33 53 83 54 34 55 88 56 82 57 84 58 35 59 87 60 81 61
REMARK SMILES IDX 80 62 36 64 68 65 48 66 67 67 49 68 52 69 66 70 85 71 50 72
REMARK SMILES IDX 51 73 65 75 86 76 53 77 37 78 38 79 46 80 39 81 41 82 47 83
REMARK SMILES IDX 40 84 42 85 43 86 44 87 45 88 69 89 70 90 78 91 71 92 73 93
REMARK SMILES IDX 79 94 72 95 74 96 75 97 76 98 77 99 54 100 55 101 63 102
REMARK SMILES IDX 56 103 58 104 64 105 57 106 59 107 60 108 61 109 62 110
REMARK H PARENT 84 63 52 74
REMARK Flexibility Score: inf
ROOT
ATOM      1  O   UNL     1       4.432   6.642  -6.337  1.00  0.00    -0.377 OA
ENDROOT
BRANCH   1   2
ATOM      2  C   UNL     1       4.814   5.380  -6.851  1.00  0.00     0.188 C 
BRANCH   2   3
ATOM      3  C   UNL     1       4.880   5.153  -8.381  1.00  0.00     0.188 C 
BRANCH   3   4
ATOM      4  O   UNL     1       4.575   6.298  -9.156  1.00  0.00    -0.376 OA
BRANCH   4   5
ATOM      5  C   UNL     1       3.328   6.327  -9.828  1.00  0.00     0.202 C 
BRANCH   5   6
ATOM      6  C   UNL     1       2.040   6.232  -8.994  1.00  0.00     0.261 C 
BRANCH   6   7
ATOM      7  O   UNL     1       2.061   5.288  -7.914  1.00  0.00    -0.460 OA
BRANCH   7   8
ATOM      8  C   UNL     1       1.928   3.981  -8.232  1.00  0.00     0.338 C 
ATOM      9  O   UNL     1       1.755   3.538  -9.358  1.00  0.00    -0.246 OA
BRANCH   8  10
ATOM     10  C   UNL     1       2.201   3.121  -7.030  1.00  0.00     0.067 C 
ATOM     11  C   UNL     1       1.681   3.487  -5.831  1.00  0.00     0.024 C 
BRANCH  11  12
ATOM     12  C   UNL     1       1.565   2.691  -4.581  1.00  0.00    -0.025 A 
ATOM     13  C   UNL     1       0.846   0.893  -2.550  1.00  0.00     0.067 A 
ATOM     14  C   UNL     1       2.027   0.698  -3.260  1.00  0.00     0.021 A 
ATOM     15  C   UNL     1       0.084   2.042  -2.752  1.00  0.00     0.021 A 
ATOM     16  C   UNL     1       2.406   1.627  -4.231  1.00  0.00     0.009 A 
ATOM     17  C   UNL     1       0.450   2.939  -3.762  1.00  0.00     0.009 A 
BRANCH  13  18
ATOM     18  S   UNL     1       0.242  -0.400  -1.496  1.00  0.00     0.175 S 
ATOM     19  C   UNL     1       0.871   0.031   0.099  1.00  0.00     0.163 C 
ATOM     20  O   UNL     1       0.885  -1.636  -1.905  1.00  0.00    -0.224 OA
ATOM     21  O   UNL     1      -1.204  -0.297  -1.454  1.00  0.00    -0.224 OA
ENDBRANCH  13  18
ENDBRANCH  11  12
BRANCH  10  22
ATOM     22  C   UNL     1       2.949   1.868  -7.251  1.00  0.00    -0.010 A 
ATOM     23  C   UNL     1       4.352   1.825  -7.278  1.00  0.00     0.009 A 
ATOM     24  C   UNL     1       2.245   0.670  -7.296  1.00  0.00     0.017 A 
ATOM     25  C   UNL     1       5.034   0.612  -7.358  1.00  0.00     0.001 A 
ATOM     26  C   UNL     1       2.914  -0.563  -7.305  1.00  0.00    -0.018 A 
ATOM     27  C   UNL     1       4.316  -0.578  -7.363  1.00  0.00     0.009 A 
BRANCH  26  28
ATOM     28  C   UNL     1       2.127  -1.786  -7.140  1.00  0.00    -0.018 A 
ATOM     29  C   UNL     1       2.452  -2.710  -6.133  1.00  0.00     0.010 A 
ATOM     30  C   UNL     1       0.962  -1.988  -7.899  1.00  0.00     0.010 A 
ATOM     31  C   UNL     1       1.630  -3.807  -5.886  1.00  0.00     0.021 A 
ATOM     32  C   UNL     1       0.134  -3.078  -7.658  1.00  0.00     0.021 A 
ATOM     33  C   UNL     1       0.481  -3.985  -6.659  1.00  0.00     0.067 A 
BRANCH  33  34
ATOM     34  S   UNL     1      -0.529  -5.411  -6.381  1.00  0.00     0.175 S 
ATOM     35  C   UNL     1       0.518  -6.731  -6.935  1.00  0.00     0.163 C 
ATOM     36  O   UNL     1      -0.716  -5.550  -4.951  1.00  0.00    -0.224 OA
ATOM     37  O   UNL     1      -1.661  -5.347  -7.287  1.00  0.00    -0.224 OA
ENDBRANCH  33  34
ENDBRANCH  26  28
ENDBRANCH  10  22
ENDBRANCH   8  10
ENDBRANCH   7   8
ENDBRANCH   6   7
ENDBRANCH   5   6
ENDBRANCH   4   5
ENDBRANCH   3   4
ENDBRANCH   2   3
ENDBRANCH   1   2
BRANCH   1  38
ATOM     38  C   UNL     1       4.918   7.821  -6.962  1.00  0.00     0.188 C 
BRANCH  38  39
ATOM     39  C   UNL     1       6.328   7.827  -7.598  1.00  0.00     0.188 C 
BRANCH  39  40
ATOM     40  O   UNL     1       7.086   6.643  -7.394  1.00  0.00    -0.376 OA
BRANCH  40  41
ATOM     41  C   UNL     1       8.115   6.679  -6.420  1.00  0.00     0.202 C 
BRANCH  41  42
ATOM     42  C   UNL     1       7.705   6.941  -4.963  1.00  0.00     0.261 C 
BRANCH  42  43
ATOM     43  O   UNL     1       6.943   8.132  -4.723  1.00  0.00    -0.460 OA
BRANCH  43  44
ATOM     44  C   UNL     1       7.529   9.316  -5.001  1.00  0.00     0.338 C 
ATOM     45  O   UNL     1       8.660   9.496  -5.423  1.00  0.00    -0.246 OA
BRANCH  44  46
ATOM     46  C   UNL     1       6.486  10.358  -4.906  1.00  0.00     0.060 A 
ATOM     47  C   UNL     1       6.159  11.103  -6.048  1.00  0.00     0.016 A 
ATOM     48  C   UNL     1       5.805  10.566  -3.705  1.00  0.00     0.016 A 
ATOM     49  C   UNL     1       5.163  12.077  -5.983  1.00  0.00     0.010 A 
ATOM     50  C   UNL     1       4.829  11.561  -3.634  1.00  0.00     0.010 A 
ATOM     51  C   UNL     1       4.527  12.341  -4.764  1.00  0.00    -0.014 A 
BRANCH  51  52
ATOM     52  C   UNL     1       3.691  13.556  -4.626  1.00  0.00     0.031 A 
ATOM     53  C   UNL     1       4.311  14.780  -4.011  1.00  0.00     0.074 A 
ATOM     54  C   UNL     1       2.411  13.578  -5.037  1.00  0.00     0.049 A 
ATOM     55  N   UNL     1       3.776  15.946  -3.764  1.00  0.00    -0.248 NA
ATOM     56  C   UNL     1       5.727  14.672  -3.620  1.00  0.00     0.031 C 
ATOM     57  C   UNL     1       1.701  12.458  -5.652  1.00  0.00     0.029 A 
ATOM     58  N   UNL     1       1.474  14.578  -4.971  1.00  0.00    -0.354 N 
ATOM     59  C   UNL     1       4.775  16.699  -3.159  1.00  0.00     0.074 A 
ATOM     60  C   UNL     1       5.947  15.856  -3.069  1.00  0.00     0.031 C 
ATOM     61  C   UNL     1       0.427  12.824  -5.878  1.00  0.00     0.029 A 
ATOM     62  C   UNL     1       0.227  14.191  -5.399  1.00  0.00     0.049 A 
ATOM     63  H   UNL     1       1.675  15.486  -4.648  1.00  0.00     0.167 HD
ATOM     64  C   UNL     1       4.725  17.980  -2.727  1.00  0.00     0.034 A 
ATOM     65  C   UNL     1      -0.947  14.855  -5.379  1.00  0.00     0.034 A 
ATOM     66  C   UNL     1       3.562  18.817  -2.825  1.00  0.00     0.049 A 
ATOM     67  C   UNL     1      -0.984  16.272  -4.864  1.00  0.00     0.074 A 
ATOM     68  C   UNL     1       3.427  20.146  -2.465  1.00  0.00     0.029 A 
ATOM     69  N   UNL     1       2.326  18.403  -3.296  1.00  0.00    -0.354 N 
ATOM     70  N   UNL     1      -0.003  17.012  -4.407  1.00  0.00    -0.248 NA
ATOM     71  C   UNL     1      -2.285  16.956  -4.893  1.00  0.00     0.031 C 
ATOM     72  C   UNL     1       2.097  20.522  -2.675  1.00  0.00     0.029 A 
ATOM     73  C   UNL     1       1.415  19.443  -3.215  1.00  0.00     0.049 A 
ATOM     74  H   UNL     1       2.125  17.502  -3.638  1.00  0.00     0.167 HD
ATOM     75  C   UNL     1      -0.559  18.257  -4.129  1.00  0.00     0.074 A 
ATOM     76  C   UNL     1      -1.959  18.176  -4.488  1.00  0.00     0.031 C 
ATOM     77  C   UNL     1       0.034  19.364  -3.615  1.00  0.00     0.034 A 
BRANCH  64  78
ATOM     78  C   UNL     1       5.970  18.554  -2.103  1.00  0.00     0.023 A 
ATOM     79  C   UNL     1       7.095  18.838  -2.905  1.00  0.00     0.012 A 
ATOM     80  C   UNL     1       6.009  18.852  -0.727  1.00  0.00     0.148 A 
ATOM     81  C   UNL     1       8.250  19.378  -2.340  1.00  0.00     0.002 A 
ATOM     82  C   UNL     1       7.145  19.435  -0.181  1.00  0.00     0.091 A 
ATOM     83  F   UNL     1       4.939  18.550   0.022  1.00  0.00    -0.205 F 
ATOM     84  C   UNL     1       8.271  19.686  -0.983  1.00  0.00     0.022 A 
BRANCH  82  85
ATOM     85  S   UNL     1       7.240  19.944   1.538  1.00  0.00     0.127 S 
ATOM     86  O   UNL     1       8.206  18.987   2.075  1.00  0.00    -0.237 OA
ATOM     87  O   UNL     1       7.738  21.315   1.424  1.00  0.00    -0.237 OA
ATOM     88  O   UNL     1       5.888  19.829   2.068  1.00  0.00    -0.744 OA
ENDBRANCH  82  85
ENDBRANCH  64  78
BRANCH  65  89
ATOM     89  C   UNL     1      -2.186  14.191  -5.874  1.00  0.00     0.023 A 
ATOM     90  C   UNL     1      -2.803  14.648  -7.055  1.00  0.00     0.012 A 
ATOM     91  C   UNL     1      -2.748  13.100  -5.183  1.00  0.00     0.148 A 
ATOM     92  C   UNL     1      -3.974  14.049  -7.522  1.00  0.00     0.002 A 
ATOM     93  C   UNL     1      -3.880  12.470  -5.686  1.00  0.00     0.091 A 
ATOM     94  F   UNL     1      -2.154  12.691  -4.053  1.00  0.00    -0.205 F 
ATOM     95  C   UNL     1      -4.506  12.955  -6.844  1.00  0.00     0.022 A 
BRANCH  93  96
ATOM     96  S   UNL     1      -4.558  10.977  -4.954  1.00  0.00     0.127 S 
ATOM     97  O   UNL     1      -5.848  11.447  -4.456  1.00  0.00    -0.237 OA
ATOM     98  O   UNL     1      -4.630  10.085  -6.112  1.00  0.00    -0.237 OA
ATOM     99  O   UNL     1      -3.601  10.564  -3.936  1.00  0.00    -0.744 OA
ENDBRANCH  93  96
ENDBRANCH  65  89
BRANCH  77 100
ATOM    100  C   UNL     1      -0.813  20.601  -3.447  1.00  0.00     0.023 A 
ATOM    101  C   UNL     1      -1.807  20.649  -2.450  1.00  0.00     0.012 A 
ATOM    102  C   UNL     1      -0.569  21.745  -4.234  1.00  0.00     0.148 A 
ATOM    103  C   UNL     1      -2.571  21.802  -2.265  1.00  0.00     0.002 A 
ATOM    104  C   UNL     1      -1.296  22.907  -4.008  1.00  0.00     0.091 A 
ATOM    105  F   UNL     1       0.372  21.676  -5.187  1.00  0.00    -0.205 F 
ATOM    106  C   UNL     1      -2.308  22.933  -3.035  1.00  0.00     0.022 A 
BRANCH 104 107
ATOM    107  S   UNL     1      -0.960  24.441  -4.880  1.00  0.00     0.127 S 
ATOM    108  O   UNL     1      -2.141  24.564  -5.733  1.00  0.00    -0.237 OA
ATOM    109  O   UNL     1      -0.893  25.410  -3.786  1.00  0.00    -0.237 OA
ATOM    110  O   UNL     1       0.299  24.236  -5.585  1.00  0.00    -0.744 OA
ENDBRANCH 104 107
ENDBRANCH  77 100
ENDBRANCH  51  52
ENDBRANCH  44  46
ENDBRANCH  43  44
ENDBRANCH  42  43
ENDBRANCH  41  42
ENDBRANCH  40  41
ENDBRANCH  39  40
ENDBRANCH  38  39
ENDBRANCH   1  38
TORSDOF 28
