REMARK SMILES O=C(OCCOCCOCCOCCOC(=O)[C@H]1Cc2c([nH]c3ccccc23)[C@H](c2c[nH]c3ccccc23)[NH2+]1)c1ccc(-c2c3nc(c(-c4cccc(S(=O)(=O)[O-])c4F)c4ccc([nH]4)c(-c4cccc(S(=O)(=O)[O-])c4F)c4nc(c(-c5cccc(S(=O)(=O)[O-])c5F)c5ccc2[nH]5)C=C4)C=C3)cc1
REMARK SMILES IDX 8 1 7 2 6 3 5 4 4 5 3 6 2 7 1 8 40 9 41 10 102 11 42 12
REMARK SMILES IDX 101 13 43 14 44 15 45 16 95 17 46 18 100 19 94 20 96 21
REMARK SMILES IDX 47 22 99 23 93 24 92 25 48 27 80 28 60 29 79 30 61 31 64 32
REMARK SMILES IDX 78 33 97 34 62 35 63 36 77 38 98 39 65 40 49 41 50 42 58 43
REMARK SMILES IDX 51 44 53 45 59 46 52 47 54 48 55 49 56 50 57 51 81 52 82 53
REMARK SMILES IDX 90 54 83 55 85 56 91 57 84 58 86 59 87 60 88 61 89 62 66 63
REMARK SMILES IDX 67 64 75 65 68 66 70 67 76 68 69 69 71 70 72 71 73 72 74 73
REMARK SMILES IDX 9 74 10 75 11 76 12 77 13 78 14 79 15 80 16 81 17 82 18 83
REMARK SMILES IDX 19 84 39 85 20 86 29 87 21 90 28 91 22 92 23 93 27 94 24 96
REMARK SMILES IDX 26 97 25 98 30 99 31 100 38 101 32 102 33 103 37 104 34 106
REMARK SMILES IDX 36 107 35 108
REMARK H PARENT 96 26 64 37 39 88 39 89 22 95 32 105
REMARK Flexibility Score: inf
ROOT
ATOM      1  C   UNL     1       2.472   0.630  -2.708  1.00  0.00     0.188 C 
ENDROOT
BRANCH   1   2
ATOM      2  C   UNL     1       2.708   0.069  -1.325  1.00  0.00     0.188 C 
BRANCH   2   3
ATOM      3  O   UNL     1       4.088   0.120  -1.043  1.00  0.00    -0.376 OA
BRANCH   3   4
ATOM      4  C   UNL     1       4.736  -0.770  -0.168  1.00  0.00     0.202 C 
BRANCH   4   5
ATOM      5  C   UNL     1       3.911  -1.775   0.602  1.00  0.00     0.261 C 
BRANCH   5   6
ATOM      6  O   UNL     1       2.583  -1.418   1.073  1.00  0.00    -0.460 OA
BRANCH   6   7
ATOM      7  C   UNL     1       1.960  -0.421   1.730  1.00  0.00     0.338 C 
ATOM      8  O   UNL     1       0.751  -0.521   1.931  1.00  0.00    -0.246 OA
BRANCH   7   9
ATOM      9  C   UNL     1       2.648   0.772   2.275  1.00  0.00     0.060 A 
ATOM     10  C   UNL     1       3.636   1.470   1.604  1.00  0.00     0.016 A 
ATOM     11  C   UNL     1       2.194   1.303   3.487  1.00  0.00     0.016 A 
ATOM     12  C   UNL     1       4.372   2.461   2.208  1.00  0.00     0.010 A 
ATOM     13  C   UNL     1       2.838   2.405   4.060  1.00  0.00     0.010 A 
ATOM     14  C   UNL     1       3.994   2.917   3.457  1.00  0.00    -0.014 A 
BRANCH  14  15
ATOM     15  C   UNL     1       4.978   3.738   4.176  1.00  0.00     0.031 A 
ATOM     16  C   UNL     1       5.664   3.099   5.346  1.00  0.00     0.074 A 
ATOM     17  C   UNL     1       5.383   4.914   3.664  1.00  0.00     0.049 A 
ATOM     18  N   UNL     1       6.515   3.612   6.187  1.00  0.00    -0.248 NA
ATOM     19  C   UNL     1       5.354   1.677   5.601  1.00  0.00     0.031 C 
ATOM     20  C   UNL     1       4.892   5.513   2.416  1.00  0.00     0.029 A 
ATOM     21  N   UNL     1       6.330   5.797   4.101  1.00  0.00    -0.354 N 
ATOM     22  C   UNL     1       6.758   2.614   7.121  1.00  0.00     0.074 A 
ATOM     23  C   UNL     1       5.998   1.453   6.733  1.00  0.00     0.031 C 
ATOM     24  C   UNL     1       5.561   6.651   2.179  1.00  0.00     0.029 A 
ATOM     25  C   UNL     1       6.446   6.912   3.305  1.00  0.00     0.049 A 
ATOM     26  H   UNL     1       6.876   5.649   4.907  1.00  0.00     0.167 HD
ATOM     27  C   UNL     1       7.541   2.681   8.219  1.00  0.00     0.034 A 
ATOM     28  C   UNL     1       7.152   8.038   3.507  1.00  0.00     0.034 A 
ATOM     29  C   UNL     1       8.310   3.846   8.541  1.00  0.00     0.049 A 
ATOM     30  C   UNL     1       7.967   8.114   4.769  1.00  0.00     0.074 A 
ATOM     31  C   UNL     1       9.105   4.083   9.643  1.00  0.00     0.029 A 
ATOM     32  N   UNL     1       8.373   4.980   7.739  1.00  0.00    -0.354 N 
ATOM     33  N   UNL     1       8.149   7.194   5.689  1.00  0.00    -0.248 NA
ATOM     34  C   UNL     1       8.678   9.370   5.023  1.00  0.00     0.031 C 
ATOM     35  C   UNL     1       9.619   5.380   9.525  1.00  0.00     0.029 A 
ATOM     36  C   UNL     1       9.188   5.927   8.323  1.00  0.00     0.049 A 
ATOM     37  H   UNL     1       7.905   5.090   6.880  1.00  0.00     0.167 HD
ATOM     38  C   UNL     1       9.024   7.744   6.613  1.00  0.00     0.074 A 
ATOM     39  C   UNL     1       9.347   9.074   6.129  1.00  0.00     0.031 C 
ATOM     40  C   UNL     1       9.512   7.215   7.763  1.00  0.00     0.034 A 
BRANCH  27  41
ATOM     41  C   UNL     1       7.507   1.508   9.159  1.00  0.00     0.023 A 
ATOM     42  C   UNL     1       8.099   0.277   8.809  1.00  0.00     0.012 A 
ATOM     43  C   UNL     1       6.826   1.622  10.387  1.00  0.00     0.148 A 
ATOM     44  C   UNL     1       7.973  -0.833   9.647  1.00  0.00     0.002 A 
ATOM     45  C   UNL     1       6.748   0.529  11.238  1.00  0.00     0.091 A 
ATOM     46  F   UNL     1       6.237   2.789  10.683  1.00  0.00    -0.205 F 
ATOM     47  C   UNL     1       7.305  -0.705  10.863  1.00  0.00     0.022 A 
BRANCH  45  48
ATOM     48  S   UNL     1       5.967   0.610  12.852  1.00  0.00     0.127 S 
ATOM     49  O   UNL     1       4.816  -0.269  12.670  1.00  0.00    -0.237 OA
ATOM     50  O   UNL     1       7.013   0.082  13.723  1.00  0.00    -0.237 OA
ATOM     51  O   UNL     1       5.643   2.019  13.072  1.00  0.00    -0.744 OA
ENDBRANCH  45  48
ENDBRANCH  27  41
BRANCH  28  52
ATOM     52  C   UNL     1       7.092   9.166   2.533  1.00  0.00     0.023 A 
ATOM     53  C   UNL     1       8.253   9.560   1.842  1.00  0.00     0.012 A 
ATOM     54  C   UNL     1       5.884   9.850   2.281  1.00  0.00     0.148 A 
ATOM     55  C   UNL     1       8.221  10.631   0.946  1.00  0.00     0.002 A 
ATOM     56  C   UNL     1       5.846  10.878   1.346  1.00  0.00     0.091 A 
ATOM     57  F   UNL     1       4.789   9.477   2.958  1.00  0.00    -0.205 F 
ATOM     58  C   UNL     1       7.018  11.284   0.691  1.00  0.00     0.022 A 
BRANCH  56  59
ATOM     59  S   UNL     1       4.319  11.694   0.866  1.00  0.00     0.127 S 
ATOM     60  O   UNL     1       4.493  13.020   1.444  1.00  0.00    -0.237 OA
ATOM     61  O   UNL     1       4.390  11.638  -0.593  1.00  0.00    -0.237 OA
ATOM     62  O   UNL     1       3.245  10.887   1.444  1.00  0.00    -0.744 OA
ENDBRANCH  56  59
ENDBRANCH  28  52
BRANCH  40  63
ATOM     63  C   UNL     1      10.500   8.047   8.526  1.00  0.00     0.023 A 
ATOM     64  C   UNL     1      10.071   9.181   9.242  1.00  0.00     0.012 A 
ATOM     65  C   UNL     1      11.846   7.642   8.595  1.00  0.00     0.148 A 
ATOM     66  C   UNL     1      10.982   9.924   9.988  1.00  0.00     0.002 A 
ATOM     67  C   UNL     1      12.733   8.350   9.389  1.00  0.00     0.091 A 
ATOM     68  F   UNL     1      12.229   6.570   7.885  1.00  0.00    -0.205 F 
ATOM     69  C   UNL     1      12.308   9.500  10.074  1.00  0.00     0.022 A 
BRANCH  67  70
ATOM     70  S   UNL     1      14.421   7.802   9.649  1.00  0.00     0.127 S 
ATOM     71  O   UNL     1      15.173   8.759   8.841  1.00  0.00    -0.237 OA
ATOM     72  O   UNL     1      14.580   7.962  11.095  1.00  0.00    -0.237 OA
ATOM     73  O   UNL     1      14.469   6.419   9.189  1.00  0.00    -0.744 OA
ENDBRANCH  67  70
ENDBRANCH  40  63
ENDBRANCH  14  15
ENDBRANCH   7   9
ENDBRANCH   6   7
ENDBRANCH   5   6
ENDBRANCH   4   5
ENDBRANCH   3   4
ENDBRANCH   2   3
ENDBRANCH   1   2
BRANCH   1  74
ATOM     74  O   UNL     1       3.584   0.586  -3.582  1.00  0.00    -0.377 OA
BRANCH  74  75
ATOM     75  C   UNL     1       4.867   1.138  -3.287  1.00  0.00     0.188 C 
BRANCH  75  76
ATOM     76  C   UNL     1       4.972   2.607  -2.883  1.00  0.00     0.188 C 
BRANCH  76  77
ATOM     77  O   UNL     1       3.815   3.068  -2.224  1.00  0.00    -0.376 OA
BRANCH  77  78
ATOM     78  C   UNL     1       2.941   3.921  -2.957  1.00  0.00     0.202 C 
BRANCH  78  79
ATOM     79  C   UNL     1       2.735   3.783  -4.489  1.00  0.00     0.261 C 
BRANCH  79  80
ATOM     80  O   UNL     1       2.823   2.458  -5.082  1.00  0.00    -0.459 OA
BRANCH  80  81
ATOM     81  C   UNL     1       3.806   2.310  -6.009  1.00  0.00     0.365 C 
ATOM     82  O   UNL     1       4.492   3.270  -6.372  1.00  0.00    -0.245 OA
BRANCH  81  83
ATOM     83  C   UNL     1       4.058   0.905  -6.655  1.00  0.00     0.298 C 
ATOM     84  C   UNL     1       3.623  -0.408  -5.971  1.00  0.00     0.115 C 
ATOM     85  N   UNL     1       3.638   0.982  -8.092  1.00  0.00    -0.323 N 
ATOM     86  C   UNL     1       3.910  -1.585  -6.832  1.00  0.00    -0.006 A 
ATOM     87  C   UNL     1       4.151  -0.120  -8.926  1.00  0.00     0.264 C 
ATOM     88  H   UNL     1       3.979   1.862  -8.479  1.00  0.00     0.347 HD
ATOM     89  H   UNL     1       2.621   0.914  -8.107  1.00  0.00     0.347 HD
ATOM     90  C   UNL     1       4.121  -1.426  -8.181  1.00  0.00     0.083 A 
ATOM     91  C   UNL     1       4.132  -2.949  -6.494  1.00  0.00     0.003 A 
ATOM     92  N   UNL     1       4.276  -2.683  -8.709  1.00  0.00    -0.353 N 
ATOM     93  C   UNL     1       4.308  -3.628  -7.700  1.00  0.00     0.046 A 
ATOM     94  C   UNL     1       4.211  -3.675  -5.286  1.00  0.00     0.010 A 
ATOM     95  H   UNL     1       4.354  -2.883  -9.669  1.00  0.00     0.166 HD
ATOM     96  C   UNL     1       4.490  -5.017  -7.756  1.00  0.00     0.026 A 
ATOM     97  C   UNL     1       4.431  -5.058  -5.326  1.00  0.00     0.001 A 
ATOM     98  C   UNL     1       4.548  -5.720  -6.546  1.00  0.00     0.002 A 
BRANCH  87  99
ATOM     99  C   UNL     1       5.498   0.180  -9.581  1.00  0.00     0.041 A 
ATOM    100  C   UNL     1       5.946  -0.528 -10.691  1.00  0.00     0.093 A 
ATOM    101  C   UNL     1       6.531   1.175  -9.329  1.00  0.00     0.009 A 
ATOM    102  N   UNL     1       7.157  -0.042 -11.085  1.00  0.00    -0.361 N 
ATOM    103  C   UNL     1       7.534   1.006 -10.289  1.00  0.00     0.046 A 
ATOM    104  C   UNL     1       6.743   2.227  -8.410  1.00  0.00     0.011 A 
ATOM    105  H   UNL     1       7.687  -0.395 -11.836  1.00  0.00     0.166 HD
ATOM    106  C   UNL     1       8.684   1.810 -10.361  1.00  0.00     0.026 A 
ATOM    107  C   UNL     1       7.880   3.041  -8.455  1.00  0.00     0.001 A 
ATOM    108  C   UNL     1       8.841   2.833  -9.426  1.00  0.00     0.002 A 
ENDBRANCH  87  99
ENDBRANCH  81  83
ENDBRANCH  80  81
ENDBRANCH  79  80
ENDBRANCH  78  79
ENDBRANCH  77  78
ENDBRANCH  76  77
ENDBRANCH  75  76
ENDBRANCH  74  75
ENDBRANCH   1  74
TORSDOF 24
