REMARK SMILES O=C(CCCCCc1cc2c(cc1Br)OCCCO2)OCCOCCOCCOCCOC(=O)c1ccc(-c2c3nc(c(-c4cccc(S(=O)(=O)[O-])c4F)c4ccc([nH]4)c(-c4cccc(S(=O)(=O)[O-])c4F)c4nc(c(-c5cccc(S(=O)(=O)[O-])c5F)c5ccc2[nH]5)C=C4)C=C3)cc1
REMARK SMILES IDX 24 1 23 2 22 3 21 4 20 5 2 6 1 7 3 8 4 9 5 10 6 11 7 12 8 13
REMARK SMILES IDX 9 14 13 15 10 16 12 17 14 18 11 19 19 20 18 21 17 22 15 24
REMARK SMILES IDX 16 25 25 27 26 28 27 29 28 30 29 31 30 32 31 33 32 34 33 35
REMARK SMILES IDX 34 36 35 37 36 38 97 39 37 40 96 41 38 42 39 43 40 44 90 45
REMARK SMILES IDX 41 46 95 47 89 48 91 49 42 50 94 51 88 52 87 53 43 55 75 56
REMARK SMILES IDX 55 57 74 58 56 59 59 60 73 61 92 62 57 63 58 64 72 66 93 67
REMARK SMILES IDX 60 68 44 69 45 70 53 71 46 72 48 73 54 74 47 75 49 76 50 77
REMARK SMILES IDX 51 78 52 79 76 80 77 81 85 82 78 83 80 84 86 85 79 86 81 87
REMARK SMILES IDX 82 88 83 89 84 90 61 91 62 92 70 93 63 94 65 95 71 96 64 97
REMARK SMILES IDX 66 98 67 99 68 100 69 101
REMARK H PARENT 91 54 59 65
REMARK Flexibility Score: 80.00
ROOT
ATOM      1  C   UNL     1       2.406   1.411  -1.069  1.00  0.00     0.188 C 
ENDROOT
BRANCH   1   2
ATOM      2  O   UNL     1       3.319   0.342  -0.867  1.00  0.00    -0.376 OA
BRANCH   2   3
ATOM      3  C   UNL     1       3.150  -0.795  -1.697  1.00  0.00     0.202 C 
BRANCH   3   4
ATOM      4  C   UNL     1       3.171  -2.022  -0.799  1.00  0.00     0.261 C 
BRANCH   4   5
ATOM      5  O   UNL     1       1.944  -2.146  -0.044  1.00  0.00    -0.463 OA
BRANCH   5   6
ATOM      6  C   UNL     1       1.577  -1.514   1.086  1.00  0.00     0.305 C 
ATOM      7  O   UNL     1       0.430  -1.682   1.507  1.00  0.00    -0.252 OA
BRANCH   6   8
ATOM      8  C   UNL     1       2.501  -0.582   1.839  1.00  0.00     0.123 C 
BRANCH   8   9
ATOM      9  C   UNL     1       3.515  -1.186   2.798  1.00  0.00     0.012 C 
BRANCH   9  10
ATOM     10  C   UNL     1       4.953  -1.382   2.305  1.00  0.00     0.001 C 
BRANCH  10  11
ATOM     11  C   UNL     1       5.559  -0.241   1.469  1.00  0.00     0.005 C 
BRANCH  11  12
ATOM     12  C   UNL     1       7.022   0.130   1.767  1.00  0.00     0.037 C 
BRANCH  12  13
ATOM     13  C   UNL     1       7.995  -0.938   2.209  1.00  0.00    -0.030 A 
ATOM     14  C   UNL     1       8.888  -0.583   3.242  1.00  0.00     0.055 A 
ATOM     15  C   UNL     1       8.114  -2.226   1.655  1.00  0.00     0.025 A 
ATOM     16  C   UNL     1       9.811  -1.500   3.732  1.00  0.00     0.161 A 
ATOM     17  C   UNL     1       8.936  -3.187   2.255  1.00  0.00     0.066 A 
ATOM     18  Br  UNL     1       7.319  -2.734   0.006  1.00  0.00    -0.050 Br
ATOM     19  C   UNL     1       9.781  -2.818   3.292  1.00  0.00     0.162 A 
BRANCH  16  20
ATOM     20  O   UNL     1      10.763  -1.055   4.609  1.00  0.00    -0.490 OA
BRANCH  20  21
ATOM     21  C   UNL     1      12.055  -1.143   3.987  1.00  0.00     0.233 C 
BRANCH  21  22
ATOM     22  C   UNL     1      12.679  -2.525   4.151  1.00  0.00     0.083 CG0
ATOM     23  G   UNL     1      11.928  -3.610   3.385  1.00  0.00     0.000 G0
ENDBRANCH  21  22
ENDBRANCH  20  21
ENDBRANCH  16  20
BRANCH  19  24
ATOM     24  O   UNL     1      10.588  -3.770   3.850  1.00  0.00    -0.490 OA
BRANCH  24  25
ATOM     25  C   UNL     1      11.928  -3.610   3.385  1.00  0.00     0.233 CG0
ATOM     26  G   UNL     1      12.679  -2.525   4.151  1.00  0.00     0.000 G0
ENDBRANCH  24  25
ENDBRANCH  19  24
ENDBRANCH  12  13
ENDBRANCH  11  12
ENDBRANCH  10  11
ENDBRANCH   9  10
ENDBRANCH   8   9
ENDBRANCH   6   8
ENDBRANCH   5   6
ENDBRANCH   4   5
ENDBRANCH   3   4
ENDBRANCH   2   3
ENDBRANCH   1   2
BRANCH   1  27
ATOM     27  C   UNL     1       2.418   2.007  -2.474  1.00  0.00     0.188 C 
BRANCH  27  28
ATOM     28  O   UNL     1       3.666   2.050  -3.165  1.00  0.00    -0.377 OA
BRANCH  28  29
ATOM     29  C   UNL     1       4.854   2.256  -2.411  1.00  0.00     0.188 C 
BRANCH  29  30
ATOM     30  C   UNL     1       5.048   3.622  -1.751  1.00  0.00     0.188 C 
BRANCH  30  31
ATOM     31  O   UNL     1       3.840   4.218  -1.281  1.00  0.00    -0.376 OA
BRANCH  31  32
ATOM     32  C   UNL     1       3.705   5.580  -1.695  1.00  0.00     0.202 C 
BRANCH  32  33
ATOM     33  C   UNL     1       2.915   5.740  -3.003  1.00  0.00     0.261 C 
BRANCH  33  34
ATOM     34  O   UNL     1       3.304   4.871  -4.080  1.00  0.00    -0.460 OA
BRANCH  34  35
ATOM     35  C   UNL     1       4.512   5.068  -4.654  1.00  0.00     0.338 C 
ATOM     36  O   UNL     1       5.317   5.935  -4.358  1.00  0.00    -0.246 OA
BRANCH  35  37
ATOM     37  C   UNL     1       4.768   3.950  -5.601  1.00  0.00     0.060 A 
ATOM     38  C   UNL     1       3.765   3.494  -6.464  1.00  0.00     0.016 A 
ATOM     39  C   UNL     1       6.022   3.328  -5.604  1.00  0.00     0.016 A 
ATOM     40  C   UNL     1       4.015   2.418  -7.324  1.00  0.00     0.010 A 
ATOM     41  C   UNL     1       6.261   2.232  -6.444  1.00  0.00     0.010 A 
ATOM     42  C   UNL     1       5.264   1.775  -7.320  1.00  0.00    -0.014 A 
BRANCH  42  43
ATOM     43  C   UNL     1       5.589   0.774  -8.369  1.00  0.00     0.031 A 
ATOM     44  C   UNL     1       5.374  -0.701  -8.184  1.00  0.00     0.074 A 
ATOM     45  C   UNL     1       6.096   1.234  -9.530  1.00  0.00     0.049 A 
ATOM     46  N   UNL     1       5.556  -1.666  -9.051  1.00  0.00    -0.248 NA
ATOM     47  C   UNL     1       4.894  -1.159  -6.871  1.00  0.00     0.031 C 
ATOM     48  C   UNL     1       6.360   2.644  -9.826  1.00  0.00     0.029 A 
ATOM     49  N   UNL     1       6.481   0.575 -10.669  1.00  0.00    -0.354 N 
ATOM     50  C   UNL     1       5.214  -2.845  -8.400  1.00  0.00     0.074 A 
ATOM     51  C   UNL     1       4.822  -2.475  -7.054  1.00  0.00     0.031 C 
ATOM     52  C   UNL     1       6.863   2.744 -11.066  1.00  0.00     0.029 A 
ATOM     53  C   UNL     1       6.959   1.410 -11.650  1.00  0.00     0.049 A 
ATOM     54  H   UNL     1       6.420  -0.402 -10.774  1.00  0.00     0.167 HD
ATOM     55  C   UNL     1       5.210  -4.109  -8.890  1.00  0.00     0.034 A 
ATOM     56  C   UNL     1       7.410   1.141 -12.890  1.00  0.00     0.034 A 
ATOM     57  C   UNL     1       5.590  -4.474 -10.233  1.00  0.00     0.049 A 
ATOM     58  C   UNL     1       7.398  -0.271 -13.397  1.00  0.00     0.074 A 
ATOM     59  C   UNL     1       5.581  -5.734 -10.812  1.00  0.00     0.029 A 
ATOM     60  N   UNL     1       6.044  -3.596 -11.203  1.00  0.00    -0.354 N 
ATOM     61  N   UNL     1       6.968  -1.353 -12.799  1.00  0.00    -0.248 NA
ATOM     62  C   UNL     1       7.897  -0.492 -14.762  1.00  0.00     0.031 C 
ATOM     63  C   UNL     1       6.032  -5.618 -12.130  1.00  0.00     0.029 A 
ATOM     64  C   UNL     1       6.313  -4.285 -12.375  1.00  0.00     0.049 A 
ATOM     65  H   UNL     1       6.160  -2.627 -11.078  1.00  0.00     0.167 HD
ATOM     66  C   UNL     1       7.103  -2.376 -13.729  1.00  0.00     0.074 A 
ATOM     67  C   UNL     1       7.654  -1.786 -14.930  1.00  0.00     0.031 C 
ATOM     68  C   UNL     1       6.802  -3.689 -13.589  1.00  0.00     0.034 A 
BRANCH  55  69
ATOM     69  C   UNL     1       4.708  -5.227  -8.015  1.00  0.00     0.023 A 
ATOM     70  C   UNL     1       3.319  -5.453  -7.946  1.00  0.00     0.012 A 
ATOM     71  C   UNL     1       5.593  -6.164  -7.446  1.00  0.00     0.148 A 
ATOM     72  C   UNL     1       2.817  -6.601  -7.332  1.00  0.00     0.002 A 
ATOM     73  C   UNL     1       5.087  -7.318  -6.857  1.00  0.00     0.091 A 
ATOM     74  F   UNL     1       6.910  -5.929  -7.533  1.00  0.00    -0.205 F 
ATOM     75  C   UNL     1       3.700  -7.537  -6.800  1.00  0.00     0.022 A 
BRANCH  73  76
ATOM     76  S   UNL     1       6.133  -8.622  -6.198  1.00  0.00     0.127 S 
ATOM     77  O   UNL     1       5.742  -8.630  -4.789  1.00  0.00    -0.237 OA
ATOM     78  O   UNL     1       5.690  -9.787  -6.962  1.00  0.00    -0.237 OA
ATOM     79  O   UNL     1       7.506  -8.205  -6.450  1.00  0.00    -0.744 OA
ENDBRANCH  73  76
ENDBRANCH  55  69
BRANCH  56  80
ATOM     80  C   UNL     1       7.813   2.263 -13.777  1.00  0.00     0.023 A 
ATOM     81  C   UNL     1       6.946   2.654 -14.815  1.00  0.00     0.012 A 
ATOM     82  C   UNL     1       9.011   2.969 -13.569  1.00  0.00     0.148 A 
ATOM     83  C   UNL     1       7.275   3.724 -15.645  1.00  0.00     0.002 A 
ATOM     84  C   UNL     1       9.315   4.059 -14.375  1.00  0.00     0.091 A 
ATOM     85  F   UNL     1       9.820   2.568 -12.578  1.00  0.00    -0.205 F 
ATOM     86  C   UNL     1       8.453   4.432 -15.419  1.00  0.00     0.022 A 
BRANCH  84  87
ATOM     87  S   UNL     1      10.758   5.090 -14.098  1.00  0.00     0.127 S 
ATOM     88  O   UNL     1      11.585   4.761 -15.256  1.00  0.00    -0.237 OA
ATOM     89  O   UNL     1      10.177   6.433 -14.117  1.00  0.00    -0.237 OA
ATOM     90  O   UNL     1      11.291   4.684 -12.806  1.00  0.00    -0.744 OA
ENDBRANCH  84  87
ENDBRANCH  56  80
BRANCH  68  91
ATOM     91  C   UNL     1       7.019  -4.592 -14.772  1.00  0.00     0.023 A 
ATOM     92  C   UNL     1       8.321  -5.023 -15.088  1.00  0.00     0.012 A 
ATOM     93  C   UNL     1       5.925  -5.083 -15.512  1.00  0.00     0.148 A 
ATOM     94  C   UNL     1       8.535  -5.918 -16.135  1.00  0.00     0.002 A 
ATOM     95  C   UNL     1       6.142  -6.001 -16.533  1.00  0.00     0.091 A 
ATOM     96  F   UNL     1       4.696  -4.645 -15.202  1.00  0.00    -0.205 F 
ATOM     97  C   UNL     1       7.446  -6.415 -16.849  1.00  0.00     0.022 A 
BRANCH  95  98
ATOM     98  S   UNL     1       4.798  -6.748 -17.463  1.00  0.00     0.127 S 
ATOM     99  O   UNL     1       4.959  -6.120 -18.774  1.00  0.00    -0.237 OA
ATOM    100  O   UNL     1       5.144  -8.169 -17.420  1.00  0.00    -0.237 OA
ATOM    101  O   UNL     1       3.575  -6.401 -16.752  1.00  0.00    -0.744 OA
ENDBRANCH  95  98
ENDBRANCH  68  91
ENDBRANCH  42  43
ENDBRANCH  35  37
ENDBRANCH  34  35
ENDBRANCH  33  34
ENDBRANCH  32  33
ENDBRANCH  31  32
ENDBRANCH  30  31
ENDBRANCH  29  30
ENDBRANCH  28  29
ENDBRANCH  27  28
ENDBRANCH   1  27
TORSDOF 28
