REMARK SMILES CCc1ccccc1NC(=O)CCN1C[C@H](C(=O)OCCOCCOCCOCCOC(=O)c2ccc(-c3c4nc(c(-c5cccc(S(=O)(=O)[O-])c5F)c5ccc([nH]5)c(-c5cccc(S(=O)(=O)[O-])c5F)c5nc(c(-c6cccc(S(=O)(=O)[O-])c6F)c6ccc3[nH]6)C=C5)C=C4)cc2)CC1=O
REMARK SMILES IDX 24 1 23 2 22 3 21 4 20 5 19 6 17 7 18 8 16 9 14 10 15 11
REMARK SMILES IDX 98 12 97 13 99 14 13 15 12 16 10 17 9 18 11 20 8 21 3 22
REMARK SMILES IDX 4 23 5 24 7 25 6 26 2 27 1 28 25 29 26 30 27 31 28 32 29 33
REMARK SMILES IDX 30 34 31 35 32 36 33 37 34 38 35 39 96 40 36 41 95 42 37 43
REMARK SMILES IDX 38 44 39 45 89 46 40 47 94 48 88 49 90 50 41 51 93 52 87 53
REMARK SMILES IDX 86 54 42 56 74 57 54 58 73 59 55 60 58 61 72 62 91 63 56 64
REMARK SMILES IDX 57 65 71 67 92 68 59 69 43 70 44 71 52 72 45 73 47 74 53 75
REMARK SMILES IDX 46 76 48 77 49 78 50 79 51 80 75 81 76 82 84 83 77 84 79 85
REMARK SMILES IDX 85 86 78 87 80 88 81 89 82 90 83 91 60 92 61 93 69 94 62 95
REMARK SMILES IDX 64 96 70 97 63 98 65 99 66 100 67 101 68 102
REMARK H PARENT 9 19 90 55 58 66
REMARK Flexibility Score: inf
ROOT
ATOM      1  C   UNL     1      -0.222  -6.840  -3.294  1.00  0.00     0.188 C 
ENDROOT
BRANCH   1   2
ATOM      2  C   UNL     1      -0.633  -5.626  -4.116  1.00  0.00     0.188 C 
BRANCH   2   3
ATOM      3  O   UNL     1      -0.062  -5.550  -5.405  1.00  0.00    -0.376 OA
BRANCH   3   4
ATOM      4  C   UNL     1       1.135  -4.800  -5.591  1.00  0.00     0.202 C 
BRANCH   4   5
ATOM      5  C   UNL     1       1.626  -3.702  -4.620  1.00  0.00     0.261 C 
BRANCH   5   6
ATOM      6  O   UNL     1       1.702  -4.045  -3.207  1.00  0.00    -0.463 OA
BRANCH   6   7
ATOM      7  C   UNL     1       1.019  -3.178  -2.197  1.00  0.00     0.311 C 
ATOM      8  O   UNL     1       0.239  -2.470  -2.893  1.00  0.00    -0.252 OA
BRANCH   7   9
ATOM      9  C   UNL     1       1.365  -3.275  -0.029  1.00  0.00     0.128 C 
ATOM     10  N   UNL     1       3.441  -2.900   1.356  1.00  0.00    -0.341 N 
ATOM     11  C   UNL     1       2.643  -4.005   0.901  1.00  0.00     0.135 C 
ATOM     12  C   UNL     1       2.647  -1.808   1.655  1.00  0.00     0.223 C 
ATOM     13  C   UNL     1       1.231  -2.158   1.263  1.00  0.00     0.117 C 
ATOM     14  O   UNL     1       3.001  -0.742   2.127  1.00  0.00    -0.275 OA
BRANCH  10  15
ATOM     15  C   UNL     1       4.885  -2.833   1.176  1.00  0.00     0.129 C 
BRANCH  15  16
ATOM     16  C   UNL     1       5.389  -2.338  -0.189  1.00  0.00     0.122 C 
BRANCH  16  17
ATOM     17  C   UNL     1       4.765  -1.068  -0.730  1.00  0.00     0.226 C 
ATOM     18  N   UNL     1       3.500  -1.024  -1.248  1.00  0.00    -0.326 N 
ATOM     19  H   UNL     1       3.250  -0.160  -1.647  1.00  0.00     0.169 HD
ATOM     20  O   UNL     1       5.376   0.004  -0.677  1.00  0.00    -0.275 OA
BRANCH  18  21
ATOM     21  C   UNL     1       2.506  -1.999  -1.304  1.00  0.00     0.044 A 
ATOM     22  C   UNL     1       0.818  -1.446  -1.036  1.00  0.00    -0.025 A 
ATOM     23  C   UNL     1      -0.520  -2.657  -0.842  1.00  0.00     0.006 A 
ATOM     24  C   UNL     1      -0.190  -4.409  -1.014  1.00  0.00     0.000 A 
ATOM     25  C   UNL     1       2.863  -3.745  -1.407  1.00  0.00     0.026 A 
ATOM     26  C   UNL     1       1.510  -4.961  -1.204  1.00  0.00     0.002 A 
BRANCH  22  27
ATOM     27  C   UNL     1       0.416  -0.001  -1.251  1.00  0.00     0.034 C 
ATOM     28  C   UNL     1       0.782   0.954  -0.132  1.00  0.00     0.009 C 
ENDBRANCH  22  27
ENDBRANCH  18  21
ENDBRANCH  16  17
ENDBRANCH  15  16
ENDBRANCH  10  15
ENDBRANCH   7   9
ENDBRANCH   6   7
ENDBRANCH   5   6
ENDBRANCH   4   5
ENDBRANCH   3   4
ENDBRANCH   2   3
ENDBRANCH   1   2
BRANCH   1  29
ATOM     29  O   UNL     1       1.151  -6.950  -2.965  1.00  0.00    -0.377 OA
BRANCH  29  30
ATOM     30  C   UNL     1       2.057  -7.522  -3.888  1.00  0.00     0.188 C 
BRANCH  30  31
ATOM     31  C   UNL     1       1.450  -8.575  -4.807  1.00  0.00     0.188 C 
BRANCH  31  32
ATOM     32  O   UNL     1       0.706  -9.651  -4.223  1.00  0.00    -0.376 OA
BRANCH  32  33
ATOM     33  C   UNL     1       0.825  -9.934  -2.833  1.00  0.00     0.202 C 
BRANCH  33  34
ATOM     34  C   UNL     1       2.003 -10.812  -2.423  1.00  0.00     0.261 C 
BRANCH  34  35
ATOM     35  O   UNL     1       3.266 -10.267  -2.812  1.00  0.00    -0.460 OA
BRANCH  35  36
ATOM     36  C   UNL     1       3.678 -10.646  -4.045  1.00  0.00     0.338 C 
ATOM     37  O   UNL     1       3.117 -11.395  -4.824  1.00  0.00    -0.246 OA
BRANCH  36  38
ATOM     38  C   UNL     1       4.903  -9.907  -4.374  1.00  0.00     0.060 A 
ATOM     39  C   UNL     1       4.964  -9.176  -5.568  1.00  0.00     0.016 A 
ATOM     40  C   UNL     1       6.017 -10.038  -3.547  1.00  0.00     0.016 A 
ATOM     41  C   UNL     1       6.168  -8.623  -5.974  1.00  0.00     0.010 A 
ATOM     42  C   UNL     1       7.229  -9.503  -3.965  1.00  0.00     0.010 A 
ATOM     43  C   UNL     1       7.312  -8.846  -5.204  1.00  0.00    -0.014 A 
BRANCH  43  44
ATOM     44  C   UNL     1       8.635  -8.578  -5.791  1.00  0.00     0.031 A 
ATOM     45  C   UNL     1       9.438  -9.740  -6.295  1.00  0.00     0.074 A 
ATOM     46  C   UNL     1       9.097  -7.321  -5.864  1.00  0.00     0.049 A 
ATOM     47  N   UNL     1      10.657  -9.758  -6.758  1.00  0.00    -0.248 NA
ATOM     48  C   UNL     1       8.785 -11.061  -6.261  1.00  0.00     0.031 C 
ATOM     49  C   UNL     1       8.371  -6.129  -5.430  1.00  0.00     0.029 A 
ATOM     50  N   UNL     1      10.303  -6.850  -6.303  1.00  0.00    -0.354 N 
ATOM     51  C   UNL     1      10.936 -11.091  -7.028  1.00  0.00     0.074 A 
ATOM     52  C   UNL     1       9.762 -11.856  -6.668  1.00  0.00     0.031 C 
ATOM     53  C   UNL     1       9.166  -5.058  -5.592  1.00  0.00     0.029 A 
ATOM     54  C   UNL     1      10.462  -5.502  -6.096  1.00  0.00     0.049 A 
ATOM     55  H   UNL     1      10.988  -7.418  -6.724  1.00  0.00     0.167 HD
ATOM     56  C   UNL     1      12.071 -11.626  -7.531  1.00  0.00     0.034 A 
ATOM     57  C   UNL     1      11.553  -4.731  -6.253  1.00  0.00     0.034 A 
ATOM     58  C   UNL     1      13.227 -10.847  -7.880  1.00  0.00     0.049 A 
ATOM     59  C   UNL     1      12.821  -5.358  -6.762  1.00  0.00     0.074 A 
ATOM     60  C   UNL     1      14.416 -11.278  -8.438  1.00  0.00     0.029 A 
ATOM     61  N   UNL     1      13.350  -9.481  -7.677  1.00  0.00    -0.354 N 
ATOM     62  N   UNL     1      13.050  -6.606  -7.092  1.00  0.00    -0.248 NA
ATOM     63  C   UNL     1      13.972  -4.465  -6.947  1.00  0.00     0.031 C 
ATOM     64  C   UNL     1      15.282 -10.184  -8.511  1.00  0.00     0.029 A 
ATOM     65  C   UNL     1      14.605  -9.056  -8.073  1.00  0.00     0.049 A 
ATOM     66  H   UNL     1      12.648  -8.899  -7.306  1.00  0.00     0.167 HD
ATOM     67  C   UNL     1      14.356  -6.640  -7.568  1.00  0.00     0.074 A 
ATOM     68  C   UNL     1      14.859  -5.283  -7.495  1.00  0.00     0.031 C 
ATOM     69  C   UNL     1      15.075  -7.695  -8.023  1.00  0.00     0.034 A 
BRANCH  56  70
ATOM     70  C   UNL     1      12.127 -13.119  -7.710  1.00  0.00     0.023 A 
ATOM     71  C   UNL     1      11.333 -13.752  -8.688  1.00  0.00     0.012 A 
ATOM     72  C   UNL     1      13.009 -13.892  -6.930  1.00  0.00     0.148 A 
ATOM     73  C   UNL     1      11.389 -15.134  -8.861  1.00  0.00     0.002 A 
ATOM     74  C   UNL     1      13.100 -15.261  -7.145  1.00  0.00     0.091 A 
ATOM     75  F   UNL     1      13.738 -13.275  -5.989  1.00  0.00    -0.205 F 
ATOM     76  C   UNL     1      12.281 -15.886  -8.099  1.00  0.00     0.022 A 
BRANCH  74  77
ATOM     77  S   UNL     1      14.273 -16.302  -6.272  1.00  0.00     0.127 S 
ATOM     78  O   UNL     1      13.381 -17.159  -5.491  1.00  0.00    -0.237 OA
ATOM     79  O   UNL     1      14.959 -16.977  -7.373  1.00  0.00    -0.237 OA
ATOM     80  O   UNL     1      15.109 -15.403  -5.489  1.00  0.00    -0.744 OA
ENDBRANCH  74  77
ENDBRANCH  56  70
BRANCH  57  81
ATOM     81  C   UNL     1      11.493  -3.285  -5.915  1.00  0.00     0.023 A 
ATOM     82  C   UNL     1      11.605  -2.321  -6.934  1.00  0.00     0.012 A 
ATOM     83  C   UNL     1      11.321  -2.865  -4.582  1.00  0.00     0.148 A 
ATOM     84  C   UNL     1      11.586  -0.961  -6.627  1.00  0.00     0.002 A 
ATOM     85  C   UNL     1      11.245  -1.512  -4.290  1.00  0.00     0.091 A 
ATOM     86  F   UNL     1      11.220  -3.803  -3.630  1.00  0.00    -0.205 F 
ATOM     87  C   UNL     1      11.397  -0.557  -5.307  1.00  0.00     0.022 A 
BRANCH  85  88
ATOM     88  S   UNL     1      10.877  -0.906  -2.642  1.00  0.00     0.127 S 
ATOM     89  O   UNL     1      12.127  -0.239  -2.287  1.00  0.00    -0.237 OA
ATOM     90  O   UNL     1       9.749  -0.013  -2.906  1.00  0.00    -0.237 OA
ATOM     91  O   UNL     1      10.544  -2.085  -1.853  1.00  0.00    -0.744 OA
ENDBRANCH  85  88
ENDBRANCH  57  81
BRANCH  69  92
ATOM     92  C   UNL     1      16.461  -7.420  -8.546  1.00  0.00     0.023 A 
ATOM     93  C   UNL     1      17.497  -7.045  -7.668  1.00  0.00     0.012 A 
ATOM     94  C   UNL     1      16.744  -7.598  -9.915  1.00  0.00     0.148 A 
ATOM     95  C   UNL     1      18.783  -6.807  -8.154  1.00  0.00     0.002 A 
ATOM     96  C   UNL     1      18.038  -7.420 -10.381  1.00  0.00     0.091 A 
ATOM     97  F   UNL     1      15.740  -7.944 -10.735  1.00  0.00    -0.205 F 
ATOM     98  C   UNL     1      19.056  -7.007  -9.506  1.00  0.00     0.022 A 
BRANCH  96  99
ATOM     99  S   UNL     1      18.504  -7.751 -12.083  1.00  0.00     0.127 S 
ATOM    100  O   UNL     1      18.837  -6.412 -12.565  1.00  0.00    -0.237 OA
ATOM    101  O   UNL     1      19.651  -8.644 -11.919  1.00  0.00    -0.237 OA
ATOM    102  O   UNL     1      17.341  -8.364 -12.710  1.00  0.00    -0.744 OA
ENDBRANCH  96  99
ENDBRANCH  69  92
ENDBRANCH  43  44
ENDBRANCH  36  38
ENDBRANCH  35  36
ENDBRANCH  34  35
ENDBRANCH  33  34
ENDBRANCH  32  33
ENDBRANCH  31  32
ENDBRANCH  30  31
ENDBRANCH  29  30
ENDBRANCH   1  29
TORSDOF 28
