REMARK SMILES CCC(CC)(NC(=O)Nc1cc(Cl)cc(Cl)c1)C(=O)OCCOCCOCCOCCOC(=O)c1ccc(-c2c3nc(c(-c4cccc(S(=O)(=O)[O-])c4F)c4ccc([nH]4)c(-c4cccc(S(=O)(=O)[O-])c4F)c4nc(c(-c5cccc(S(=O)(=O)[O-])c5F)c5ccc2[nH]5)C=C4)C=C3)cc1
REMARK SMILES IDX 27 1 26 2 25 3 24 4 23 5 22 6 21 7 20 8 18 9 19 10 3 11 2 12
REMARK SMILES IDX 1 13 4 14 5 15 6 16 7 17 8 19 9 20 10 22 11 23 17 24 12 25
REMARK SMILES IDX 15 26 13 27 14 28 16 29 28 30 29 31 30 32 31 33 32 34 33 35
REMARK SMILES IDX 34 36 35 37 36 38 97 39 37 40 96 41 38 42 39 43 40 44 90 45
REMARK SMILES IDX 41 46 95 47 89 48 91 49 42 50 94 51 88 52 87 53 43 55 75 56
REMARK SMILES IDX 55 57 74 58 56 59 59 60 73 61 92 62 57 63 58 64 72 66 93 67
REMARK SMILES IDX 60 68 44 69 45 70 53 71 46 72 48 73 54 74 47 75 49 76 50 77
REMARK SMILES IDX 51 78 52 79 76 80 77 81 85 82 78 83 80 84 86 85 79 86 81 87
REMARK SMILES IDX 82 88 83 89 84 90 61 91 62 92 70 93 63 94 65 95 71 96 64 97
REMARK SMILES IDX 66 98 67 99 68 100 69 101
REMARK H PARENT 6 18 9 21 91 54 59 65
REMARK Flexibility Score: inf
ROOT
ATOM      1  C   UNL     1       4.316   1.008   6.180  1.00  0.00     0.188 C 
ENDROOT
BRANCH   1   2
ATOM      2  O   UNL     1       3.183   0.218   5.847  1.00  0.00    -0.377 OA
BRANCH   2   3
ATOM      3  C   UNL     1       3.209  -0.461   4.597  1.00  0.00     0.188 C 
BRANCH   3   4
ATOM      4  C   UNL     1       4.424  -0.179   3.651  1.00  0.00     0.188 C 
BRANCH   4   5
ATOM      5  O   UNL     1       4.669   1.261   3.615  1.00  0.00    -0.376 OA
BRANCH   5   6
ATOM      6  C   UNL     1       5.018   2.285   2.645  1.00  0.00     0.202 C 
BRANCH   6   7
ATOM      7  C   UNL     1       4.064   3.695   2.438  1.00  0.00     0.261 C 
BRANCH   7   8
ATOM      8  O   UNL     1       2.566   3.816   2.013  1.00  0.00    -0.461 OA
BRANCH   8   9
ATOM      9  C   UNL     1       1.702   3.709   0.898  1.00  0.00     0.331 C 
ATOM     10  O   UNL     1       1.834   4.367  -0.131  1.00  0.00    -0.249 OA
BRANCH   9  11
ATOM     11  C   UNL     1       0.427   2.631   1.107  1.00  0.00     0.139 C 
BRANCH  11  12
ATOM     12  C   UNL     1       0.181   1.118   0.675  1.00  0.00     0.037 C 
ATOM     13  C   UNL     1       0.369   0.602  -0.723  1.00  0.00     0.007 C 
ENDBRANCH  11  12
BRANCH  11  14
ATOM     14  C   UNL     1      -0.833   3.460   0.769  1.00  0.00     0.037 C 
ATOM     15  C   UNL     1      -2.195   2.896   1.164  1.00  0.00     0.007 C 
ENDBRANCH  11  14
BRANCH  11  16
ATOM     16  N   UNL     1       0.648   2.429   2.488  1.00  0.00    -0.322 N 
ATOM     17  C   UNL     1       1.800   1.833   2.832  1.00  0.00     0.320 C 
ATOM     18  H   UNL     1      -0.010   2.712   3.163  1.00  0.00     0.166 HD
ATOM     19  O   UNL     1       2.092   1.954   4.021  1.00  0.00    -0.248 OA
ATOM     20  N   UNL     1       2.655   1.212   1.923  1.00  0.00    -0.308 N 
ATOM     21  H   UNL     1       3.051   0.472   2.436  1.00  0.00     0.171 HD
BRANCH  20  22
ATOM     22  C   UNL     1       3.272   1.090   0.591  1.00  0.00     0.045 A 
ATOM     23  C   UNL     1       3.599   2.101  -0.328  1.00  0.00     0.046 A 
ATOM     24  C   UNL     1       3.929  -0.122   0.300  1.00  0.00     0.046 A 
ATOM     25  C   UNL     1       4.327   1.899  -1.516  1.00  0.00     0.044 A 
ATOM     26  C   UNL     1       4.792  -0.293  -0.803  1.00  0.00     0.044 A 
ATOM     27  Cl  UNL     1       4.535   3.199  -2.628  1.00  0.00    -0.084 Cl
ATOM     28  C   UNL     1       4.948   0.697  -1.753  1.00  0.00     0.041 A 
ATOM     29  Cl  UNL     1       5.723  -1.735  -0.938  1.00  0.00    -0.084 Cl
ENDBRANCH  20  22
ENDBRANCH  11  16
ENDBRANCH   9  11
ENDBRANCH   8   9
ENDBRANCH   7   8
ENDBRANCH   6   7
ENDBRANCH   5   6
ENDBRANCH   4   5
ENDBRANCH   3   4
ENDBRANCH   2   3
ENDBRANCH   1   2
BRANCH   1  30
ATOM     30  C   UNL     1       5.606   0.187   6.353  1.00  0.00     0.188 C 
BRANCH  30  31
ATOM     31  O   UNL     1       5.604  -1.022   7.108  1.00  0.00    -0.376 OA
BRANCH  31  32
ATOM     32  C   UNL     1       4.385  -1.615   7.519  1.00  0.00     0.202 C 
BRANCH  32  33
ATOM     33  C   UNL     1       3.576  -0.927   8.639  1.00  0.00     0.261 C 
BRANCH  33  34
ATOM     34  O   UNL     1       3.849   0.455   8.908  1.00  0.00    -0.460 OA
BRANCH  34  35
ATOM     35  C   UNL     1       5.096   0.757   9.359  1.00  0.00     0.338 C 
ATOM     36  O   UNL     1       5.939  -0.018   9.731  1.00  0.00    -0.246 OA
BRANCH  35  37
ATOM     37  C   UNL     1       5.337   2.218   9.153  1.00  0.00     0.060 A 
ATOM     38  C   UNL     1       6.555   2.615   8.578  1.00  0.00     0.016 A 
ATOM     39  C   UNL     1       4.400   3.182   9.532  1.00  0.00     0.016 A 
ATOM     40  C   UNL     1       6.881   3.962   8.464  1.00  0.00     0.010 A 
ATOM     41  C   UNL     1       4.751   4.537   9.480  1.00  0.00     0.010 A 
ATOM     42  C   UNL     1       6.027   4.915   9.023  1.00  0.00    -0.014 A 
BRANCH  42  43
ATOM     43  C   UNL     1       6.649   6.174   9.502  1.00  0.00     0.031 A 
ATOM     44  C   UNL     1       7.139   6.192  10.930  1.00  0.00     0.074 A 
ATOM     45  C   UNL     1       6.862   7.228   8.697  1.00  0.00     0.049 A 
ATOM     46  N   UNL     1       7.734   7.144  11.597  1.00  0.00    -0.248 NA
ATOM     47  C   UNL     1       6.930   4.959  11.711  1.00  0.00     0.031 C 
ATOM     48  C   UNL     1       6.493   7.308   7.287  1.00  0.00     0.029 A 
ATOM     49  N   UNL     1       7.442   8.441   8.968  1.00  0.00    -0.354 N 
ATOM     50  C   UNL     1       7.923   6.643  12.881  1.00  0.00     0.074 A 
ATOM     51  C   UNL     1       7.376   5.307  12.905  1.00  0.00     0.031 C 
ATOM     52  C   UNL     1       6.838   8.521   6.818  1.00  0.00     0.029 A 
ATOM     53  C   UNL     1       7.426   9.307   7.902  1.00  0.00     0.049 A 
ATOM     54  H   UNL     1       7.833   8.669   9.842  1.00  0.00     0.167 HD
ATOM     55  C   UNL     1       8.507   7.234  13.948  1.00  0.00     0.034 A 
ATOM     56  C   UNL     1       7.825  10.592   7.824  1.00  0.00     0.034 A 
ATOM     57  C   UNL     1       9.069   8.554  13.916  1.00  0.00     0.049 A 
ATOM     58  C   UNL     1       8.436  11.248   9.038  1.00  0.00     0.074 A 
ATOM     59  C   UNL     1       9.717   9.237  14.928  1.00  0.00     0.029 A 
ATOM     60  N   UNL     1       9.034   9.398  12.817  1.00  0.00    -0.354 N 
ATOM     61  N   UNL     1       8.678  10.738  10.222  1.00  0.00    -0.248 NA
ATOM     62  C   UNL     1       8.862  12.647   8.891  1.00  0.00     0.031 C 
ATOM     63  C   UNL     1      10.031  10.515  14.455  1.00  0.00     0.029 A 
ATOM     64  C   UNL     1       9.634  10.604  13.130  1.00  0.00     0.049 A 
ATOM     65  H   UNL     1       8.641   9.172  11.944  1.00  0.00     0.167 HD
ATOM     66  C   UNL     1       9.331  11.734  10.943  1.00  0.00     0.074 A 
ATOM     67  C   UNL     1       9.451  12.874  10.057  1.00  0.00     0.031 C 
ATOM     68  C   UNL     1       9.790  11.709  12.219  1.00  0.00     0.034 A 
BRANCH  55  69
ATOM     69  C   UNL     1       8.537   6.461  15.241  1.00  0.00     0.023 A 
ATOM     70  C   UNL     1       9.351   5.317  15.372  1.00  0.00     0.012 A 
ATOM     71  C   UNL     1       7.755   6.880  16.335  1.00  0.00     0.148 A 
ATOM     72  C   UNL     1       9.350   4.577  16.555  1.00  0.00     0.002 A 
ATOM     73  C   UNL     1       7.803   6.170  17.528  1.00  0.00     0.091 A 
ATOM     74  F   UNL     1       6.965   7.952  16.183  1.00  0.00    -0.205 F 
ATOM     75  C   UNL     1       8.586   5.010  17.635  1.00  0.00     0.022 A 
BRANCH  73  76
ATOM     76  S   UNL     1       6.922   6.700  19.000  1.00  0.00     0.127 S 
ATOM     77  O   UNL     1       5.877   5.682  19.102  1.00  0.00    -0.237 OA
ATOM     78  O   UNL     1       7.960   6.613  20.027  1.00  0.00    -0.237 OA
ATOM     79  O   UNL     1       6.453   8.051  18.724  1.00  0.00    -0.744 OA
ENDBRANCH  73  76
ENDBRANCH  55  69
BRANCH  56  80
ATOM     80  C   UNL     1       7.695  11.338   6.541  1.00  0.00     0.023 A 
ATOM     81  C   UNL     1       8.852  11.711   5.830  1.00  0.00     0.012 A 
ATOM     82  C   UNL     1       6.430  11.672   6.018  1.00  0.00     0.148 A 
ATOM     83  C   UNL     1       8.755  12.428   4.637  1.00  0.00     0.002 A 
ATOM     84  C   UNL     1       6.338  12.338   4.802  1.00  0.00     0.091 A 
ATOM     85  F   UNL     1       5.342  11.319   6.716  1.00  0.00    -0.205 F 
ATOM     86  C   UNL     1       7.499  12.733   4.118  1.00  0.00     0.022 A 
BRANCH  84  87
ATOM     87  S   UNL     1       4.768  12.670   3.996  1.00  0.00     0.127 S 
ATOM     88  O   UNL     1       4.729  14.130   4.006  1.00  0.00    -0.237 OA
ATOM     89  O   UNL     1       4.978  12.067   2.680  1.00  0.00    -0.237 OA
ATOM     90  O   UNL     1       3.757  12.010   4.810  1.00  0.00    -0.744 OA
ENDBRANCH  84  87
ENDBRANCH  56  80
BRANCH  68  91
ATOM     91  C   UNL     1      10.537  12.919  12.722  1.00  0.00     0.023 A 
ATOM     92  C   UNL     1       9.858  14.128  12.970  1.00  0.00     0.012 A 
ATOM     93  C   UNL     1      11.914  12.828  13.012  1.00  0.00     0.148 A 
ATOM     94  C   UNL     1      10.547  15.240  13.455  1.00  0.00     0.002 A 
ATOM     95  C   UNL     1      12.581  13.921  13.550  1.00  0.00     0.091 A 
ATOM     96  F   UNL     1      12.547  11.674  12.755  1.00  0.00    -0.205 F 
ATOM     97  C   UNL     1      11.903  15.133  13.755  1.00  0.00     0.022 A 
BRANCH  95  98
ATOM     98  S   UNL     1      14.299  13.838  14.066  1.00  0.00     0.127 S 
ATOM     99  O   UNL     1      14.960  14.623  13.025  1.00  0.00    -0.237 OA
ATOM    100  O   UNL     1      14.259  14.479  15.381  1.00  0.00    -0.237 OA
ATOM    101  O   UNL     1      14.643  12.423  14.095  1.00  0.00    -0.744 OA
ENDBRANCH  95  98
ENDBRANCH  68  91
ENDBRANCH  42  43
ENDBRANCH  35  37
ENDBRANCH  34  35
ENDBRANCH  33  34
ENDBRANCH  32  33
ENDBRANCH  31  32
ENDBRANCH  30  31
ENDBRANCH   1  30
TORSDOF 27
