REMARK SMILES O=C(C[N@@H+]1CCC[C@@H]1C(=O)OCCOCCOCCOCCOC(=O)c1ccc(-c2c3nc(c(-c4cccc(S(=O)(=O)[O-])c4F)c4ccc([nH]4)c(-c4cccc(S(=O)(=O)[O-])c4F)c4nc(c(-c5cccc(S(=O)(=O)[O-])c5F)c5ccc2[nH]5)C=C4)C=C3)cc1)NCc1ccc(Cl)cc1
REMARK SMILES IDX 16 1 15 2 14 3 13 4 12 5 11 6 9 7 10 8 8 9 4 10 5 11 6 13
REMARK SMILES IDX 7 14 3 15 2 16 1 17 89 18 90 20 91 21 92 22 97 23 93 24
REMARK SMILES IDX 96 25 94 26 95 27 17 28 18 29 19 30 20 31 21 32 22 33 23 34
REMARK SMILES IDX 24 35 25 36 26 37 27 38 88 39 28 40 87 41 29 42 30 43 31 44
REMARK SMILES IDX 81 45 32 46 86 47 80 48 82 49 33 50 85 51 79 52 78 53 34 55
REMARK SMILES IDX 66 56 46 57 65 58 47 59 50 60 64 61 83 62 48 63 49 64 63 66
REMARK SMILES IDX 84 67 51 68 35 69 36 70 44 71 37 72 39 73 45 74 38 75 40 76
REMARK SMILES IDX 41 77 42 78 43 79 67 80 68 81 76 82 69 83 71 84 77 85 70 86
REMARK SMILES IDX 72 87 73 88 74 89 75 90 52 91 53 92 61 93 54 94 56 95 62 96
REMARK SMILES IDX 55 97 57 98 58 99 59 100 60 101
REMARK H PARENT 4 12 89 19 82 54 50 65
REMARK Flexibility Score: inf
ROOT
ATOM      1  C   UNL     1       6.167   3.228   0.750  1.00  0.00     0.188 C 
ENDROOT
BRANCH   1   2
ATOM      2  C   UNL     1       4.924   3.938   0.185  1.00  0.00     0.188 C 
BRANCH   2   3
ATOM      3  O   UNL     1       3.875   4.163   1.108  1.00  0.00    -0.376 OA
BRANCH   3   4
ATOM      4  C   UNL     1       2.947   3.124   1.386  1.00  0.00     0.202 C 
BRANCH   4   5
ATOM      5  C   UNL     1       3.398   1.665   1.415  1.00  0.00     0.261 C 
BRANCH   5   6
ATOM      6  O   UNL     1       4.013   1.163   0.230  1.00  0.00    -0.459 OA
BRANCH   6   7
ATOM      7  C   UNL     1       3.342   1.258  -0.941  1.00  0.00     0.365 C 
ATOM      8  O   UNL     1       2.365   1.970  -1.141  1.00  0.00    -0.245 OA
BRANCH   7   9
ATOM      9  C   UNL     1       3.797   0.182  -1.887  1.00  0.00     0.295 C 
ATOM     10  N   UNL     1       2.941  -1.054  -1.799  1.00  0.00    -0.315 N 
ATOM     11  C   UNL     1       3.932  -2.118  -2.124  1.00  0.00     0.263 C 
ATOM     12  H   UNL     1       2.124  -0.965  -2.404  1.00  0.00     0.349 HD
ATOM     13  C   UNL     1       5.225  -1.702  -1.439  1.00  0.00     0.068 C 
ATOM     14  C   UNL     1       5.276  -0.217  -1.718  1.00  0.00     0.083 C 
BRANCH  10  15
ATOM     15  C   UNL     1       2.343  -1.350  -0.449  1.00  0.00     0.364 C 
BRANCH  15  16
ATOM     16  C   UNL     1       0.893  -0.835  -0.143  1.00  0.00     0.275 C 
ATOM     17  O   UNL     1      -0.093  -1.560  -0.277  1.00  0.00    -0.268 OA
ATOM     18  N   UNL     1       0.778   0.405   0.448  1.00  0.00    -0.347 N 
ATOM     19  H   UNL     1       1.449   1.081   0.201  1.00  0.00     0.164 HD
BRANCH  18  20
ATOM     20  C   UNL     1      -0.247   0.808   1.408  1.00  0.00     0.151 C 
BRANCH  20  21
ATOM     21  C   UNL     1       0.317   1.111   2.800  1.00  0.00    -0.029 A 
ATOM     22  C   UNL     1       0.910   0.096   3.574  1.00  0.00     0.007 A 
ATOM     23  C   UNL     1       0.274   2.409   3.349  1.00  0.00     0.007 A 
ATOM     24  C   UNL     1       1.459   0.369   4.838  1.00  0.00     0.021 A 
ATOM     25  C   UNL     1       0.827   2.683   4.612  1.00  0.00     0.021 A 
ATOM     26  C   UNL     1       1.417   1.662   5.351  1.00  0.00     0.041 A 
ATOM     27  Cl  UNL     1       2.095   2.006   6.894  1.00  0.00    -0.084 Cl
ENDBRANCH  20  21
ENDBRANCH  18  20
ENDBRANCH  15  16
ENDBRANCH  10  15
ENDBRANCH   7   9
ENDBRANCH   6   7
ENDBRANCH   5   6
ENDBRANCH   4   5
ENDBRANCH   3   4
ENDBRANCH   2   3
ENDBRANCH   1   2
BRANCH   1  28
ATOM     28  O   UNL     1       5.938   2.386   1.861  1.00  0.00    -0.377 OA
BRANCH  28  29
ATOM     29  C   UNL     1       5.832   2.926   3.176  1.00  0.00     0.188 C 
BRANCH  29  30
ATOM     30  C   UNL     1       5.465   4.398   3.425  1.00  0.00     0.188 C 
BRANCH  30  31
ATOM     31  O   UNL     1       6.111   5.300   2.540  1.00  0.00    -0.376 OA
BRANCH  31  32
ATOM     32  C   UNL     1       7.287   5.930   3.019  1.00  0.00     0.202 C 
BRANCH  32  33
ATOM     33  C   UNL     1       8.516   5.026   3.217  1.00  0.00     0.261 C 
BRANCH  33  34
ATOM     34  O   UNL     1       8.409   3.955   4.176  1.00  0.00    -0.460 OA
BRANCH  34  35
ATOM     35  C   UNL     1       8.002   4.250   5.437  1.00  0.00     0.338 C 
ATOM     36  O   UNL     1       7.830   5.352   5.892  1.00  0.00    -0.246 OA
BRANCH  35  37
ATOM     37  C   UNL     1       7.575   2.984   6.110  1.00  0.00     0.060 A 
ATOM     38  C   UNL     1       6.337   2.972   6.769  1.00  0.00     0.016 A 
ATOM     39  C   UNL     1       8.360   1.827   6.091  1.00  0.00     0.016 A 
ATOM     40  C   UNL     1       5.923   1.840   7.479  1.00  0.00     0.010 A 
ATOM     41  C   UNL     1       7.952   0.697   6.818  1.00  0.00     0.010 A 
ATOM     42  C   UNL     1       6.756   0.717   7.560  1.00  0.00    -0.014 A 
BRANCH  42  43
ATOM     43  C   UNL     1       6.517  -0.282   8.639  1.00  0.00     0.031 A 
ATOM     44  C   UNL     1       7.254  -0.093   9.941  1.00  0.00     0.074 A 
ATOM     45  C   UNL     1       5.653  -1.306   8.513  1.00  0.00     0.049 A 
ATOM     46  N   UNL     1       7.234  -0.823  11.026  1.00  0.00    -0.248 NA
ATOM     47  C   UNL     1       8.133   1.086  10.027  1.00  0.00     0.031 C 
ATOM     48  C   UNL     1       4.846  -1.597   7.332  1.00  0.00     0.029 A 
ATOM     49  N   UNL     1       5.332  -2.309   9.399  1.00  0.00    -0.354 N 
ATOM     50  C   UNL     1       8.120  -0.214  11.906  1.00  0.00     0.074 A 
ATOM     51  C   UNL     1       8.662   0.943  11.231  1.00  0.00     0.031 C 
ATOM     52  C   UNL     1       4.144  -2.724   7.554  1.00  0.00     0.029 A 
ATOM     53  C   UNL     1       4.472  -3.249   8.881  1.00  0.00     0.049 A 
ATOM     54  H   UNL     1       5.684  -2.349  10.317  1.00  0.00     0.167 HD
ATOM     55  C   UNL     1       8.453  -0.574  13.168  1.00  0.00     0.034 A 
ATOM     56  C   UNL     1       4.026  -4.412   9.404  1.00  0.00     0.034 A 
ATOM     57  C   UNL     1       7.912  -1.710  13.859  1.00  0.00     0.049 A 
ATOM     58  C   UNL     1       4.441  -4.817  10.799  1.00  0.00     0.074 A 
ATOM     59  C   UNL     1       8.160  -2.126  15.155  1.00  0.00     0.029 A 
ATOM     60  N   UNL     1       7.032  -2.626  13.306  1.00  0.00    -0.354 N 
ATOM     61  N   UNL     1       5.193  -4.174  11.659  1.00  0.00    -0.248 NA
ATOM     62  C   UNL     1       3.922  -6.099  11.305  1.00  0.00     0.031 C 
ATOM     63  C   UNL     1       7.460  -3.317  15.373  1.00  0.00     0.029 A 
ATOM     64  C   UNL     1       6.745  -3.621  14.226  1.00  0.00     0.049 A 
ATOM     65  H   UNL     1       6.664  -2.577  12.394  1.00  0.00     0.167 HD
ATOM     66  C   UNL     1       5.216  -4.957  12.812  1.00  0.00     0.074 A 
ATOM     67  C   UNL     1       4.381  -6.110  12.549  1.00  0.00     0.031 C 
ATOM     68  C   UNL     1       5.880  -4.745  13.976  1.00  0.00     0.034 A 
BRANCH  55  69
ATOM     69  C   UNL     1       9.469   0.279  13.879  1.00  0.00     0.023 A 
ATOM     70  C   UNL     1       9.117   1.564  14.337  1.00  0.00     0.012 A 
ATOM     71  C   UNL     1      10.772  -0.206  14.104  1.00  0.00     0.148 A 
ATOM     72  C   UNL     1      10.060   2.371  14.974  1.00  0.00     0.002 A 
ATOM     73  C   UNL     1      11.691   0.585  14.780  1.00  0.00     0.091 A 
ATOM     74  F   UNL     1      11.094  -1.419  13.633  1.00  0.00    -0.205 F 
ATOM     75  C   UNL     1      11.342   1.878  15.204  1.00  0.00     0.022 A 
BRANCH  73  76
ATOM     76  S   UNL     1      13.342   0.007  15.187  1.00  0.00     0.127 S 
ATOM     77  O   UNL     1      14.162   0.773  14.250  1.00  0.00    -0.237 OA
ATOM     78  O   UNL     1      13.474   0.414  16.587  1.00  0.00    -0.237 OA
ATOM     79  O   UNL     1      13.325  -1.433  14.975  1.00  0.00    -0.744 OA
ENDBRANCH  73  76
ENDBRANCH  55  69
BRANCH  56  80
ATOM     80  C   UNL     1       3.131  -5.293   8.599  1.00  0.00     0.023 A 
ATOM     81  C   UNL     1       1.790  -5.481   8.987  1.00  0.00     0.012 A 
ATOM     82  C   UNL     1       3.608  -5.942   7.443  1.00  0.00     0.148 A 
ATOM     83  C   UNL     1       0.948  -6.319   8.252  1.00  0.00     0.002 A 
ATOM     84  C   UNL     1       2.749  -6.726   6.683  1.00  0.00     0.091 A 
ATOM     85  F   UNL     1       4.893  -5.770   7.105  1.00  0.00    -0.205 F 
ATOM     86  C   UNL     1       1.423  -6.930   7.094  1.00  0.00     0.022 A 
BRANCH  84  87
ATOM     87  S   UNL     1       3.237  -7.442   5.110  1.00  0.00     0.127 S 
ATOM     88  O   UNL     1       3.200  -8.872   5.406  1.00  0.00    -0.237 OA
ATOM     89  O   UNL     1       2.174  -6.966   4.224  1.00  0.00    -0.237 OA
ATOM     90  O   UNL     1       4.554  -6.893   4.816  1.00  0.00    -0.744 OA
ENDBRANCH  84  87
ENDBRANCH  56  80
BRANCH  68  91
ATOM     91  C   UNL     1       5.723  -5.764  15.079  1.00  0.00     0.023 A 
ATOM     92  C   UNL     1       6.330  -7.030  14.959  1.00  0.00     0.012 A 
ATOM     93  C   UNL     1       5.045  -5.436  16.271  1.00  0.00     0.148 A 
ATOM     94  C   UNL     1       6.237  -7.964  15.991  1.00  0.00     0.002 A 
ATOM     95  C   UNL     1       5.000  -6.354  17.316  1.00  0.00     0.091 A 
ATOM     96  F   UNL     1       4.460  -4.233  16.365  1.00  0.00    -0.205 F 
ATOM     97  C   UNL     1       5.584  -7.622  17.173  1.00  0.00     0.022 A 
BRANCH  95  98
ATOM     98  S   UNL     1       4.267  -5.964  18.910  1.00  0.00     0.127 S 
ATOM     99  O   UNL     1       3.036  -6.752  18.872  1.00  0.00    -0.237 OA
ATOM    100  O   UNL     1       5.277  -6.457  19.847  1.00  0.00    -0.237 OA
ATOM    101  O   UNL     1       4.084  -4.519  18.925  1.00  0.00    -0.744 OA
ENDBRANCH  95  98
ENDBRANCH  68  91
ENDBRANCH  42  43
ENDBRANCH  35  37
ENDBRANCH  34  35
ENDBRANCH  33  34
ENDBRANCH  32  33
ENDBRANCH  31  32
ENDBRANCH  30  31
ENDBRANCH  29  30
ENDBRANCH  28  29
ENDBRANCH   1  28
TORSDOF 27
