REMARK SMILES CC[C@H](CNC(=O)[C@H]1CSc2ccccc21)C(=O)OCCOCCOCCOCCOC(=O)c1ccc(-c2c3nc(c(-c4cccc(S(=O)(=O)[O-])c4F)c4ccc([nH]4)c(-c4cccc(S(=O)(=O)[O-])c4F)c4nc(c(-c5cccc(S(=O)(=O)[O-])c5F)c5ccc2[nH]5)C=C4)C=C3)cc1
REMARK SMILES IDX 25 1 24 2 23 3 22 4 21 5 20 6 19 7 17 8 18 9 3 10 2 11 1 12
REMARK SMILES IDX 4 13 5 14 6 15 7 17 8 18 9 19 16 20 10 21 11 22 15 23 12 24
REMARK SMILES IDX 14 25 13 26 26 27 27 28 28 29 29 30 30 31 31 32 32 33 33 34
REMARK SMILES IDX 34 35 35 36 96 37 36 38 95 39 37 40 38 41 39 42 89 43 40 44
REMARK SMILES IDX 94 45 88 46 90 47 41 48 93 49 87 50 86 51 42 53 74 54 54 55
REMARK SMILES IDX 73 56 55 57 58 58 72 59 91 60 56 61 57 62 71 64 92 65 59 66
REMARK SMILES IDX 43 67 44 68 52 69 45 70 47 71 53 72 46 73 48 74 49 75 50 76
REMARK SMILES IDX 51 77 75 78 76 79 84 80 77 81 79 82 85 83 78 84 80 85 81 86
REMARK SMILES IDX 82 87 83 88 60 89 61 90 69 91 62 92 64 93 70 94 63 95 65 96
REMARK SMILES IDX 66 97 67 98 68 99
REMARK H PARENT 5 16 90 52 58 63
REMARK Flexibility Score: inf
ROOT
ATOM      1  O   UNL     1      -1.283   2.865   3.711  1.00  0.00    -0.377 OA
ENDROOT
BRANCH   1   2
ATOM      2  C   UNL     1       0.061   2.612   3.369  1.00  0.00     0.188 C 
BRANCH   2   3
ATOM      3  C   UNL     1       1.010   3.816   3.423  1.00  0.00     0.188 C 
BRANCH   3   4
ATOM      4  O   UNL     1       0.530   5.154   3.460  1.00  0.00    -0.376 OA
BRANCH   4   5
ATOM      5  C   UNL     1      -0.807   5.463   3.097  1.00  0.00     0.202 C 
BRANCH   5   6
ATOM      6  C   UNL     1      -1.213   5.305   1.621  1.00  0.00     0.261 C 
BRANCH   6   7
ATOM      7  O   UNL     1      -1.054   3.992   1.030  1.00  0.00    -0.463 OA
BRANCH   7   8
ATOM      8  C   UNL     1      -0.004   3.857   0.188  1.00  0.00     0.310 C 
ATOM      9  O   UNL     1       0.823   4.742  -0.027  1.00  0.00    -0.252 OA
BRANCH   8  10
ATOM     10  C   UNL     1       0.126   2.499  -0.502  1.00  0.00     0.118 C 
BRANCH  10  11
ATOM     11  C   UNL     1       0.027   2.711  -2.028  1.00  0.00     0.014 C 
ATOM     12  C   UNL     1       1.280   2.186  -2.726  1.00  0.00     0.005 C 
ENDBRANCH  10  11
BRANCH  10  13
ATOM     13  C   UNL     1      -0.717   1.295  -0.014  1.00  0.00     0.131 C 
BRANCH  13  14
ATOM     14  N   UNL     1      -0.283   0.047  -0.660  1.00  0.00    -0.355 N 
ATOM     15  C   UNL     1       0.460  -1.037  -0.300  1.00  0.00     0.228 C 
ATOM     16  H   UNL     1      -0.613  -0.023  -1.585  1.00  0.00     0.163 HD
ATOM     17  O   UNL     1       0.704  -1.811  -1.235  1.00  0.00    -0.274 OA
BRANCH  15  18
ATOM     18  C   UNL     1       0.924  -1.348   1.136  1.00  0.00     0.120 C 
ATOM     19  C   UNL     1       1.204  -2.881   1.240  1.00  0.00     0.093 C 
ATOM     20  C   UNL     1       2.208  -0.671   1.581  1.00  0.00    -0.021 A 
ATOM     21  S   UNL     1       2.703  -3.181   2.225  1.00  0.00    -0.125 SA
ATOM     22  C   UNL     1       3.196  -1.496   2.118  1.00  0.00     0.011 A 
ATOM     23  C   UNL     1       2.425   0.698   1.617  1.00  0.00     0.006 A 
ATOM     24  C   UNL     1       4.404  -0.985   2.590  1.00  0.00     0.015 A 
ATOM     25  C   UNL     1       3.624   1.235   2.087  1.00  0.00     0.000 A 
ATOM     26  C   UNL     1       4.622   0.391   2.560  1.00  0.00     0.001 A 
ENDBRANCH  15  18
ENDBRANCH  13  14
ENDBRANCH  10  13
ENDBRANCH   8  10
ENDBRANCH   7   8
ENDBRANCH   6   7
ENDBRANCH   5   6
ENDBRANCH   4   5
ENDBRANCH   3   4
ENDBRANCH   2   3
ENDBRANCH   1   2
BRANCH   1  27
ATOM     27  C   UNL     1      -1.679   2.436   5.002  1.00  0.00     0.188 C 
BRANCH  27  28
ATOM     28  C   UNL     1      -0.760   2.867   6.150  1.00  0.00     0.188 C 
BRANCH  28  29
ATOM     29  O   UNL     1       0.523   2.238   6.068  1.00  0.00    -0.376 OA
BRANCH  29  30
ATOM     30  C   UNL     1       0.760   1.162   6.971  1.00  0.00     0.202 C 
BRANCH  30  31
ATOM     31  C   UNL     1       0.175  -0.193   6.543  1.00  0.00     0.261 C 
BRANCH  31  32
ATOM     32  O   UNL     1      -1.254  -0.259   6.403  1.00  0.00    -0.460 OA
BRANCH  32  33
ATOM     33  C   UNL     1      -2.028   0.090   7.457  1.00  0.00     0.338 C 
ATOM     34  O   UNL     1      -1.645   0.390   8.573  1.00  0.00    -0.246 OA
BRANCH  33  35
ATOM     35  C   UNL     1      -3.409   0.275   6.944  1.00  0.00     0.060 A 
ATOM     36  C   UNL     1      -3.992  -0.672   6.095  1.00  0.00     0.016 A 
ATOM     37  C   UNL     1      -4.097   1.454   7.258  1.00  0.00     0.016 A 
ATOM     38  C   UNL     1      -5.271  -0.445   5.577  1.00  0.00     0.010 A 
ATOM     39  C   UNL     1      -5.369   1.687   6.725  1.00  0.00     0.010 A 
ATOM     40  C   UNL     1      -5.975   0.729   5.898  1.00  0.00    -0.014 A 
BRANCH  40  41
ATOM     41  C   UNL     1      -7.417   0.835   5.568  1.00  0.00     0.031 A 
ATOM     42  C   UNL     1      -7.936   1.625   4.406  1.00  0.00     0.074 A 
ATOM     43  C   UNL     1      -8.280   0.201   6.384  1.00  0.00     0.049 A 
ATOM     44  N   UNL     1      -9.168   1.720   3.972  1.00  0.00    -0.248 NA
ATOM     45  C   UNL     1      -6.963   2.412   3.636  1.00  0.00     0.031 C 
ATOM     46  C   UNL     1      -7.894  -0.546   7.584  1.00  0.00     0.029 A 
ATOM     47  N   UNL     1      -9.645   0.089   6.342  1.00  0.00    -0.354 N 
ATOM     48  C   UNL     1      -9.125   2.569   2.874  1.00  0.00     0.074 A 
ATOM     49  C   UNL     1      -7.744   2.983   2.724  1.00  0.00     0.031 C 
ATOM     50  C   UNL     1      -8.997  -1.041   8.163  1.00  0.00     0.029 A 
ATOM     51  C   UNL     1     -10.164  -0.644   7.381  1.00  0.00     0.049 A 
ATOM     52  H   UNL     1     -10.199   0.494   5.637  1.00  0.00     0.167 HD
ATOM     53  C   UNL     1     -10.140   2.944   2.057  1.00  0.00     0.034 A 
ATOM     54  C   UNL     1     -11.435  -0.975   7.675  1.00  0.00     0.034 A 
ATOM     55  C   UNL     1     -11.513   2.532   2.216  1.00  0.00     0.049 A 
ATOM     56  C   UNL     1     -12.540  -0.558   6.753  1.00  0.00     0.074 A 
ATOM     57  C   UNL     1     -12.595   2.821   1.401  1.00  0.00     0.029 A 
ATOM     58  N   UNL     1     -11.998   1.761   3.261  1.00  0.00    -0.354 N 
ATOM     59  N   UNL     1     -12.459   0.126   5.639  1.00  0.00    -0.248 NA
ATOM     60  C   UNL     1     -13.901  -0.984   7.105  1.00  0.00     0.031 C 
ATOM     61  C   UNL     1     -13.736   2.234   1.960  1.00  0.00     0.029 A 
ATOM     62  C   UNL     1     -13.363   1.569   3.116  1.00  0.00     0.049 A 
ATOM     63  H   UNL     1     -11.453   1.402   3.998  1.00  0.00     0.167 HD
ATOM     64  C   UNL     1     -13.755   0.202   5.145  1.00  0.00     0.074 A 
ATOM     65  C   UNL     1     -14.600  -0.519   6.076  1.00  0.00     0.031 C 
ATOM     66  C   UNL     1     -14.197   0.826   4.027  1.00  0.00     0.034 A 
BRANCH  53  67
ATOM     67  C   UNL     1      -9.803   3.788   0.857  1.00  0.00     0.023 A 
ATOM     68  C   UNL     1      -9.218   3.166  -0.264  1.00  0.00     0.012 A 
ATOM     69  C   UNL     1     -10.153   5.151   0.788  1.00  0.00     0.148 A 
ATOM     70  C   UNL     1      -8.971   3.888  -1.431  1.00  0.00     0.002 A 
ATOM     71  C   UNL     1      -9.927   5.859  -0.388  1.00  0.00     0.091 A 
ATOM     72  F   UNL     1     -10.701   5.725   1.868  1.00  0.00    -0.205 F 
ATOM     73  C   UNL     1      -9.334   5.230  -1.496  1.00  0.00     0.022 A 
BRANCH  71  74
ATOM     74  S   UNL     1     -10.400   7.580  -0.596  1.00  0.00     0.127 S 
ATOM     75  O   UNL     1      -9.094   8.239  -0.634  1.00  0.00    -0.237 OA
ATOM     76  O   UNL     1     -11.107   7.554  -1.876  1.00  0.00    -0.237 OA
ATOM     77  O   UNL     1     -11.231   7.910   0.553  1.00  0.00    -0.744 OA
ENDBRANCH  71  74
ENDBRANCH  53  67
BRANCH  54  78
ATOM     78  C   UNL     1     -11.682  -1.825   8.867  1.00  0.00     0.023 A 
ATOM     79  C   UNL     1     -11.884  -3.207   8.693  1.00  0.00     0.012 A 
ATOM     80  C   UNL     1     -11.566  -1.296  10.167  1.00  0.00     0.148 A 
ATOM     81  C   UNL     1     -11.962  -4.053   9.798  1.00  0.00     0.002 A 
ATOM     82  C   UNL     1     -11.606  -2.150  11.261  1.00  0.00     0.091 A 
ATOM     83  F   UNL     1     -11.360   0.021  10.297  1.00  0.00    -0.205 F 
ATOM     84  C   UNL     1     -11.811  -3.528  11.079  1.00  0.00     0.022 A 
BRANCH  82  85
ATOM     85  S   UNL     1     -11.304  -1.590  12.941  1.00  0.00     0.127 S 
ATOM     86  O   UNL     1     -12.546  -1.970  13.610  1.00  0.00    -0.237 OA
ATOM     87  O   UNL     1     -10.134  -2.387  13.311  1.00  0.00    -0.237 OA
ATOM     88  O   UNL     1     -11.062  -0.157  12.846  1.00  0.00    -0.744 OA
ENDBRANCH  82  85
ENDBRANCH  54  78
BRANCH  66  89
ATOM     89  C   UNL     1     -15.671   0.776   3.729  1.00  0.00     0.023 A 
ATOM     90  C   UNL     1     -16.544   1.635   4.425  1.00  0.00     0.012 A 
ATOM     91  C   UNL     1     -16.173  -0.032   2.690  1.00  0.00     0.148 A 
ATOM     92  C   UNL     1     -17.898   1.686   4.095  1.00  0.00     0.002 A 
ATOM     93  C   UNL     1     -17.517   0.048   2.345  1.00  0.00     0.091 A 
ATOM     94  F   UNL     1     -15.323  -0.849   2.051  1.00  0.00    -0.205 F 
ATOM     95  C   UNL     1     -18.381   0.903   3.049  1.00  0.00     0.022 A 
BRANCH  93  96
ATOM     96  S   UNL     1     -18.224  -0.868   0.971  1.00  0.00     0.127 S 
ATOM     97  O   UNL     1     -19.152  -1.766   1.657  1.00  0.00    -0.237 OA
ATOM     98  O   UNL     1     -18.864   0.192   0.192  1.00  0.00    -0.237 OA
ATOM     99  O   UNL     1     -17.108  -1.526   0.305  1.00  0.00    -0.744 OA
ENDBRANCH  93  96
ENDBRANCH  66  89
ENDBRANCH  40  41
ENDBRANCH  33  35
ENDBRANCH  32  33
ENDBRANCH  31  32
ENDBRANCH  30  31
ENDBRANCH  29  30
ENDBRANCH  28  29
ENDBRANCH  27  28
ENDBRANCH   1  27
TORSDOF 27
