REMARK SMILES Cc1cc([C@H](O)CC2(CC(=O)OCCOCCOCCOCCOC(=O)c3ccc(-c4c5nc(c(-c6cccc(S(=O)(=O)[O-])c6F)c6ccc([nH]6)c(-c6cccc(S(=O)(=O)[O-])c6F)c6nc(c(-c7cccc(S(=O)(=O)[O-])c7F)c7ccc4[nH]7)C=C6)C=C5)cc3)CCCC2)ccc1F
REMARK SMILES IDX 17 1 16 2 15 3 14 4 13 5 12 6 10 7 11 8 9 9 8 10 90 11 93 12
REMARK SMILES IDX 91 13 92 14 7 15 5 16 4 17 1 18 2 19 3 20 96 21 95 22 97 23
REMARK SMILES IDX 94 24 6 25 18 27 19 28 20 29 21 30 22 31 23 32 24 33 25 34
REMARK SMILES IDX 26 35 27 36 28 37 89 38 29 39 88 40 30 41 31 42 32 43 82 44
REMARK SMILES IDX 33 45 87 46 81 47 83 48 34 49 86 50 80 51 79 52 35 54 67 55
REMARK SMILES IDX 47 56 66 57 48 58 51 59 65 60 84 61 49 62 50 63 64 65 85 66
REMARK SMILES IDX 52 67 36 68 37 69 45 70 38 71 40 72 46 73 39 74 41 75 42 76
REMARK SMILES IDX 43 77 44 78 68 79 69 80 77 81 70 82 72 83 78 84 71 85 73 86
REMARK SMILES IDX 74 87 75 88 76 89 53 90 54 91 62 92 55 93 57 94 63 95 56 96
REMARK SMILES IDX 58 97 59 98 60 99 61 100
REMARK H PARENT 6 26 83 53 51 64
REMARK Flexibility Score: inf
ROOT
ATOM      1  C   UNL     1      -6.532   1.880   1.502  1.00  0.00     0.188 C 
ENDROOT
BRANCH   1   2
ATOM      2  C   UNL     1      -7.196   0.646   2.158  1.00  0.00     0.188 C 
BRANCH   2   3
ATOM      3  O   UNL     1      -7.896   0.735   3.401  1.00  0.00    -0.376 OA
BRANCH   3   4
ATOM      4  C   UNL     1      -8.116   2.012   3.970  1.00  0.00     0.202 C 
BRANCH   4   5
ATOM      5  C   UNL     1      -6.879   2.637   4.647  1.00  0.00     0.261 C 
BRANCH   5   6
ATOM      6  O   UNL     1      -5.598   2.188   4.142  1.00  0.00    -0.463 OA
BRANCH   6   7
ATOM      7  C   UNL     1      -5.161   1.005   4.617  1.00  0.00     0.306 C 
ATOM      8  O   UNL     1      -5.704   0.407   5.546  1.00  0.00    -0.252 OA
BRANCH   7   9
ATOM      9  C   UNL     1      -3.904   0.422   3.966  1.00  0.00     0.129 C 
BRANCH   9  10
ATOM     10  C   UNL     1      -3.041   0.960   2.754  1.00  0.00    -0.016 C 
ATOM     11  C   UNL     1      -1.562   0.632   3.128  1.00  0.00     0.008 C 
ATOM     12  C   UNL     1      -2.936   2.494   2.639  1.00  0.00     0.008 C 
ATOM     13  C   UNL     1      -1.121   1.743   4.079  1.00  0.00     0.001 C 
ATOM     14  C   UNL     1      -1.995   2.946   3.750  1.00  0.00     0.001 C 
BRANCH  10  15
ATOM     15  C   UNL     1      -3.409   0.203   1.402  1.00  0.00     0.044 C 
BRANCH  15  16
ATOM     16  C   UNL     1      -2.856   0.772   0.060  1.00  0.00     0.145 C 
BRANCH  16  17
ATOM     17  C   UNL     1      -3.315   0.150  -1.256  1.00  0.00    -0.019 A 
ATOM     18  C   UNL     1      -4.585  -3.087  -2.861  1.00  0.00     0.047 C 
ATOM     19  C   UNL     1      -4.106  -1.680  -2.670  1.00  0.00    -0.015 A 
ATOM     20  C   UNL     1      -3.723  -1.185  -1.406  1.00  0.00     0.012 A 
ATOM     21  C   UNL     1      -4.100  -0.824  -3.776  1.00  0.00     0.126 A 
ATOM     22  C   UNL     1      -3.681   0.490  -3.658  1.00  0.00     0.040 A 
ATOM     23  F   UNL     1      -4.483  -1.284  -4.974  1.00  0.00    -0.207 F 
ATOM     24  C   UNL     1      -3.263   0.960  -2.413  1.00  0.00     0.009 A 
ENDBRANCH  16  17
BRANCH  16  25
ATOM     25  O   UNL     1      -1.432   0.712   0.072  1.00  0.00    -0.388 OA
ATOM     26  H   UNL     1      -1.147  -0.216   0.078  1.00  0.00     0.211 HD
ENDBRANCH  16  25
ENDBRANCH  15  16
ENDBRANCH  10  15
ENDBRANCH   9  10
ENDBRANCH   7   9
ENDBRANCH   6   7
ENDBRANCH   5   6
ENDBRANCH   4   5
ENDBRANCH   3   4
ENDBRANCH   2   3
ENDBRANCH   1   2
BRANCH   1  27
ATOM     27  O   UNL     1      -7.183   3.115   1.731  1.00  0.00    -0.377 OA
BRANCH  27  28
ATOM     28  C   UNL     1      -8.071   3.591   0.736  1.00  0.00     0.188 C 
BRANCH  28  29
ATOM     29  C   UNL     1      -9.026   2.604   0.040  1.00  0.00     0.188 C 
BRANCH  29  30
ATOM     30  O   UNL     1      -8.452   1.340  -0.283  1.00  0.00    -0.376 OA
BRANCH  30  31
ATOM     31  C   UNL     1      -8.276   1.010  -1.660  1.00  0.00     0.202 C 
BRANCH  31  32
ATOM     32  C   UNL     1      -6.844   1.233  -2.157  1.00  0.00     0.261 C 
BRANCH  32  33
ATOM     33  O   UNL     1      -6.231   2.457  -1.751  1.00  0.00    -0.460 OA
BRANCH  33  34
ATOM     34  C   UNL     1      -6.911   3.553  -2.120  1.00  0.00     0.338 C 
ATOM     35  O   UNL     1      -8.041   3.624  -2.559  1.00  0.00    -0.246 OA
BRANCH  34  36
ATOM     36  C   UNL     1      -6.089   4.756  -1.938  1.00  0.00     0.060 A 
ATOM     37  C   UNL     1      -6.805   5.938  -2.165  1.00  0.00     0.016 A 
ATOM     38  C   UNL     1      -4.736   4.615  -2.230  1.00  0.00     0.016 A 
ATOM     39  C   UNL     1      -6.302   6.791  -3.109  1.00  0.00     0.010 A 
ATOM     40  C   UNL     1      -4.234   5.463  -3.173  1.00  0.00     0.010 A 
ATOM     41  C   UNL     1      -5.076   6.452  -3.681  1.00  0.00    -0.014 A 
BRANCH  41  42
ATOM     42  C   UNL     1      -4.598   7.135  -4.847  1.00  0.00     0.031 A 
ATOM     43  C   UNL     1      -4.124   8.500  -4.612  1.00  0.00     0.074 A 
ATOM     44  C   UNL     1      -4.666   6.535  -6.054  1.00  0.00     0.049 A 
ATOM     45  N   UNL     1      -4.370   9.498  -5.380  1.00  0.00    -0.248 NA
ATOM     46  C   UNL     1      -3.454   8.878  -3.364  1.00  0.00     0.031 C 
ATOM     47  C   UNL     1      -4.067   7.019  -7.286  1.00  0.00     0.029 A 
ATOM     48  N   UNL     1      -5.426   5.436  -6.465  1.00  0.00    -0.354 N 
ATOM     49  C   UNL     1      -3.544  10.510  -4.950  1.00  0.00     0.074 A 
ATOM     50  C   UNL     1      -3.170  10.161  -3.600  1.00  0.00     0.031 C 
ATOM     51  C   UNL     1      -4.698   6.443  -8.325  1.00  0.00     0.029 A 
ATOM     52  C   UNL     1      -5.822   5.695  -7.784  1.00  0.00     0.049 A 
ATOM     53  H   UNL     1      -5.641   4.636  -5.932  1.00  0.00     0.167 HD
ATOM     54  C   UNL     1      -3.051  11.390  -5.864  1.00  0.00     0.034 A 
ATOM     55  C   UNL     1      -7.114   5.825  -8.207  1.00  0.00     0.034 A 
ATOM     56  C   UNL     1      -3.518  11.038  -7.196  1.00  0.00     0.049 A 
ATOM     57  C   UNL     1      -7.354   7.171  -8.853  1.00  0.00     0.074 A 
ATOM     58  C   UNL     1      -2.929  10.273  -8.191  1.00  0.00     0.029 A 
ATOM     59  N   UNL     1      -4.862  11.142  -7.517  1.00  0.00    -0.354 N 
ATOM     60  N   UNL     1      -6.698   8.248  -8.516  1.00  0.00    -0.248 NA
ATOM     61  C   UNL     1      -8.325   7.413  -9.915  1.00  0.00     0.031 C 
ATOM     62  C   UNL     1      -3.932   9.911  -9.117  1.00  0.00     0.029 A 
ATOM     63  C   UNL     1      -5.126  10.459  -8.685  1.00  0.00     0.049 A 
ATOM     64  H   UNL     1      -5.531  11.632  -6.987  1.00  0.00     0.167 HD
ATOM     65  C   UNL     1      -7.068   9.280  -9.347  1.00  0.00     0.074 A 
ATOM     66  C   UNL     1      -8.109   8.714 -10.181  1.00  0.00     0.031 C 
ATOM     67  C   UNL     1      -6.448  10.497  -9.292  1.00  0.00     0.034 A 
BRANCH  54  68
ATOM     68  C   UNL     1      -1.860  12.279  -5.598  1.00  0.00     0.023 A 
ATOM     69  C   UNL     1      -1.557  12.785  -4.317  1.00  0.00     0.012 A 
ATOM     70  C   UNL     1      -0.966  12.625  -6.635  1.00  0.00     0.148 A 
ATOM     71  C   UNL     1      -0.369  13.481  -4.053  1.00  0.00     0.002 A 
ATOM     72  C   UNL     1       0.199  13.342  -6.377  1.00  0.00     0.091 A 
ATOM     73  F   UNL     1      -1.221  12.265  -7.898  1.00  0.00    -0.205 F 
ATOM     74  C   UNL     1       0.519  13.752  -5.084  1.00  0.00     0.022 A 
BRANCH  72  75
ATOM     75  S   UNL     1       1.287  13.732  -7.749  1.00  0.00     0.127 S 
ATOM     76  O   UNL     1       1.728  12.415  -8.197  1.00  0.00    -0.237 OA
ATOM     77  O   UNL     1       0.423  14.482  -8.654  1.00  0.00    -0.237 OA
ATOM     78  O   UNL     1       2.338  14.536  -7.122  1.00  0.00    -0.744 OA
ENDBRANCH  72  75
ENDBRANCH  54  68
BRANCH  55  79
ATOM     79  C   UNL     1      -8.127   5.094  -7.402  1.00  0.00     0.023 A 
ATOM     80  C   UNL     1      -8.804   5.734  -6.349  1.00  0.00     0.012 A 
ATOM     81  C   UNL     1      -8.109   3.686  -7.449  1.00  0.00     0.148 A 
ATOM     82  C   UNL     1      -9.375   4.977  -5.320  1.00  0.00     0.002 A 
ATOM     83  C   UNL     1      -8.620   2.945  -6.389  1.00  0.00     0.091 A 
ATOM     84  F   UNL     1      -7.499   3.082  -8.481  1.00  0.00    -0.205 F 
ATOM     85  C   UNL     1      -9.262   3.585  -5.326  1.00  0.00     0.022 A 
BRANCH  83  86
ATOM     86  S   UNL     1      -8.181   1.206  -6.266  1.00  0.00     0.127 S 
ATOM     87  O   UNL     1      -8.920   0.601  -7.369  1.00  0.00    -0.237 OA
ATOM     88  O   UNL     1      -6.726   1.236  -6.387  1.00  0.00    -0.237 OA
ATOM     89  O   UNL     1      -8.652   0.816  -4.936  1.00  0.00    -0.744 OA
ENDBRANCH  83  86
ENDBRANCH  55  79
BRANCH  67  90
ATOM     90  C   UNL     1      -6.880  11.814  -9.908  1.00  0.00     0.023 A 
ATOM     91  C   UNL     1      -5.973  12.911  -9.839  1.00  0.00     0.012 A 
ATOM     92  C   UNL     1      -8.136  12.095 -10.457  1.00  0.00     0.148 A 
ATOM     93  C   UNL     1      -6.299  14.202 -10.253  1.00  0.00     0.002 A 
ATOM     94  C   UNL     1      -8.421  13.361 -10.975  1.00  0.00     0.091 A 
ATOM     95  F   UNL     1      -9.105  11.173 -10.443  1.00  0.00    -0.205 F 
ATOM     96  C   UNL     1      -7.526  14.427 -10.846  1.00  0.00     0.022 A 
BRANCH  94  97
ATOM     97  S   UNL     1      -9.927  13.576 -11.924  1.00  0.00     0.127 S 
ATOM     98  O   UNL     1      -9.748  12.625 -13.018  1.00  0.00    -0.237 OA
ATOM     99  O   UNL     1     -10.980  13.267 -10.962  1.00  0.00    -0.237 OA
ATOM    100  O   UNL     1      -9.876  14.981 -12.332  1.00  0.00    -0.744 OA
ENDBRANCH  94  97
ENDBRANCH  67  90
ENDBRANCH  41  42
ENDBRANCH  34  36
ENDBRANCH  33  34
ENDBRANCH  32  33
ENDBRANCH  31  32
ENDBRANCH  30  31
ENDBRANCH  29  30
ENDBRANCH  28  29
ENDBRANCH  27  28
ENDBRANCH   1  27
TORSDOF 28
