REMARK SMILES O=C(OCCOCCOCCOCCOC(=O)[C@H]1CCCN(c2nc(-c3ccco3)cc(C(F)(F)F)n2)C1)c1ccc(-c2c3nc(c(-c4cccc(S(=O)(=O)[O-])c4F)c4ccc([nH]4)c(-c4cccc(S(=O)(=O)[O-])c4F)c4nc(c(-c5cccc(S(=O)(=O)[O-])c5F)c5ccc2[nH]5)C=C4)C=C3)cc1
REMARK SMILES IDX 8 1 7 2 6 3 5 4 4 5 3 6 2 7 1 8 39 9 40 10 101 11 41 12
REMARK SMILES IDX 100 13 42 14 43 15 44 16 94 17 45 18 99 19 93 20 95 21 46 22
REMARK SMILES IDX 98 23 92 24 91 25 47 27 79 28 59 29 78 30 60 31 63 32 77 33
REMARK SMILES IDX 96 34 61 35 62 36 76 38 97 39 64 40 48 41 49 42 57 43 50 44
REMARK SMILES IDX 52 45 58 46 51 47 53 48 54 49 55 50 56 51 80 52 81 53 89 54
REMARK SMILES IDX 82 55 84 56 90 57 83 58 85 59 86 60 87 61 88 62 65 63 66 64
REMARK SMILES IDX 74 65 67 66 69 67 75 68 68 69 70 70 71 71 72 72 73 73 9 74
REMARK SMILES IDX 10 75 11 76 12 77 13 78 14 79 15 80 16 81 17 82 18 83 19 84
REMARK SMILES IDX 38 85 20 86 22 87 21 88 23 89 24 90 37 91 25 92 32 93 31 94
REMARK SMILES IDX 26 95 27 96 30 97 28 98 29 99 33 100 34 101 35 102 36 103
REMARK H PARENT 95 26 63 37
REMARK Flexibility Score: inf
ROOT
ATOM      1  C   UNL     1       1.894  -3.723  -5.919  1.00  0.00     0.188 C 
ENDROOT
BRANCH   1   2
ATOM      2  C   UNL     1       0.508  -3.226  -5.518  1.00  0.00     0.188 C 
BRANCH   2   3
ATOM      3  O   UNL     1       0.190  -1.974  -6.117  1.00  0.00    -0.376 OA
BRANCH   3   4
ATOM      4  C   UNL     1      -0.420  -0.972  -5.302  1.00  0.00     0.202 C 
BRANCH   4   5
ATOM      5  C   UNL     1      -1.785  -1.313  -4.710  1.00  0.00     0.261 C 
BRANCH   5   6
ATOM      6  O   UNL     1      -2.117  -2.711  -4.695  1.00  0.00    -0.460 OA
BRANCH   6   7
ATOM      7  C   UNL     1      -2.602  -3.509  -5.676  1.00  0.00     0.338 C 
ATOM      8  O   UNL     1      -2.849  -4.681  -5.395  1.00  0.00    -0.246 OA
BRANCH   7   9
ATOM      9  C   UNL     1      -2.837  -3.067  -7.082  1.00  0.00     0.060 A 
ATOM     10  C   UNL     1      -2.195  -2.002  -7.702  1.00  0.00     0.016 A 
ATOM     11  C   UNL     1      -3.727  -3.825  -7.860  1.00  0.00     0.016 A 
ATOM     12  C   UNL     1      -2.462  -1.621  -8.996  1.00  0.00     0.010 A 
ATOM     13  C   UNL     1      -4.012  -3.459  -9.180  1.00  0.00     0.010 A 
ATOM     14  C   UNL     1      -3.410  -2.318  -9.721  1.00  0.00    -0.014 A 
BRANCH  14  15
ATOM     15  C   UNL     1      -3.930  -1.610 -10.893  1.00  0.00     0.031 A 
ATOM     16  C   UNL     1      -5.233  -0.892 -10.718  1.00  0.00     0.074 A 
ATOM     17  C   UNL     1      -3.140  -1.424 -11.963  1.00  0.00     0.049 A 
ATOM     18  N   UNL     1      -5.916  -0.196 -11.578  1.00  0.00    -0.248 NA
ATOM     19  C   UNL     1      -5.839  -0.946  -9.372  1.00  0.00     0.031 C 
ATOM     20  C   UNL     1      -1.767  -1.923 -12.098  1.00  0.00     0.029 A 
ATOM     21  N   UNL     1      -3.360  -0.732 -13.118  1.00  0.00    -0.354 N 
ATOM     22  C   UNL     1      -7.069   0.190 -10.908  1.00  0.00     0.074 A 
ATOM     23  C   UNL     1      -6.982  -0.310  -9.559  1.00  0.00     0.031 C 
ATOM     24  C   UNL     1      -1.269  -1.519 -13.277  1.00  0.00     0.029 A 
ATOM     25  C   UNL     1      -2.311  -0.807 -14.003  1.00  0.00     0.049 A 
ATOM     26  H   UNL     1      -4.186  -0.228 -13.300  1.00  0.00     0.167 HD
ATOM     27  C   UNL     1      -8.117   0.884 -11.400  1.00  0.00     0.034 A 
ATOM     28  C   UNL     1      -2.243  -0.383 -15.277  1.00  0.00     0.034 A 
ATOM     29  C   UNL     1      -8.146   1.372 -12.748  1.00  0.00     0.049 A 
ATOM     30  C   UNL     1      -3.458   0.309 -15.831  1.00  0.00     0.074 A 
ATOM     31  C   UNL     1      -9.157   2.040 -13.407  1.00  0.00     0.029 A 
ATOM     32  N   UNL     1      -7.097   1.225 -13.648  1.00  0.00    -0.354 N 
ATOM     33  N   UNL     1      -4.575   0.629 -15.219  1.00  0.00    -0.248 NA
ATOM     34  C   UNL     1      -3.405   0.709 -17.240  1.00  0.00     0.031 C 
ATOM     35  C   UNL     1      -8.735   2.254 -14.723  1.00  0.00     0.029 A 
ATOM     36  C   UNL     1      -7.438   1.776 -14.865  1.00  0.00     0.049 A 
ATOM     37  H   UNL     1      -6.237   0.792 -13.446  1.00  0.00     0.167 HD
ATOM     38  C   UNL     1      -5.345   1.306 -16.153  1.00  0.00     0.074 A 
ATOM     39  C   UNL     1      -4.556   1.356 -17.371  1.00  0.00     0.031 C 
ATOM     40  C   UNL     1      -6.588   1.835 -16.029  1.00  0.00     0.034 A 
BRANCH  27  41
ATOM     41  C   UNL     1      -9.317   1.034 -10.506  1.00  0.00     0.023 A 
ATOM     42  C   UNL     1      -9.277   1.865  -9.367  1.00  0.00     0.012 A 
ATOM     43  C   UNL     1     -10.477   0.281 -10.769  1.00  0.00     0.148 A 
ATOM     44  C   UNL     1     -10.353   1.901  -8.479  1.00  0.00     0.002 A 
ATOM     45  C   UNL     1     -11.564   0.362  -9.909  1.00  0.00     0.091 A 
ATOM     46  F   UNL     1     -10.480  -0.535 -11.834  1.00  0.00    -0.205 F 
ATOM     47  C   UNL     1     -11.498   1.156  -8.754  1.00  0.00     0.022 A 
BRANCH  45  48
ATOM     48  S   UNL     1     -13.103  -0.508 -10.217  1.00  0.00     0.127 S 
ATOM     49  O   UNL     1     -13.109  -1.491  -9.134  1.00  0.00    -0.237 OA
ATOM     50  O   UNL     1     -14.089   0.563 -10.075  1.00  0.00    -0.237 OA
ATOM     51  O   UNL     1     -12.994  -1.061 -11.559  1.00  0.00    -0.744 OA
ENDBRANCH  45  48
ENDBRANCH  27  41
BRANCH  28  52
ATOM     52  C   UNL     1      -1.019  -0.619 -16.092  1.00  0.00     0.023 A 
ATOM     53  C   UNL     1      -0.255   0.475 -16.541  1.00  0.00     0.012 A 
ATOM     54  C   UNL     1      -0.594  -1.926 -16.409  1.00  0.00     0.148 A 
ATOM     55  C   UNL     1       0.889   0.273 -17.316  1.00  0.00     0.002 A 
ATOM     56  C   UNL     1       0.575  -2.122 -17.135  1.00  0.00     0.091 A 
ATOM     57  F   UNL     1      -1.337  -2.957 -15.983  1.00  0.00    -0.205 F 
ATOM     58  C   UNL     1       1.309  -1.023 -17.605  1.00  0.00     0.022 A 
BRANCH  56  59
ATOM     59  S   UNL     1       1.252  -3.754 -17.459  1.00  0.00     0.127 S 
ATOM     60  O   UNL     1       1.103  -3.856 -18.909  1.00  0.00    -0.237 OA
ATOM     61  O   UNL     1       2.630  -3.606 -16.990  1.00  0.00    -0.237 OA
ATOM     62  O   UNL     1       0.446  -4.681 -16.677  1.00  0.00    -0.744 OA
ENDBRANCH  56  59
ENDBRANCH  28  52
BRANCH  40  63
ATOM     63  C   UNL     1      -7.132   2.576 -17.216  1.00  0.00     0.023 A 
ATOM     64  C   UNL     1      -7.553   1.875 -18.361  1.00  0.00     0.012 A 
ATOM     65  C   UNL     1      -7.303   3.971 -17.145  1.00  0.00     0.148 A 
ATOM     66  C   UNL     1      -8.106   2.562 -19.439  1.00  0.00     0.002 A 
ATOM     67  C   UNL     1      -7.913   4.639 -18.195  1.00  0.00     0.091 A 
ATOM     68  F   UNL     1      -6.874   4.615 -16.049  1.00  0.00    -0.205 F 
ATOM     69  C   UNL     1      -8.300   3.940 -19.350  1.00  0.00     0.022 A 
BRANCH  67  70
ATOM     70  S   UNL     1      -8.310   6.386 -18.107  1.00  0.00     0.127 S 
ATOM     71  O   UNL     1      -7.324   6.962 -19.019  1.00  0.00    -0.237 OA
ATOM     72  O   UNL     1      -9.688   6.415 -18.600  1.00  0.00    -0.237 OA
ATOM     73  O   UNL     1      -8.164   6.763 -16.707  1.00  0.00    -0.744 OA
ENDBRANCH  67  70
ENDBRANCH  40  63
ENDBRANCH  14  15
ENDBRANCH   7   9
ENDBRANCH   6   7
ENDBRANCH   5   6
ENDBRANCH   4   5
ENDBRANCH   3   4
ENDBRANCH   2   3
ENDBRANCH   1   2
BRANCH   1  74
ATOM     74  O   UNL     1       2.985  -2.893  -5.538  1.00  0.00    -0.377 OA
BRANCH  74  75
ATOM     75  C   UNL     1       2.816  -1.499  -5.747  1.00  0.00     0.188 C 
BRANCH  75  76
ATOM     76  C   UNL     1       2.774  -0.932  -7.189  1.00  0.00     0.188 C 
BRANCH  76  77
ATOM     77  O   UNL     1       2.199  -1.771  -8.168  1.00  0.00    -0.376 OA
BRANCH  77  78
ATOM     78  C   UNL     1       2.999  -2.629  -8.975  1.00  0.00     0.202 C 
BRANCH  78  79
ATOM     79  C   UNL     1       4.485  -2.964  -8.711  1.00  0.00     0.261 C 
BRANCH  79  80
ATOM     80  O   UNL     1       4.989  -2.584  -7.430  1.00  0.00    -0.463 OA
BRANCH  80  81
ATOM     81  C   UNL     1       6.005  -1.681  -7.375  1.00  0.00     0.310 C 
ATOM     82  O   UNL     1       6.664  -1.293  -8.337  1.00  0.00    -0.252 OA
BRANCH  81  83
ATOM     83  C   UNL     1       6.080  -1.079  -5.990  1.00  0.00     0.119 C 
ATOM     84  C   UNL     1       6.152  -2.132  -4.869  1.00  0.00     0.019 C 
ATOM     85  C   UNL     1       7.146  -0.003  -5.849  1.00  0.00     0.135 C 
ATOM     86  C   UNL     1       6.164  -1.480  -3.482  1.00  0.00     0.022 C 
ATOM     87  N   UNL     1       7.067   0.496  -4.484  1.00  0.00    -0.340 N 
ATOM     88  C   UNL     1       7.278  -0.440  -3.401  1.00  0.00     0.120 C 
BRANCH  87  89
ATOM     89  C   UNL     1       7.203   1.829  -4.242  1.00  0.00     0.226 A 
ATOM     90  N   UNL     1       6.152   2.632  -4.457  1.00  0.00    -0.210 NA
ATOM     91  N   UNL     1       8.371   2.251  -3.748  1.00  0.00    -0.208 NA
ATOM     92  C   UNL     1       6.298   3.931  -4.138  1.00  0.00     0.112 A 
ATOM     93  C   UNL     1       8.514   3.570  -3.485  1.00  0.00     0.150 A 
ATOM     94  C   UNL     1       7.476   4.459  -3.662  1.00  0.00     0.066 A 
BRANCH  92  95
ATOM     95  C   UNL     1       5.143   4.795  -4.324  1.00  0.00     0.152 A 
ATOM     96  C   UNL     1       4.938   5.969  -5.025  1.00  0.00     0.052 A 
ATOM     97  O   UNL     1       4.032   4.503  -3.584  1.00  0.00    -0.463 OA
ATOM     98  C   UNL     1       3.636   6.417  -4.695  1.00  0.00     0.043 A 
ATOM     99  C   UNL     1       3.126   5.490  -3.817  1.00  0.00     0.196 A 
ENDBRANCH  92  95
BRANCH  93 100
ATOM    100  C   UNL     1       9.866   4.056  -3.013  1.00  0.00     0.433 C 
ATOM    101  F   UNL     1      10.315   3.406  -1.901  1.00  0.00    -0.165 F 
ATOM    102  F   UNL     1      10.840   3.910  -3.955  1.00  0.00    -0.165 F 
ATOM    103  F   UNL     1       9.875   5.383  -2.686  1.00  0.00    -0.165 F 
ENDBRANCH  93 100
ENDBRANCH  87  89
ENDBRANCH  81  83
ENDBRANCH  80  81
ENDBRANCH  79  80
ENDBRANCH  78  79
ENDBRANCH  77  78
ENDBRANCH  76  77
ENDBRANCH  75  76
ENDBRANCH  74  75
ENDBRANCH   1  74
TORSDOF 26
