REMARK SMILES O=C(Cc1cncnc1N1CCC2(CC1)OCCC[C@@H]2O)OCCOCCOCCOCCOC(=O)c1ccc(-c2c3nc(c(-c4cccc(S(=O)(=O)[O-])c4F)c4ccc([nH]4)c(-c4cccc(S(=O)(=O)[O-])c4F)c4nc(c(-c5cccc(S(=O)(=O)[O-])c5F)c5ccc2[nH]5)C=C4)C=C3)cc1
REMARK SMILES IDX 28 1 27 2 26 3 25 4 24 5 23 6 22 7 2 8 1 9 3 10 4 11 5 12
REMARK SMILES IDX 9 13 6 14 8 15 7 16 10 17 11 18 15 19 12 20 14 21 13 22
REMARK SMILES IDX 16 23 20 24 17 25 19 26 18 27 21 28 29 30 30 31 31 32 32 33
REMARK SMILES IDX 33 34 34 35 35 36 36 37 37 38 38 39 99 40 39 41 98 42 40 43
REMARK SMILES IDX 41 44 42 45 92 46 43 47 97 48 91 49 93 50 44 51 96 52 90 53
REMARK SMILES IDX 89 54 45 56 77 57 57 58 76 59 58 60 61 61 75 62 94 63 59 64
REMARK SMILES IDX 60 65 74 67 95 68 62 69 46 70 47 71 55 72 48 73 50 74 56 75
REMARK SMILES IDX 49 76 51 77 52 78 53 79 54 80 78 81 79 82 87 83 80 84 82 85
REMARK SMILES IDX 88 86 81 87 83 88 84 89 85 90 86 91 63 92 64 93 72 94 65 95
REMARK SMILES IDX 67 96 73 97 66 98 68 99 69 100 70 101 71 102
REMARK H PARENT 21 29 93 55 61 66
REMARK Flexibility Score: inf
ROOT
ATOM      1  O   UNL     1       3.114  -3.140   2.598  1.00  0.00    -0.377 OA
ENDROOT
BRANCH   1   2
ATOM      2  C   UNL     1       2.373  -3.126   1.379  1.00  0.00     0.188 C 
BRANCH   2   3
ATOM      3  C   UNL     1       2.757  -2.030   0.403  1.00  0.00     0.188 C 
BRANCH   3   4
ATOM      4  O   UNL     1       4.082  -2.122  -0.125  1.00  0.00    -0.376 OA
BRANCH   4   5
ATOM      5  C   UNL     1       4.843  -0.941  -0.371  1.00  0.00     0.202 C 
BRANCH   5   6
ATOM      6  C   UNL     1       4.257   0.391   0.065  1.00  0.00     0.261 C 
BRANCH   6   7
ATOM      7  O   UNL     1       2.873   0.542  -0.320  1.00  0.00    -0.463 OA
BRANCH   7   8
ATOM      8  C   UNL     1       2.328   0.234  -1.519  1.00  0.00     0.310 C 
ATOM      9  O   UNL     1       1.221  -0.297  -1.599  1.00  0.00    -0.252 OA
BRANCH   8  10
ATOM     10  C   UNL     1       3.076   0.630  -2.748  1.00  0.00     0.163 C 
BRANCH  10  11
ATOM     11  C   UNL     1       3.772   1.949  -2.625  1.00  0.00     0.024 A 
ATOM     12  C   UNL     1       5.056   2.080  -3.117  1.00  0.00     0.121 A 
ATOM     13  C   UNL     1       3.220   3.056  -1.968  1.00  0.00     0.135 A 
ATOM     14  N   UNL     1       5.787   3.188  -2.968  1.00  0.00    -0.244 NA
ATOM     15  N   UNL     1       3.934   4.175  -1.797  1.00  0.00    -0.219 NA
ATOM     16  C   UNL     1       5.181   4.182  -2.300  1.00  0.00     0.224 A 
BRANCH  13  17
ATOM     17  N   UNL     1       1.931   2.981  -1.460  1.00  0.00    -0.356 N 
ATOM     18  C   UNL     1       0.857   3.480  -2.294  1.00  0.00     0.121 C 
ATOM     19  C   UNL     1       1.687   3.168  -0.026  1.00  0.00     0.121 C 
ATOM     20  C   UNL     1      -0.367   2.608  -2.040  1.00  0.00     0.060 C 
ATOM     21  C   UNL     1       0.469   2.314   0.384  1.00  0.00     0.060 C 
ATOM     22  C   UNL     1      -0.762   2.494  -0.541  1.00  0.00     0.097 C 
ATOM     23  O   UNL     1      -1.383   3.708  -0.061  1.00  0.00    -0.372 OA
ATOM     24  C   UNL     1      -1.755   1.295  -0.368  1.00  0.00     0.146 C 
ATOM     25  C   UNL     1      -2.651   4.037  -0.615  1.00  0.00     0.161 C 
ATOM     26  C   UNL     1      -3.113   1.597  -1.004  1.00  0.00     0.037 C 
ATOM     27  C   UNL     1      -3.666   2.913  -0.471  1.00  0.00     0.031 C 
BRANCH  24  28
ATOM     28  O   UNL     1      -1.990   0.983   1.010  1.00  0.00    -0.390 OA
ATOM     29  H   UNL     1      -2.413   1.739   1.445  1.00  0.00     0.211 HD
ENDBRANCH  24  28
ENDBRANCH  13  17
ENDBRANCH  10  11
ENDBRANCH   8  10
ENDBRANCH   7   8
ENDBRANCH   6   7
ENDBRANCH   5   6
ENDBRANCH   4   5
ENDBRANCH   3   4
ENDBRANCH   2   3
ENDBRANCH   1   2
BRANCH   1  30
ATOM     30  C   UNL     1       4.520  -2.945   2.485  1.00  0.00     0.188 C 
BRANCH  30  31
ATOM     31  C   UNL     1       5.313  -3.982   1.656  1.00  0.00     0.188 C 
BRANCH  31  32
ATOM     32  O   UNL     1       4.555  -4.675   0.671  1.00  0.00    -0.376 OA
BRANCH  32  33
ATOM     33  C   UNL     1       4.242  -6.038   0.944  1.00  0.00     0.202 C 
BRANCH  33  34
ATOM     34  C   UNL     1       3.280  -6.349   2.110  1.00  0.00     0.261 C 
BRANCH  34  35
ATOM     35  O   UNL     1       3.618  -5.771   3.377  1.00  0.00    -0.460 OA
BRANCH  35  36
ATOM     36  C   UNL     1       4.776  -6.186   3.942  1.00  0.00     0.338 C 
ATOM     37  O   UNL     1       5.503  -7.060   3.540  1.00  0.00    -0.246 OA
BRANCH  36  38
ATOM     38  C   UNL     1       5.134  -5.209   5.002  1.00  0.00     0.060 A 
ATOM     39  C   UNL     1       6.438  -4.692   4.992  1.00  0.00     0.016 A 
ATOM     40  C   UNL     1       4.211  -4.785   5.963  1.00  0.00     0.016 A 
ATOM     41  C   UNL     1       6.840  -3.795   5.978  1.00  0.00     0.010 A 
ATOM     42  C   UNL     1       4.627  -3.917   6.978  1.00  0.00     0.010 A 
ATOM     43  C   UNL     1       5.958  -3.467   7.015  1.00  0.00    -0.014 A 
BRANCH  43  44
ATOM     44  C   UNL     1       6.540  -2.962   8.280  1.00  0.00     0.031 A 
ATOM     45  C   UNL     1       7.008  -3.996   9.271  1.00  0.00     0.074 A 
ATOM     46  C   UNL     1       6.701  -1.652   8.527  1.00  0.00     0.049 A 
ATOM     47  N   UNL     1       7.617  -3.837  10.414  1.00  0.00    -0.248 NA
ATOM     48  C   UNL     1       6.761  -5.406   8.912  1.00  0.00     0.031 C 
ATOM     49  C   UNL     1       6.305  -0.563   7.637  1.00  0.00     0.029 A 
ATOM     50  N   UNL     1       7.241  -1.019   9.618  1.00  0.00    -0.354 N 
ATOM     51  C   UNL     1       7.810  -5.119  10.916  1.00  0.00     0.074 A 
ATOM     52  C   UNL     1       7.245  -6.045   9.964  1.00  0.00     0.031 C 
ATOM     53  C   UNL     1       6.599   0.610   8.230  1.00  0.00     0.029 A 
ATOM     54  C   UNL     1       7.191   0.352   9.542  1.00  0.00     0.049 A 
ATOM     55  H   UNL     1       7.628  -1.502  10.384  1.00  0.00     0.167 HD
ATOM     56  C   UNL     1       8.419  -5.498  12.062  1.00  0.00     0.034 A 
ATOM     57  C   UNL     1       7.576   1.283  10.438  1.00  0.00     0.034 A 
ATOM     58  C   UNL     1       8.979  -4.577  13.009  1.00  0.00     0.049 A 
ATOM     59  C   UNL     1       8.213   0.835  11.732  1.00  0.00     0.074 A 
ATOM     60  C   UNL     1       9.642  -4.854  14.190  1.00  0.00     0.029 A 
ATOM     61  N   UNL     1       8.920  -3.197  12.891  1.00  0.00    -0.354 N 
ATOM     62  N   UNL     1       8.505  -0.379  12.136  1.00  0.00    -0.248 NA
ATOM     63  C   UNL     1       8.608   1.890  12.678  1.00  0.00     0.031 C 
ATOM     64  C   UNL     1       9.961  -3.636  14.801  1.00  0.00     0.029 A 
ATOM     65  C   UNL     1       9.524  -2.604  13.984  1.00  0.00     0.049 A 
ATOM     66  H   UNL     1       8.510  -2.712  12.139  1.00  0.00     0.167 HD
ATOM     67  C   UNL     1       9.152  -0.232  13.358  1.00  0.00     0.074 A 
ATOM     68  C   UNL     1       9.225   1.191  13.621  1.00  0.00     0.031 C 
ATOM     69  C   UNL     1       9.635  -1.184  14.196  1.00  0.00     0.034 A 
BRANCH  56  70
ATOM     70  C   UNL     1       8.509  -6.974  12.340  1.00  0.00     0.023 A 
ATOM     71  C   UNL     1       9.396  -7.774  11.591  1.00  0.00     0.012 A 
ATOM     72  C   UNL     1       7.724  -7.566  13.347  1.00  0.00     0.148 A 
ATOM     73  C   UNL     1       9.476  -9.148  11.818  1.00  0.00     0.002 A 
ATOM     74  C   UNL     1       7.842  -8.927  13.598  1.00  0.00     0.091 A 
ATOM     75  F   UNL     1       6.861  -6.793  14.022  1.00  0.00    -0.205 F 
ATOM     76  C   UNL     1       8.707  -9.721  12.827  1.00  0.00     0.022 A 
BRANCH  74  77
ATOM     77  S   UNL     1       6.948  -9.743  14.924  1.00  0.00     0.127 S 
ATOM     78  O   UNL     1       5.950 -10.510  14.180  1.00  0.00    -0.237 OA
ATOM     79  O   UNL     1       7.995 -10.551  15.550  1.00  0.00    -0.237 OA
ATOM     80  O   UNL     1       6.421  -8.678  15.766  1.00  0.00    -0.744 OA
ENDBRANCH  74  77
ENDBRANCH  56  70
BRANCH  57  81
ATOM     81  C   UNL     1       7.416   2.734  10.132  1.00  0.00     0.023 A 
ATOM     82  C   UNL     1       8.559   3.531   9.928  1.00  0.00     0.012 A 
ATOM     83  C   UNL     1       6.142   3.328  10.045  1.00  0.00     0.148 A 
ATOM     84  C   UNL     1       8.439   4.899   9.673  1.00  0.00     0.002 A 
ATOM     85  C   UNL     1       6.027   4.680   9.739  1.00  0.00     0.091 A 
ATOM     86  F   UNL     1       5.066   2.558  10.263  1.00  0.00    -0.205 F 
ATOM     87  C   UNL     1       7.174   5.470   9.569  1.00  0.00     0.022 A 
BRANCH  85  88
ATOM     88  S   UNL     1       4.440   5.478   9.472  1.00  0.00     0.127 S 
ATOM     89  O   UNL     1       4.343   6.351  10.639  1.00  0.00    -0.237 OA
ATOM     90  O   UNL     1       4.662   6.169   8.201  1.00  0.00    -0.237 OA
ATOM     91  O   UNL     1       3.463   4.399   9.406  1.00  0.00    -0.744 OA
ENDBRANCH  85  88
ENDBRANCH  57  81
BRANCH  69  92
ATOM     92  C   UNL     1      10.326  -0.727  15.455  1.00  0.00     0.023 A 
ATOM     93  C   UNL     1       9.571  -0.188  16.515  1.00  0.00     0.012 A 
ATOM     94  C   UNL     1      11.713  -0.912  15.617  1.00  0.00     0.148 A 
ATOM     95  C   UNL     1      10.192   0.194  17.703  1.00  0.00     0.002 A 
ATOM     96  C   UNL     1      12.317  -0.577  16.823  1.00  0.00     0.091 A 
ATOM     97  F   UNL     1      12.418  -1.412  14.591  1.00  0.00    -0.205 F 
ATOM     98  C   UNL     1      11.561  -0.012  17.862  1.00  0.00     0.022 A 
BRANCH  96  99
ATOM     99  S   UNL     1      14.053  -0.905  17.148  1.00  0.00     0.127 S 
ATOM    100  O   UNL     1      14.634   0.432  17.039  1.00  0.00    -0.237 OA
ATOM    101  O   UNL     1      14.020  -1.446  18.508  1.00  0.00    -0.237 OA
ATOM    102  O   UNL     1      14.476  -1.859  16.132  1.00  0.00    -0.744 OA
ENDBRANCH  96  99
ENDBRANCH  69  92
ENDBRANCH  43  44
ENDBRANCH  36  38
ENDBRANCH  35  36
ENDBRANCH  34  35
ENDBRANCH  33  34
ENDBRANCH  32  33
ENDBRANCH  31  32
ENDBRANCH  30  31
ENDBRANCH   1  30
TORSDOF 26
