REMARK SMILES CC1(C)Cc2c(-c3ccccc3)c(-c3ccc(Cl)cc3)c(CC(=O)OCCOCCOCCOCCOC(=O)c3ccc(-c4c5nc(c(-c6cccc(S(=O)(=O)[O-])c6F)c6ccc([nH]6)c(-c6cccc(S(=O)(=O)[O-])c6F)c6nc(c(-c7cccc(S(=O)(=O)[O-])c7F)c7ccc4[nH]7)C=C6)C=C5)cc3)n2C1
REMARK SMILES IDX 32 1 31 2 30 3 29 4 28 5 27 6 26 7 25 8 23 9 24 10 22 11
REMARK SMILES IDX 21 12 1 13 2 14 3 15 4 16 104 17 5 18 103 19 6 20 13 21 7 22
REMARK SMILES IDX 8 23 12 24 9 25 11 26 10 27 14 28 15 29 20 30 16 31 19 32
REMARK SMILES IDX 17 33 18 34 33 35 34 36 35 37 36 38 37 39 38 40 39 41 40 42
REMARK SMILES IDX 41 43 102 44 42 45 101 46 43 47 44 48 45 49 95 50 46 51
REMARK SMILES IDX 100 52 94 53 96 54 47 55 99 56 93 57 92 58 48 60 80 61 60 62
REMARK SMILES IDX 79 63 61 64 64 65 78 66 97 67 62 68 63 69 77 71 98 72 65 73
REMARK SMILES IDX 49 74 50 75 58 76 51 77 53 78 59 79 52 80 54 81 55 82 56 83
REMARK SMILES IDX 57 84 81 85 82 86 90 87 83 88 85 89 91 90 84 91 86 92 87 93
REMARK SMILES IDX 88 94 89 95 66 96 67 97 75 98 68 99 70 100 76 101 69 102
REMARK SMILES IDX 71 103 72 104 73 105 74 106
REMARK H PARENT 96 59 64 70
REMARK Flexibility Score: inf
ROOT
ATOM      1  C   UNL     1      -2.474   0.056   7.827  1.00  0.00     0.188 C 
ENDROOT
BRANCH   1   2
ATOM      2  O   UNL     1      -2.045   1.213   7.138  1.00  0.00    -0.377 OA
BRANCH   2   3
ATOM      3  C   UNL     1      -0.703   1.577   7.357  1.00  0.00     0.188 C 
BRANCH   3   4
ATOM      4  C   UNL     1      -0.484   2.811   8.245  1.00  0.00     0.188 C 
BRANCH   4   5
ATOM      5  O   UNL     1      -1.553   3.715   8.461  1.00  0.00    -0.376 OA
BRANCH   5   6
ATOM      6  C   UNL     1      -2.427   3.942   7.367  1.00  0.00     0.202 C 
BRANCH   6   7
ATOM      7  C   UNL     1      -1.810   4.340   6.001  1.00  0.00     0.261 C 
BRANCH   7   8
ATOM      8  O   UNL     1      -0.738   3.492   5.473  1.00  0.00    -0.463 OA
BRANCH   8   9
ATOM      9  C   UNL     1       0.480   4.048   5.257  1.00  0.00     0.311 C 
ATOM     10  O   UNL     1       0.645   5.270   5.306  1.00  0.00    -0.252 OA
BRANCH   9  11
ATOM     11  C   UNL     1       1.711   3.149   4.994  1.00  0.00     0.177 C 
BRANCH  11  12
ATOM     12  C   UNL     1       1.705   1.624   4.877  1.00  0.00     0.037 A 
ATOM     13  C   UNL     1       1.016   0.197   0.203  1.00  0.00     0.013 C 
ATOM     14  C   UNL     1       0.466   0.230   1.633  1.00  0.00    -0.012 C 
ATOM     15  C   UNL     1      -1.066   0.136   1.597  1.00  0.00     0.013 C 
ATOM     16  C   UNL     1       1.047  -0.959   2.454  1.00  0.00     0.063 C 
ATOM     17  C   UNL     1       0.908   1.522   2.389  1.00  0.00     0.129 C 
ATOM     18  C   UNL     1       1.457  -0.314   3.717  1.00  0.00     0.027 A 
ATOM     19  N   UNL     1       1.326   1.034   3.697  1.00  0.00    -0.346 N 
ATOM     20  C   UNL     1       1.953  -0.695   4.927  1.00  0.00     0.011 A 
ATOM     21  C   UNL     1       2.222   0.542   5.665  1.00  0.00     0.011 A 
BRANCH  20  22
ATOM     22  C   UNL     1       2.046  -2.112   5.260  1.00  0.00    -0.016 A 
ATOM     23  C   UNL     1       3.034  -2.947   4.722  1.00  0.00     0.009 A 
ATOM     24  C   UNL     1       1.065  -2.674   6.078  1.00  0.00     0.009 A 
ATOM     25  C   UNL     1       3.028  -4.321   5.000  1.00  0.00     0.001 A 
ATOM     26  C   UNL     1       1.077  -4.040   6.373  1.00  0.00     0.001 A 
ATOM     27  C   UNL     1       2.046  -4.867   5.822  1.00  0.00     0.000 A 
ENDBRANCH  20  22
BRANCH  21  28
ATOM     28  C   UNL     1       2.857   0.582   7.010  1.00  0.00    -0.016 A 
ATOM     29  C   UNL     1       3.645  -0.497   7.459  1.00  0.00     0.010 A 
ATOM     30  C   UNL     1       2.610   1.589   7.941  1.00  0.00     0.010 A 
ATOM     31  C   UNL     1       4.019  -0.643   8.803  1.00  0.00     0.021 A 
ATOM     32  C   UNL     1       2.956   1.448   9.296  1.00  0.00     0.021 A 
ATOM     33  C   UNL     1       3.634   0.315   9.727  1.00  0.00     0.041 A 
ATOM     34  Cl  UNL     1       3.950   0.081  11.401  1.00  0.00    -0.084 Cl
ENDBRANCH  21  28
ENDBRANCH  11  12
ENDBRANCH   9  11
ENDBRANCH   8   9
ENDBRANCH   7   8
ENDBRANCH   6   7
ENDBRANCH   5   6
ENDBRANCH   4   5
ENDBRANCH   3   4
ENDBRANCH   2   3
ENDBRANCH   1   2
BRANCH   1  35
ATOM     35  C   UNL     1      -2.253   0.117   9.341  1.00  0.00     0.188 C 
BRANCH  35  36
ATOM     36  O   UNL     1      -0.920   0.054   9.857  1.00  0.00    -0.376 OA
BRANCH  36  37
ATOM     37  C   UNL     1       0.032  -0.897   9.389  1.00  0.00     0.202 C 
BRANCH  37  38
ATOM     38  C   UNL     1      -0.144  -2.338   9.790  1.00  0.00     0.261 C 
BRANCH  38  39
ATOM     39  O   UNL     1      -1.046  -2.901   8.851  1.00  0.00    -0.460 OA
BRANCH  39  40
ATOM     40  C   UNL     1      -2.321  -3.027   9.238  1.00  0.00     0.338 C 
ATOM     41  O   UNL     1      -2.795  -2.774  10.342  1.00  0.00    -0.246 OA
BRANCH  40  42
ATOM     42  C   UNL     1      -3.011  -3.735   8.163  1.00  0.00     0.060 A 
ATOM     43  C   UNL     1      -3.983  -4.601   8.631  1.00  0.00     0.016 A 
ATOM     44  C   UNL     1      -2.365  -3.921   6.929  1.00  0.00     0.016 A 
ATOM     45  C   UNL     1      -4.029  -5.838   8.050  1.00  0.00     0.010 A 
ATOM     46  C   UNL     1      -2.387  -5.172   6.364  1.00  0.00     0.010 A 
ATOM     47  C   UNL     1      -3.156  -6.141   6.989  1.00  0.00    -0.014 A 
BRANCH  47  48
ATOM     48  C   UNL     1      -3.382  -7.405   6.336  1.00  0.00     0.031 A 
ATOM     49  C   UNL     1      -4.647  -7.316   5.584  1.00  0.00     0.074 A 
ATOM     50  C   UNL     1      -2.619  -8.504   6.438  1.00  0.00     0.049 A 
ATOM     51  N   UNL     1      -5.799  -7.690   6.031  1.00  0.00    -0.248 NA
ATOM     52  C   UNL     1      -4.706  -6.444   4.402  1.00  0.00     0.031 C 
ATOM     53  C   UNL     1      -1.255  -8.640   6.940  1.00  0.00     0.029 A 
ATOM     54  N   UNL     1      -2.915  -9.755   5.998  1.00  0.00    -0.354 N 
ATOM     55  C   UNL     1      -6.685  -7.362   5.023  1.00  0.00     0.074 A 
ATOM     56  C   UNL     1      -6.024  -6.382   4.202  1.00  0.00     0.031 C 
ATOM     57  C   UNL     1      -0.764  -9.842   6.549  1.00  0.00     0.029 A 
ATOM     58  C   UNL     1      -1.819 -10.602   5.897  1.00  0.00     0.049 A 
ATOM     59  H   UNL     1      -3.830 -10.039   5.771  1.00  0.00     0.167 HD
ATOM     60  C   UNL     1      -7.712  -8.206   4.750  1.00  0.00     0.034 A 
ATOM     61  C   UNL     1      -1.794 -11.794   5.246  1.00  0.00     0.034 A 
ATOM     62  C   UNL     1      -7.998  -9.066   5.876  1.00  0.00     0.049 A 
ATOM     63  C   UNL     1      -3.195 -12.277   5.163  1.00  0.00     0.074 A 
ATOM     64  C   UNL     1      -8.263  -8.850   7.216  1.00  0.00     0.029 A 
ATOM     65  N   UNL     1      -7.591 -10.375   5.778  1.00  0.00    -0.354 N 
ATOM     66  N   UNL     1      -3.884 -12.652   6.204  1.00  0.00    -0.248 NA
ATOM     67  C   UNL     1      -3.976 -11.911   3.992  1.00  0.00     0.031 C 
ATOM     68  C   UNL     1      -7.555  -9.879   7.904  1.00  0.00     0.029 A 
ATOM     69  C   UNL     1      -6.973 -10.716   6.951  1.00  0.00     0.049 A 
ATOM     70  H   UNL     1      -7.722 -10.965   5.001  1.00  0.00     0.167 HD
ATOM     71  C   UNL     1      -5.140 -12.099   5.992  1.00  0.00     0.074 A 
ATOM     72  C   UNL     1      -5.168 -11.747   4.573  1.00  0.00     0.031 C 
ATOM     73  C   UNL     1      -5.920 -11.704   7.041  1.00  0.00     0.034 A 
BRANCH  60  74
ATOM     74  C   UNL     1      -8.105  -8.560   3.339  1.00  0.00     0.023 A 
ATOM     75  C   UNL     1      -9.263  -9.342   3.172  1.00  0.00     0.012 A 
ATOM     76  C   UNL     1      -7.262  -8.411   2.211  1.00  0.00     0.148 A 
ATOM     77  C   UNL     1      -9.543  -9.975   1.957  1.00  0.00     0.002 A 
ATOM     78  C   UNL     1      -7.596  -8.951   0.981  1.00  0.00     0.091 A 
ATOM     79  F   UNL     1      -6.045  -7.878   2.337  1.00  0.00    -0.205 F 
ATOM     80  C   UNL     1      -8.718  -9.767   0.856  1.00  0.00     0.022 A 
BRANCH  78  81
ATOM     81  S   UNL     1      -6.589  -8.648  -0.476  1.00  0.00     0.127 S 
ATOM     82  O   UNL     1      -5.982  -9.958  -0.689  1.00  0.00    -0.237 OA
ATOM     83  O   UNL     1      -7.603  -8.262  -1.458  1.00  0.00    -0.237 OA
ATOM     84  O   UNL     1      -5.677  -7.571  -0.110  1.00  0.00    -0.744 OA
ENDBRANCH  78  81
ENDBRANCH  60  74
BRANCH  61  85
ATOM     85  C   UNL     1      -0.716 -12.417   4.438  1.00  0.00     0.023 A 
ATOM     86  C   UNL     1      -0.831 -13.769   4.048  1.00  0.00     0.012 A 
ATOM     87  C   UNL     1       0.261 -11.625   3.797  1.00  0.00     0.148 A 
ATOM     88  C   UNL     1      -0.033 -14.299   3.026  1.00  0.00     0.002 A 
ATOM     89  C   UNL     1       1.056 -12.158   2.787  1.00  0.00     0.091 A 
ATOM     90  F   UNL     1       0.346 -10.326   4.106  1.00  0.00    -0.205 F 
ATOM     91  C   UNL     1       0.903 -13.491   2.388  1.00  0.00     0.022 A 
BRANCH  89  92
ATOM     92  S   UNL     1       2.267 -11.164   1.904  1.00  0.00     0.127 S 
ATOM     93  O   UNL     1       3.454 -12.019   1.952  1.00  0.00    -0.237 OA
ATOM     94  O   UNL     1       1.655 -11.040   0.584  1.00  0.00    -0.237 OA
ATOM     95  O   UNL     1       2.394  -9.924   2.660  1.00  0.00    -0.744 OA
ENDBRANCH  89  92
ENDBRANCH  61  85
BRANCH  73  96
ATOM     96  C   UNL     1      -5.538 -12.151   8.429  1.00  0.00     0.023 A 
ATOM     97  C   UNL     1      -4.318 -11.802   9.047  1.00  0.00     0.012 A 
ATOM     98  C   UNL     1      -6.518 -12.812   9.189  1.00  0.00     0.148 A 
ATOM     99  C   UNL     1      -4.078 -12.127  10.386  1.00  0.00     0.002 A 
ATOM    100  C   UNL     1      -6.297 -13.087  10.531  1.00  0.00     0.091 A 
ATOM    101  F   UNL     1      -7.670 -13.140   8.585  1.00  0.00    -0.205 F 
ATOM    102  C   UNL     1      -5.073 -12.756  11.133  1.00  0.00     0.022 A 
BRANCH 100 103
ATOM    103  S   UNL     1      -7.587 -13.782  11.564  1.00  0.00     0.127 S 
ATOM    104  O   UNL     1      -7.130 -15.159  11.737  1.00  0.00    -0.237 OA
ATOM    105  O   UNL     1      -7.506 -12.954  12.768  1.00  0.00    -0.237 OA
ATOM    106  O   UNL     1      -8.829 -13.623  10.818  1.00  0.00    -0.744 OA
ENDBRANCH 100 103
ENDBRANCH  73  96
ENDBRANCH  47  48
ENDBRANCH  40  42
ENDBRANCH  39  40
ENDBRANCH  38  39
ENDBRANCH  37  38
ENDBRANCH  36  37
ENDBRANCH  35  36
ENDBRANCH   1  35
TORSDOF 26
