REMARK SMILES C[C@]12CCC[C@](C)(C(=O)OCCOCCOCCOCCOC(=O)c3ccc(-c4c5nc(c(-c6cccc(S(=O)(=O)[O-])c6F)c6ccc([nH]6)c(-c6cccc(S(=O)(=O)[O-])c6F)c6nc(c(-c7cccc(S(=O)(=O)[O-])c7F)c7ccc4[nH]7)C=C6)C=C5)cc3)[C@@H]1CC[C@]13C=C(CO)[C@H](CC[C@H]12)C3
REMARK SMILES IDX 17 1 16 2 15 3 14 4 13 5 12 6 11 7 10 8 8 9 9 10 6 11 1 12
REMARK SMILES IDX 2 13 3 14 88 15 99 16 4 17 89 18 91 19 98 20 5 21 7 22 90 23
REMARK SMILES IDX 92 24 100 25 97 26 93 27 96 28 94 29 95 30 18 32 19 33 20 34
REMARK SMILES IDX 21 35 22 36 23 37 24 38 25 39 26 40 87 41 27 42 86 43 28 44
REMARK SMILES IDX 29 45 30 46 80 47 31 48 85 49 79 50 81 51 32 52 84 53 78 54
REMARK SMILES IDX 77 55 33 57 65 58 45 59 64 60 46 61 49 62 63 63 82 64 47 65
REMARK SMILES IDX 48 66 62 68 83 69 50 70 34 71 35 72 43 73 36 74 38 75 44 76
REMARK SMILES IDX 37 77 39 78 40 79 41 80 42 81 66 82 67 83 75 84 68 85 70 86
REMARK SMILES IDX 76 87 69 88 71 89 72 90 73 91 74 92 51 93 52 94 60 95 53 96
REMARK SMILES IDX 55 97 61 98 54 99 56 100 57 101 58 102 59 103
REMARK H PARENT 95 31 81 56 49 67
REMARK Flexibility Score: inf
ROOT
ATOM      1  C   UNL     1       5.960  -3.787   0.334  1.00  0.00     0.188 C 
ENDROOT
BRANCH   1   2
ATOM      2  O   UNL     1       4.640  -3.746   0.862  1.00  0.00    -0.377 OA
BRANCH   2   3
ATOM      3  C   UNL     1       3.555  -3.599  -0.043  1.00  0.00     0.188 C 
BRANCH   3   4
ATOM      4  C   UNL     1       3.777  -2.736  -1.294  1.00  0.00     0.188 C 
BRANCH   4   5
ATOM      5  O   UNL     1       4.856  -1.812  -1.214  1.00  0.00    -0.376 OA
BRANCH   5   6
ATOM      6  C   UNL     1       4.705  -0.599  -0.484  1.00  0.00     0.202 C 
BRANCH   6   7
ATOM      7  C   UNL     1       4.536  -0.656   1.062  1.00  0.00     0.261 C 
BRANCH   7   8
ATOM      8  O   UNL     1       3.263  -0.975   1.699  1.00  0.00    -0.463 OA
BRANCH   8   9
ATOM      9  C   UNL     1       2.142  -0.918   0.966  1.00  0.00     0.312 C 
ATOM     10  O   UNL     1       2.157  -0.859  -0.256  1.00  0.00    -0.252 OA
BRANCH   9  11
ATOM     11  C   UNL     1       0.813  -0.852   1.704  1.00  0.00     0.069 C 
ATOM     12  C   UNL     1       2.107   1.809   0.850  1.00  0.00     0.012 C 
ATOM     13  C   UNL     1       0.533   1.623   0.993  1.00  0.00    -0.025 C 
ATOM     14  C   UNL     1       0.271   2.044   2.460  1.00  0.00     0.007 C 
ATOM     15  C   UNL     1      -0.071   0.163   0.883  1.00  0.00     0.012 C 
ATOM     16  C   UNL     1      -0.016   2.570  -0.110  1.00  0.00     0.005 C 
ATOM     17  C   UNL     1       0.999   1.115   3.458  1.00  0.00     0.002 C 
ATOM     18  C   UNL     1      -0.526  -0.356  -0.516  1.00  0.00     0.006 C 
ATOM     19  C   UNL     1      -0.336   1.949  -1.531  1.00  0.00    -0.008 C 
ATOM     20  C   UNL     1      -0.812   3.846   0.102  1.00  0.00     0.006 C 
ATOM     21  C   UNL     1       0.861  -0.392   3.183  1.00  0.00     0.019 C 
ATOM     22  C   UNL     1       0.261  -2.292   1.679  1.00  0.00     0.024 C 
ATOM     23  C   UNL     1      -1.145   0.676  -1.441  1.00  0.00     0.012 C 
ATOM     24  C   UNL     1       0.994   1.926  -2.240  1.00  0.00    -0.018 C 
ATOM     25  C   UNL     1      -0.996   2.978  -2.481  1.00  0.00     0.019 C 
ATOM     26  C   UNL     1      -0.281   4.826  -1.021  1.00  0.00     0.008 C 
ATOM     27  C   UNL     1       1.303   3.212  -2.528  1.00  0.00    -0.045 C 
ATOM     28  C   UNL     1       0.039   4.104  -2.387  1.00  0.00     0.018 C 
BRANCH  27  29
ATOM     29  C   UNL     1       2.673   3.741  -2.799  1.00  0.00     0.187 C 
BRANCH  29  30
ATOM     30  O   UNL     1       3.524   2.732  -3.331  1.00  0.00    -0.392 OA
ATOM     31  H   UNL     1       3.608   2.008  -2.690  1.00  0.00     0.211 HD
ENDBRANCH  29  30
ENDBRANCH  27  29
ENDBRANCH   9  11
ENDBRANCH   8   9
ENDBRANCH   7   8
ENDBRANCH   6   7
ENDBRANCH   5   6
ENDBRANCH   4   5
ENDBRANCH   3   4
ENDBRANCH   2   3
ENDBRANCH   1   2
BRANCH   1  32
ATOM     32  C   UNL     1       6.199  -4.566  -0.970  1.00  0.00     0.188 C 
BRANCH  32  33
ATOM     33  O   UNL     1       5.122  -5.413  -1.354  1.00  0.00    -0.376 OA
BRANCH  33  34
ATOM     34  C   UNL     1       5.187  -6.773  -0.957  1.00  0.00     0.202 C 
BRANCH  34  35
ATOM     35  C   UNL     1       5.108  -7.063   0.548  1.00  0.00     0.261 C 
BRANCH  35  36
ATOM     36  O   UNL     1       6.179  -6.558   1.359  1.00  0.00    -0.460 OA
BRANCH  36  37
ATOM     37  C   UNL     1       7.462  -6.810   0.992  1.00  0.00     0.338 C 
ATOM     38  O   UNL     1       7.844  -7.509   0.092  1.00  0.00    -0.246 OA
BRANCH  37  39
ATOM     39  C   UNL     1       8.308  -5.856   1.755  1.00  0.00     0.060 A 
ATOM     40  C   UNL     1       9.194  -5.030   1.046  1.00  0.00     0.016 A 
ATOM     41  C   UNL     1       8.147  -5.703   3.135  1.00  0.00     0.016 A 
ATOM     42  C   UNL     1       9.948  -4.073   1.725  1.00  0.00     0.010 A 
ATOM     43  C   UNL     1       8.927  -4.771   3.819  1.00  0.00     0.010 A 
ATOM     44  C   UNL     1       9.859  -3.984   3.121  1.00  0.00    -0.014 A 
BRANCH  44  45
ATOM     45  C   UNL     1      10.956  -3.333   3.871  1.00  0.00     0.031 A 
ATOM     46  C   UNL     1      12.149  -4.189   4.200  1.00  0.00     0.074 A 
ATOM     47  C   UNL     1      10.899  -2.051   4.272  1.00  0.00     0.049 A 
ATOM     48  N   UNL     1      13.236  -3.885   4.856  1.00  0.00    -0.248 NA
ATOM     49  C   UNL     1      12.106  -5.584   3.721  1.00  0.00     0.031 C 
ATOM     50  C   UNL     1       9.799  -1.125   4.015  1.00  0.00     0.029 A 
ATOM     51  N   UNL     1      11.795  -1.318   5.010  1.00  0.00    -0.354 N 
ATOM     52  C   UNL     1      13.995  -5.048   4.879  1.00  0.00     0.074 A 
ATOM     53  C   UNL     1      13.245  -6.069   4.185  1.00  0.00     0.031 C 
ATOM     54  C   UNL     1      10.070   0.048   4.618  1.00  0.00     0.029 A 
ATOM     55  C   UNL     1      11.352  -0.052   5.315  1.00  0.00     0.049 A 
ATOM     56  H   UNL     1      12.671  -1.665   5.295  1.00  0.00     0.167 HD
ATOM     57  C   UNL     1      15.217  -5.251   5.418  1.00  0.00     0.034 A 
ATOM     58  C   UNL     1      11.916   0.901   6.085  1.00  0.00     0.034 A 
ATOM     59  C   UNL     1      15.958  -4.243   6.118  1.00  0.00     0.049 A 
ATOM     60  C   UNL     1      13.263   0.636   6.716  1.00  0.00     0.074 A 
ATOM     61  C   UNL     1      17.219  -4.337   6.676  1.00  0.00     0.029 A 
ATOM     62  N   UNL     1      15.494  -2.963   6.375  1.00  0.00    -0.354 N 
ATOM     63  N   UNL     1      14.033  -0.421   6.612  1.00  0.00    -0.248 NA
ATOM     64  C   UNL     1      13.832   1.708   7.548  1.00  0.00     0.031 C 
ATOM     65  C   UNL     1      17.508  -3.116   7.294  1.00  0.00     0.029 A 
ATOM     66  C   UNL     1      16.437  -2.258   7.099  1.00  0.00     0.049 A 
ATOM     67  H   UNL     1      14.623  -2.609   6.085  1.00  0.00     0.167 HD
ATOM     68  C   UNL     1      15.187  -0.129   7.333  1.00  0.00     0.074 A 
ATOM     69  C   UNL     1      15.024   1.213   7.854  1.00  0.00     0.031 C 
ATOM     70  C   UNL     1      16.278  -0.903   7.558  1.00  0.00     0.034 A 
BRANCH  57  71
ATOM     71  C   UNL     1      15.824  -6.614   5.251  1.00  0.00     0.023 A 
ATOM     72  C   UNL     1      16.324  -7.002   3.991  1.00  0.00     0.012 A 
ATOM     73  C   UNL     1      15.915  -7.503   6.338  1.00  0.00     0.148 A 
ATOM     74  C   UNL     1      16.884  -8.265   3.809  1.00  0.00     0.002 A 
ATOM     75  C   UNL     1      16.512  -8.744   6.159  1.00  0.00     0.091 A 
ATOM     76  F   UNL     1      15.399  -7.127   7.517  1.00  0.00    -0.205 F 
ATOM     77  C   UNL     1      16.988  -9.131   4.895  1.00  0.00     0.022 A 
BRANCH  75  78
ATOM     78  S   UNL     1      16.752  -9.902   7.510  1.00  0.00     0.127 S 
ATOM     79  O   UNL     1      15.776 -10.941   7.184  1.00  0.00    -0.237 OA
ATOM     80  O   UNL     1      18.148 -10.299   7.331  1.00  0.00    -0.237 OA
ATOM     81  O   UNL     1      16.485  -9.155   8.731  1.00  0.00    -0.744 OA
ENDBRANCH  75  78
ENDBRANCH  57  71
BRANCH  58  82
ATOM     82  C   UNL     1      11.231   2.211   6.283  1.00  0.00     0.023 A 
ATOM     83  C   UNL     1      11.788   3.379   5.725  1.00  0.00     0.012 A 
ATOM     84  C   UNL     1      10.035   2.309   7.021  1.00  0.00     0.148 A 
ATOM     85  C   UNL     1      11.185   4.622   5.924  1.00  0.00     0.002 A 
ATOM     86  C   UNL     1       9.411   3.543   7.172  1.00  0.00     0.091 A 
ATOM     87  F   UNL     1       9.531   1.192   7.565  1.00  0.00    -0.205 F 
ATOM     88  C   UNL     1       9.993   4.703   6.639  1.00  0.00     0.022 A 
BRANCH  86  89
ATOM     89  S   UNL     1       7.813   3.724   7.973  1.00  0.00     0.127 S 
ATOM     90  O   UNL     1       8.174   4.407   9.212  1.00  0.00    -0.237 OA
ATOM     91  O   UNL     1       7.083   4.545   7.006  1.00  0.00    -0.237 OA
ATOM     92  O   UNL     1       7.293   2.372   8.122  1.00  0.00    -0.744 OA
ENDBRANCH  86  89
ENDBRANCH  58  82
BRANCH  70  93
ATOM     93  C   UNL     1      17.401  -0.321   8.377  1.00  0.00     0.023 A 
ATOM     94  C   UNL     1      17.250  -0.182   9.770  1.00  0.00     0.012 A 
ATOM     95  C   UNL     1      18.640  -0.012   7.780  1.00  0.00     0.148 A 
ATOM     96  C   UNL     1      18.306   0.280  10.554  1.00  0.00     0.002 A 
ATOM     97  C   UNL     1      19.703   0.402   8.573  1.00  0.00     0.091 A 
ATOM     98  F   UNL     1      18.758  -0.138   6.450  1.00  0.00    -0.205 F 
ATOM     99  C   UNL     1      19.535   0.559   9.959  1.00  0.00     0.022 A 
BRANCH  97 100
ATOM    100  S   UNL     1      21.347   0.686   7.907  1.00  0.00     0.127 S 
ATOM    101  O   UNL     1      21.434   2.144   7.940  1.00  0.00    -0.237 OA
ATOM    102  O   UNL     1      22.200   0.001   8.878  1.00  0.00    -0.237 OA
ATOM    103  O   UNL     1      21.348   0.089   6.578  1.00  0.00    -0.744 OA
ENDBRANCH  97 100
ENDBRANCH  70  93
ENDBRANCH  44  45
ENDBRANCH  37  39
ENDBRANCH  36  37
ENDBRANCH  35  36
ENDBRANCH  34  35
ENDBRANCH  33  34
ENDBRANCH  32  33
ENDBRANCH   1  32
TORSDOF 25
