REMARK SMILES Cc1ccccc1NC(=O)CSc1nc(C(=O)OCCOCCOCCOCCOC(=O)c2ccc(-c3c4nc(c(-c5cccc(S(=O)(=O)[O-])c5F)c5ccc([nH]5)c(-c5cccc(S(=O)(=O)[O-])c5F)c5nc(c(-c6cccc(S(=O)(=O)[O-])c6F)c6ccc3[nH]6)C=C5)C=C4)cc2)c2ccccc2n1
REMARK SMILES IDX 23 1 22 2 21 3 20 4 19 5 18 6 16 7 17 8 15 9 13 10 14 11
REMARK SMILES IDX 102 12 101 13 96 14 100 15 97 16 99 17 98 18 12 19 11 20
REMARK SMILES IDX 9 21 8 22 10 24 7 25 1 26 2 27 3 28 4 29 6 30 5 31 24 32
REMARK SMILES IDX 25 33 26 34 27 35 28 36 29 37 30 38 31 39 32 40 33 41 34 42
REMARK SMILES IDX 95 43 35 44 94 45 36 46 37 47 38 48 88 49 39 50 93 51 87 52
REMARK SMILES IDX 89 53 40 54 92 55 86 56 85 57 41 59 73 60 53 61 72 62 54 63
REMARK SMILES IDX 57 64 71 65 90 66 55 67 56 68 70 70 91 71 58 72 42 73 43 74
REMARK SMILES IDX 51 75 44 76 46 77 52 78 45 79 47 80 48 81 49 82 50 83 74 84
REMARK SMILES IDX 75 85 83 86 76 87 78 88 84 89 77 90 79 91 80 92 81 93 82 94
REMARK SMILES IDX 59 95 60 96 68 97 61 98 63 99 69 100 62 101 64 102 65 103
REMARK SMILES IDX 66 104 67 105
REMARK H PARENT 8 23 89 58 57 69
REMARK Flexibility Score: inf
ROOT
ATOM      1  C   UNL     1      -3.927   4.856  -4.894  1.00  0.00     0.188 C 
ENDROOT
BRANCH   1   2
ATOM      2  C   UNL     1      -3.769   5.105  -3.388  1.00  0.00     0.188 C 
BRANCH   2   3
ATOM      3  O   UNL     1      -4.177   6.358  -2.863  1.00  0.00    -0.376 OA
BRANCH   3   4
ATOM      4  C   UNL     1      -3.213   7.413  -2.915  1.00  0.00     0.202 C 
BRANCH   4   5
ATOM      5  C   UNL     1      -1.838   7.075  -2.343  1.00  0.00     0.261 C 
BRANCH   5   6
ATOM      6  O   UNL     1      -1.106   6.285  -3.304  1.00  0.00    -0.458 OA
BRANCH   6   7
ATOM      7  C   UNL     1      -0.050   5.630  -2.776  1.00  0.00     0.357 C 
ATOM      8  O   UNL     1       0.505   5.864  -1.720  1.00  0.00    -0.244 OA
BRANCH   7   9
ATOM      9  C   UNL     1       0.005   4.266  -3.335  1.00  0.00     0.160 A 
ATOM     10  C   UNL     1      -0.620   2.273  -2.542  1.00  0.00     0.189 A 
ATOM     11  N   UNL     1      -0.030   3.413  -2.307  1.00  0.00    -0.215 NA
ATOM     12  N   UNL     1      -0.629   1.696  -3.745  1.00  0.00    -0.222 NA
ATOM     13  C   UNL     1      -0.277   2.472  -4.784  1.00  0.00     0.076 A 
ATOM     14  C   UNL     1      -0.112   3.853  -4.655  1.00  0.00     0.034 A 
ATOM     15  C   UNL     1      -0.161   1.911  -6.050  1.00  0.00     0.029 A 
ATOM     16  C   UNL     1      -0.082   4.657  -5.813  1.00  0.00     0.013 A 
ATOM     17  C   UNL     1      -0.009   2.700  -7.193  1.00  0.00     0.002 A 
ATOM     18  C   UNL     1      -0.033   4.083  -7.078  1.00  0.00     0.001 A 
BRANCH  10  19
ATOM     19  S   UNL     1      -1.969   1.981  -1.425  1.00  0.00    -0.076 SA
BRANCH  19  20
ATOM     20  C   UNL     1      -1.563   3.199  -0.074  1.00  0.00     0.178 C 
BRANCH  20  21
ATOM     21  C   UNL     1      -0.144   3.148   0.508  1.00  0.00     0.234 C 
ATOM     22  N   UNL     1       0.575   1.996   0.663  1.00  0.00    -0.325 N 
ATOM     23  H   UNL     1       1.537   2.129   0.826  1.00  0.00     0.169 HD
ATOM     24  O   UNL     1       0.405   4.182   0.906  1.00  0.00    -0.274 OA
BRANCH  22  25
ATOM     25  C   UNL     1       0.165   0.658   0.626  1.00  0.00     0.044 A 
ATOM     26  C   UNL     1       2.502  -0.117  -0.108  1.00  0.00     0.046 C 
ATOM     27  C   UNL     1       1.042  -0.340   0.173  1.00  0.00    -0.027 A 
ATOM     28  C   UNL     1       0.528  -1.633  -0.035  1.00  0.00     0.005 A 
ATOM     29  C   UNL     1      -0.813  -1.929   0.217  1.00  0.00     0.000 A 
ATOM     30  C   UNL     1      -1.136   0.310   1.011  1.00  0.00     0.026 A 
ATOM     31  C   UNL     1      -1.641  -0.961   0.765  1.00  0.00     0.002 A 
ENDBRANCH  22  25
ENDBRANCH  20  21
ENDBRANCH  19  20
ENDBRANCH  10  19
ENDBRANCH   7   9
ENDBRANCH   6   7
ENDBRANCH   5   6
ENDBRANCH   4   5
ENDBRANCH   3   4
ENDBRANCH   2   3
ENDBRANCH   1   2
BRANCH   1  32
ATOM     32  O   UNL     1      -3.112   5.583  -5.799  1.00  0.00    -0.377 OA
BRANCH  32  33
ATOM     33  C   UNL     1      -3.650   6.736  -6.462  1.00  0.00     0.188 C 
BRANCH  33  34
ATOM     34  C   UNL     1      -5.166   6.836  -6.649  1.00  0.00     0.188 C 
BRANCH  34  35
ATOM     35  O   UNL     1      -5.773   7.123  -5.392  1.00  0.00    -0.376 OA
BRANCH  35  36
ATOM     36  C   UNL     1      -7.083   6.610  -5.180  1.00  0.00     0.202 C 
BRANCH  36  37
ATOM     37  C   UNL     1      -8.145   7.154  -6.141  1.00  0.00     0.261 C 
BRANCH  37  38
ATOM     38  O   UNL     1      -8.382   8.547  -5.874  1.00  0.00    -0.460 OA
BRANCH  38  39
ATOM     39  C   UNL     1      -7.867   9.390  -6.813  1.00  0.00     0.338 C 
ATOM     40  O   UNL     1      -8.173   9.367  -7.991  1.00  0.00    -0.246 OA
BRANCH  39  41
ATOM     41  C   UNL     1      -6.742  10.172  -6.223  1.00  0.00     0.060 A 
ATOM     42  C   UNL     1      -5.880  10.901  -7.053  1.00  0.00     0.016 A 
ATOM     43  C   UNL     1      -6.380   9.935  -4.902  1.00  0.00     0.016 A 
ATOM     44  C   UNL     1      -4.585  11.229  -6.614  1.00  0.00     0.010 A 
ATOM     45  C   UNL     1      -5.072  10.166  -4.521  1.00  0.00     0.010 A 
ATOM     46  C   UNL     1      -4.137  10.775  -5.379  1.00  0.00    -0.014 A 
BRANCH  46  47
ATOM     47  C   UNL     1      -2.732  10.727  -4.911  1.00  0.00     0.031 A 
ATOM     48  C   UNL     1      -2.449  11.079  -3.463  1.00  0.00     0.074 A 
ATOM     49  C   UNL     1      -1.873   9.893  -5.554  1.00  0.00     0.049 A 
ATOM     50  N   UNL     1      -1.399  10.740  -2.787  1.00  0.00    -0.248 NA
ATOM     51  C   UNL     1      -3.379  11.860  -2.648  1.00  0.00     0.031 C 
ATOM     52  C   UNL     1      -0.964   9.009  -4.845  1.00  0.00     0.029 A 
ATOM     53  N   UNL     1      -1.613   9.581  -6.900  1.00  0.00    -0.354 N 
ATOM     54  C   UNL     1      -1.641  10.955  -1.444  1.00  0.00     0.074 A 
ATOM     55  C   UNL     1      -2.846  11.742  -1.426  1.00  0.00     0.031 C 
ATOM     56  C   UNL     1      -0.216   8.309  -5.689  1.00  0.00     0.029 A 
ATOM     57  C   UNL     1      -0.344   8.965  -6.952  1.00  0.00     0.049 A 
ATOM     58  H   UNL     1      -2.206   9.759  -7.665  1.00  0.00     0.167 HD
ATOM     59  C   UNL     1      -0.856  10.351  -0.501  1.00  0.00     0.034 A 
ATOM     60  C   UNL     1       0.778   9.343  -7.631  1.00  0.00     0.034 A 
ATOM     61  C   UNL     1       0.356   9.729  -1.091  1.00  0.00     0.049 A 
ATOM     62  C   UNL     1       1.973   9.592  -6.705  1.00  0.00     0.074 A 
ATOM     63  C   UNL     1       0.977   8.503  -0.943  1.00  0.00     0.029 A 
ATOM     64  N   UNL     1       1.104  10.397  -2.070  1.00  0.00    -0.354 N 
ATOM     65  N   UNL     1       1.844   9.713  -5.403  1.00  0.00    -0.248 NA
ATOM     66  C   UNL     1       3.377   9.689  -7.097  1.00  0.00     0.031 C 
ATOM     67  C   UNL     1       2.000   8.384  -1.925  1.00  0.00     0.029 A 
ATOM     68  C   UNL     1       2.098   9.590  -2.594  1.00  0.00     0.049 A 
ATOM     69  H   UNL     1       0.941  11.326  -2.351  1.00  0.00     0.167 HD
ATOM     70  C   UNL     1       3.047   9.914  -4.793  1.00  0.00     0.074 A 
ATOM     71  C   UNL     1       3.984   9.883  -5.906  1.00  0.00     0.031 C 
ATOM     72  C   UNL     1       3.159  10.123  -3.442  1.00  0.00     0.034 A 
BRANCH  59  73
ATOM     73  C   UNL     1      -1.216  10.156   0.996  1.00  0.00     0.023 A 
ATOM     74  C   UNL     1      -0.238   9.560   1.833  1.00  0.00     0.012 A 
ATOM     75  C   UNL     1      -2.459  10.416   1.635  1.00  0.00     0.148 A 
ATOM     76  C   UNL     1      -0.477   9.194   3.167  1.00  0.00     0.002 A 
ATOM     77  C   UNL     1      -2.668  10.140   3.000  1.00  0.00     0.091 A 
ATOM     78  F   UNL     1      -3.496  10.864   0.925  1.00  0.00    -0.205 F 
ATOM     79  C   UNL     1      -1.689   9.497   3.759  1.00  0.00     0.022 A 
BRANCH  77  80
ATOM     80  S   UNL     1      -4.172  10.606   3.887  1.00  0.00     0.127 S 
ATOM     81  O   UNL     1      -4.705   9.310   4.306  1.00  0.00    -0.237 OA
ATOM     82  O   UNL     1      -3.650  11.427   4.980  1.00  0.00    -0.237 OA
ATOM     83  O   UNL     1      -5.002  11.332   2.933  1.00  0.00    -0.744 OA
ENDBRANCH  77  80
ENDBRANCH  59  73
BRANCH  60  84
ATOM     84  C   UNL     1       0.535   9.645  -9.068  1.00  0.00     0.023 A 
ATOM     85  C   UNL     1       0.237   8.485  -9.826  1.00  0.00     0.012 A 
ATOM     86  C   UNL     1      -0.152  10.833  -9.361  1.00  0.00     0.148 A 
ATOM     87  C   UNL     1      -0.922   8.430 -10.604  1.00  0.00     0.002 A 
ATOM     88  C   UNL     1      -1.337  10.759 -10.095  1.00  0.00     0.091 A 
ATOM     89  F   UNL     1       0.239  11.958  -8.749  1.00  0.00    -0.205 F 
ATOM     90  C   UNL     1      -1.746   9.548 -10.678  1.00  0.00     0.022 A 
BRANCH  88  91
ATOM     91  S   UNL     1      -2.560  12.077  -9.975  1.00  0.00     0.127 S 
ATOM     92  O   UNL     1      -2.351  12.808 -11.218  1.00  0.00    -0.237 OA
ATOM     93  O   UNL     1      -3.814  11.328  -9.893  1.00  0.00    -0.237 OA
ATOM     94  O   UNL     1      -2.216  12.772  -8.743  1.00  0.00    -0.744 OA
ENDBRANCH  88  91
ENDBRANCH  60  84
BRANCH  72  95
ATOM     95  C   UNL     1       4.309  10.836  -2.734  1.00  0.00     0.023 A 
ATOM     96  C   UNL     1       5.271  11.568  -3.450  1.00  0.00     0.012 A 
ATOM     97  C   UNL     1       4.334  10.981  -1.312  1.00  0.00     0.148 A 
ATOM     98  C   UNL     1       6.214  12.378  -2.809  1.00  0.00     0.002 A 
ATOM     99  C   UNL     1       5.210  11.861  -0.687  1.00  0.00     0.091 A 
ATOM    100  F   UNL     1       3.512  10.262  -0.540  1.00  0.00    -0.205 F 
ATOM    101  C   UNL     1       6.167  12.547  -1.433  1.00  0.00     0.022 A 
BRANCH  99 102
ATOM    102  S   UNL     1       5.069  12.279   1.061  1.00  0.00     0.127 S 
ATOM    103  O   UNL     1       6.213  11.568   1.629  1.00  0.00    -0.237 OA
ATOM    104  O   UNL     1       5.211  13.736   1.035  1.00  0.00    -0.237 OA
ATOM    105  O   UNL     1       3.757  11.812   1.485  1.00  0.00    -0.744 OA
ENDBRANCH  99 102
ENDBRANCH  72  95
ENDBRANCH  46  47
ENDBRANCH  39  41
ENDBRANCH  38  39
ENDBRANCH  37  38
ENDBRANCH  36  37
ENDBRANCH  35  36
ENDBRANCH  34  35
ENDBRANCH  33  34
ENDBRANCH  32  33
ENDBRANCH   1  32
TORSDOF 27
