REMARK SMILES CCOC(=O)C1=NN(c2ccc([N+](=O)[O-])cc2C(F)(F)F)[C@@](C)(C(=O)OCCOCCOCCOCCOC(=O)c2ccc(-c3c4nc(c(-c5cccc(S(=O)(=O)[O-])c5F)c5ccc([nH]5)c(-c5cccc(S(=O)(=O)[O-])c5F)c5nc(c(-c6cccc(S(=O)(=O)[O-])c6F)c6ccc3[nH]6)C=C5)C=C4)cc2)C1
REMARK SMILES IDX 32 1 31 2 30 3 29 4 28 5 27 6 26 7 24 8 25 9 22 10 6 11 7 12
REMARK SMILES IDX 104 13 8 14 23 15 4 16 5 17 3 18 2 19 1 20 9 21 10 22 17 23
REMARK SMILES IDX 11 24 16 25 12 26 18 27 19 28 20 29 21 30 13 31 14 32 15 33
REMARK SMILES IDX 33 34 34 35 35 36 36 37 37 38 38 39 39 40 40 41 41 42 42 43
REMARK SMILES IDX 103 44 43 45 102 46 44 47 45 48 46 49 96 50 47 51 101 52
REMARK SMILES IDX 95 53 97 54 48 55 100 56 94 57 93 58 49 60 81 61 61 62 80 63
REMARK SMILES IDX 62 64 65 65 79 66 98 67 63 68 64 69 78 71 99 72 66 73 50 74
REMARK SMILES IDX 51 75 59 76 52 77 54 78 60 79 53 80 55 81 56 82 57 83 58 84
REMARK SMILES IDX 82 85 83 86 91 87 84 88 86 89 92 90 85 91 87 92 88 93 89 94
REMARK SMILES IDX 90 95 67 96 68 97 76 98 69 99 71 100 77 101 70 102 72 103
REMARK SMILES IDX 73 104 74 105 75 106
REMARK H PARENT 97 59 65 70
REMARK Flexibility Score: inf
ROOT
ATOM      1  O   UNL     1       5.491  -6.133   4.584  1.00  0.00    -0.377 OA
ENDROOT
BRANCH   1   2
ATOM      2  C   UNL     1       4.847  -5.131   3.809  1.00  0.00     0.188 C 
BRANCH   2   3
ATOM      3  C   UNL     1       5.770  -4.403   2.821  1.00  0.00     0.188 C 
BRANCH   3   4
ATOM      4  O   UNL     1       7.024  -3.886   3.276  1.00  0.00    -0.376 OA
BRANCH   4   5
ATOM      5  C   UNL     1       7.697  -4.579   4.317  1.00  0.00     0.202 C 
BRANCH   5   6
ATOM      6  C   UNL     1       7.394  -4.011   5.719  1.00  0.00     0.261 C 
BRANCH   6   7
ATOM      7  O   UNL     1       6.046  -3.531   5.935  1.00  0.00    -0.461 OA
BRANCH   7   8
ATOM      8  C   UNL     1       5.786  -2.304   5.414  1.00  0.00     0.334 C 
ATOM      9  O   UNL     1       6.639  -1.616   4.849  1.00  0.00    -0.249 OA
BRANCH   8  10
ATOM     10  C   UNL     1       4.387  -1.727   5.729  1.00  0.00     0.163 C 
ATOM     11  C   UNL     1       3.014  -1.807   3.860  1.00  0.00     0.149 C 
ATOM     12  N   UNL     1       2.561  -2.767   4.601  1.00  0.00    -0.169 NA
ATOM     13  C   UNL     1       3.975  -0.869   4.503  1.00  0.00     0.108 C 
ATOM     14  N   UNL     1       3.223  -2.678   5.807  1.00  0.00    -0.247 N 
ATOM     15  C   UNL     1       4.640  -0.872   6.961  1.00  0.00     0.050 C 
BRANCH  11  16
ATOM     16  C   UNL     1       2.609  -1.625   2.422  1.00  0.00     0.354 C 
ATOM     17  O   UNL     1       3.422  -1.715   1.520  1.00  0.00    -0.245 OA
BRANCH  16  18
ATOM     18  O   UNL     1       1.289  -1.380   2.326  1.00  0.00    -0.461 OA
BRANCH  18  19
ATOM     19  C   UNL     1       0.771  -1.348   0.987  1.00  0.00     0.230 C 
ATOM     20  C   UNL     1       0.988   0.013   0.350  1.00  0.00     0.049 C 
ENDBRANCH  18  19
ENDBRANCH  16  18
ENDBRANCH  11  16
BRANCH  14  21
ATOM     21  C   UNL     1       2.668  -3.444   6.827  1.00  0.00     0.073 A 
ATOM     22  C   UNL     1       2.513  -4.837   6.596  1.00  0.00     0.036 A 
ATOM     23  C   UNL     1       2.038  -2.940   7.984  1.00  0.00     0.088 A 
ATOM     24  C   UNL     1       1.849  -5.706   7.472  1.00  0.00     0.088 A 
ATOM     25  C   UNL     1       1.425  -3.829   8.912  1.00  0.00     0.101 A 
ATOM     26  C   UNL     1       1.315  -5.195   8.645  1.00  0.00     0.270 A 
BRANCH  23  27
ATOM     27  C   UNL     1       1.820  -1.474   8.258  1.00  0.00     0.418 C 
ATOM     28  F   UNL     1       0.649  -1.232   8.923  1.00  0.00    -0.166 F 
ATOM     29  F   UNL     1       2.787  -0.935   9.051  1.00  0.00    -0.166 F 
ATOM     30  F   UNL     1       1.744  -0.690   7.146  1.00  0.00    -0.166 F 
ENDBRANCH  23  27
BRANCH  26  31
ATOM     31  N   UNL     1       0.539  -6.061   9.543  1.00  0.00     0.062 N 
ATOM     32  O   UNL     1       0.280  -7.208   9.155  1.00  0.00    -0.258 OA
ATOM     33  O   UNL     1       0.145  -5.570  10.611  1.00  0.00    -0.258 OA
ENDBRANCH  26  31
ENDBRANCH  14  21
ENDBRANCH   8  10
ENDBRANCH   7   8
ENDBRANCH   6   7
ENDBRANCH   5   6
ENDBRANCH   4   5
ENDBRANCH   3   4
ENDBRANCH   2   3
ENDBRANCH   1   2
BRANCH   1  34
ATOM     34  C   UNL     1       5.316  -7.472   4.154  1.00  0.00     0.188 C 
BRANCH  34  35
ATOM     35  C   UNL     1       5.625  -7.724   2.674  1.00  0.00     0.188 C 
BRANCH  35  36
ATOM     36  O   UNL     1       4.739  -7.021   1.801  1.00  0.00    -0.376 OA
BRANCH  36  37
ATOM     37  C   UNL     1       3.655  -7.756   1.244  1.00  0.00     0.202 C 
BRANCH  37  38
ATOM     38  C   UNL     1       2.472  -7.998   2.196  1.00  0.00     0.261 C 
BRANCH  38  39
ATOM     39  O   UNL     1       2.739  -8.852   3.322  1.00  0.00    -0.460 OA
BRANCH  39  40
ATOM     40  C   UNL     1       3.248 -10.074   3.071  1.00  0.00     0.338 C 
ATOM     41  O   UNL     1       3.404 -10.591   1.972  1.00  0.00    -0.246 OA
BRANCH  40  42
ATOM     42  C   UNL     1       3.808 -10.618   4.323  1.00  0.00     0.060 A 
ATOM     43  C   UNL     1       5.137 -11.060   4.312  1.00  0.00     0.016 A 
ATOM     44  C   UNL     1       3.041 -10.707   5.488  1.00  0.00     0.016 A 
ATOM     45  C   UNL     1       5.681 -11.655   5.447  1.00  0.00     0.010 A 
ATOM     46  C   UNL     1       3.583 -11.323   6.622  1.00  0.00     0.010 A 
ATOM     47  C   UNL     1       4.888 -11.843   6.586  1.00  0.00    -0.014 A 
BRANCH  47  48
ATOM     48  C   UNL     1       5.367 -12.782   7.629  1.00  0.00     0.031 A 
ATOM     49  C   UNL     1       4.924 -14.219   7.550  1.00  0.00     0.074 A 
ATOM     50  C   UNL     1       6.220 -12.388   8.591  1.00  0.00     0.049 A 
ATOM     51  N   UNL     1       5.298 -15.241   8.274  1.00  0.00    -0.248 NA
ATOM     52  C   UNL     1       3.930 -14.549   6.513  1.00  0.00     0.031 C 
ATOM     53  C   UNL     1       6.706 -11.024   8.787  1.00  0.00     0.029 A 
ATOM     54  N   UNL     1       6.817 -13.107   9.596  1.00  0.00    -0.354 N 
ATOM     55  C   UNL     1       4.573 -16.327   7.796  1.00  0.00     0.074 A 
ATOM     56  C   UNL     1       3.729 -15.840   6.729  1.00  0.00     0.031 C 
ATOM     57  C   UNL     1       7.508 -10.999   9.866  1.00  0.00     0.029 A 
ATOM     58  C   UNL     1       7.592 -12.343  10.436  1.00  0.00     0.049 A 
ATOM     59  H   UNL     1       6.702 -14.079   9.704  1.00  0.00     0.167 HD
ATOM     60  C   UNL     1       4.619 -17.619   8.196  1.00  0.00     0.034 A 
ATOM     61  C   UNL     1       8.283 -12.692  11.539  1.00  0.00     0.034 A 
ATOM     62  C   UNL     1       5.472 -18.109   9.243  1.00  0.00     0.049 A 
ATOM     63  C   UNL     1       8.332 -14.143  11.950  1.00  0.00     0.074 A 
ATOM     64  C   UNL     1       5.639 -19.413   9.676  1.00  0.00     0.029 A 
ATOM     65  N   UNL     1       6.287 -17.316  10.034  1.00  0.00    -0.354 N 
ATOM     66  N   UNL     1       7.775 -15.185  11.380  1.00  0.00    -0.248 NA
ATOM     67  C   UNL     1       9.146 -14.473  13.130  1.00  0.00     0.031 C 
ATOM     68  C   UNL     1       6.536 -19.404  10.749  1.00  0.00     0.029 A 
ATOM     69  C   UNL     1       6.949 -18.099  10.964  1.00  0.00     0.049 A 
ATOM     70  H   UNL     1       6.381 -16.340   9.948  1.00  0.00     0.167 HD
ATOM     71  C   UNL     1       8.196 -16.292  12.110  1.00  0.00     0.074 A 
ATOM     72  C   UNL     1       9.081 -15.797  13.143  1.00  0.00     0.031 C 
ATOM     73  C   UNL     1       7.867 -17.599  11.954  1.00  0.00     0.034 A 
BRANCH  60  74
ATOM     74  C   UNL     1       3.736 -18.605   7.482  1.00  0.00     0.023 A 
ATOM     75  C   UNL     1       4.072 -19.029   6.180  1.00  0.00     0.012 A 
ATOM     76  C   UNL     1       2.614 -19.162   8.125  1.00  0.00     0.148 A 
ATOM     77  C   UNL     1       3.293 -19.979   5.521  1.00  0.00     0.002 A 
ATOM     78  C   UNL     1       1.867 -20.139   7.478  1.00  0.00     0.091 A 
ATOM     79  F   UNL     1       2.298 -18.723   9.351  1.00  0.00    -0.205 F 
ATOM     80  C   UNL     1       2.200 -20.542   6.174  1.00  0.00     0.022 A 
BRANCH  78  81
ATOM     81  S   UNL     1       0.487 -20.980   8.261  1.00  0.00     0.127 S 
ATOM     82  O   UNL     1      -0.644 -20.474   7.485  1.00  0.00    -0.237 OA
ATOM     83  O   UNL     1       0.810 -22.386   8.022  1.00  0.00    -0.237 OA
ATOM     84  O   UNL     1       0.512 -20.578   9.661  1.00  0.00    -0.744 OA
ENDBRANCH  78  81
ENDBRANCH  60  74
BRANCH  61  85
ATOM     85  C   UNL     1       9.023 -11.658  12.318  1.00  0.00     0.023 A 
ATOM     86  C   UNL     1      10.431 -11.672  12.347  1.00  0.00     0.012 A 
ATOM     87  C   UNL     1       8.333 -10.664  13.038  1.00  0.00     0.148 A 
ATOM     88  C   UNL     1      11.136 -10.740  13.111  1.00  0.00     0.002 A 
ATOM     89  C   UNL     1       9.043  -9.703  13.748  1.00  0.00     0.091 A 
ATOM     90  F   UNL     1       6.992 -10.679  13.019  1.00  0.00    -0.205 F 
ATOM     91  C   UNL     1      10.444  -9.751  13.803  1.00  0.00     0.022 A 
BRANCH  89  92
ATOM     92  S   UNL     1       8.231  -8.317  14.552  1.00  0.00     0.127 S 
ATOM     93  O   UNL     1       8.295  -8.705  15.957  1.00  0.00    -0.237 OA
ATOM     94  O   UNL     1       9.099  -7.198  14.180  1.00  0.00    -0.237 OA
ATOM     95  O   UNL     1       6.899  -8.256  13.965  1.00  0.00    -0.744 OA
ENDBRANCH  89  92
ENDBRANCH  61  85
BRANCH  73  96
ATOM     96  C   UNL     1       8.488 -18.594  12.901  1.00  0.00     0.023 A 
ATOM     97  C   UNL     1       8.083 -18.623  14.251  1.00  0.00     0.012 A 
ATOM     98  C   UNL     1       9.434 -19.533  12.445  1.00  0.00     0.148 A 
ATOM     99  C   UNL     1       8.643 -19.540  15.140  1.00  0.00     0.002 A 
ATOM    100  C   UNL     1       9.950 -20.477  13.326  1.00  0.00     0.091 A 
ATOM    101  F   UNL     1       9.824 -19.482  11.163  1.00  0.00    -0.205 F 
ATOM    102  C   UNL     1       9.568 -20.472  14.677  1.00  0.00     0.022 A 
BRANCH 100 103
ATOM    103  S   UNL     1      11.070 -21.772  12.782  1.00  0.00     0.127 S 
ATOM    104  O   UNL     1      12.367 -21.238  13.191  1.00  0.00    -0.237 OA
ATOM    105  O   UNL     1      10.616 -22.929  13.556  1.00  0.00    -0.237 OA
ATOM    106  O   UNL     1      10.860 -21.895  11.346  1.00  0.00    -0.744 OA
ENDBRANCH 100 103
ENDBRANCH  73  96
ENDBRANCH  47  48
ENDBRANCH  40  42
ENDBRANCH  39  40
ENDBRANCH  38  39
ENDBRANCH  37  38
ENDBRANCH  36  37
ENDBRANCH  35  36
ENDBRANCH  34  35
ENDBRANCH   1  34
TORSDOF 29
