REMARK SMILES Cc1ccccc1/C=C1\SC(=O)N(CC(=O)Nc2ccccc2C(=O)OCCOCCOCCOCCOC(=O)c2ccc(-c3c4nc(c(-c5cccc(S(=O)(=O)[O-])c5F)c5ccc([nH]5)c(-c5cccc(S(=O)(=O)[O-])c5F)c5nc(c(-c6cccc(S(=O)(=O)[O-])c6F)c6ccc3[nH]6)C=C5)C=C4)cc2)C1=O
REMARK SMILES IDX 31 1 30 2 29 3 28 4 27 5 26 6 24 7 25 8 23 9 18 10 19 11
REMARK SMILES IDX 20 12 22 13 21 14 17 15 15 16 16 17 14 19 13 20 8 21 9 22
REMARK SMILES IDX 10 23 104 24 11 25 105 26 12 27 7 28 1 29 2 30 3 31 4 32
REMARK SMILES IDX 6 33 5 34 32 35 33 36 34 37 35 38 36 39 37 40 38 41 39 42
REMARK SMILES IDX 40 43 41 44 42 45 103 46 43 47 102 48 44 49 45 50 46 51
REMARK SMILES IDX 96 52 47 53 101 54 95 55 97 56 48 57 100 58 94 59 93 60
REMARK SMILES IDX 49 62 81 63 61 64 80 65 62 66 65 67 79 68 98 69 63 70 64 71
REMARK SMILES IDX 78 73 99 74 66 75 50 76 51 77 59 78 52 79 54 80 60 81 53 82
REMARK SMILES IDX 55 83 56 84 57 85 58 86 82 87 83 88 91 89 84 90 86 91 92 92
REMARK SMILES IDX 85 93 87 94 88 95 89 96 90 97 67 98 68 99 76 100 69 101
REMARK SMILES IDX 71 102 77 103 70 104 72 105 73 106 74 107 75 108
REMARK H PARENT 17 18 97 61 65 72
REMARK Flexibility Score: inf
ROOT
ATOM      1  C   UNL     1       6.388   4.279  -1.992  1.00  0.00     0.188 C 
ENDROOT
BRANCH   1   2
ATOM      2  C   UNL     1       5.755   4.572  -0.462  1.00  0.00     0.188 C 
BRANCH   2   3
ATOM      3  O   UNL     1       4.873   3.730   0.868  1.00  0.00    -0.376 OA
BRANCH   3   4
ATOM      4  C   UNL     1       3.505   2.546   0.884  1.00  0.00     0.202 C 
BRANCH   4   5
ATOM      5  C   UNL     1       2.179   2.113  -0.473  1.00  0.00     0.261 C 
BRANCH   5   6
ATOM      6  O   UNL     1       1.150   2.570  -1.972  1.00  0.00    -0.460 OA
BRANCH   6   7
ATOM      7  C   UNL     1       0.452   3.116  -3.356  1.00  0.00     0.340 C 
ATOM      8  O   UNL     1      -0.710   2.815  -3.699  1.00  0.00    -0.246 OA
BRANCH   7   9
ATOM      9  C   UNL     1       0.876   4.008  -4.699  1.00  0.00     0.083 A 
ATOM     10  C   UNL     1       1.033   5.430  -5.007  1.00  0.00     0.055 A 
ATOM     11  C   UNL     1       1.577   5.820  -6.254  1.00  0.00     0.027 A 
ATOM     12  C   UNL     1       1.773   4.918  -7.285  1.00  0.00     0.002 A 
ATOM     13  C   UNL     1       0.894   3.191  -5.856  1.00  0.00     0.018 A 
ATOM     14  C   UNL     1       1.360   3.615  -7.108  1.00  0.00     0.001 A 
BRANCH  10  15
ATOM     15  N   UNL     1       0.667   6.542  -4.169  1.00  0.00    -0.324 N 
ATOM     16  C   UNL     1       1.312   7.814  -4.189  1.00  0.00     0.244 C 
ATOM     17  O   UNL     1       1.244   8.607  -5.130  1.00  0.00    -0.273 OA
ATOM     18  H   UNL     1      -0.080   6.415  -3.539  1.00  0.00     0.170 HD
BRANCH  16  19
ATOM     19  C   UNL     1       2.195   8.162  -2.940  1.00  0.00     0.230 C 
BRANCH  19  20
ATOM     20  N   UNL     1       2.251   6.946  -2.186  1.00  0.00    -0.259 N 
ATOM     21  C   UNL     1       0.100   3.811  -0.325  1.00  0.00     0.029 C 
ATOM     22  C   UNL     1       0.819   4.854  -1.311  1.00  0.00     0.083 C 
ATOM     23  S   UNL     1       2.330   4.594  -2.429  1.00  0.00    -0.022 SA
ATOM     24  C   UNL     1       1.127   6.558  -1.454  1.00  0.00     0.268 C 
ATOM     25  C   UNL     1       3.084   6.046  -2.703  1.00  0.00     0.294 C 
ATOM     26  O   UNL     1       0.416   7.525  -1.218  1.00  0.00    -0.268 OA
ATOM     27  O   UNL     1       4.026   6.196  -3.453  1.00  0.00    -0.261 OA
BRANCH  21  28
ATOM     28  C   UNL     1      -0.477   2.301   0.593  1.00  0.00    -0.021 A 
ATOM     29  C   UNL     1       1.063   0.568   1.796  1.00  0.00     0.045 C 
ATOM     30  C   UNL     1       0.013   0.933   0.682  1.00  0.00    -0.044 A 
ATOM     31  C   UNL     1      -0.843  -0.218   0.685  1.00  0.00     0.004 A 
ATOM     32  C   UNL     1      -2.096  -0.095   1.218  1.00  0.00     0.000 A 
ATOM     33  C   UNL     1      -1.609   2.314   1.435  1.00  0.00     0.008 A 
ATOM     34  C   UNL     1      -2.412   1.156   1.718  1.00  0.00     0.001 A 
ENDBRANCH  21  28
ENDBRANCH  19  20
ENDBRANCH  16  19
ENDBRANCH  10  15
ENDBRANCH   7   9
ENDBRANCH   6   7
ENDBRANCH   5   6
ENDBRANCH   4   5
ENDBRANCH   3   4
ENDBRANCH   2   3
ENDBRANCH   1   2
BRANCH   1  35
ATOM     35  O   UNL     1       6.018   3.434  -3.088  1.00  0.00    -0.377 OA
BRANCH  35  36
ATOM     36  C   UNL     1       6.624   2.167  -3.381  1.00  0.00     0.188 C 
BRANCH  36  37
ATOM     37  C   UNL     1       8.125   2.044  -3.257  1.00  0.00     0.188 C 
BRANCH  37  38
ATOM     38  O   UNL     1       8.489   2.721  -2.082  1.00  0.00    -0.376 OA
BRANCH  38  39
ATOM     39  C   UNL     1       9.709   3.422  -2.105  1.00  0.00     0.202 C 
BRANCH  39  40
ATOM     40  C   UNL     1      10.802   2.466  -1.665  1.00  0.00     0.261 C 
BRANCH  40  41
ATOM     41  O   UNL     1      10.451   1.908  -0.372  1.00  0.00    -0.460 OA
BRANCH  41  42
ATOM     42  C   UNL     1       9.796   0.697  -0.422  1.00  0.00     0.338 C 
ATOM     43  O   UNL     1      10.237  -0.284  -0.997  1.00  0.00    -0.246 OA
BRANCH  42  44
ATOM     44  C   UNL     1       8.387   0.850   0.065  1.00  0.00     0.060 A 
ATOM     45  C   UNL     1       7.325   0.083  -0.419  1.00  0.00     0.016 A 
ATOM     46  C   UNL     1       8.053   1.974   0.754  1.00  0.00     0.016 A 
ATOM     47  C   UNL     1       5.998   0.633  -0.569  1.00  0.00     0.010 A 
ATOM     48  C   UNL     1       6.765   2.478   0.560  1.00  0.00     0.010 A 
ATOM     49  C   UNL     1       5.696   1.986  -0.334  1.00  0.00    -0.014 A 
BRANCH  49  50
ATOM     50  C   UNL     1       4.252   2.942  -1.086  1.00  0.00     0.031 A 
ATOM     51  C   UNL     1       3.294   4.478  -0.120  1.00  0.00     0.074 A 
ATOM     52  C   UNL     1       3.890   2.022  -2.171  1.00  0.00     0.049 A 
ATOM     53  N   UNL     1       2.060   4.548   0.543  1.00  0.00    -0.248 NA
ATOM     54  C   UNL     1       3.770   5.862   0.610  1.00  0.00     0.031 C 
ATOM     55  C   UNL     1       3.450   2.239  -3.576  1.00  0.00     0.029 A 
ATOM     56  N   UNL     1       3.333   0.658  -2.032  1.00  0.00    -0.354 N 
ATOM     57  C   UNL     1       1.502   5.847   1.088  1.00  0.00     0.074 A 
ATOM     58  C   UNL     1       2.772   6.497   1.259  1.00  0.00     0.031 C 
ATOM     59  C   UNL     1       2.508   1.344  -3.954  1.00  0.00     0.029 A 
ATOM     60  C   UNL     1       2.153   0.492  -2.850  1.00  0.00     0.049 A 
ATOM     61  H   UNL     1       3.716  -0.044  -1.457  1.00  0.00     0.167 HD
ATOM     62  C   UNL     1       0.123   6.469   1.145  1.00  0.00     0.034 A 
ATOM     63  C   UNL     1       0.954  -0.170  -2.572  1.00  0.00     0.034 A 
ATOM     64  C   UNL     1      -1.200   6.009   0.168  1.00  0.00     0.049 A 
ATOM     65  C   UNL     1      -0.636   0.420  -2.336  1.00  0.00     0.074 A 
ATOM     66  C   UNL     1      -1.786   6.472  -1.048  1.00  0.00     0.029 A 
ATOM     67  N   UNL     1      -2.154   4.967   0.348  1.00  0.00    -0.354 N 
ATOM     68  N   UNL     1      -1.033   1.593  -1.849  1.00  0.00    -0.248 NA
ATOM     69  C   UNL     1      -1.864  -0.369  -2.552  1.00  0.00     0.031 C 
ATOM     70  C   UNL     1      -2.342   5.364  -1.783  1.00  0.00     0.029 A 
ATOM     71  C   UNL     1      -2.444   4.284  -0.921  1.00  0.00     0.049 A 
ATOM     72  H   UNL     1      -2.565   4.734   1.211  1.00  0.00     0.167 HD
ATOM     73  C   UNL     1      -2.422   1.783  -1.691  1.00  0.00     0.074 A 
ATOM     74  C   UNL     1      -2.872   0.463  -2.169  1.00  0.00     0.031 C 
ATOM     75  C   UNL     1      -3.094   2.902  -1.095  1.00  0.00     0.034 A 
BRANCH  62  76
ATOM     76  C   UNL     1      -0.033   7.978   1.634  1.00  0.00     0.023 A 
ATOM     77  C   UNL     1      -1.133   8.720   1.127  1.00  0.00     0.012 A 
ATOM     78  C   UNL     1       0.820   8.718   2.480  1.00  0.00     0.148 A 
ATOM     79  C   UNL     1      -1.259  10.108   1.226  1.00  0.00     0.002 A 
ATOM     80  C   UNL     1       0.715  10.122   2.571  1.00  0.00     0.091 A 
ATOM     81  F   UNL     1       1.685   8.068   3.270  1.00  0.00    -0.205 F 
ATOM     82  C   UNL     1      -0.302  10.820   1.911  1.00  0.00     0.022 A 
BRANCH  80  83
ATOM     83  S   UNL     1       1.885  11.151   3.475  1.00  0.00     0.127 S 
ATOM     84  O   UNL     1       2.266  12.148   2.471  1.00  0.00    -0.237 OA
ATOM     85  O   UNL     1       1.063  11.676   4.565  1.00  0.00    -0.237 OA
ATOM     86  O   UNL     1       2.971  10.265   3.875  1.00  0.00    -0.744 OA
ENDBRANCH  80  83
ENDBRANCH  62  76
BRANCH  63  87
ATOM     87  C   UNL     1       1.376  -1.639  -2.578  1.00  0.00     0.023 A 
ATOM     88  C   UNL     1       1.877  -2.067  -3.843  1.00  0.00     0.012 A 
ATOM     89  C   UNL     1       2.026  -2.141  -1.430  1.00  0.00     0.148 A 
ATOM     90  C   UNL     1       3.136  -2.677  -3.949  1.00  0.00     0.002 A 
ATOM     91  C   UNL     1       3.278  -2.752  -1.542  1.00  0.00     0.091 A 
ATOM     92  F   UNL     1       1.482  -1.919  -0.233  1.00  0.00    -0.205 F 
ATOM     93  C   UNL     1       3.861  -2.968  -2.798  1.00  0.00     0.022 A 
BRANCH  91  94
ATOM     94  S   UNL     1       4.295  -3.029  -0.079  1.00  0.00     0.127 S 
ATOM     95  O   UNL     1       3.932  -4.394   0.285  1.00  0.00    -0.237 OA
ATOM     96  O   UNL     1       5.651  -2.870  -0.609  1.00  0.00    -0.237 OA
ATOM     97  O   UNL     1       3.898  -1.977   0.845  1.00  0.00    -0.744 OA
ENDBRANCH  91  94
ENDBRANCH  63  87
BRANCH  75  98
ATOM     98  C   UNL     1      -4.486   2.820  -0.376  1.00  0.00     0.023 A 
ATOM     99  C   UNL     1      -5.102   1.606  -0.034  1.00  0.00     0.012 A 
ATOM    100  C   UNL     1      -4.988   3.963   0.315  1.00  0.00     0.148 A 
ATOM    101  C   UNL     1      -6.020   1.510   1.030  1.00  0.00     0.002 A 
ATOM    102  C   UNL     1      -5.765   3.843   1.466  1.00  0.00     0.091 A 
ATOM    103  F   UNL     1      -4.706   5.203  -0.115  1.00  0.00    -0.205 F 
ATOM    104  C   UNL     1      -6.289   2.612   1.831  1.00  0.00     0.022 A 
BRANCH 102 105
ATOM    105  S   UNL     1      -5.821   5.213   2.640  1.00  0.00     0.127 S 
ATOM    106  O   UNL     1      -6.942   6.005   2.147  1.00  0.00    -0.237 OA
ATOM    107  O   UNL     1      -6.062   4.535   3.916  1.00  0.00    -0.237 OA
ATOM    108  O   UNL     1      -4.491   5.806   2.529  1.00  0.00    -0.744 OA
ENDBRANCH 102 105
ENDBRANCH  75  98
ENDBRANCH  49  50
ENDBRANCH  42  44
ENDBRANCH  41  42
ENDBRANCH  40  41
ENDBRANCH  39  40
ENDBRANCH  38  39
ENDBRANCH  37  38
ENDBRANCH  36  37
ENDBRANCH  35  36
ENDBRANCH   1  35
TORSDOF 27
