REMARK SMILES C[C@H]1c2ccc(O)cc2OC(=O)[C@@H]1CC(=O)N[C@@H](CC1=c2ccccc2=NC1)C(=O)OCCOCCOCCOCCOC(=O)c1ccc(-c2c3nc(c(-c4cccc(S(=O)(=O)[O-])c4F)c4ccc([nH]4)c(-c4cccc(S(=O)(=O)[O-])c4F)c4nc(c(-c5cccc(S(=O)(=O)[O-])c5F)c5ccc2[nH]5)C=C4)C=C3)cc1
REMARK SMILES IDX 36 1 35 2 34 3 33 4 32 5 31 6 29 7 30 8 18 9 17 10 15 11
REMARK SMILES IDX 16 12 14 14 13 15 1 16 2 17 3 18 4 19 9 20 11 21 5 22 8 23
REMARK SMILES IDX 10 24 12 25 6 26 7 27 19 29 20 30 21 31 28 32 22 33 26 34
REMARK SMILES IDX 27 35 23 36 25 37 24 38 37 39 38 40 39 41 40 42 41 43 42 44
REMARK SMILES IDX 43 45 44 46 45 47 46 48 47 49 108 50 48 51 107 52 49 53
REMARK SMILES IDX 50 54 51 55 101 56 52 57 106 58 100 59 102 60 53 61 105 62
REMARK SMILES IDX 99 63 98 64 54 66 86 67 66 68 85 69 67 70 70 71 84 72 103 73
REMARK SMILES IDX 68 74 69 75 83 77 104 78 71 79 55 80 56 81 64 82 57 83 59 84
REMARK SMILES IDX 65 85 58 86 60 87 61 88 62 89 63 90 87 91 88 92 96 93 89 94
REMARK SMILES IDX 91 95 97 96 90 97 92 98 93 99 94 100 95 101 72 102 73 103
REMARK SMILES IDX 81 104 74 105 76 106 82 107 75 108 77 109 78 110 79 111
REMARK SMILES IDX 80 112
REMARK H PARENT 17 13 7 28 102 65 70 76
REMARK Flexibility Score: inf
ROOT
ATOM      1  C   UNL     1       2.117   1.707  -6.840  1.00  0.00     0.188 C 
ENDROOT
BRANCH   1   2
ATOM      2  C   UNL     1       2.598   3.024  -6.205  1.00  0.00     0.188 C 
BRANCH   2   3
ATOM      3  O   UNL     1       3.553   3.825  -6.896  1.00  0.00    -0.376 OA
BRANCH   3   4
ATOM      4  C   UNL     1       4.806   3.233  -7.251  1.00  0.00     0.202 C 
BRANCH   4   5
ATOM      5  C   UNL     1       5.540   2.407  -6.192  1.00  0.00     0.261 C 
BRANCH   5   6
ATOM      6  O   UNL     1       4.748   1.313  -5.693  1.00  0.00    -0.462 OA
BRANCH   6   7
ATOM      7  C   UNL     1       5.050   0.880  -4.451  1.00  0.00     0.329 C 
ATOM      8  O   UNL     1       5.901   1.394  -3.730  1.00  0.00    -0.250 OA
BRANCH   7   9
ATOM      9  C   UNL     1       4.303  -0.403  -4.046  1.00  0.00     0.196 C 
BRANCH   9  10
ATOM     10  N   UNL     1       3.083  -0.861  -4.734  1.00  0.00    -0.342 N 
ATOM     11  C   UNL     1       1.787  -0.942  -4.312  1.00  0.00     0.221 C 
ATOM     12  O   UNL     1       1.032  -1.757  -4.848  1.00  0.00    -0.275 OA
ATOM     13  H   UNL     1       3.228  -1.161  -5.661  1.00  0.00     0.164 HD
BRANCH  11  14
ATOM     14  C   UNL     1       1.218   0.079  -3.337  1.00  0.00     0.116 C 
BRANCH  14  15
ATOM     15  C   UNL     1       1.269  -0.242  -1.830  1.00  0.00     0.116 C 
ATOM     16  C   UNL     1       0.270   0.180   0.490  1.00  0.00     0.014 C 
ATOM     17  C   UNL     1       0.271   0.595  -0.988  1.00  0.00     0.034 C 
ATOM     18  C   UNL     1       0.634   2.056  -1.114  1.00  0.00    -0.001 A 
ATOM     19  C   UNL     1      -0.319   3.075  -1.025  1.00  0.00     0.011 A 
ATOM     20  C   UNL     1       1.964   2.401  -1.374  1.00  0.00     0.138 A 
ATOM     21  C   UNL     1       2.626   0.080  -1.266  1.00  0.00     0.315 C 
ATOM     22  C   UNL     1       0.052   4.402  -1.267  1.00  0.00     0.047 A 
ATOM     23  C   UNL     1       2.339   3.708  -1.662  1.00  0.00     0.093 A 
ATOM     24  O   UNL     1       2.978   1.425  -1.328  1.00  0.00    -0.426 OA
ATOM     25  O   UNL     1       3.398  -0.782  -0.860  1.00  0.00    -0.251 OA
ATOM     26  C   UNL     1       1.369   4.701  -1.613  1.00  0.00     0.119 A 
BRANCH  26  27
ATOM     27  O   UNL     1       1.754   5.977  -1.900  1.00  0.00    -0.508 OA
ATOM     28  H   UNL     1       1.125   6.672  -1.876  1.00  0.00     0.293 HD
ENDBRANCH  26  27
ENDBRANCH  14  15
ENDBRANCH  11  14
ENDBRANCH   9  10
BRANCH   9  29
ATOM     29  C   UNL     1       5.316  -1.580  -3.857  1.00  0.00     0.070 C 
BRANCH  29  30
ATOM     30  C   UNL     1       5.911  -2.236  -5.107  1.00  0.00    -0.037 C 
ATOM     31  C   UNL     1       5.271  -3.253  -5.708  1.00  0.00     0.001 A 
ATOM     32  C   UNL     1       6.432  -1.326  -6.183  1.00  0.00     0.174 C 
ATOM     33  C   UNL     1       5.801  -4.568  -6.026  1.00  0.00     0.010 A 
ATOM     34  C   UNL     1       4.867  -2.554  -6.969  1.00  0.00     0.065 A 
ATOM     35  N   UNL     1       5.403  -1.405  -7.238  1.00  0.00    -0.280 NA
ATOM     36  C   UNL     1       5.246  -5.229  -7.061  1.00  0.00     0.001 A 
ATOM     37  C   UNL     1       3.905  -3.316  -7.785  1.00  0.00     0.028 A 
ATOM     38  C   UNL     1       4.124  -4.644  -7.794  1.00  0.00     0.002 A 
ENDBRANCH  29  30
ENDBRANCH   9  29
ENDBRANCH   7   9
ENDBRANCH   6   7
ENDBRANCH   5   6
ENDBRANCH   4   5
ENDBRANCH   3   4
ENDBRANCH   2   3
ENDBRANCH   1   2
BRANCH   1  39
ATOM     39  O   UNL     1       3.040   1.118  -7.730  1.00  0.00    -0.377 OA
BRANCH  39  40
ATOM     40  C   UNL     1       2.757   1.213  -9.121  1.00  0.00     0.188 C 
BRANCH  40  41
ATOM     41  C   UNL     1       2.186   2.545  -9.644  1.00  0.00     0.188 C 
BRANCH  41  42
ATOM     42  O   UNL     1       0.944   2.911  -9.045  1.00  0.00    -0.376 OA
BRANCH  42  43
ATOM     43  C   UNL     1      -0.245   2.569  -9.750  1.00  0.00     0.202 C 
BRANCH  43  44
ATOM     44  C   UNL     1      -0.602   1.075  -9.789  1.00  0.00     0.261 C 
BRANCH  44  45
ATOM     45  O   UNL     1       0.272   0.225 -10.551  1.00  0.00    -0.460 OA
BRANCH  45  46
ATOM     46  C   UNL     1       0.582   0.569 -11.819  1.00  0.00     0.338 C 
ATOM     47  O   UNL     1       0.106   1.483 -12.469  1.00  0.00    -0.246 OA
BRANCH  46  48
ATOM     48  C   UNL     1       1.762  -0.231 -12.210  1.00  0.00     0.060 A 
ATOM     49  C   UNL     1       1.751  -1.623 -12.081  1.00  0.00     0.016 A 
ATOM     50  C   UNL     1       2.905   0.428 -12.679  1.00  0.00     0.016 A 
ATOM     51  C   UNL     1       2.876  -2.359 -12.459  1.00  0.00     0.010 A 
ATOM     52  C   UNL     1       4.035  -0.309 -13.040  1.00  0.00     0.010 A 
ATOM     53  C   UNL     1       4.017  -1.709 -12.960  1.00  0.00    -0.014 A 
BRANCH  53  54
ATOM     54  C   UNL     1       5.084  -2.501 -13.616  1.00  0.00     0.031 A 
ATOM     55  C   UNL     1       6.367  -2.856 -12.930  1.00  0.00     0.074 A 
ATOM     56  C   UNL     1       4.872  -2.878 -14.892  1.00  0.00     0.049 A 
ATOM     57  N   UNL     1       7.343  -3.604 -13.375  1.00  0.00    -0.248 NA
ATOM     58  C   UNL     1       6.591  -2.307 -11.585  1.00  0.00     0.031 C 
ATOM     59  C   UNL     1       3.682  -2.537 -15.677  1.00  0.00     0.029 A 
ATOM     60  N   UNL     1       5.641  -3.614 -15.755  1.00  0.00    -0.354 N 
ATOM     61  C   UNL     1       8.305  -3.617 -12.374  1.00  0.00     0.074 A 
ATOM     62  C   UNL     1       7.798  -2.788 -11.299  1.00  0.00     0.031 C 
ATOM     63  C   UNL     1       3.799  -3.066 -16.903  1.00  0.00     0.029 A 
ATOM     64  C   UNL     1       5.070  -3.776 -16.994  1.00  0.00     0.049 A 
ATOM     65  H   UNL     1       6.517  -3.990 -15.511  1.00  0.00     0.167 HD
ATOM     66  C   UNL     1       9.487  -4.277 -12.354  1.00  0.00     0.034 A 
ATOM     67  C   UNL     1       5.509  -4.433 -18.084  1.00  0.00     0.034 A 
ATOM     68  C   UNL     1       9.976  -5.112 -13.423  1.00  0.00     0.049 A 
ATOM     69  C   UNL     1       6.808  -5.178 -18.021  1.00  0.00     0.074 A 
ATOM     70  C   UNL     1      11.134  -5.873 -13.454  1.00  0.00     0.029 A 
ATOM     71  N   UNL     1       9.351  -5.290 -14.647  1.00  0.00    -0.354 N 
ATOM     72  N   UNL     1       7.636  -5.294 -17.013  1.00  0.00    -0.248 NA
ATOM     73  C   UNL     1       7.218  -5.912 -19.227  1.00  0.00     0.031 C 
ATOM     74  C   UNL     1      11.213  -6.502 -14.700  1.00  0.00     0.029 A 
ATOM     75  C   UNL     1      10.098  -6.145 -15.441  1.00  0.00     0.049 A 
ATOM     76  H   UNL     1       8.501  -4.870 -14.913  1.00  0.00     0.167 HD
ATOM     77  C   UNL     1       8.652  -6.133 -17.450  1.00  0.00     0.074 A 
ATOM     78  C   UNL     1       8.331  -6.506 -18.813  1.00  0.00     0.031 C 
ATOM     79  C   UNL     1       9.753  -6.548 -16.780  1.00  0.00     0.034 A 
BRANCH  66  80
ATOM     80  C   UNL     1      10.327  -4.200 -11.108  1.00  0.00     0.023 A 
ATOM     81  C   UNL     1       9.982  -5.009 -10.007  1.00  0.00     0.012 A 
ATOM     82  C   UNL     1      11.525  -3.459 -11.078  1.00  0.00     0.148 A 
ATOM     83  C   UNL     1      10.815  -5.080  -8.891  1.00  0.00     0.002 A 
ATOM     84  C   UNL     1      12.364  -3.556  -9.973  1.00  0.00     0.091 A 
ATOM     85  F   UNL     1      11.830  -2.696 -12.136  1.00  0.00    -0.205 F 
ATOM     86  C   UNL     1      12.009  -4.364  -8.879  1.00  0.00     0.022 A 
BRANCH  84  87
ATOM     87  S   UNL     1      13.955  -2.726  -9.878  1.00  0.00     0.127 S 
ATOM     88  O   UNL     1      13.728  -1.780  -8.786  1.00  0.00    -0.237 OA
ATOM     89  O   UNL     1      14.858  -3.829  -9.550  1.00  0.00    -0.237 OA
ATOM     90  O   UNL     1      14.175  -2.122 -11.184  1.00  0.00    -0.744 OA
ENDBRANCH  84  87
ENDBRANCH  66  80
BRANCH  67  91
ATOM     91  C   UNL     1       4.643  -4.481 -19.290  1.00  0.00     0.023 A 
ATOM     92  C   UNL     1       3.905  -5.649 -19.556  1.00  0.00     0.012 A 
ATOM     93  C   UNL     1       4.472  -3.349 -20.109  1.00  0.00     0.148 A 
ATOM     94  C   UNL     1       3.010  -5.692 -20.625  1.00  0.00     0.002 A 
ATOM     95  C   UNL     1       3.551  -3.385 -21.148  1.00  0.00     0.091 A 
ATOM     96  F   UNL     1       5.186  -2.251 -19.827  1.00  0.00    -0.205 F 
ATOM     97  C   UNL     1       2.826  -4.559 -21.413  1.00  0.00     0.022 A 
BRANCH  95  98
ATOM     98  S   UNL     1       3.163  -1.947 -22.150  1.00  0.00     0.127 S 
ATOM     99  O   UNL     1       3.613  -2.376 -23.473  1.00  0.00    -0.237 OA
ATOM    100  O   UNL     1       1.711  -1.856 -21.992  1.00  0.00    -0.237 OA
ATOM    101  O   UNL     1       3.908  -0.841 -21.564  1.00  0.00    -0.744 OA
ENDBRANCH  95  98
ENDBRANCH  67  91
BRANCH  79 102
ATOM    102  C   UNL     1      10.704  -7.471 -17.490  1.00  0.00     0.023 A 
ATOM    103  C   UNL     1      11.604  -6.945 -18.436  1.00  0.00     0.012 A 
ATOM    104  C   UNL     1      10.778  -8.834 -17.141  1.00  0.00     0.148 A 
ATOM    105  C   UNL     1      12.560  -7.765 -19.034  1.00  0.00     0.002 A 
ATOM    106  C   UNL     1      11.756  -9.637 -17.715  1.00  0.00     0.091 A 
ATOM    107  F   UNL     1       9.901  -9.312 -16.247  1.00  0.00    -0.205 F 
ATOM    108  C   UNL     1      12.644  -9.106 -18.665  1.00  0.00     0.022 A 
BRANCH 106 109
ATOM    109  S   UNL     1      11.990 -11.358 -17.255  1.00  0.00     0.127 S 
ATOM    110  O   UNL     1      11.604 -12.050 -18.484  1.00  0.00    -0.237 OA
ATOM    111  O   UNL     1      13.420 -11.405 -16.951  1.00  0.00    -0.237 OA
ATOM    112  O   UNL     1      11.118 -11.593 -16.112  1.00  0.00    -0.744 OA
ENDBRANCH 106 109
ENDBRANCH  79 102
ENDBRANCH  53  54
ENDBRANCH  46  48
ENDBRANCH  45  46
ENDBRANCH  44  45
ENDBRANCH  43  44
ENDBRANCH  42  43
ENDBRANCH  41  42
ENDBRANCH  40  41
ENDBRANCH  39  40
ENDBRANCH   1  39
TORSDOF 29
