REMARK SMILES C[C@H](C(=O)OCCOCCOCCOCCOC(=O)c1ccc(-c2c3nc(c(-c4cccc(S(=O)(=O)[O-])c4F)c4ccc([nH]4)c(-c4cccc(S(=O)(=O)[O-])c4F)c4nc(c(-c5cccc(S(=O)(=O)[O-])c5F)c5ccc2[nH]5)C=C4)C=C3)cc1)c1ccc(-c2ccccc2)c(F)c1
REMARK SMILES IDX 12 1 11 2 10 3 9 4 8 5 7 6 6 7 5 8 3 9 4 10 2 11 1 12 83 13
REMARK SMILES IDX 84 14 95 15 85 16 93 17 86 18 94 19 87 20 88 21 92 22 89 23
REMARK SMILES IDX 91 24 90 25 13 26 14 27 15 28 16 29 17 30 18 31 19 32 20 33
REMARK SMILES IDX 21 34 82 35 22 36 81 37 23 38 24 39 25 40 75 41 26 42 80 43
REMARK SMILES IDX 74 44 76 45 27 46 79 47 73 48 72 49 28 51 60 52 40 53 59 54
REMARK SMILES IDX 41 55 44 56 58 57 77 58 42 59 43 60 57 62 78 63 45 64 29 65
REMARK SMILES IDX 30 66 38 67 31 68 33 69 39 70 32 71 34 72 35 73 36 74 37 75
REMARK SMILES IDX 61 76 62 77 70 78 63 79 65 80 71 81 64 82 66 83 67 84 68 85
REMARK SMILES IDX 69 86 46 87 47 88 55 89 48 90 50 91 56 92 49 93 51 94 52 95
REMARK SMILES IDX 53 96 54 97
REMARK H PARENT 76 50 44 61
REMARK Flexibility Score: inf
ROOT
ATOM      1  C   UNL     1      -1.469  -0.969   3.069  1.00  0.00     0.188 C 
ENDROOT
BRANCH   1   2
ATOM      2  O   UNL     1      -0.638  -0.459   2.045  1.00  0.00    -0.377 OA
BRANCH   2   3
ATOM      3  C   UNL     1      -0.361  -1.332   0.971  1.00  0.00     0.188 C 
BRANCH   3   4
ATOM      4  C   UNL     1       1.052  -1.939   0.953  1.00  0.00     0.188 C 
BRANCH   4   5
ATOM      5  O   UNL     1       2.027  -1.582   1.926  1.00  0.00    -0.376 OA
BRANCH   5   6
ATOM      6  C   UNL     1       1.974  -0.305   2.547  1.00  0.00     0.202 C 
BRANCH   6   7
ATOM      7  C   UNL     1       1.992   0.964   1.669  1.00  0.00     0.261 C 
BRANCH   7   8
ATOM      8  O   UNL     1       1.117   0.948   0.516  1.00  0.00    -0.463 OA
BRANCH   8   9
ATOM      9  C   UNL     1       1.695   1.021  -0.704  1.00  0.00     0.313 C 
ATOM     10  O   UNL     1       2.905   1.188  -0.861  1.00  0.00    -0.252 OA
BRANCH   9  11
ATOM     11  C   UNL     1       0.766   0.810  -1.916  1.00  0.00     0.126 C 
ATOM     12  C   UNL     1       1.363  -0.366  -2.721  1.00  0.00     0.025 C 
BRANCH  11  13
ATOM     13  C   UNL     1      -0.765   0.732  -1.745  1.00  0.00    -0.031 A 
ATOM     14  C   UNL     1      -1.485   1.819  -1.223  1.00  0.00     0.005 A 
ATOM     15  C   UNL     1      -1.527  -0.399  -2.113  1.00  0.00     0.044 A 
ATOM     16  C   UNL     1      -2.888   1.768  -1.057  1.00  0.00     0.012 A 
ATOM     17  C   UNL     1      -2.913  -0.458  -1.909  1.00  0.00     0.131 A 
ATOM     18  C   UNL     1      -3.627   0.621  -1.389  1.00  0.00     0.017 A 
ATOM     19  F   UNL     1      -3.549  -1.598  -2.228  1.00  0.00    -0.206 F 
BRANCH  18  20
ATOM     20  C   UNL     1      -5.088   0.563  -1.221  1.00  0.00    -0.015 A 
ATOM     21  C   UNL     1      -5.940   1.213  -2.130  1.00  0.00     0.009 A 
ATOM     22  C   UNL     1      -5.677  -0.154  -0.166  1.00  0.00     0.009 A 
ATOM     23  C   UNL     1      -7.331   1.151  -1.989  1.00  0.00     0.001 A 
ATOM     24  C   UNL     1      -7.068  -0.214  -0.022  1.00  0.00     0.001 A 
ATOM     25  C   UNL     1      -7.894   0.439  -0.933  1.00  0.00     0.000 A 
ENDBRANCH  18  20
ENDBRANCH  11  13
ENDBRANCH   9  11
ENDBRANCH   8   9
ENDBRANCH   7   8
ENDBRANCH   6   7
ENDBRANCH   5   6
ENDBRANCH   4   5
ENDBRANCH   3   4
ENDBRANCH   2   3
ENDBRANCH   1   2
BRANCH   1  26
ATOM     26  C   UNL     1      -1.116  -2.383   3.554  1.00  0.00     0.188 C 
BRANCH  26  27
ATOM     27  O   UNL     1      -1.119  -3.354   2.513  1.00  0.00    -0.376 OA
BRANCH  27  28
ATOM     28  C   UNL     1      -2.300  -4.109   2.279  1.00  0.00     0.202 C 
BRANCH  28  29
ATOM     29  C   UNL     1      -3.575  -3.385   1.804  1.00  0.00     0.261 C 
BRANCH  29  30
ATOM     30  O   UNL     1      -4.095  -2.339   2.639  1.00  0.00    -0.460 OA
BRANCH  30  31
ATOM     31  C   UNL     1      -4.352  -2.608   3.935  1.00  0.00     0.338 C 
ATOM     32  O   UNL     1      -4.276  -3.696   4.483  1.00  0.00    -0.246 OA
BRANCH  31  33
ATOM     33  C   UNL     1      -4.521  -1.317   4.640  1.00  0.00     0.060 A 
ATOM     34  C   UNL     1      -3.689  -1.035   5.733  1.00  0.00     0.016 A 
ATOM     35  C   UNL     1      -5.469  -0.381   4.219  1.00  0.00     0.016 A 
ATOM     36  C   UNL     1      -3.828   0.165   6.430  1.00  0.00     0.010 A 
ATOM     37  C   UNL     1      -5.627   0.810   4.937  1.00  0.00     0.010 A 
ATOM     38  C   UNL     1      -4.833   1.070   6.068  1.00  0.00    -0.014 A 
BRANCH  38  39
ATOM     39  C   UNL     1      -5.191   2.168   7.000  1.00  0.00     0.031 A 
ATOM     40  C   UNL     1      -6.355   1.955   7.931  1.00  0.00     0.074 A 
ATOM     41  C   UNL     1      -4.493   3.317   7.041  1.00  0.00     0.049 A 
ATOM     42  N   UNL     1      -6.871   2.767   8.815  1.00  0.00    -0.248 NA
ATOM     43  C   UNL     1      -7.028   0.647   7.851  1.00  0.00     0.031 C 
ATOM     44  C   UNL     1      -3.332   3.632   6.212  1.00  0.00     0.029 A 
ATOM     45  N   UNL     1      -4.678   4.442   7.805  1.00  0.00    -0.354 N 
ATOM     46  C   UNL     1      -7.947   2.085   9.370  1.00  0.00     0.074 A 
ATOM     47  C   UNL     1      -8.015   0.795   8.720  1.00  0.00     0.031 C 
ATOM     48  C   UNL     1      -2.923   4.882   6.494  1.00  0.00     0.029 A 
ATOM     49  C   UNL     1      -3.811   5.464   7.499  1.00  0.00     0.049 A 
ATOM     50  H   UNL     1      -5.367   4.511   8.505  1.00  0.00     0.167 HD
ATOM     51  C   UNL     1      -8.800   2.492  10.339  1.00  0.00     0.034 A 
ATOM     52  C   UNL     1      -3.759   6.731   7.960  1.00  0.00     0.034 A 
ATOM     53  C   UNL     1      -8.724   3.770  10.992  1.00  0.00     0.049 A 
ATOM     54  C   UNL     1      -4.748   7.174   9.010  1.00  0.00     0.074 A 
ATOM     55  C   UNL     1      -9.512   4.258  12.018  1.00  0.00     0.029 A 
ATOM     56  N   UNL     1      -7.821   4.770  10.668  1.00  0.00    -0.354 N 
ATOM     57  N   UNL     1      -5.693   6.483   9.601  1.00  0.00    -0.248 NA
ATOM     58  C   UNL     1      -4.643   8.565   9.478  1.00  0.00     0.031 C 
ATOM     59  C   UNL     1      -9.116   5.573  12.283  1.00  0.00     0.029 A 
ATOM     60  C   UNL     1      -8.046   5.884  11.459  1.00  0.00     0.049 A 
ATOM     61  H   UNL     1      -7.122   4.699   9.978  1.00  0.00     0.167 HD
ATOM     62  C   UNL     1      -6.265   7.339  10.538  1.00  0.00     0.074 A 
ATOM     63  C   UNL     1      -5.549   8.595  10.446  1.00  0.00     0.031 C 
ATOM     64  C   UNL     1      -7.294   7.110  11.391  1.00  0.00     0.034 A 
BRANCH  51  65
ATOM     65  C   UNL     1      -9.896   1.544  10.749  1.00  0.00     0.023 A 
ATOM     66  C   UNL     1      -9.589   0.380  11.482  1.00  0.00     0.012 A 
ATOM     67  C   UNL     1     -11.241   1.835  10.445  1.00  0.00     0.148 A 
ATOM     68  C   UNL     1     -10.599  -0.498  11.875  1.00  0.00     0.002 A 
ATOM     69  C   UNL     1     -12.245   0.982  10.883  1.00  0.00     0.091 A 
ATOM     70  F   UNL     1     -11.510   2.934   9.726  1.00  0.00    -0.205 F 
ATOM     71  C   UNL     1     -11.926  -0.191  11.586  1.00  0.00     0.022 A 
BRANCH  69  72
ATOM     72  S   UNL     1     -13.989   1.331  10.632  1.00  0.00     0.127 S 
ATOM     73  O   UNL     1     -14.364   0.287   9.679  1.00  0.00    -0.237 OA
ATOM     74  O   UNL     1     -14.533   1.153  11.978  1.00  0.00    -0.237 OA
ATOM     75  O   UNL     1     -14.059   2.693  10.122  1.00  0.00    -0.744 OA
ENDBRANCH  69  72
ENDBRANCH  51  65
BRANCH  52  76
ATOM     76  C   UNL     1      -2.724   7.675   7.448  1.00  0.00     0.023 A 
ATOM     77  C   UNL     1      -1.707   8.131   8.310  1.00  0.00     0.012 A 
ATOM     78  C   UNL     1      -2.745   8.126   6.114  1.00  0.00     0.148 A 
ATOM     79  C   UNL     1      -0.751   9.045   7.862  1.00  0.00     0.002 A 
ATOM     80  C   UNL     1      -1.757   8.991   5.659  1.00  0.00     0.091 A 
ATOM     81  F   UNL     1      -3.730   7.694   5.314  1.00  0.00    -0.205 F 
ATOM     82  C   UNL     1      -0.770   9.467   6.536  1.00  0.00     0.022 A 
BRANCH  80  83
ATOM     83  S   UNL     1      -1.630   9.493   3.939  1.00  0.00     0.127 S 
ATOM     84  O   UNL     1      -1.931  10.920   4.020  1.00  0.00    -0.237 OA
ATOM     85  O   UNL     1      -0.235   9.172   3.636  1.00  0.00    -0.237 OA
ATOM     86  O   UNL     1      -2.604   8.684   3.218  1.00  0.00    -0.744 OA
ENDBRANCH  80  83
ENDBRANCH  52  76
BRANCH  64  87
ATOM     87  C   UNL     1      -7.683   8.217  12.339  1.00  0.00     0.023 A 
ATOM     88  C   UNL     1      -8.327   9.373  11.856  1.00  0.00     0.012 A 
ATOM     89  C   UNL     1      -7.478   8.070  13.726  1.00  0.00     0.148 A 
ATOM     90  C   UNL     1      -8.726  10.381  12.734  1.00  0.00     0.002 A 
ATOM     91  C   UNL     1      -7.928   9.052  14.600  1.00  0.00     0.091 A 
ATOM     92  F   UNL     1      -6.851   6.969  14.167  1.00  0.00    -0.205 F 
ATOM     93  C   UNL     1      -8.538  10.215  14.104  1.00  0.00     0.022 A 
BRANCH  91  94
ATOM     94  S   UNL     1      -7.822   8.879  16.384  1.00  0.00     0.127 S 
ATOM     95  O   UNL     1      -6.809   9.878  16.721  1.00  0.00    -0.237 OA
ATOM     96  O   UNL     1      -9.180   9.220  16.809  1.00  0.00    -0.237 OA
ATOM     97  O   UNL     1      -7.439   7.496  16.634  1.00  0.00    -0.744 OA
ENDBRANCH  91  94
ENDBRANCH  64  87
ENDBRANCH  38  39
ENDBRANCH  31  33
ENDBRANCH  30  31
ENDBRANCH  29  30
ENDBRANCH  28  29
ENDBRANCH  27  28
ENDBRANCH  26  27
ENDBRANCH   1  26
TORSDOF 25
