REMARK SMILES CC(C)(O)C#Cc1ccc(C(=O)N[C@@H](CC2=c3ccccc3=NC2)C(=O)OCCOCCOCCOCCOC(=O)c2ccc(-c3c4nc(c(-c5cccc(S(=O)(=O)[O-])c5F)c5ccc([nH]5)c(-c5cccc(S(=O)(=O)[O-])c5F)c5nc(c(-c6cccc(S(=O)(=O)[O-])c6F)c6ccc3[nH]6)C=C5)C=C4)cc2)s1
REMARK SMILES IDX 32 1 31 2 30 3 29 4 28 5 27 6 25 7 26 8 14 9 13 10 11 11
REMARK SMILES IDX 12 12 10 14 7 15 8 16 105 17 9 18 6 19 5 20 2 21 1 22 3 23
REMARK SMILES IDX 4 24 15 26 16 27 17 28 24 29 18 30 22 31 23 32 19 33 21 34
REMARK SMILES IDX 20 35 33 36 34 37 35 38 36 39 37 40 38 41 39 42 40 43 41 44
REMARK SMILES IDX 42 45 43 46 104 47 44 48 103 49 45 50 46 51 47 52 97 53
REMARK SMILES IDX 48 54 102 55 96 56 98 57 49 58 101 59 95 60 94 61 50 63
REMARK SMILES IDX 82 64 62 65 81 66 63 67 66 68 80 69 99 70 64 71 65 72 79 74
REMARK SMILES IDX 100 75 67 76 51 77 52 78 60 79 53 80 55 81 61 82 54 83 56 84
REMARK SMILES IDX 57 85 58 86 59 87 83 88 84 89 92 90 85 91 87 92 93 93 86 94
REMARK SMILES IDX 88 95 89 96 90 97 91 98 68 99 69 100 77 101 70 102 72 103
REMARK SMILES IDX 78 104 71 105 73 106 74 107 75 108 76 109
REMARK H PARENT 13 13 4 25 98 62 66 73
REMARK Flexibility Score: inf
ROOT
ATOM      1  C   UNL     1       0.765   1.973   7.071  1.00  0.00     0.188 C 
ENDROOT
BRANCH   1   2
ATOM      2  C   UNL     1       0.486   0.777   6.158  1.00  0.00     0.188 C 
BRANCH   2   3
ATOM      3  O   UNL     1      -0.075  -0.415   6.671  1.00  0.00    -0.376 OA
BRANCH   3   4
ATOM      4  C   UNL     1       0.584  -1.178   7.674  1.00  0.00     0.202 C 
BRANCH   4   5
ATOM      5  C   UNL     1       2.099  -1.425   7.680  1.00  0.00     0.261 C 
BRANCH   5   6
ATOM      6  O   UNL     1       2.897  -0.256   7.448  1.00  0.00    -0.462 OA
BRANCH   6   7
ATOM      7  C   UNL     1       3.611  -0.253   6.301  1.00  0.00     0.329 C 
ATOM      8  O   UNL     1       3.660  -1.182   5.499  1.00  0.00    -0.250 OA
BRANCH   7   9
ATOM      9  C   UNL     1       4.420   1.031   6.085  1.00  0.00     0.196 C 
BRANCH   9  10
ATOM     10  N   UNL     1       4.130   2.237   6.892  1.00  0.00    -0.338 N 
ATOM     11  C   UNL     1       3.911   3.564   6.587  1.00  0.00     0.262 C 
ATOM     12  O   UNL     1       4.042   4.380   7.503  1.00  0.00    -0.268 OA
ATOM     13  H   UNL     1       4.084   2.051   7.858  1.00  0.00     0.164 HD
BRANCH  11  14
ATOM     14  C   UNL     1       3.353   3.967   5.308  1.00  0.00     0.093 A 
ATOM     15  C   UNL     1       2.140   3.644   3.253  1.00  0.00     0.078 A 
ATOM     16  C   UNL     1       1.682   4.768   3.901  1.00  0.00     0.030 A 
ATOM     17  S   UNL     1       3.696   3.242   3.807  1.00  0.00    -0.121 S 
ATOM     18  C   UNL     1       2.435   4.991   5.099  1.00  0.00     0.027 A 
BRANCH  15  19
ATOM     19  C   UNL     1       1.504   2.915   2.222  1.00  0.00    -0.053 C 
ATOM     20  C   UNL     1       1.069   2.263   1.181  1.00  0.00    -0.063 C 
BRANCH  20  21
ATOM     21  C   UNL     1       0.563   1.502  -0.034  1.00  0.00     0.120 C 
ATOM     22  C   UNL     1       1.009   0.044   0.050  1.00  0.00     0.056 C 
ATOM     23  C   UNL     1       1.073   2.165  -1.310  1.00  0.00     0.056 C 
BRANCH  21  24
ATOM     24  O   UNL     1      -0.860   1.571  -0.034  1.00  0.00    -0.378 OA
ATOM     25  H   UNL     1      -1.207   1.091  -0.802  1.00  0.00     0.212 HD
ENDBRANCH  21  24
ENDBRANCH  20  21
ENDBRANCH  15  19
ENDBRANCH  11  14
ENDBRANCH   9  10
BRANCH   9  26
ATOM     26  C   UNL     1       5.917   0.683   6.197  1.00  0.00     0.070 C 
BRANCH  26  27
ATOM     27  C   UNL     1       6.335   0.396   7.606  1.00  0.00    -0.037 C 
ATOM     28  C   UNL     1       6.686   1.272   8.545  1.00  0.00     0.001 A 
ATOM     29  C   UNL     1       6.311  -0.999   8.164  1.00  0.00     0.174 C 
ATOM     30  C   UNL     1       6.826   2.691   8.605  1.00  0.00     0.010 A 
ATOM     31  C   UNL     1       6.798   0.431   9.744  1.00  0.00     0.065 A 
ATOM     32  N   UNL     1       6.609  -0.842   9.605  1.00  0.00    -0.280 NA
ATOM     33  C   UNL     1       7.051   3.267   9.796  1.00  0.00     0.001 A 
ATOM     34  C   UNL     1       7.075   1.133  11.014  1.00  0.00     0.028 A 
ATOM     35  C   UNL     1       7.181   2.473  11.007  1.00  0.00     0.002 A 
ENDBRANCH  26  27
ENDBRANCH   9  26
ENDBRANCH   7   9
ENDBRANCH   6   7
ENDBRANCH   5   6
ENDBRANCH   4   5
ENDBRANCH   3   4
ENDBRANCH   2   3
ENDBRANCH   1   2
BRANCH   1  36
ATOM     36  O   UNL     1       1.391   1.691   8.302  1.00  0.00    -0.377 OA
BRANCH  36  37
ATOM     37  C   UNL     1       0.580   1.584   9.466  1.00  0.00     0.188 C 
BRANCH  37  38
ATOM     38  C   UNL     1      -0.950   1.617   9.317  1.00  0.00     0.188 C 
BRANCH  38  39
ATOM     39  O   UNL     1      -1.420   2.855   8.784  1.00  0.00    -0.376 OA
BRANCH  39  40
ATOM     40  C   UNL     1      -1.912   3.817   9.709  1.00  0.00     0.202 C 
BRANCH  40  41
ATOM     41  C   UNL     1      -0.845   4.474  10.595  1.00  0.00     0.261 C 
BRANCH  41  42
ATOM     42  O   UNL     1      -0.304   3.579  11.579  1.00  0.00    -0.460 OA
BRANCH  42  43
ATOM     43  C   UNL     1      -1.143   3.140  12.549  1.00  0.00     0.338 C 
ATOM     44  O   UNL     1      -2.183   3.659  12.895  1.00  0.00    -0.246 OA
BRANCH  43  45
ATOM     45  C   UNL     1      -0.736   1.736  12.813  1.00  0.00     0.060 A 
ATOM     46  C   UNL     1       0.614   1.365  12.841  1.00  0.00     0.016 A 
ATOM     47  C   UNL     1      -1.742   0.763  12.740  1.00  0.00     0.016 A 
ATOM     48  C   UNL     1       0.952   0.022  12.700  1.00  0.00     0.010 A 
ATOM     49  C   UNL     1      -1.398  -0.576  12.575  1.00  0.00     0.010 A 
ATOM     50  C   UNL     1      -0.050  -0.945  12.522  1.00  0.00    -0.014 A 
BRANCH  50  51
ATOM     51  C   UNL     1       0.357  -2.355  12.502  1.00  0.00     0.031 A 
ATOM     52  C   UNL     1       0.905  -2.835  13.801  1.00  0.00     0.074 A 
ATOM     53  C   UNL     1       0.100  -3.255  11.529  1.00  0.00     0.049 A 
ATOM     54  N   UNL     1       2.060  -3.362  14.056  1.00  0.00    -0.248 NA
ATOM     55  C   UNL     1       0.059  -2.606  14.984  1.00  0.00     0.031 C 
ATOM     56  C   UNL     1      -0.751  -3.074  10.355  1.00  0.00     0.029 A 
ATOM     57  N   UNL     1       0.445  -4.581  11.467  1.00  0.00    -0.354 N 
ATOM     58  C   UNL     1       2.012  -3.697  15.406  1.00  0.00     0.074 A 
ATOM     59  C   UNL     1       0.826  -3.088  15.956  1.00  0.00     0.031 C 
ATOM     60  C   UNL     1      -1.022  -4.282   9.814  1.00  0.00     0.029 A 
ATOM     61  C   UNL     1      -0.318  -5.311  10.559  1.00  0.00     0.049 A 
ATOM     62  H   UNL     1       1.161  -4.979  12.012  1.00  0.00     0.167 HD
ATOM     63  C   UNL     1       2.820  -4.623  15.984  1.00  0.00     0.034 A 
ATOM     64  C   UNL     1      -0.444  -6.661  10.498  1.00  0.00     0.034 A 
ATOM     65  C   UNL     1       3.954  -4.983  15.193  1.00  0.00     0.049 A 
ATOM     66  C   UNL     1       0.691  -7.258  11.240  1.00  0.00     0.074 A 
ATOM     67  C   UNL     1       5.046  -4.315  14.681  1.00  0.00     0.029 A 
ATOM     68  N   UNL     1       3.902  -6.190  14.544  1.00  0.00    -0.354 N 
ATOM     69  N   UNL     1       1.933  -7.229  10.849  1.00  0.00    -0.248 NA
ATOM     70  C   UNL     1       0.478  -7.675  12.617  1.00  0.00     0.031 C 
ATOM     71  C   UNL     1       5.346  -4.972  13.453  1.00  0.00     0.029 A 
ATOM     72  C   UNL     1       4.415  -5.999  13.288  1.00  0.00     0.049 A 
ATOM     73  H   UNL     1       3.560  -7.037  14.912  1.00  0.00     0.167 HD
ATOM     74  C   UNL     1       2.672  -7.234  12.024  1.00  0.00     0.074 A 
ATOM     75  C   UNL     1       1.736  -7.648  13.060  1.00  0.00     0.031 C 
ATOM     76  C   UNL     1       3.893  -6.629  12.093  1.00  0.00     0.034 A 
BRANCH  63  77
ATOM     77  C   UNL     1       2.379  -5.415  17.176  1.00  0.00     0.023 A 
ATOM     78  C   UNL     1       3.336  -5.901  18.081  1.00  0.00     0.012 A 
ATOM     79  C   UNL     1       1.042  -5.845  17.332  1.00  0.00     0.148 A 
ATOM     80  C   UNL     1       2.963  -6.746  19.133  1.00  0.00     0.002 A 
ATOM     81  C   UNL     1       0.662  -6.607  18.426  1.00  0.00     0.091 A 
ATOM     82  F   UNL     1       0.153  -5.590  16.360  1.00  0.00    -0.205 F 
ATOM     83  C   UNL     1       1.623  -7.075  19.324  1.00  0.00     0.022 A 
BRANCH  81  84
ATOM     84  S   UNL     1      -1.068  -6.954  18.753  1.00  0.00     0.127 S 
ATOM     85  O   UNL     1      -1.197  -8.317  18.250  1.00  0.00    -0.237 OA
ATOM     86  O   UNL     1      -1.135  -6.820  20.209  1.00  0.00    -0.237 OA
ATOM     87  O   UNL     1      -1.799  -5.921  18.030  1.00  0.00    -0.744 OA
ENDBRANCH  81  84
ENDBRANCH  63  77
BRANCH  64  88
ATOM     88  C   UNL     1      -1.581  -7.503  10.029  1.00  0.00     0.023 A 
ATOM     89  C   UNL     1      -1.375  -8.882   9.805  1.00  0.00     0.012 A 
ATOM     90  C   UNL     1      -2.914  -7.038  10.038  1.00  0.00     0.148 A 
ATOM     91  C   UNL     1      -2.452  -9.765   9.639  1.00  0.00     0.002 A 
ATOM     92  C   UNL     1      -3.981  -7.914   9.841  1.00  0.00     0.091 A 
ATOM     93  F   UNL     1      -3.161  -5.758  10.343  1.00  0.00    -0.205 F 
ATOM     94  C   UNL     1      -3.756  -9.281   9.658  1.00  0.00     0.022 A 
BRANCH  92  95
ATOM     95  S   UNL     1      -5.679  -7.322   9.838  1.00  0.00     0.127 S 
ATOM     96  O   UNL     1      -6.314  -8.189   8.844  1.00  0.00    -0.237 OA
ATOM     97  O   UNL     1      -6.091  -7.566  11.216  1.00  0.00    -0.237 OA
ATOM     98  O   UNL     1      -5.593  -5.923   9.431  1.00  0.00    -0.744 OA
ENDBRANCH  92  95
ENDBRANCH  64  88
BRANCH  76  99
ATOM     99  C   UNL     1       4.592  -6.286  10.804  1.00  0.00     0.023 A 
ATOM    100  C   UNL     1       4.072  -5.325   9.913  1.00  0.00     0.012 A 
ATOM    101  C   UNL     1       5.881  -6.801  10.581  1.00  0.00     0.148 A 
ATOM    102  C   UNL     1       4.820  -4.894   8.815  1.00  0.00     0.002 A 
ATOM    103  C   UNL     1       6.637  -6.343   9.508  1.00  0.00     0.091 A 
ATOM    104  F   UNL     1       6.360  -7.705  11.450  1.00  0.00    -0.205 F 
ATOM    105  C   UNL     1       6.107  -5.392   8.621  1.00  0.00     0.022 A 
BRANCH 103 106
ATOM    106  S   UNL     1       8.335  -6.864   9.245  1.00  0.00     0.127 S 
ATOM    107  O   UNL     1       8.232  -7.627   8.002  1.00  0.00    -0.237 OA
ATOM    108  O   UNL     1       9.040  -5.587   9.119  1.00  0.00    -0.237 OA
ATOM    109  O   UNL     1       8.709  -7.642  10.419  1.00  0.00    -0.744 OA
ENDBRANCH 103 106
ENDBRANCH  76  99
ENDBRANCH  50  51
ENDBRANCH  43  45
ENDBRANCH  42  43
ENDBRANCH  41  42
ENDBRANCH  40  41
ENDBRANCH  39  40
ENDBRANCH  38  39
ENDBRANCH  37  38
ENDBRANCH  36  37
ENDBRANCH   1  36
TORSDOF 30
