REMARK SMILES C[NH+]1CCC2(CC1)OC[C@H](C(=O)OCCOCCOCCOCCOC(=O)c1ccc(-c3c4nc(c(-c5cccc(S(=O)(=O)[O-])c5F)c5ccc([nH]5)c(-c5cccc(S(=O)(=O)[O-])c5F)c5nc(c(-c6cccc(S(=O)(=O)[O-])c6F)c6ccc3[nH]6)C=C5)C=C4)cc1)N2C(=O)c1cc(C(F)(F)F)cc(C(F)(F)F)c1
REMARK SMILES IDX 19 1 18 2 17 3 16 4 15 5 14 6 13 7 11 8 12 9 10 10 1 11 2 12
REMARK SMILES IDX 3 13 7 14 4 16 6 17 5 18 8 19 91 20 9 21 92 22 93 23 94 24
REMARK SMILES IDX 95 25 107 26 96 27 102 28 101 29 97 30 98 31 99 32 100 33
REMARK SMILES IDX 103 34 104 35 105 36 106 37 20 38 21 39 22 40 23 41 24 42
REMARK SMILES IDX 25 43 26 44 27 45 28 46 29 47 90 48 30 49 89 50 31 51 32 52
REMARK SMILES IDX 33 53 83 54 34 55 88 56 82 57 84 58 35 59 87 60 81 61 80 62
REMARK SMILES IDX 36 64 68 65 48 66 67 67 49 68 52 69 66 70 85 71 50 72 51 73
REMARK SMILES IDX 65 75 86 76 53 77 37 78 38 79 46 80 39 81 41 82 47 83 40 84
REMARK SMILES IDX 42 85 43 86 44 87 45 88 69 89 70 90 78 91 71 92 73 93 79 94
REMARK SMILES IDX 72 95 74 96 75 97 76 98 77 99 54 100 55 101 63 102 56 103
REMARK SMILES IDX 58 104 64 105 57 106 59 107 60 108 61 109 62 110
REMARK H PARENT 2 15 84 63 52 74
REMARK Flexibility Score: inf
ROOT
ATOM      1  O   UNL     1      -3.401   4.965  -4.385  1.00  0.00    -0.377 OA
ENDROOT
BRANCH   1   2
ATOM      2  C   UNL     1      -2.438   4.506  -3.449  1.00  0.00     0.188 C 
BRANCH   2   3
ATOM      3  C   UNL     1      -2.804   4.067  -2.008  1.00  0.00     0.188 C 
BRANCH   3   4
ATOM      4  O   UNL     1      -3.843   4.807  -1.392  1.00  0.00    -0.376 OA
BRANCH   4   5
ATOM      5  C   UNL     1      -3.515   5.854  -0.494  1.00  0.00     0.202 C 
BRANCH   5   6
ATOM      6  C   UNL     1      -2.628   7.004  -1.000  1.00  0.00     0.261 C 
BRANCH   6   7
ATOM      7  O   UNL     1      -1.434   6.613  -1.701  1.00  0.00    -0.462 OA
BRANCH   7   8
ATOM      8  C   UNL     1      -0.485   5.946  -0.995  1.00  0.00     0.331 C 
ATOM      9  O   UNL     1      -0.559   5.777   0.215  1.00  0.00    -0.250 OA
BRANCH   8  10
ATOM     10  C   UNL     1       0.610   5.362  -1.940  1.00  0.00     0.224 C 
ATOM     11  C   UNL     1       1.389  -0.277   0.920  1.00  0.00     0.332 C 
ATOM     12  N   UNL     1       1.042   0.451  -0.293  1.00  0.00    -0.337 N 
ATOM     13  C   UNL     1      -0.032   1.407  -0.044  1.00  0.00     0.267 C 
ATOM     14  C   UNL     1       2.209   0.919  -1.039  1.00  0.00     0.267 C 
ATOM     15  H   UNL     1       0.633  -0.198  -0.965  1.00  0.00     0.347 HD
ATOM     16  C   UNL     1       0.415   2.829   0.196  1.00  0.00     0.120 C 
ATOM     17  C   UNL     1       2.546   2.400  -1.032  1.00  0.00     0.120 C 
ATOM     18  C   UNL     1       1.364   3.352  -0.886  1.00  0.00     0.155 C 
ATOM     19  O   UNL     1       2.008   4.542  -0.301  1.00  0.00    -0.352 OA
ATOM     20  N   UNL     1       0.706   3.884  -2.099  1.00  0.00    -0.293 N 
ATOM     21  C   UNL     1       1.911   5.629  -1.238  1.00  0.00     0.200 C 
BRANCH  20  22
ATOM     22  C   UNL     1       0.637   3.360  -3.405  1.00  0.00     0.256 C 
ATOM     23  O   UNL     1       0.555   4.101  -4.386  1.00  0.00    -0.269 OA
BRANCH  22  24
ATOM     24  C   UNL     1       0.672   1.908  -3.744  1.00  0.00     0.041 A 
ATOM     25  C   UNL     1       1.643   1.438  -4.649  1.00  0.00     0.027 A 
ATOM     26  C   UNL     1      -0.293   1.008  -3.285  1.00  0.00     0.027 A 
ATOM     27  C   UNL     1       1.752   0.063  -4.953  1.00  0.00     0.057 A 
ATOM     28  C   UNL     1      -0.130  -0.381  -3.465  1.00  0.00     0.057 A 
ATOM     29  C   UNL     1       0.888  -0.840  -4.314  1.00  0.00     0.026 A 
BRANCH  27  30
ATOM     30  C   UNL     1       2.788  -0.443  -5.931  1.00  0.00     0.416 C 
ATOM     31  F   UNL     1       2.482  -0.145  -7.221  1.00  0.00    -0.166 F 
ATOM     32  F   UNL     1       4.025   0.075  -5.700  1.00  0.00    -0.166 F 
ATOM     33  F   UNL     1       2.945  -1.798  -5.890  1.00  0.00    -0.166 F 
ENDBRANCH  27  30
BRANCH  28  34
ATOM     34  C   UNL     1      -0.945  -1.389  -2.681  1.00  0.00     0.416 C 
ATOM     35  F   UNL     1      -1.611  -2.261  -3.487  1.00  0.00    -0.166 F 
ATOM     36  F   UNL     1      -0.164  -2.166  -1.876  1.00  0.00    -0.166 F 
ATOM     37  F   UNL     1      -1.883  -0.832  -1.869  1.00  0.00    -0.166 F 
ENDBRANCH  28  34
ENDBRANCH  22  24
ENDBRANCH  20  22
ENDBRANCH   8  10
ENDBRANCH   7   8
ENDBRANCH   6   7
ENDBRANCH   5   6
ENDBRANCH   4   5
ENDBRANCH   3   4
ENDBRANCH   2   3
ENDBRANCH   1   2
BRANCH   1  38
ATOM     38  C   UNL     1      -4.682   5.313  -3.904  1.00  0.00     0.188 C 
BRANCH  38  39
ATOM     39  C   UNL     1      -5.558   4.085  -3.601  1.00  0.00     0.188 C 
BRANCH  39  40
ATOM     40  O   UNL     1      -4.819   2.878  -3.480  1.00  0.00    -0.376 OA
BRANCH  40  41
ATOM     41  C   UNL     1      -4.619   2.051  -4.615  1.00  0.00     0.202 C 
BRANCH  41  42
ATOM     42  C   UNL     1      -4.198   2.584  -6.000  1.00  0.00     0.261 C 
BRANCH  42  43
ATOM     43  O   UNL     1      -4.777   3.804  -6.469  1.00  0.00    -0.460 OA
BRANCH  43  44
ATOM     44  C   UNL     1      -6.091   3.829  -6.753  1.00  0.00     0.338 C 
ATOM     45  O   UNL     1      -6.879   2.902  -6.671  1.00  0.00    -0.246 OA
BRANCH  44  46
ATOM     46  C   UNL     1      -6.449   5.248  -6.971  1.00  0.00     0.060 A 
ATOM     47  C   UNL     1      -7.396   5.845  -6.126  1.00  0.00     0.016 A 
ATOM     48  C   UNL     1      -5.804   6.004  -7.954  1.00  0.00     0.016 A 
ATOM     49  C   UNL     1      -7.713   7.193  -6.272  1.00  0.00     0.010 A 
ATOM     50  C   UNL     1      -6.154   7.345  -8.129  1.00  0.00     0.010 A 
ATOM     51  C   UNL     1      -7.132   7.934  -7.308  1.00  0.00    -0.014 A 
BRANCH  51  52
ATOM     52  C   UNL     1      -7.724   9.239  -7.680  1.00  0.00     0.031 A 
ATOM     53  C   UNL     1      -8.753   9.247  -8.777  1.00  0.00     0.074 A 
ATOM     54  C   UNL     1      -7.367  10.380  -7.065  1.00  0.00     0.049 A 
ATOM     55  N   UNL     1      -9.389  10.256  -9.307  1.00  0.00    -0.248 NA
ATOM     56  C   UNL     1      -9.112   7.939  -9.355  1.00  0.00     0.031 C 
ATOM     57  C   UNL     1      -6.390  10.492  -5.983  1.00  0.00     0.029 A 
ATOM     58  N   UNL     1      -7.769  11.673  -7.291  1.00  0.00    -0.354 N 
ATOM     59  C   UNL     1     -10.188   9.713 -10.305  1.00  0.00     0.074 A 
ATOM     60  C   UNL     1      -9.967   8.285 -10.304  1.00  0.00     0.031 C 
ATOM     61  C   UNL     1      -6.235  11.791  -5.670  1.00  0.00     0.029 A 
ATOM     62  C   UNL     1      -7.081  12.601  -6.545  1.00  0.00     0.049 A 
ATOM     63  H   UNL     1      -8.482  11.913  -7.927  1.00  0.00     0.167 HD
ATOM     64  C   UNL     1     -11.032  10.349 -11.147  1.00  0.00     0.034 A 
ATOM     65  C   UNL     1      -7.107  13.949  -6.595  1.00  0.00     0.034 A 
ATOM     66  C   UNL     1     -11.264  11.766 -11.132  1.00  0.00     0.049 A 
ATOM     67  C   UNL     1      -8.050  14.629  -7.560  1.00  0.00     0.074 A 
ATOM     68  C   UNL     1     -12.153  12.495 -11.900  1.00  0.00     0.029 A 
ATOM     69  N   UNL     1     -10.590  12.668 -10.328  1.00  0.00    -0.354 N 
ATOM     70  N   UNL     1      -8.902  14.094  -8.401  1.00  0.00    -0.248 NA
ATOM     71  C   UNL     1      -8.058  16.100  -7.559  1.00  0.00     0.031 C 
ATOM     72  C   UNL     1     -11.981  13.848 -11.594  1.00  0.00     0.029 A 
ATOM     73  C   UNL     1     -11.024  13.953 -10.597  1.00  0.00     0.049 A 
ATOM     74  H   UNL     1      -9.903  12.431  -9.663  1.00  0.00     0.167 HD
ATOM     75  C   UNL     1      -9.574  15.159  -8.994  1.00  0.00     0.074 A 
ATOM     76  C   UNL     1      -9.046  16.368  -8.400  1.00  0.00     0.031 C 
ATOM     77  C   UNL     1     -10.533  15.141  -9.952  1.00  0.00     0.034 A 
BRANCH  64  78
ATOM     78  C   UNL     1     -11.771   9.528 -12.166  1.00  0.00     0.023 A 
ATOM     79  C   UNL     1     -12.851   8.715 -11.770  1.00  0.00     0.012 A 
ATOM     80  C   UNL     1     -11.453   9.647 -13.533  1.00  0.00     0.148 A 
ATOM     81  C   UNL     1     -13.597   8.022 -12.722  1.00  0.00     0.002 A 
ATOM     82  C   UNL     1     -12.230   8.992 -14.478  1.00  0.00     0.091 A 
ATOM     83  F   UNL     1     -10.404  10.406 -13.880  1.00  0.00    -0.205 F 
ATOM     84  C   UNL     1     -13.297   8.172 -14.074  1.00  0.00     0.022 A 
BRANCH  82  85
ATOM     85  S   UNL     1     -11.980   9.192 -16.244  1.00  0.00     0.127 S 
ATOM     86  O   UNL     1     -11.592   7.839 -16.642  1.00  0.00    -0.237 OA
ATOM     87  O   UNL     1     -13.309   9.603 -16.695  1.00  0.00    -0.237 OA
ATOM     88  O   UNL     1     -10.942  10.202 -16.395  1.00  0.00    -0.744 OA
ENDBRANCH  82  85
ENDBRANCH  64  78
BRANCH  65  89
ATOM     89  C   UNL     1      -6.214  14.760  -5.719  1.00  0.00     0.023 A 
ATOM     90  C   UNL     1      -6.769  15.593  -4.727  1.00  0.00     0.012 A 
ATOM     91  C   UNL     1      -4.816  14.741  -5.892  1.00  0.00     0.148 A 
ATOM     92  C   UNL     1      -5.954  16.431  -3.963  1.00  0.00     0.002 A 
ATOM     93  C   UNL     1      -4.006  15.531  -5.086  1.00  0.00     0.091 A 
ATOM     94  F   UNL     1      -4.305  13.958  -6.853  1.00  0.00    -0.205 F 
ATOM     95  C   UNL     1      -4.573  16.395  -4.137  1.00  0.00     0.022 A 
BRANCH  93  96
ATOM     96  S   UNL     1      -2.213  15.449  -5.154  1.00  0.00     0.127 S 
ATOM     97  O   UNL     1      -1.879  16.716  -5.800  1.00  0.00    -0.237 OA
ATOM     98  O   UNL     1      -1.860  15.367  -3.736  1.00  0.00    -0.237 OA
ATOM     99  O   UNL     1      -1.905  14.247  -5.917  1.00  0.00    -0.744 OA
ENDBRANCH  93  96
ENDBRANCH  65  89
BRANCH  77 100
ATOM    100  C   UNL     1     -11.128  16.457 -10.382  1.00  0.00     0.023 A 
ATOM    101  C   UNL     1     -10.369  17.362 -11.150  1.00  0.00     0.012 A 
ATOM    102  C   UNL     1     -12.474  16.756 -10.091  1.00  0.00     0.148 A 
ATOM    103  C   UNL     1     -10.930  18.561 -11.589  1.00  0.00     0.002 A 
ATOM    104  C   UNL     1     -13.043  17.925 -10.579  1.00  0.00     0.091 A 
ATOM    105  F   UNL     1     -13.176  15.888  -9.347  1.00  0.00    -0.205 F 
ATOM    106  C   UNL     1     -12.268  18.836 -11.315  1.00  0.00     0.022 A 
BRANCH 104 107
ATOM    107  S   UNL     1     -14.783  18.313 -10.364  1.00  0.00     0.127 S 
ATOM    108  O   UNL     1     -14.726  19.423  -9.415  1.00  0.00    -0.237 OA
ATOM    109  O   UNL     1     -15.186  18.689 -11.720  1.00  0.00    -0.237 OA
ATOM    110  O   UNL     1     -15.409  17.097  -9.863  1.00  0.00    -0.744 OA
ENDBRANCH 104 107
ENDBRANCH  77 100
ENDBRANCH  51  52
ENDBRANCH  44  46
ENDBRANCH  43  44
ENDBRANCH  42  43
ENDBRANCH  41  42
ENDBRANCH  40  41
ENDBRANCH  39  40
ENDBRANCH  38  39
ENDBRANCH   1  38
TORSDOF 27
