REMARK SMILES CC[NH2+][C@]1(C(=O)OCCOCCOCCOCCOC(=O)c2ccc(-c3c4nc(c(-c5cccc(S(=O)(=O)[O-])c5F)c5ccc([nH]5)c(-c5cccc(S(=O)(=O)[O-])c5F)c5nc(c(-c6cccc(S(=O)(=O)[O-])c6F)c6ccc3[nH]6)C=C5)C=C4)cc2)CCC[C@H]1CC[N@H+]1CCC[C@@H](CC)C1
REMARK SMILES IDX 12 1 11 2 10 3 9 4 8 5 7 6 5 7 6 8 4 9 85 10 88 11 86 12
REMARK SMILES IDX 87 13 3 14 2 17 1 18 89 19 90 20 91 21 92 22 98 23 93 25
REMARK SMILES IDX 95 26 94 27 96 28 97 29 13 30 14 31 15 32 16 33 17 34 18 35
REMARK SMILES IDX 19 36 20 37 21 38 22 39 23 40 84 41 24 42 83 43 25 44 26 45
REMARK SMILES IDX 27 46 77 47 28 48 82 49 76 50 78 51 29 52 81 53 75 54 74 55
REMARK SMILES IDX 30 57 62 58 42 59 61 60 43 61 46 62 60 63 79 64 44 65 45 66
REMARK SMILES IDX 59 68 80 69 47 70 31 71 32 72 40 73 33 74 35 75 41 76 34 77
REMARK SMILES IDX 36 78 37 79 38 80 39 81 63 82 64 83 72 84 65 85 67 86 73 87
REMARK SMILES IDX 66 88 68 89 69 90 70 91 71 92 48 93 49 94 57 95 50 96 52 97
REMARK SMILES IDX 58 98 51 99 53 100 54 101 55 102 56 103
REMARK H PARENT 3 15 3 16 91 24 78 56 46 67
REMARK Flexibility Score: inf
ROOT
ATOM      1  C   UNL     1       3.514   1.406   1.755  1.00  0.00     0.188 C 
ENDROOT
BRANCH   1   2
ATOM      2  C   UNL     1       2.486   0.538   1.001  1.00  0.00     0.188 C 
BRANCH   2   3
ATOM      3  O   UNL     1       2.764   0.367  -0.387  1.00  0.00    -0.376 OA
BRANCH   3   4
ATOM      4  C   UNL     1       2.147   1.284  -1.285  1.00  0.00     0.202 C 
BRANCH   4   5
ATOM      5  C   UNL     1       2.314   2.783  -0.967  1.00  0.00     0.261 C 
BRANCH   5   6
ATOM      6  O   UNL     1       1.783   3.186   0.317  1.00  0.00    -0.459 OA
BRANCH   6   7
ATOM      7  C   UNL     1       0.460   2.945   0.509  1.00  0.00     0.368 C 
ATOM      8  O   UNL     1      -0.244   2.588  -0.420  1.00  0.00    -0.245 OA
BRANCH   7   9
ATOM      9  C   UNL     1      -0.019   3.263   1.955  1.00  0.00     0.197 C 
ATOM     10  C   UNL     1       0.237   4.789   2.061  1.00  0.00     0.081 C 
ATOM     11  C   UNL     1      -1.556   3.157   2.213  1.00  0.00     0.068 C 
ATOM     12  C   UNL     1      -0.655   5.276   3.178  1.00  0.00     0.008 C 
ATOM     13  C   UNL     1      -1.874   4.364   3.138  1.00  0.00     0.011 C 
BRANCH   9  14
ATOM     14  N   UNL     1       0.811   2.615   3.044  1.00  0.00    -0.332 N 
ATOM     15  H   UNL     1       1.735   2.431   2.653  1.00  0.00     0.347 HD
ATOM     16  H   UNL     1       0.783   3.281   3.817  1.00  0.00     0.347 HD
BRANCH  14  17
ATOM     17  C   UNL     1       0.324   1.357   3.624  1.00  0.00     0.257 C 
ATOM     18  C   UNL     1       1.212   0.863   4.769  1.00  0.00     0.071 C 
ENDBRANCH  14  17
ENDBRANCH   9  14
BRANCH  11  19
ATOM     19  C   UNL     1      -2.537   3.097   1.016  1.00  0.00     0.072 C 
BRANCH  19  20
ATOM     20  C   UNL     1      -2.729   1.736   0.279  1.00  0.00     0.262 C 
BRANCH  20  21
ATOM     21  N   UNL     1      -2.594   0.523   1.118  1.00  0.00    -0.335 N 
ATOM     22  C   UNL     1      -3.926  -0.061   1.329  1.00  0.00     0.262 C 
ATOM     23  C   UNL     1      -1.675  -0.473   0.501  1.00  0.00     0.265 C 
ATOM     24  H   UNL     1      -2.187   0.788   2.015  1.00  0.00     0.348 HD
ATOM     25  C   UNL     1      -3.868  -1.305   2.205  1.00  0.00     0.062 C 
ATOM     26  C   UNL     1      -1.562  -1.778   1.335  1.00  0.00     0.044 C 
ATOM     27  C   UNL     1      -2.960  -2.355   1.587  1.00  0.00     0.015 C 
BRANCH  26  28
ATOM     28  C   UNL     1      -0.694  -2.867   0.660  1.00  0.00     0.006 C 
ATOM     29  C   UNL     1       0.750  -2.872   1.133  1.00  0.00     0.004 C 
ENDBRANCH  26  28
ENDBRANCH  20  21
ENDBRANCH  19  20
ENDBRANCH  11  19
ENDBRANCH   7   9
ENDBRANCH   6   7
ENDBRANCH   5   6
ENDBRANCH   4   5
ENDBRANCH   3   4
ENDBRANCH   2   3
ENDBRANCH   1   2
BRANCH   1  30
ATOM     30  O   UNL     1       4.877   1.002   1.758  1.00  0.00    -0.377 OA
BRANCH  30  31
ATOM     31  C   UNL     1       5.347   0.421   0.556  1.00  0.00     0.188 C 
BRANCH  31  32
ATOM     32  C   UNL     1       5.242  -1.115   0.585  1.00  0.00     0.188 C 
BRANCH  32  33
ATOM     33  O   UNL     1       4.258  -1.614   1.473  1.00  0.00    -0.376 OA
BRANCH  33  34
ATOM     34  C   UNL     1       4.557  -1.937   2.821  1.00  0.00     0.202 C 
BRANCH  34  35
ATOM     35  C   UNL     1       5.515  -1.164   3.754  1.00  0.00     0.261 C 
BRANCH  35  36
ATOM     36  O   UNL     1       6.582  -0.419   3.179  1.00  0.00    -0.460 OA
BRANCH  36  37
ATOM     37  C   UNL     1       7.655  -1.102   2.722  1.00  0.00     0.338 C 
ATOM     38  O   UNL     1       7.851  -2.286   2.797  1.00  0.00    -0.246 OA
BRANCH  37  39
ATOM     39  C   UNL     1       8.416  -0.145   1.877  1.00  0.00     0.060 A 
ATOM     40  C   UNL     1       8.708  -0.540   0.564  1.00  0.00     0.016 A 
ATOM     41  C   UNL     1       8.730   1.147   2.318  1.00  0.00     0.016 A 
ATOM     42  C   UNL     1       9.328   0.350  -0.305  1.00  0.00     0.010 A 
ATOM     43  C   UNL     1       9.400   2.024   1.461  1.00  0.00     0.010 A 
ATOM     44  C   UNL     1       9.730   1.609   0.161  1.00  0.00    -0.014 A 
BRANCH  44  45
ATOM     45  C   UNL     1      10.762   2.319  -0.624  1.00  0.00     0.031 A 
ATOM     46  C   UNL     1      12.191   1.933  -0.361  1.00  0.00     0.074 A 
ATOM     47  C   UNL     1      10.447   3.203  -1.585  1.00  0.00     0.049 A 
ATOM     48  N   UNL     1      13.275   2.282  -0.998  1.00  0.00    -0.248 NA
ATOM     49  C   UNL     1      12.424   1.009   0.765  1.00  0.00     0.031 C 
ATOM     50  C   UNL     1       9.097   3.644  -1.927  1.00  0.00     0.029 A 
ATOM     51  N   UNL     1      11.259   3.888  -2.453  1.00  0.00    -0.354 N 
ATOM     52  C   UNL     1      14.314   1.623  -0.352  1.00  0.00     0.074 A 
ATOM     53  C   UNL     1      13.738   0.869   0.737  1.00  0.00     0.031 C 
ATOM     54  C   UNL     1       9.175   4.545  -2.923  1.00  0.00     0.029 A 
ATOM     55  C   UNL     1      10.578   4.744  -3.285  1.00  0.00     0.049 A 
ATOM     56  H   UNL     1      12.237   3.777  -2.477  1.00  0.00     0.167 HD
ATOM     57  C   UNL     1      15.632   1.629  -0.651  1.00  0.00     0.034 A 
ATOM     58  C   UNL     1      11.046   5.588  -4.226  1.00  0.00     0.034 A 
ATOM     59  C   UNL     1      16.200   2.393  -1.724  1.00  0.00     0.049 A 
ATOM     60  C   UNL     1      12.527   5.603  -4.517  1.00  0.00     0.074 A 
ATOM     61  C   UNL     1      17.520   2.464  -2.125  1.00  0.00     0.029 A 
ATOM     62  N   UNL     1      15.479   3.236  -2.555  1.00  0.00    -0.354 N 
ATOM     63  N   UNL     1      13.484   4.879  -3.986  1.00  0.00    -0.248 NA
ATOM     64  C   UNL     1      12.987   6.522  -5.569  1.00  0.00     0.031 C 
ATOM     65  C   UNL     1      17.602   3.375  -3.183  1.00  0.00     0.029 A 
ATOM     66  C   UNL     1      16.327   3.844  -3.462  1.00  0.00     0.049 A 
ATOM     67  H   UNL     1      14.506   3.382  -2.506  1.00  0.00     0.167 HD
ATOM     68  C   UNL     1      14.649   5.225  -4.663  1.00  0.00     0.074 A 
ATOM     69  C   UNL     1      14.272   6.209  -5.658  1.00  0.00     0.031 C 
ATOM     70  C   UNL     1      15.918   4.782  -4.475  1.00  0.00     0.034 A 
BRANCH  57  71
ATOM     71  C   UNL     1      16.534   0.778   0.198  1.00  0.00     0.023 A 
ATOM     72  C   UNL     1      16.502  -0.626   0.063  1.00  0.00     0.012 A 
ATOM     73  C   UNL     1      17.425   1.366   1.114  1.00  0.00     0.148 A 
ATOM     74  C   UNL     1      17.323  -1.432   0.849  1.00  0.00     0.002 A 
ATOM     75  C   UNL     1      18.273   0.558   1.862  1.00  0.00     0.091 A 
ATOM     76  F   UNL     1      17.413   2.699   1.252  1.00  0.00    -0.205 F 
ATOM     77  C   UNL     1      18.216  -0.841   1.739  1.00  0.00     0.022 A 
BRANCH  75  78
ATOM     78  S   UNL     1      19.506   1.228   2.982  1.00  0.00     0.127 S 
ATOM     79  O   UNL     1      18.957   0.852   4.284  1.00  0.00    -0.237 OA
ATOM     80  O   UNL     1      20.707   0.490   2.591  1.00  0.00    -0.237 OA
ATOM     81  O   UNL     1      19.556   2.658   2.715  1.00  0.00    -0.744 OA
ENDBRANCH  75  78
ENDBRANCH  57  71
BRANCH  58  82
ATOM     82  C   UNL     1      10.105   6.454  -4.992  1.00  0.00     0.023 A 
ATOM     83  C   UNL     1       9.903   6.227  -6.367  1.00  0.00     0.012 A 
ATOM     84  C   UNL     1       9.408   7.503  -4.360  1.00  0.00     0.148 A 
ATOM     85  C   UNL     1       9.049   7.049  -7.106  1.00  0.00     0.002 A 
ATOM     86  C   UNL     1       8.518   8.283  -5.090  1.00  0.00     0.091 A 
ATOM     87  F   UNL     1       9.628   7.717  -3.055  1.00  0.00    -0.205 F 
ATOM     88  C   UNL     1       8.350   8.069  -6.466  1.00  0.00     0.022 A 
BRANCH  86  89
ATOM     89  S   UNL     1       7.484   9.536  -4.324  1.00  0.00     0.127 S 
ATOM     90  O   UNL     1       8.070  10.768  -4.846  1.00  0.00    -0.237 OA
ATOM     91  O   UNL     1       6.163   9.206  -4.861  1.00  0.00    -0.237 OA
ATOM     92  O   UNL     1       7.615   9.332  -2.888  1.00  0.00    -0.744 OA
ENDBRANCH  86  89
ENDBRANCH  58  82
BRANCH  70  93
ATOM     93  C   UNL     1      16.989   5.327  -5.385  1.00  0.00     0.023 A 
ATOM     94  C   UNL     1      17.420   6.660  -5.245  1.00  0.00     0.012 A 
ATOM     95  C   UNL     1      17.617   4.492  -6.331  1.00  0.00     0.148 A 
ATOM     96  C   UNL     1      18.430   7.167  -6.060  1.00  0.00     0.002 A 
ATOM     97  C   UNL     1      18.659   4.989  -7.104  1.00  0.00     0.091 A 
ATOM     98  F   UNL     1      17.183   3.230  -6.461  1.00  0.00    -0.205 F 
ATOM     99  C   UNL     1      19.057   6.330  -6.980  1.00  0.00     0.022 A 
BRANCH  97 100
ATOM    100  S   UNL     1      19.588   3.951  -8.238  1.00  0.00     0.127 S 
ATOM    101  O   UNL     1      19.044   4.362  -9.531  1.00  0.00    -0.237 OA
ATOM    102  O   UNL     1      20.967   4.376  -7.994  1.00  0.00    -0.237 OA
ATOM    103  O   UNL     1      19.304   2.578  -7.843  1.00  0.00    -0.744 OA
ENDBRANCH  97 100
ENDBRANCH  70  93
ENDBRANCH  44  45
ENDBRANCH  37  39
ENDBRANCH  36  37
ENDBRANCH  35  36
ENDBRANCH  34  35
ENDBRANCH  33  34
ENDBRANCH  32  33
ENDBRANCH  31  32
ENDBRANCH  30  31
ENDBRANCH   1  30
TORSDOF 29
