REMARK SMILES CC[C@H]1CC[C@](O)([C@H](F)C(=O)OCCOCCOCCOCCOC(=O)c2ccc(-c3c4nc(c(-c5cccc(S(=O)(=O)[O-])c5F)c5ccc([nH]5)c(-c5cccc(S(=O)(=O)[O-])c5F)c5nc(c(-c6cccc(S(=O)(=O)[O-])c6F)c6ccc3[nH]6)C=C5)C=C4)cc2)CC1
REMARK SMILES IDX 19 1 18 2 17 3 16 4 15 5 14 6 13 7 12 8 10 9 11 10 8 11 9 12
REMARK SMILES IDX 6 13 3 14 4 15 91 16 5 17 90 18 2 19 1 20 7 21 20 23 21 24
REMARK SMILES IDX 22 25 23 26 24 27 25 28 26 29 27 30 28 31 89 32 29 33 88 34
REMARK SMILES IDX 30 35 31 36 32 37 82 38 33 39 87 40 81 41 83 42 34 43 86 44
REMARK SMILES IDX 80 45 79 46 35 48 67 49 47 50 66 51 48 52 51 53 65 54 84 55
REMARK SMILES IDX 49 56 50 57 64 59 85 60 52 61 36 62 37 63 45 64 38 65 40 66
REMARK SMILES IDX 46 67 39 68 41 69 42 70 43 71 44 72 68 73 69 74 77 75 70 76
REMARK SMILES IDX 72 77 78 78 71 79 73 80 74 81 75 82 76 83 53 84 54 85 62 86
REMARK SMILES IDX 55 87 57 88 63 89 56 90 58 91 59 92 60 93 61 94
REMARK H PARENT 7 22 83 47 51 58
REMARK Flexibility Score: inf
ROOT
ATOM      1  C   UNL     1      -4.566  -4.246   4.044  1.00  0.00     0.188 C 
ENDROOT
BRANCH   1   2
ATOM      2  O   UNL     1      -3.188  -4.188   3.702  1.00  0.00    -0.377 OA
BRANCH   2   3
ATOM      3  C   UNL     1      -2.455  -5.379   3.561  1.00  0.00     0.188 C 
BRANCH   3   4
ATOM      4  C   UNL     1      -2.123  -6.135   4.858  1.00  0.00     0.188 C 
BRANCH   4   5
ATOM      5  O   UNL     1      -2.890  -5.911   6.021  1.00  0.00    -0.376 OA
BRANCH   5   6
ATOM      6  C   UNL     1      -2.928  -4.745   6.823  1.00  0.00     0.202 C 
BRANCH   6   7
ATOM      7  C   UNL     1      -2.170  -3.413   6.664  1.00  0.00     0.261 C 
BRANCH   7   8
ATOM      8  O   UNL     1      -1.501  -3.129   5.446  1.00  0.00    -0.461 OA
BRANCH   8   9
ATOM      9  C   UNL     1      -0.313  -3.763   5.329  1.00  0.00     0.343 C 
ATOM     10  O   UNL     1       0.065  -4.586   6.154  1.00  0.00    -0.249 OA
BRANCH   9  11
ATOM     11  C   UNL     1       0.431  -3.387   4.056  1.00  0.00     0.307 C 
ATOM     12  F   UNL     1      -0.172  -2.321   3.432  1.00  0.00    -0.232 F 
BRANCH  11  13
ATOM     13  C   UNL     1       1.918  -3.016   4.257  1.00  0.00     0.107 C 
ATOM     14  C   UNL     1       2.899  -4.228   6.823  1.00  0.00    -0.011 C 
ATOM     15  C   UNL     1       2.775  -5.062   5.533  1.00  0.00     0.006 C 
ATOM     16  C   UNL     1       2.201  -2.845   6.822  1.00  0.00     0.006 C 
ATOM     17  C   UNL     1       2.856  -4.228   4.274  1.00  0.00     0.039 C 
ATOM     18  C   UNL     1       2.167  -2.121   5.476  1.00  0.00     0.039 C 
BRANCH  14  19
ATOM     19  C   UNL     1       4.383  -4.055   7.199  1.00  0.00    -0.000 C 
ATOM     20  C   UNL     1       4.614  -4.496   8.636  1.00  0.00     0.004 C 
ENDBRANCH  14  19
BRANCH  13  21
ATOM     21  O   UNL     1       2.348  -2.262   3.095  1.00  0.00    -0.386 OA
ATOM     22  H   UNL     1       3.281  -2.016   3.196  1.00  0.00     0.211 HD
ENDBRANCH  13  21
ENDBRANCH  11  13
ENDBRANCH   9  11
ENDBRANCH   8   9
ENDBRANCH   7   8
ENDBRANCH   6   7
ENDBRANCH   5   6
ENDBRANCH   4   5
ENDBRANCH   3   4
ENDBRANCH   2   3
ENDBRANCH   1   2
BRANCH   1  23
ATOM     23  C   UNL     1      -5.276  -5.577   4.385  1.00  0.00     0.188 C 
BRANCH  23  24
ATOM     24  O   UNL     1      -4.699  -6.742   3.818  1.00  0.00    -0.376 OA
BRANCH  24  25
ATOM     25  C   UNL     1      -5.320  -7.327   2.688  1.00  0.00     0.202 C 
BRANCH  25  26
ATOM     26  C   UNL     1      -5.352  -6.499   1.395  1.00  0.00     0.261 C 
BRANCH  26  27
ATOM     27  O   UNL     1      -5.932  -5.192   1.499  1.00  0.00    -0.460 OA
BRANCH  27  28
ATOM     28  C   UNL     1      -7.236  -5.119   1.843  1.00  0.00     0.338 C 
ATOM     29  O   UNL     1      -7.992  -6.055   2.054  1.00  0.00    -0.246 OA
BRANCH  28  30
ATOM     30  C   UNL     1      -7.547  -3.704   2.129  1.00  0.00     0.060 A 
ATOM     31  C   UNL     1      -7.998  -3.354   3.410  1.00  0.00     0.016 A 
ATOM     32  C   UNL     1      -7.368  -2.727   1.148  1.00  0.00     0.016 A 
ATOM     33  C   UNL     1      -8.311  -2.027   3.700  1.00  0.00     0.010 A 
ATOM     34  C   UNL     1      -7.709  -1.403   1.432  1.00  0.00     0.010 A 
ATOM     35  C   UNL     1      -8.220  -1.056   2.696  1.00  0.00    -0.014 A 
BRANCH  35  36
ATOM     36  C   UNL     1      -8.874   0.259   2.890  1.00  0.00     0.031 A 
ATOM     37  C   UNL     1     -10.252   0.449   2.317  1.00  0.00     0.074 A 
ATOM     38  C   UNL     1      -8.268   1.259   3.553  1.00  0.00     0.049 A 
ATOM     39  N   UNL     1     -11.006   1.516   2.305  1.00  0.00    -0.248 NA
ATOM     40  C   UNL     1     -10.860  -0.725   1.665  1.00  0.00     0.031 C 
ATOM     41  C   UNL     1      -6.943   1.190   4.165  1.00  0.00     0.029 A 
ATOM     42  N   UNL     1      -8.685   2.545   3.792  1.00  0.00    -0.354 N 
ATOM     43  C   UNL     1     -12.156   1.155   1.614  1.00  0.00     0.074 A 
ATOM     44  C   UNL     1     -12.002  -0.227   1.219  1.00  0.00     0.031 C 
ATOM     45  C   UNL     1      -6.639   2.396   4.679  1.00  0.00     0.029 A 
ATOM     46  C   UNL     1      -7.733   3.326   4.404  1.00  0.00     0.049 A 
ATOM     47  H   UNL     1      -9.580   2.876   3.549  1.00  0.00     0.167 HD
ATOM     48  C   UNL     1     -13.247   1.906   1.338  1.00  0.00     0.034 A 
ATOM     49  C   UNL     1      -7.735   4.646   4.678  1.00  0.00     0.034 A 
ATOM     50  C   UNL     1     -13.402   3.275   1.742  1.00  0.00     0.049 A 
ATOM     51  C   UNL     1      -8.952   5.469   4.332  1.00  0.00     0.074 A 
ATOM     52  C   UNL     1     -14.491   4.107   1.555  1.00  0.00     0.029 A 
ATOM     53  N   UNL     1     -12.435   4.021   2.396  1.00  0.00    -0.354 N 
ATOM     54  N   UNL     1     -10.079   5.088   3.779  1.00  0.00    -0.248 NA
ATOM     55  C   UNL     1      -8.910   6.898   4.677  1.00  0.00     0.031 C 
ATOM     56  C   UNL     1     -14.165   5.370   2.056  1.00  0.00     0.029 A 
ATOM     57  C   UNL     1     -12.893   5.309   2.604  1.00  0.00     0.049 A 
ATOM     58  H   UNL     1     -11.552   3.683   2.672  1.00  0.00     0.167 HD
ATOM     59  C   UNL     1     -10.892   6.217   3.749  1.00  0.00     0.074 A 
ATOM     60  C   UNL     1     -10.135   7.292   4.355  1.00  0.00     0.031 C 
ATOM     61  C   UNL     1     -12.149   6.355   3.258  1.00  0.00     0.034 A 
BRANCH  48  62
ATOM     62  C   UNL     1     -14.363   1.262   0.559  1.00  0.00     0.023 A 
ATOM     63  C   UNL     1     -15.175   0.283   1.168  1.00  0.00     0.012 A 
ATOM     64  C   UNL     1     -14.643   1.672  -0.758  1.00  0.00     0.148 A 
ATOM     65  C   UNL     1     -16.230  -0.298   0.466  1.00  0.00     0.002 A 
ATOM     66  C   UNL     1     -15.726   1.125  -1.434  1.00  0.00     0.091 A 
ATOM     67  F   UNL     1     -13.843   2.586  -1.326  1.00  0.00    -0.205 F 
ATOM     68  C   UNL     1     -16.513   0.131  -0.828  1.00  0.00     0.022 A 
BRANCH  66  69
ATOM     69  S   UNL     1     -16.223   1.670  -3.071  1.00  0.00     0.127 S 
ATOM     70  O   UNL     1     -15.934   0.484  -3.877  1.00  0.00    -0.237 OA
ATOM     71  O   UNL     1     -17.647   1.946  -2.881  1.00  0.00    -0.237 OA
ATOM     72  O   UNL     1     -15.409   2.839  -3.372  1.00  0.00    -0.744 OA
ENDBRANCH  66  69
ENDBRANCH  48  62
BRANCH  49  73
ATOM     73  C   UNL     1      -6.550   5.281   5.322  1.00  0.00     0.023 A 
ATOM     74  C   UNL     1      -6.654   5.791   6.632  1.00  0.00     0.012 A 
ATOM     75  C   UNL     1      -5.323   5.391   4.640  1.00  0.00     0.148 A 
ATOM     76  C   UNL     1      -5.570   6.431   7.234  1.00  0.00     0.002 A 
ATOM     77  C   UNL     1      -4.230   5.977   5.267  1.00  0.00     0.091 A 
ATOM     78  F   UNL     1      -5.248   4.915   3.389  1.00  0.00    -0.205 F 
ATOM     79  C   UNL     1      -4.357   6.517   6.556  1.00  0.00     0.022 A 
BRANCH  77  80
ATOM     80  S   UNL     1      -2.597   6.021   4.522  1.00  0.00     0.127 S 
ATOM     81  O   UNL     1      -2.417   7.450   4.279  1.00  0.00    -0.237 OA
ATOM     82  O   UNL     1      -1.766   5.468   5.591  1.00  0.00    -0.237 OA
ATOM     83  O   UNL     1      -2.683   5.185   3.333  1.00  0.00    -0.744 OA
ENDBRANCH  77  80
ENDBRANCH  49  73
BRANCH  61  84
ATOM     84  C   UNL     1     -12.822   7.696   3.404  1.00  0.00     0.023 A 
ATOM     85  C   UNL     1     -12.395   8.793   2.630  1.00  0.00     0.012 A 
ATOM     86  C   UNL     1     -13.937   7.843   4.254  1.00  0.00     0.148 A 
ATOM     87  C   UNL     1     -13.044  10.024   2.728  1.00  0.00     0.002 A 
ATOM     88  C   UNL     1     -14.613   9.055   4.304  1.00  0.00     0.091 A 
ATOM     89  F   UNL     1     -14.320   6.790   4.992  1.00  0.00    -0.205 F 
ATOM     90  C   UNL     1     -14.159  10.151   3.553  1.00  0.00     0.022 A 
BRANCH  88  91
ATOM     91  S   UNL     1     -16.117   9.282   5.260  1.00  0.00     0.127 S 
ATOM     92  O   UNL     1     -15.659  10.169   6.328  1.00  0.00    -0.237 OA
ATOM     93  O   UNL     1     -17.010   9.910   4.286  1.00  0.00    -0.237 OA
ATOM     94  O   UNL     1     -16.528   7.952   5.688  1.00  0.00    -0.744 OA
ENDBRANCH  88  91
ENDBRANCH  61  84
ENDBRANCH  35  36
ENDBRANCH  28  30
ENDBRANCH  27  28
ENDBRANCH  26  27
ENDBRANCH  25  26
ENDBRANCH  24  25
ENDBRANCH  23  24
ENDBRANCH   1  23
TORSDOF 26
