REMARK SMILES C[C@H]1C[N@H+]2CCCC[C@@H]2CN1c1ccc(C(=O)OCCOCCOCCOCCOC(=O)c2ccc(-c3c4nc(c(-c5cccc(S(=O)(=O)[O-])c5F)c5ccc([nH]5)c(-c5cccc(S(=O)(=O)[O-])c5F)c5nc(c(-c6cccc(S(=O)(=O)[O-])c6F)c6ccc3[nH]6)C=C5)C=C4)cc2)cc1Cl
REMARK SMILES IDX 25 1 24 2 23 3 22 4 21 5 20 6 19 7 18 8 16 9 17 10 15 11
REMARK SMILES IDX 12 12 13 13 97 14 14 15 96 16 98 17 11 18 1 19 2 20 3 21
REMARK SMILES IDX 4 22 10 23 5 24 9 25 6 27 8 28 7 29 26 30 27 31 28 32 29 33
REMARK SMILES IDX 30 34 31 35 32 36 33 37 34 38 95 39 35 40 94 41 36 42 37 43
REMARK SMILES IDX 38 44 88 45 39 46 93 47 87 48 89 49 40 50 92 51 86 52 85 53
REMARK SMILES IDX 41 55 73 56 53 57 72 58 54 59 57 60 71 61 90 62 55 63 56 64
REMARK SMILES IDX 70 66 91 67 58 68 42 69 43 70 51 71 44 72 46 73 52 74 45 75
REMARK SMILES IDX 47 76 48 77 49 78 50 79 74 80 75 81 83 82 76 83 78 84 84 85
REMARK SMILES IDX 77 86 79 87 80 88 81 89 82 90 59 91 60 92 68 93 61 94 63 95
REMARK SMILES IDX 69 96 62 97 64 98 65 99 66 100 67 101
REMARK H PARENT 4 26 89 54 57 65
REMARK Flexibility Score: inf
ROOT
ATOM      1  C   UNL     1      -3.010   3.877   5.500  1.00  0.00     0.188 C 
ENDROOT
BRANCH   1   2
ATOM      2  O   UNL     1      -2.801   2.837   4.546  1.00  0.00    -0.377 OA
BRANCH   2   3
ATOM      3  C   UNL     1      -2.492   3.156   3.201  1.00  0.00     0.188 C 
BRANCH   3   4
ATOM      4  C   UNL     1      -3.548   3.957   2.414  1.00  0.00     0.188 C 
BRANCH   4   5
ATOM      5  O   UNL     1      -4.525   4.574   3.229  1.00  0.00    -0.376 OA
BRANCH   5   6
ATOM      6  C   UNL     1      -5.793   3.973   3.419  1.00  0.00     0.202 C 
BRANCH   6   7
ATOM      7  C   UNL     1      -5.972   2.470   3.693  1.00  0.00     0.261 C 
BRANCH   7   8
ATOM      8  O   UNL     1      -5.048   1.578   3.069  1.00  0.00    -0.460 OA
BRANCH   8   9
ATOM      9  C   UNL     1      -5.227   1.295   1.763  1.00  0.00     0.338 C 
ATOM     10  O   UNL     1      -6.095   1.732   1.028  1.00  0.00    -0.246 OA
BRANCH   9  11
ATOM     11  C   UNL     1      -4.044   0.526   1.306  1.00  0.00     0.061 A 
ATOM     12  C   UNL     1      -1.736  -0.834   0.399  1.00  0.00     0.056 A 
ATOM     13  C   UNL     1      -2.305   0.202  -0.355  1.00  0.00     0.028 A 
ATOM     14  C   UNL     1      -2.335  -1.139   1.649  1.00  0.00     0.065 A 
ATOM     15  C   UNL     1      -3.452   0.872   0.086  1.00  0.00     0.018 A 
ATOM     16  C   UNL     1      -3.473  -0.468   2.101  1.00  0.00     0.038 A 
ATOM     17  Cl  UNL     1      -1.661  -2.342   2.703  1.00  0.00    -0.082 Cl
BRANCH  12  18
ATOM     18  N   UNL     1      -0.669  -1.577  -0.094  1.00  0.00    -0.356 N 
ATOM     19  C   UNL     1       1.052   0.225  -0.042  1.00  0.00     0.037 C 
ATOM     20  C   UNL     1       0.514  -1.012  -0.773  1.00  0.00     0.134 C 
ATOM     21  C   UNL     1       1.682  -2.065  -0.823  1.00  0.00     0.287 C 
ATOM     22  N   UNL     1       1.342  -3.490  -1.069  1.00  0.00    -0.329 N 
ATOM     23  C   UNL     1      -1.036  -2.928  -0.551  1.00  0.00     0.182 C 
ATOM     24  C   UNL     1       2.481  -4.341  -0.677  1.00  0.00     0.262 C 
ATOM     25  C   UNL     1       0.146  -3.876  -0.277  1.00  0.00     0.203 C 
ATOM     26  H   UNL     1       1.140  -3.616  -2.061  1.00  0.00     0.348 HD
ATOM     27  C   UNL     1       2.194  -5.825  -0.916  1.00  0.00     0.062 C 
ATOM     28  C   UNL     1      -0.245  -5.324  -0.597  1.00  0.00     0.067 C 
ATOM     29  C   UNL     1       0.897  -6.272  -0.249  1.00  0.00     0.012 C 
ENDBRANCH  12  18
ENDBRANCH   9  11
ENDBRANCH   8   9
ENDBRANCH   7   8
ENDBRANCH   6   7
ENDBRANCH   5   6
ENDBRANCH   4   5
ENDBRANCH   3   4
ENDBRANCH   2   3
ENDBRANCH   1   2
BRANCH   1  30
ATOM     30  C   UNL     1      -2.760   5.374   5.187  1.00  0.00     0.188 C 
BRANCH  30  31
ATOM     31  O   UNL     1      -1.942   5.627   4.056  1.00  0.00    -0.376 OA
BRANCH  31  32
ATOM     32  C   UNL     1      -0.624   6.094   4.279  1.00  0.00     0.202 C 
BRANCH  32  33
ATOM     33  C   UNL     1       0.339   5.124   4.976  1.00  0.00     0.261 C 
BRANCH  33  34
ATOM     34  O   UNL     1      -0.102   4.609   6.240  1.00  0.00    -0.460 OA
BRANCH  34  35
ATOM     35  C   UNL     1      -0.233   5.499   7.245  1.00  0.00     0.338 C 
ATOM     36  O   UNL     1      -0.003   6.700   7.196  1.00  0.00    -0.246 OA
BRANCH  35  37
ATOM     37  C   UNL     1      -0.888   4.820   8.378  1.00  0.00     0.060 A 
ATOM     38  C   UNL     1      -2.100   5.331   8.860  1.00  0.00     0.016 A 
ATOM     39  C   UNL     1      -0.306   3.696   8.968  1.00  0.00     0.016 A 
ATOM     40  C   UNL     1      -2.702   4.754   9.976  1.00  0.00     0.010 A 
ATOM     41  C   UNL     1      -0.903   3.128  10.097  1.00  0.00     0.010 A 
ATOM     42  C   UNL     1      -2.075   3.688  10.634  1.00  0.00    -0.014 A 
BRANCH  42  43
ATOM     43  C   UNL     1      -2.530   3.319  11.996  1.00  0.00     0.031 A 
ATOM     44  C   UNL     1      -1.758   3.850  13.175  1.00  0.00     0.074 A 
ATOM     45  C   UNL     1      -3.623   2.562  12.190  1.00  0.00     0.049 A 
ATOM     46  N   UNL     1      -1.976   3.686  14.453  1.00  0.00    -0.248 NA
ATOM     47  C   UNL     1      -0.578   4.679  12.869  1.00  0.00     0.031 C 
ATOM     48  C   UNL     1      -4.456   1.992  11.133  1.00  0.00     0.029 A 
ATOM     49  N   UNL     1      -4.208   2.128  13.353  1.00  0.00    -0.354 N 
ATOM     50  C   UNL     1      -0.948   4.359  15.101  1.00  0.00     0.074 A 
ATOM     51  C   UNL     1      -0.097   4.923  14.078  1.00  0.00     0.031 C 
ATOM     52  C   UNL     1      -5.433   1.261  11.697  1.00  0.00     0.029 A 
ATOM     53  C   UNL     1      -5.281   1.294  13.151  1.00  0.00     0.049 A 
ATOM     54  H   UNL     1      -3.890   2.390  14.248  1.00  0.00     0.167 HD
ATOM     55  C   UNL     1      -0.735   4.507  16.430  1.00  0.00     0.034 A 
ATOM     56  C   UNL     1      -6.038   0.617  14.038  1.00  0.00     0.034 A 
ATOM     57  C   UNL     1      -1.590   3.957  17.446  1.00  0.00     0.049 A 
ATOM     58  C   UNL     1      -5.773   0.784  15.512  1.00  0.00     0.074 A 
ATOM     59  C   UNL     1      -1.492   4.096  18.819  1.00  0.00     0.029 A 
ATOM     60  N   UNL     1      -2.686   3.145  17.203  1.00  0.00    -0.354 N 
ATOM     61  N   UNL     1      -4.869   1.521  16.113  1.00  0.00    -0.248 NA
ATOM     62  C   UNL     1      -6.657   0.054  16.433  1.00  0.00     0.031 C 
ATOM     63  C   UNL     1      -2.502   3.329  19.408  1.00  0.00     0.029 A 
ATOM     64  C   UNL     1      -3.263   2.758  18.401  1.00  0.00     0.049 A 
ATOM     65  H   UNL     1      -3.008   2.882  16.311  1.00  0.00     0.167 HD
ATOM     66  C   UNL     1      -5.101   1.376  17.477  1.00  0.00     0.074 A 
ATOM     67  C   UNL     1      -6.243   0.495  17.613  1.00  0.00     0.031 C 
ATOM     68  C   UNL     1      -4.426   1.915  18.523  1.00  0.00     0.034 A 
BRANCH  55  69
ATOM     69  C   UNL     1       0.473   5.297  16.860  1.00  0.00     0.023 A 
ATOM     70  C   UNL     1       0.515   6.692  16.663  1.00  0.00     0.012 A 
ATOM     71  C   UNL     1       1.554   4.657  17.499  1.00  0.00     0.148 A 
ATOM     72  C   UNL     1       1.628   7.433  17.060  1.00  0.00     0.002 A 
ATOM     73  C   UNL     1       2.637   5.409  17.937  1.00  0.00     0.091 A 
ATOM     74  F   UNL     1       1.507   3.327  17.655  1.00  0.00    -0.205 F 
ATOM     75  C   UNL     1       2.682   6.793  17.706  1.00  0.00     0.022 A 
BRANCH  73  76
ATOM     76  S   UNL     1       4.004   4.691  18.853  1.00  0.00     0.127 S 
ATOM     77  O   UNL     1       5.096   4.798  17.886  1.00  0.00    -0.237 OA
ATOM     78  O   UNL     1       4.114   5.596  19.998  1.00  0.00    -0.237 OA
ATOM     79  O   UNL     1       3.598   3.334  19.188  1.00  0.00    -0.744 OA
ENDBRANCH  73  76
ENDBRANCH  55  69
BRANCH  56  80
ATOM     80  C   UNL     1      -7.137  -0.267  13.556  1.00  0.00     0.023 A 
ATOM     81  C   UNL     1      -8.479   0.080  13.805  1.00  0.00     0.012 A 
ATOM     82  C   UNL     1      -6.853  -1.448  12.843  1.00  0.00     0.148 A 
ATOM     83  C   UNL     1      -9.518  -0.751  13.381  1.00  0.00     0.002 A 
ATOM     84  C   UNL     1      -7.893  -2.240  12.373  1.00  0.00     0.091 A 
ATOM     85  F   UNL     1      -5.569  -1.767  12.631  1.00  0.00    -0.205 F 
ATOM     86  C   UNL     1      -9.226  -1.904  12.657  1.00  0.00     0.022 A 
BRANCH  84  87
ATOM     87  S   UNL     1      -7.618  -3.672  11.325  1.00  0.00     0.127 S 
ATOM     88  O   UNL     1      -8.059  -4.764  12.190  1.00  0.00    -0.237 OA
ATOM     89  O   UNL     1      -8.501  -3.387  10.194  1.00  0.00    -0.237 OA
ATOM     90  O   UNL     1      -6.198  -3.659  11.002  1.00  0.00    -0.744 OA
ENDBRANCH  84  87
ENDBRANCH  56  80
BRANCH  68  91
ATOM     91  C   UNL     1      -4.930   1.617  19.913  1.00  0.00     0.023 A 
ATOM     92  C   UNL     1      -4.796   0.324  20.456  1.00  0.00     0.012 A 
ATOM     93  C   UNL     1      -5.483   2.644  20.706  1.00  0.00     0.148 A 
ATOM     94  C   UNL     1      -5.246   0.047  21.747  1.00  0.00     0.002 A 
ATOM     95  C   UNL     1      -5.876   2.374  22.011  1.00  0.00     0.091 A 
ATOM     96  F   UNL     1      -5.616   3.865  20.169  1.00  0.00    -0.205 F 
ATOM     97  C   UNL     1      -5.774   1.073  22.527  1.00  0.00     0.022 A 
BRANCH  95  98
ATOM     98  S   UNL     1      -6.472   3.654  23.121  1.00  0.00     0.127 S 
ATOM     99  O   UNL     1      -7.895   3.330  23.212  1.00  0.00    -0.237 OA
ATOM    100  O   UNL     1      -5.706   3.389  24.339  1.00  0.00    -0.237 OA
ATOM    101  O   UNL     1      -6.161   4.923  22.476  1.00  0.00    -0.744 OA
ENDBRANCH  95  98
ENDBRANCH  68  91
ENDBRANCH  42  43
ENDBRANCH  35  37
ENDBRANCH  34  35
ENDBRANCH  33  34
ENDBRANCH  32  33
ENDBRANCH  31  32
ENDBRANCH  30  31
ENDBRANCH   1  30
TORSDOF 24
