REMARK SMILES O=C(N/N=C/c1ccc(C(=O)OCCOCCOCCOCCOC(=O)c2ccc(-c3c4nc(c(-c5cccc(S(=O)(=O)[O-])c5F)c5ccc([nH]5)c(-c5cccc(S(=O)(=O)[O-])c5F)c5nc(c(-c6cccc(S(=O)(=O)[O-])c6F)c6ccc3[nH]6)C=C5)C=C4)cc2)cc1)C(=O)Nc1ccc2c(c1)OCO2
REMARK SMILES IDX 17 1 16 2 15 3 14 4 13 5 12 6 10 7 11 8 9 9 6 10 7 11 91 12
REMARK SMILES IDX 8 13 90 14 5 15 4 16 3 17 1 18 2 19 92 21 93 22 94 23 95 25
REMARK SMILES IDX 96 26 100 27 97 28 99 29 98 30 101 31 103 32 102 33 18 34
REMARK SMILES IDX 19 35 20 36 21 37 22 38 23 39 24 40 25 41 26 42 27 43 28 44
REMARK SMILES IDX 89 45 29 46 88 47 30 48 31 49 32 50 82 51 33 52 87 53 81 54
REMARK SMILES IDX 83 55 34 56 86 57 80 58 79 59 35 61 67 62 47 63 66 64 48 65
REMARK SMILES IDX 51 66 65 67 84 68 49 69 50 70 64 72 85 73 52 74 36 75 37 76
REMARK SMILES IDX 45 77 38 78 40 79 46 80 39 81 41 82 42 83 43 84 44 85 68 86
REMARK SMILES IDX 69 87 77 88 70 89 72 90 78 91 71 92 73 93 74 94 75 95 76 96
REMARK SMILES IDX 53 97 54 98 62 99 55 100 57 101 63 102 56 103 58 104 59 105
REMARK SMILES IDX 60 106 61 107
REMARK H PARENT 3 20 94 24 83 60 51 71
REMARK Flexibility Score: inf
ROOT
ATOM      1  C   UNL     1      10.994   1.377   1.891  1.00  0.00     0.188 C 
ENDROOT
BRANCH   1   2
ATOM      2  C   UNL     1      11.846   0.093   1.864  1.00  0.00     0.188 C 
BRANCH   2   3
ATOM      3  O   UNL     1      13.212   0.336   1.581  1.00  0.00    -0.376 OA
BRANCH   3   4
ATOM      4  C   UNL     1      13.759   0.029   0.312  1.00  0.00     0.202 C 
BRANCH   4   5
ATOM      5  C   UNL     1      13.115   0.488  -1.008  1.00  0.00     0.261 C 
BRANCH   5   6
ATOM      6  O   UNL     1      11.701   0.659  -1.005  1.00  0.00    -0.460 OA
BRANCH   6   7
ATOM      7  C   UNL     1      10.951  -0.452  -1.125  1.00  0.00     0.338 C 
ATOM      8  O   UNL     1      11.344  -1.597  -1.262  1.00  0.00    -0.246 OA
BRANCH   7   9
ATOM      9  C   UNL     1       9.547  -0.088  -0.841  1.00  0.00     0.060 A 
ATOM     10  C   UNL     1       6.545   0.347  -0.560  1.00  0.00    -0.005 A 
ATOM     11  C   UNL     1       7.413  -0.634   0.178  1.00  0.00     0.010 A 
ATOM     12  C   UNL     1       7.594   1.320  -1.051  1.00  0.00     0.010 A 
ATOM     13  C   UNL     1       8.791  -0.900  -0.024  1.00  0.00     0.016 A 
ATOM     14  C   UNL     1       8.985   1.102  -1.232  1.00  0.00     0.016 A 
BRANCH  10  15
ATOM     15  C   UNL     1       4.444   0.226  -0.980  1.00  0.00     0.141 C 
ATOM     16  N   UNL     1       3.321   0.989  -0.757  1.00  0.00    -0.180 NA
BRANCH  16  17
ATOM     17  N   UNL     1       2.188   0.254  -0.699  1.00  0.00    -0.239 N 
ATOM     18  O   UNL     1       0.866  -1.262   0.354  1.00  0.00    -0.262 OA
ATOM     19  C   UNL     1       1.861  -0.539   0.392  1.00  0.00     0.329 C 
ATOM     20  H   UNL     1       1.569   0.282  -1.464  1.00  0.00     0.194 HD
BRANCH  19  21
ATOM     21  C   UNL     1       2.666  -0.451   1.720  1.00  0.00     0.315 C 
ATOM     22  O   UNL     1       2.035  -0.247   2.760  1.00  0.00    -0.263 OA
ATOM     23  N   UNL     1       4.035  -0.722   1.821  1.00  0.00    -0.318 N 
ATOM     24  H   UNL     1       4.356  -1.227   2.603  1.00  0.00     0.170 HD
BRANCH  23  25
ATOM     25  C   UNL     1       4.975  -0.310   0.860  1.00  0.00     0.045 A 
ATOM     26  C   UNL     1       5.337  -1.514  -0.492  1.00  0.00     0.030 A 
ATOM     27  C   UNL     1       5.071   1.493   0.552  1.00  0.00     0.076 A 
ATOM     28  C   UNL     1       5.739  -0.883  -2.171  1.00  0.00     0.053 A 
ATOM     29  C   UNL     1       5.302   2.057  -1.157  1.00  0.00     0.167 A 
ATOM     30  C   UNL     1       5.619   0.886  -2.482  1.00  0.00     0.165 A 
ATOM     31  O   UNL     1       5.104   3.260  -1.749  1.00  0.00    -0.454 OA
ATOM     32  O   UNL     1       5.613   1.595  -3.631  1.00  0.00    -0.454 OA
ATOM     33  C   UNL     1       5.068   2.897  -3.183  1.00  0.00     0.468 C 
ENDBRANCH  23  25
ENDBRANCH  19  21
ENDBRANCH  16  17
ENDBRANCH  10  15
ENDBRANCH   7   9
ENDBRANCH   6   7
ENDBRANCH   5   6
ENDBRANCH   4   5
ENDBRANCH   3   4
ENDBRANCH   2   3
ENDBRANCH   1   2
BRANCH   1  34
ATOM     34  O   UNL     1      11.529   2.474   1.176  1.00  0.00    -0.377 OA
BRANCH  34  35
ATOM     35  C   UNL     1      12.696   3.126   1.677  1.00  0.00     0.188 C 
BRANCH  35  36
ATOM     36  C   UNL     1      13.420   2.683   2.975  1.00  0.00     0.188 C 
BRANCH  36  37
ATOM     37  O   UNL     1      12.606   2.022   3.935  1.00  0.00    -0.376 OA
BRANCH  37  38
ATOM     38  C   UNL     1      12.268   2.739   5.110  1.00  0.00     0.202 C 
BRANCH  38  39
ATOM     39  C   UNL     1      11.296   3.908   4.912  1.00  0.00     0.261 C 
BRANCH  39  40
ATOM     40  O   UNL     1      11.747   4.939   4.023  1.00  0.00    -0.460 OA
BRANCH  40  41
ATOM     41  C   UNL     1      12.879   5.595   4.364  1.00  0.00     0.338 C 
ATOM     42  O   UNL     1      13.553   5.431   5.364  1.00  0.00    -0.246 OA
BRANCH  41  43
ATOM     43  C   UNL     1      13.274   6.420   3.207  1.00  0.00     0.060 A 
ATOM     44  C   UNL     1      14.523   6.204   2.609  1.00  0.00     0.016 A 
ATOM     45  C   UNL     1      12.403   7.391   2.710  1.00  0.00     0.016 A 
ATOM     46  C   UNL     1      14.921   6.991   1.530  1.00  0.00     0.010 A 
ATOM     47  C   UNL     1      12.811   8.191   1.644  1.00  0.00     0.010 A 
ATOM     48  C   UNL     1      14.085   8.020   1.075  1.00  0.00    -0.014 A 
BRANCH  48  49
ATOM     49  C   UNL     1      14.620   9.058   0.166  1.00  0.00     0.031 A 
ATOM     50  C   UNL     1      15.112  10.342   0.777  1.00  0.00     0.074 A 
ATOM     51  C   UNL     1      14.655   8.879  -1.165  1.00  0.00     0.049 A 
ATOM     52  N   UNL     1      15.569  11.418   0.194  1.00  0.00    -0.248 NA
ATOM     53  C   UNL     1      15.077  10.421   2.248  1.00  0.00     0.031 C 
ATOM     54  C   UNL     1      14.225   7.674  -1.870  1.00  0.00     0.029 A 
ATOM     55  N   UNL     1      15.055   9.731  -2.164  1.00  0.00    -0.354 N 
ATOM     56  C   UNL     1      15.851  12.310   1.221  1.00  0.00     0.074 A 
ATOM     57  C   UNL     1      15.496  11.658   2.462  1.00  0.00     0.031 C 
ATOM     58  C   UNL     1      14.361   7.873  -3.194  1.00  0.00     0.029 A 
ATOM     59  C   UNL     1      14.860   9.227  -3.428  1.00  0.00     0.049 A 
ATOM     60  H   UNL     1      15.444  10.619  -1.991  1.00  0.00     0.167 HD
ATOM     61  C   UNL     1      16.373  13.556   1.143  1.00  0.00     0.034 A 
ATOM     62  C   UNL     1      15.044   9.806  -4.631  1.00  0.00     0.034 A 
ATOM     63  C   UNL     1      16.725  14.201  -0.091  1.00  0.00     0.049 A 
ATOM     64  C   UNL     1      15.574  11.218  -4.695  1.00  0.00     0.074 A 
ATOM     65  C   UNL     1      17.286  15.451  -0.281  1.00  0.00     0.029 A 
ATOM     66  N   UNL     1      16.535  13.652  -1.350  1.00  0.00    -0.354 N 
ATOM     67  N   UNL     1      15.933  12.013  -3.716  1.00  0.00    -0.248 NA
ATOM     68  C   UNL     1      15.753  11.800  -6.034  1.00  0.00     0.031 C 
ATOM     69  C   UNL     1      17.404  15.670  -1.657  1.00  0.00     0.029 A 
ATOM     70  C   UNL     1      16.955  14.541  -2.324  1.00  0.00     0.049 A 
ATOM     71  H   UNL     1      16.157  12.760  -1.526  1.00  0.00     0.167 HD
ATOM     72  C   UNL     1      16.422  13.168  -4.319  1.00  0.00     0.074 A 
ATOM     73  C   UNL     1      16.323  12.963  -5.750  1.00  0.00     0.031 C 
ATOM     74  C   UNL     1      16.902  14.299  -3.743  1.00  0.00     0.034 A 
BRANCH  61  75
ATOM     75  C   UNL     1      16.602  14.292   2.437  1.00  0.00     0.023 A 
ATOM     76  C   UNL     1      17.623  13.866   3.313  1.00  0.00     0.012 A 
ATOM     77  C   UNL     1      15.822  15.412   2.780  1.00  0.00     0.148 A 
ATOM     78  C   UNL     1      17.834  14.517   4.528  1.00  0.00     0.002 A 
ATOM     79  C   UNL     1      16.070  16.085   3.970  1.00  0.00     0.091 A 
ATOM     80  F   UNL     1      14.839  15.786   1.948  1.00  0.00    -0.205 F 
ATOM     81  C   UNL     1      17.065  15.631   4.851  1.00  0.00     0.022 A 
BRANCH  79  82
ATOM     82  S   UNL     1      15.186  17.576   4.439  1.00  0.00     0.127 S 
ATOM     83  O   UNL     1      14.346  17.089   5.532  1.00  0.00    -0.237 OA
ATOM     84  O   UNL     1      16.275  18.461   4.855  1.00  0.00    -0.237 OA
ATOM     85  O   UNL     1      14.473  18.012   3.247  1.00  0.00    -0.744 OA
ENDBRANCH  79  82
ENDBRANCH  61  75
BRANCH  62  86
ATOM     86  C   UNL     1      14.766   9.043  -5.881  1.00  0.00     0.023 A 
ATOM     87  C   UNL     1      15.837   8.674  -6.718  1.00  0.00     0.012 A 
ATOM     88  C   UNL     1      13.455   8.677  -6.244  1.00  0.00     0.148 A 
ATOM     89  C   UNL     1      15.606   7.984  -7.909  1.00  0.00     0.002 A 
ATOM     90  C   UNL     1      13.236   7.942  -7.404  1.00  0.00     0.091 A 
ATOM     91  F   UNL     1      12.447   9.050  -5.442  1.00  0.00    -0.205 F 
ATOM     92  C   UNL     1      14.308   7.611  -8.247  1.00  0.00     0.022 A 
BRANCH  90  93
ATOM     93  S   UNL     1      11.617   7.314  -7.861  1.00  0.00     0.127 S 
ATOM     94  O   UNL     1      11.332   8.075  -9.075  1.00  0.00    -0.237 OA
ATOM     95  O   UNL     1      11.898   5.893  -8.075  1.00  0.00    -0.237 OA
ATOM     96  O   UNL     1      10.749   7.591  -6.726  1.00  0.00    -0.744 OA
ENDBRANCH  90  93
ENDBRANCH  62  86
BRANCH  74  97
ATOM     97  C   UNL     1      17.414  15.389  -4.651  1.00  0.00     0.023 A 
ATOM     98  C   UNL     1      16.512  16.163  -5.407  1.00  0.00     0.012 A 
ATOM     99  C   UNL     1      18.789  15.698  -4.687  1.00  0.00     0.148 A 
ATOM    100  C   UNL     1      16.974  17.205  -6.210  1.00  0.00     0.002 A 
ATOM    101  C   UNL     1      19.236  16.772  -5.448  1.00  0.00     0.091 A 
ATOM    102  F   UNL     1      19.634  14.941  -3.972  1.00  0.00    -0.205 F 
ATOM    103  C   UNL     1      18.332  17.518  -6.221  1.00  0.00     0.022 A 
BRANCH 101 104
ATOM    104  S   UNL     1      20.950  17.310  -5.444  1.00  0.00     0.127 S 
ATOM    105  O   UNL     1      21.387  16.922  -6.784  1.00  0.00    -0.237 OA
ATOM    106  O   UNL     1      20.820  18.753  -5.239  1.00  0.00    -0.237 OA
ATOM    107  O   UNL     1      21.593  16.599  -4.347  1.00  0.00    -0.744 OA
ENDBRANCH 101 104
ENDBRANCH  74  97
ENDBRANCH  48  49
ENDBRANCH  41  43
ENDBRANCH  40  41
ENDBRANCH  39  40
ENDBRANCH  38  39
ENDBRANCH  37  38
ENDBRANCH  36  37
ENDBRANCH  35  36
ENDBRANCH  34  35
ENDBRANCH   1  34
TORSDOF 27
