REMARK SMILES CCC(CC)(NC(=O)c1ccc(NC(C)=O)cc1)C(=O)OCCOCCOCCOCCOC(=O)c1ccc(-c2c3nc(c(-c4cccc(S(=O)(=O)[O-])c4F)c4ccc([nH]4)c(-c4cccc(S(=O)(=O)[O-])c4F)c4nc(c(-c5cccc(S(=O)(=O)[O-])c5F)c5ccc2[nH]5)C=C4)C=C3)cc1
REMARK SMILES IDX 27 1 26 2 25 3 24 4 23 5 22 6 21 7 19 8 20 9 3 10 2 11 1 12
REMARK SMILES IDX 4 13 5 14 6 15 7 16 8 18 9 19 10 20 18 21 11 22 17 23 12 24
REMARK SMILES IDX 13 25 14 26 15 28 16 29 28 30 29 31 30 32 31 33 32 34 33 35
REMARK SMILES IDX 34 36 35 37 36 38 37 39 98 40 38 41 97 42 39 43 40 44 41 45
REMARK SMILES IDX 91 46 42 47 96 48 90 49 92 50 43 51 95 52 89 53 88 54 44 56
REMARK SMILES IDX 76 57 56 58 75 59 57 60 60 61 74 62 93 63 58 64 59 65 73 67
REMARK SMILES IDX 94 68 61 69 45 70 46 71 54 72 47 73 49 74 55 75 48 76 50 77
REMARK SMILES IDX 51 78 52 79 53 80 77 81 78 82 86 83 79 84 81 85 87 86 80 87
REMARK SMILES IDX 82 88 83 89 84 90 85 91 62 92 63 93 71 94 64 95 66 96 72 97
REMARK SMILES IDX 65 98 67 99 68 100 69 101 70 102
REMARK H PARENT 6 17 13 27 92 55 60 66
REMARK Flexibility Score: inf
ROOT
ATOM      1  O   UNL     1       2.344  -2.282   4.060  1.00  0.00    -0.377 OA
ENDROOT
BRANCH   1   2
ATOM      2  C   UNL     1       2.751  -2.788   2.786  1.00  0.00     0.188 C 
BRANCH   2   3
ATOM      3  C   UNL     1       3.319  -1.722   1.829  1.00  0.00     0.188 C 
BRANCH   3   4
ATOM      4  O   UNL     1       4.655  -1.305   2.102  1.00  0.00    -0.376 OA
BRANCH   4   5
ATOM      5  C   UNL     1       5.167  -0.325   1.178  1.00  0.00     0.202 C 
BRANCH   5   6
ATOM      6  C   UNL     1       4.671   1.140   1.274  1.00  0.00     0.261 C 
BRANCH   6   7
ATOM      7  O   UNL     1       3.405   1.253   1.921  1.00  0.00    -0.461 OA
BRANCH   7   8
ATOM      8  C   UNL     1       2.285   1.558   1.242  1.00  0.00     0.331 C 
ATOM      9  O   UNL     1       2.276   1.901   0.066  1.00  0.00    -0.249 OA
BRANCH   8  10
ATOM     10  C   UNL     1       1.010   1.299   2.124  1.00  0.00     0.137 C 
BRANCH  10  11
ATOM     11  C   UNL     1       0.248   0.057   1.502  1.00  0.00     0.037 C 
ATOM     12  C   UNL     1       0.101   0.014  -0.019  1.00  0.00     0.007 C 
ENDBRANCH  10  11
BRANCH  10  13
ATOM     13  C   UNL     1       0.127   2.576   2.066  1.00  0.00     0.037 C 
ATOM     14  C   UNL     1      -1.359   2.366   2.355  1.00  0.00     0.007 C 
ENDBRANCH  10  13
BRANCH  10  15
ATOM     15  N   UNL     1       1.303   0.943   3.577  1.00  0.00    -0.336 N 
ATOM     16  C   UNL     1       1.953   1.725   4.536  1.00  0.00     0.252 C 
ATOM     17  H   UNL     1       0.999   0.055   3.875  1.00  0.00     0.165 HD
ATOM     18  O   UNL     1       1.291   2.254   5.424  1.00  0.00    -0.269 OA
BRANCH  16  19
ATOM     19  C   UNL     1       3.450   1.677   4.670  1.00  0.00     0.039 A 
ATOM     20  C   UNL     1       4.075   0.466   4.443  1.00  0.00     0.016 A 
ATOM     21  C   UNL     1       4.268   2.723   5.093  1.00  0.00     0.016 A 
ATOM     22  C   UNL     1       5.447   0.254   4.590  1.00  0.00     0.027 A 
ATOM     23  C   UNL     1       5.681   2.546   5.179  1.00  0.00     0.027 A 
ATOM     24  C   UNL     1       6.281   1.301   4.926  1.00  0.00     0.041 A 
BRANCH  24  25
ATOM     25  N   UNL     1       7.688   1.136   4.891  1.00  0.00    -0.326 N 
ATOM     26  C   UNL     1       8.337  -0.094   4.862  1.00  0.00     0.221 C 
ATOM     27  H   UNL     1       8.245   1.948   4.887  1.00  0.00     0.169 HD
ATOM     28  C   UNL     1       9.717  -0.061   4.257  1.00  0.00     0.114 C 
ATOM     29  O   UNL     1       7.874  -1.162   5.258  1.00  0.00    -0.275 OA
ENDBRANCH  24  25
ENDBRANCH  16  19
ENDBRANCH  10  15
ENDBRANCH   8  10
ENDBRANCH   7   8
ENDBRANCH   6   7
ENDBRANCH   5   6
ENDBRANCH   4   5
ENDBRANCH   3   4
ENDBRANCH   2   3
ENDBRANCH   1   2
BRANCH   1  30
ATOM     30  C   UNL     1       3.168  -2.504   5.212  1.00  0.00     0.188 C 
BRANCH  30  31
ATOM     31  C   UNL     1       4.384  -3.420   5.064  1.00  0.00     0.188 C 
BRANCH  31  32
ATOM     32  O   UNL     1       4.081  -4.813   4.931  1.00  0.00    -0.376 OA
BRANCH  32  33
ATOM     33  C   UNL     1       2.930  -5.283   5.629  1.00  0.00     0.202 C 
BRANCH  33  34
ATOM     34  C   UNL     1       3.028  -5.348   7.163  1.00  0.00     0.261 C 
BRANCH  34  35
ATOM     35  O   UNL     1       3.373  -4.101   7.804  1.00  0.00    -0.460 OA
BRANCH  35  36
ATOM     36  C   UNL     1       4.659  -4.003   8.213  1.00  0.00     0.338 C 
ATOM     37  O   UNL     1       5.523  -4.871   8.087  1.00  0.00    -0.246 OA
BRANCH  36  38
ATOM     38  C   UNL     1       4.977  -2.665   8.765  1.00  0.00     0.060 A 
ATOM     39  C   UNL     1       6.206  -2.089   8.414  1.00  0.00     0.016 A 
ATOM     40  C   UNL     1       4.186  -2.070   9.751  1.00  0.00     0.016 A 
ATOM     41  C   UNL     1       6.713  -1.007   9.138  1.00  0.00     0.010 A 
ATOM     42  C   UNL     1       4.694  -0.980  10.476  1.00  0.00     0.010 A 
ATOM     43  C   UNL     1       5.998  -0.505  10.232  1.00  0.00    -0.014 A 
BRANCH  43  44
ATOM     44  C   UNL     1       6.727   0.265  11.283  1.00  0.00     0.031 A 
ATOM     45  C   UNL     1       7.173  -0.479  12.524  1.00  0.00     0.074 A 
ATOM     46  C   UNL     1       7.033   1.568  11.150  1.00  0.00     0.049 A 
ATOM     47  N   UNL     1       7.816  -0.040  13.576  1.00  0.00    -0.248 NA
ATOM     48  C   UNL     1       6.840  -1.913  12.587  1.00  0.00     0.031 C 
ATOM     49  C   UNL     1       6.692   2.409  10.005  1.00  0.00     0.029 A 
ATOM     50  N   UNL     1       7.693   2.418  12.008  1.00  0.00    -0.354 N 
ATOM     51  C   UNL     1       7.925  -1.128  14.437  1.00  0.00     0.074 A 
ATOM     52  C   UNL     1       7.269  -2.243  13.794  1.00  0.00     0.031 C 
ATOM     53  C   UNL     1       7.125   3.661  10.242  1.00  0.00     0.029 A 
ATOM     54  C   UNL     1       7.757   3.716  11.561  1.00  0.00     0.049 A 
ATOM     55  H   UNL     1       8.082   2.123  12.863  1.00  0.00     0.167 HD
ATOM     56  C   UNL     1       8.528  -1.207  15.648  1.00  0.00     0.034 A 
ATOM     57  C   UNL     1       8.256   4.822  12.153  1.00  0.00     0.034 A 
ATOM     58  C   UNL     1       9.212  -0.115  16.283  1.00  0.00     0.049 A 
ATOM     59  C   UNL     1       8.908   4.714  13.512  1.00  0.00     0.074 A 
ATOM     60  C   UNL     1       9.900  -0.113  17.484  1.00  0.00     0.029 A 
ATOM     61  N   UNL     1       9.283   1.174  15.780  1.00  0.00    -0.354 N 
ATOM     62  N   UNL     1       9.101   3.654  14.259  1.00  0.00    -0.248 NA
ATOM     63  C   UNL     1       9.449   5.955  14.091  1.00  0.00     0.031 C 
ATOM     64  C   UNL     1      10.351   1.189  17.727  1.00  0.00     0.029 A 
ATOM     65  C   UNL     1       9.990   1.984  16.652  1.00  0.00     0.049 A 
ATOM     66  H   UNL     1       8.889   1.470  14.928  1.00  0.00     0.167 HD
ATOM     67  C   UNL     1       9.826   4.090  15.365  1.00  0.00     0.074 A 
ATOM     68  C   UNL     1      10.051   5.508  15.184  1.00  0.00     0.031 C 
ATOM     69  C   UNL     1      10.263   3.381  16.437  1.00  0.00     0.034 A 
BRANCH  56  70
ATOM     70  C   UNL     1       8.480  -2.531  16.369  1.00  0.00     0.023 A 
ATOM     71  C   UNL     1       9.229  -3.626  15.889  1.00  0.00     0.012 A 
ATOM     72  C   UNL     1       7.725  -2.676  17.549  1.00  0.00     0.148 A 
ATOM     73  C   UNL     1       9.192  -4.854  16.549  1.00  0.00     0.002 A 
ATOM     74  C   UNL     1       7.734  -3.887  18.230  1.00  0.00     0.091 A 
ATOM     75  F   UNL     1       7.004  -1.631  17.979  1.00  0.00    -0.205 F 
ATOM     76  C   UNL     1       8.455  -4.981  17.723  1.00  0.00     0.022 A 
BRANCH  74  77
ATOM     77  S   UNL     1       6.888  -4.125  19.795  1.00  0.00     0.127 S 
ATOM     78  O   UNL     1       5.807  -5.033  19.412  1.00  0.00    -0.237 OA
ATOM     79  O   UNL     1       7.932  -4.734  20.619  1.00  0.00    -0.237 OA
ATOM     80  O   UNL     1       6.465  -2.802  20.231  1.00  0.00    -0.744 OA
ENDBRANCH  74  77
ENDBRANCH  56  70
BRANCH  57  81
ATOM     81  C   UNL     1       8.205   6.140  11.452  1.00  0.00     0.023 A 
ATOM     82  C   UNL     1       9.403   6.748  11.026  1.00  0.00     0.012 A 
ATOM     83  C   UNL     1       6.983   6.800  11.222  1.00  0.00     0.148 A 
ATOM     84  C   UNL     1       9.389   8.005  10.420  1.00  0.00     0.002 A 
ATOM     85  C   UNL     1       6.971   8.025  10.564  1.00  0.00     0.091 A 
ATOM     86  F   UNL     1       5.856   6.215  11.649  1.00  0.00    -0.205 F 
ATOM     87  C   UNL     1       8.173   8.639  10.181  1.00  0.00     0.022 A 
BRANCH  85  88
ATOM     88  S   UNL     1       5.450   8.860  10.099  1.00  0.00     0.127 S 
ATOM     89  O   UNL     1       5.504  10.063  10.925  1.00  0.00    -0.237 OA
ATOM     90  O   UNL     1       5.662   9.084   8.668  1.00  0.00    -0.237 OA
ATOM     91  O   UNL     1       4.376   7.928  10.411  1.00  0.00    -0.744 OA
ENDBRANCH  85  88
ENDBRANCH  57  81
BRANCH  69  92
ATOM     92  C   UNL     1      11.095   4.099  17.472  1.00  0.00     0.023 A 
ATOM     93  C   UNL     1      10.508   5.060  18.319  1.00  0.00     0.012 A 
ATOM     94  C   UNL     1      12.455   3.769  17.645  1.00  0.00     0.148 A 
ATOM     95  C   UNL     1      11.271   5.713  19.289  1.00  0.00     0.002 A 
ATOM     96  C   UNL     1      13.195   4.383  18.649  1.00  0.00     0.091 A 
ATOM     97  F   UNL     1      13.004   2.864  16.822  1.00  0.00    -0.205 F 
ATOM     98  C   UNL     1      12.609   5.367  19.461  1.00  0.00     0.022 A 
BRANCH  96  99
ATOM     99  S   UNL     1      14.895   3.924  19.008  1.00  0.00     0.127 S 
ATOM    100  O   UNL     1      15.631   5.071  18.478  1.00  0.00    -0.237 OA
ATOM    101  O   UNL     1      14.889   3.826  20.468  1.00  0.00    -0.237 OA
ATOM    102  O   UNL     1      15.123   2.661  18.320  1.00  0.00    -0.744 OA
ENDBRANCH  96  99
ENDBRANCH  69  92
ENDBRANCH  43  44
ENDBRANCH  36  38
ENDBRANCH  35  36
ENDBRANCH  34  35
ENDBRANCH  33  34
ENDBRANCH  32  33
ENDBRANCH  31  32
ENDBRANCH  30  31
ENDBRANCH   1  30
TORSDOF 28
