REMARK SMILES Cc1c(Cc2ccccc2)c(=O)oc2c(C)c(O[C@H](C)C(=O)OCCOCCOCCOCCOC(=O)c3ccc(-c4c5nc(c(-c6cccc(S(=O)(=O)[O-])c6F)c6ccc([nH]6)c(-c6cccc(S(=O)(=O)[O-])c6F)c6nc(c(-c7cccc(S(=O)(=O)[O-])c7F)c7ccc4[nH]7)C=C6)C=C5)cc3)ccc12
REMARK SMILES IDX 28 1 27 2 26 3 25 4 24 5 23 6 21 7 22 8 19 9 20 10 18 11
REMARK SMILES IDX 17 12 1 13 2 14 3 15 103 16 11 17 14 18 102 19 12 20 13 21
REMARK SMILES IDX 15 22 101 23 16 24 4 25 5 26 6 27 10 28 7 29 9 30 8 31 29 32
REMARK SMILES IDX 30 33 31 34 32 35 33 36 34 37 35 38 36 39 37 40 38 41 39 42
REMARK SMILES IDX 100 43 40 44 99 45 41 46 42 47 43 48 93 49 44 50 98 51 92 52
REMARK SMILES IDX 94 53 45 54 97 55 91 56 90 57 46 59 78 60 58 61 77 62 59 63
REMARK SMILES IDX 62 64 76 65 95 66 60 67 61 68 75 70 96 71 63 72 47 73 48 74
REMARK SMILES IDX 56 75 49 76 51 77 57 78 50 79 52 80 53 81 54 82 55 83 79 84
REMARK SMILES IDX 80 85 88 86 81 87 83 88 89 89 82 90 84 91 85 92 86 93 87 94
REMARK SMILES IDX 64 95 65 96 73 97 66 98 68 99 74 100 67 101 69 102 70 103
REMARK SMILES IDX 71 104 72 105
REMARK H PARENT 94 58 62 69
REMARK Flexibility Score: inf
ROOT
ATOM      1  C   UNL     1      -3.892   3.207   4.921  1.00  0.00     0.188 C 
ENDROOT
BRANCH   1   2
ATOM      2  C   UNL     1      -3.886   4.619   4.339  1.00  0.00     0.188 C 
BRANCH   2   3
ATOM      3  O   UNL     1      -4.926   5.055   3.487  1.00  0.00    -0.376 OA
BRANCH   3   4
ATOM      4  C   UNL     1      -4.612   5.455   2.149  1.00  0.00     0.202 C 
BRANCH   4   5
ATOM      5  C   UNL     1      -3.323   6.206   1.714  1.00  0.00     0.261 C 
BRANCH   5   6
ATOM      6  O   UNL     1      -2.073   5.838   2.319  1.00  0.00    -0.461 OA
BRANCH   6   7
ATOM      7  C   UNL     1      -1.692   6.547   3.414  1.00  0.00     0.347 C 
ATOM      8  O   UNL     1      -2.335   7.490   3.869  1.00  0.00    -0.248 OA
BRANCH   7   9
ATOM      9  C   UNL     1      -0.439   5.967   4.136  1.00  0.00     0.279 C 
ATOM     10  C   UNL     1      -0.739   5.044   5.321  1.00  0.00     0.066 C 
BRANCH   9  11
ATOM     11  O   UNL     1       0.764   5.519   3.569  1.00  0.00    -0.479 OA
BRANCH  11  12
ATOM     12  C   UNL     1       0.943   4.867   2.399  1.00  0.00     0.127 A 
ATOM     13  C   UNL     1       3.858   2.792  -1.325  1.00  0.00     0.046 C 
ATOM     14  C   UNL     1       2.382   3.045  -1.196  1.00  0.00    -0.029 A 
ATOM     15  C   UNL     1       1.442   2.742  -2.113  1.00  0.00     0.046 A 
ATOM     16  C   UNL     1       1.930   3.709   0.025  1.00  0.00     0.021 A 
ATOM     17  C   UNL     1       0.004   2.764  -1.718  1.00  0.00     0.340 A 
ATOM     18  C   UNL     1       0.646   3.451   0.483  1.00  0.00     0.145 A 
ATOM     19  C   UNL     1       2.716   4.603   0.739  1.00  0.00     0.016 A 
ATOM     20  O   UNL     1      -0.914   2.696  -2.528  1.00  0.00    -0.246 OA
ATOM     21  O   UNL     1      -0.242   2.739  -0.347  1.00  0.00    -0.422 OA
ATOM     22  C   UNL     1       0.170   3.911   1.730  1.00  0.00     0.035 A 
ATOM     23  C   UNL     1       2.206   5.202   1.883  1.00  0.00     0.047 A 
ATOM     24  C   UNL     1      -1.021   3.178   2.267  1.00  0.00     0.052 C 
BRANCH  15  25
ATOM     25  C   UNL     1       1.723   2.366  -3.548  1.00  0.00     0.079 C 
BRANCH  25  26
ATOM     26  C   UNL     1       1.919   3.608  -4.409  1.00  0.00    -0.043 A 
ATOM     27  C   UNL     1       0.926   4.033  -5.300  1.00  0.00     0.004 A 
ATOM     28  C   UNL     1       3.080   4.389  -4.287  1.00  0.00     0.004 A 
ATOM     29  C   UNL     1       1.092   5.210  -6.039  1.00  0.00     0.000 A 
ATOM     30  C   UNL     1       3.234   5.577  -5.000  1.00  0.00     0.000 A 
ATOM     31  C   UNL     1       2.239   5.987  -5.880  1.00  0.00     0.000 A 
ENDBRANCH  25  26
ENDBRANCH  15  25
ENDBRANCH  11  12
ENDBRANCH   9  11
ENDBRANCH   7   9
ENDBRANCH   6   7
ENDBRANCH   5   6
ENDBRANCH   4   5
ENDBRANCH   3   4
ENDBRANCH   2   3
ENDBRANCH   1   2
BRANCH   1  32
ATOM     32  O   UNL     1      -3.768   2.125   4.007  1.00  0.00    -0.377 OA
BRANCH  32  33
ATOM     33  C   UNL     1      -4.683   2.076   2.925  1.00  0.00     0.188 C 
BRANCH  33  34
ATOM     34  C   UNL     1      -6.189   2.183   3.231  1.00  0.00     0.188 C 
BRANCH  34  35
ATOM     35  O   UNL     1      -6.516   2.546   4.564  1.00  0.00    -0.376 OA
BRANCH  35  36
ATOM     36  C   UNL     1      -6.904   1.482   5.433  1.00  0.00     0.202 C 
BRANCH  36  37
ATOM     37  C   UNL     1      -5.838   0.427   5.787  1.00  0.00     0.261 C 
BRANCH  37  38
ATOM     38  O   UNL     1      -5.301  -0.310   4.680  1.00  0.00    -0.460 OA
BRANCH  38  39
ATOM     39  C   UNL     1      -6.173  -1.051   3.967  1.00  0.00     0.338 C 
ATOM     40  O   UNL     1      -7.365  -1.184   4.165  1.00  0.00    -0.246 OA
BRANCH  39  41
ATOM     41  C   UNL     1      -5.466  -1.557   2.780  1.00  0.00     0.060 A 
ATOM     42  C   UNL     1      -5.881  -1.126   1.513  1.00  0.00     0.016 A 
ATOM     43  C   UNL     1      -4.438  -2.489   2.924  1.00  0.00     0.016 A 
ATOM     44  C   UNL     1      -5.294  -1.666   0.373  1.00  0.00     0.010 A 
ATOM     45  C   UNL     1      -3.882  -3.061   1.782  1.00  0.00     0.010 A 
ATOM     46  C   UNL     1      -4.344  -2.684   0.508  1.00  0.00    -0.014 A 
BRANCH  46  47
ATOM     47  C   UNL     1      -4.042  -3.555  -0.646  1.00  0.00     0.031 A 
ATOM     48  C   UNL     1      -4.924  -4.755  -0.858  1.00  0.00     0.074 A 
ATOM     49  C   UNL     1      -3.002  -3.311  -1.458  1.00  0.00     0.049 A 
ATOM     50  N   UNL     1      -4.801  -5.729  -1.718  1.00  0.00    -0.248 NA
ATOM     51  C   UNL     1      -6.106  -4.870   0.018  1.00  0.00     0.031 C 
ATOM     52  C   UNL     1      -2.113  -2.154  -1.375  1.00  0.00     0.029 A 
ATOM     53  N   UNL     1      -2.507  -4.048  -2.504  1.00  0.00    -0.354 N 
ATOM     54  C   UNL     1      -5.872  -6.580  -1.474  1.00  0.00     0.074 A 
ATOM     55  C   UNL     1      -6.641  -6.010  -0.392  1.00  0.00     0.031 C 
ATOM     56  C   UNL     1      -1.155  -2.277  -2.311  1.00  0.00     0.029 A 
ATOM     57  C   UNL     1      -1.349  -3.533  -3.035  1.00  0.00     0.049 A 
ATOM     58  H   UNL     1      -2.939  -4.866  -2.841  1.00  0.00     0.167 HD
ATOM     59  C   UNL     1      -6.188  -7.734  -2.100  1.00  0.00     0.034 A 
ATOM     60  C   UNL     1      -0.531  -4.036  -3.980  1.00  0.00     0.034 A 
ATOM     61  C   UNL     1      -5.421  -8.299  -3.173  1.00  0.00     0.049 A 
ATOM     62  C   UNL     1      -0.878  -5.350  -4.631  1.00  0.00     0.074 A 
ATOM     63  C   UNL     1      -5.657  -9.468  -3.871  1.00  0.00     0.029 A 
ATOM     64  N   UNL     1      -4.270  -7.736  -3.698  1.00  0.00    -0.354 N 
ATOM     65  N   UNL     1      -1.912  -6.128  -4.418  1.00  0.00    -0.248 NA
ATOM     66  C   UNL     1       0.039  -5.845  -5.669  1.00  0.00     0.031 C 
ATOM     67  C   UNL     1      -4.640  -9.618  -4.817  1.00  0.00     0.029 A 
ATOM     68  C   UNL     1      -3.786  -8.529  -4.720  1.00  0.00     0.049 A 
ATOM     69  H   UNL     1      -3.859  -6.896  -3.390  1.00  0.00     0.167 HD
ATOM     70  C   UNL     1      -1.795  -7.178  -5.322  1.00  0.00     0.074 A 
ATOM     71  C   UNL     1      -0.585  -6.942  -6.082  1.00  0.00     0.031 C 
ATOM     72  C   UNL     1      -2.613  -8.244  -5.503  1.00  0.00     0.034 A 
BRANCH  59  73
ATOM     73  C   UNL     1      -7.429  -8.454  -1.663  1.00  0.00     0.023 A 
ATOM     74  C   UNL     1      -8.684  -7.998  -2.110  1.00  0.00     0.012 A 
ATOM     75  C   UNL     1      -7.347  -9.626  -0.887  1.00  0.00     0.148 A 
ATOM     76  C   UNL     1      -9.845  -8.700  -1.790  1.00  0.00     0.002 A 
ATOM     77  C   UNL     1      -8.505 -10.337  -0.599  1.00  0.00     0.091 A 
ATOM     78  F   UNL     1      -6.141 -10.023  -0.457  1.00  0.00    -0.205 F 
ATOM     79  C   UNL     1      -9.754  -9.874  -1.046  1.00  0.00     0.022 A 
BRANCH  77  80
ATOM     80  S   UNL     1      -8.493 -11.889   0.305  1.00  0.00     0.127 S 
ATOM     81  O   UNL     1      -9.262 -11.540   1.500  1.00  0.00    -0.237 OA
ATOM     82  O   UNL     1      -9.180 -12.787  -0.622  1.00  0.00    -0.237 OA
ATOM     83  O   UNL     1      -7.093 -12.207   0.545  1.00  0.00    -0.744 OA
ENDBRANCH  77  80
ENDBRANCH  59  73
BRANCH  60  84
ATOM     84  C   UNL     1       0.669  -3.262  -4.396  1.00  0.00     0.023 A 
ATOM     85  C   UNL     1       0.659  -2.595  -5.636  1.00  0.00     0.012 A 
ATOM     86  C   UNL     1       1.787  -3.129  -3.550  1.00  0.00     0.148 A 
ATOM     87  C   UNL     1       1.747  -1.818  -6.033  1.00  0.00     0.002 A 
ATOM     88  C   UNL     1       2.850  -2.319  -3.933  1.00  0.00     0.091 A 
ATOM     89  F   UNL     1       1.773  -3.776  -2.376  1.00  0.00    -0.205 F 
ATOM     90  C   UNL     1       2.837  -1.673  -5.179  1.00  0.00     0.022 A 
BRANCH  88  91
ATOM     91  S   UNL     1       4.248  -1.975  -2.860  1.00  0.00     0.127 S 
ATOM     92  O   UNL     1       5.367  -2.482  -3.652  1.00  0.00    -0.237 OA
ATOM     93  O   UNL     1       4.183  -0.517  -2.750  1.00  0.00    -0.237 OA
ATOM     94  O   UNL     1       3.988  -2.691  -1.620  1.00  0.00    -0.744 OA
ENDBRANCH  88  91
ENDBRANCH  60  84
BRANCH  72  95
ATOM     95  C   UNL     1      -2.279  -9.221  -6.595  1.00  0.00     0.023 A 
ATOM     96  C   UNL     1      -1.278 -10.188  -6.387  1.00  0.00     0.012 A 
ATOM     97  C   UNL     1      -3.057  -9.263  -7.770  1.00  0.00     0.148 A 
ATOM     98  C   UNL     1      -1.048 -11.178  -7.341  1.00  0.00     0.002 A 
ATOM     99  C   UNL     1      -2.846 -10.274  -8.698  1.00  0.00     0.091 A 
ATOM    100  F   UNL     1      -4.000  -8.325  -7.944  1.00  0.00    -0.205 F 
ATOM    101  C   UNL     1      -1.838 -11.229  -8.488  1.00  0.00     0.022 A 
BRANCH  99 102
ATOM    102  S   UNL     1      -3.866 -10.467 -10.164  1.00  0.00     0.127 S 
ATOM    103  O   UNL     1      -2.929 -10.109 -11.227  1.00  0.00    -0.237 OA
ATOM    104  O   UNL     1      -4.218 -11.886 -10.112  1.00  0.00    -0.237 OA
ATOM    105  O   UNL     1      -4.992  -9.557  -9.996  1.00  0.00    -0.744 OA
ENDBRANCH  99 102
ENDBRANCH  72  95
ENDBRANCH  46  47
ENDBRANCH  39  41
ENDBRANCH  38  39
ENDBRANCH  37  38
ENDBRANCH  36  37
ENDBRANCH  35  36
ENDBRANCH  34  35
ENDBRANCH  33  34
ENDBRANCH  32  33
ENDBRANCH   1  32
TORSDOF 27
