REMARK SMILES C/C(=N\NC(N)=S)c1nnn(-c2ccc(C(=O)OCCOCCOCCOCCOC(=O)c3ccc(-c4c5nc(c(-c6cccc(S(=O)(=O)[O-])c6F)c6ccc([nH]6)c(-c6cccc(S(=O)(=O)[O-])c6F)c6nc(c(-c7cccc(S(=O)(=O)[O-])c7F)c7ccc4[nH]7)C=C6)C=C5)cc3)cc2)c1C
REMARK SMILES IDX 23 1 22 2 21 3 20 4 19 5 18 6 16 7 17 8 15 9 12 10 13 11
REMARK SMILES IDX 97 12 14 13 96 14 11 15 8 16 9 17 98 18 10 19 99 20 2 21
REMARK SMILES IDX 1 22 3 23 4 24 5 26 7 27 6 28 24 31 25 32 26 33 27 34 28 35
REMARK SMILES IDX 29 36 30 37 31 38 32 39 33 40 34 41 95 42 35 43 94 44 36 45
REMARK SMILES IDX 37 46 38 47 88 48 39 49 93 50 87 51 89 52 40 53 92 54 86 55
REMARK SMILES IDX 85 56 41 58 73 59 53 60 72 61 54 62 57 63 71 64 90 65 55 66
REMARK SMILES IDX 56 67 70 69 91 70 58 71 42 72 43 73 51 74 44 75 46 76 52 77
REMARK SMILES IDX 45 78 47 79 48 80 49 81 50 82 74 83 75 84 83 85 76 86 78 87
REMARK SMILES IDX 84 88 77 89 79 90 80 91 81 92 82 93 59 94 60 95 68 96 61 97
REMARK SMILES IDX 63 98 69 99 62 100 64 101 65 102 66 103 67 104
REMARK H PARENT 4 25 6 29 6 30 89 57 57 68
REMARK Flexibility Score: inf
ROOT
ATOM      1  C   UNL     1       6.915   4.002  -7.838  1.00  0.00     0.188 C 
ENDROOT
BRANCH   1   2
ATOM      2  C   UNL     1       6.945   5.446  -7.285  1.00  0.00     0.188 C 
BRANCH   2   3
ATOM      3  O   UNL     1       8.162   6.155  -7.076  1.00  0.00    -0.376 OA
BRANCH   3   4
ATOM      4  C   UNL     1       9.323   5.543  -6.540  1.00  0.00     0.202 C 
BRANCH   4   5
ATOM      5  C   UNL     1       9.293   4.591  -5.334  1.00  0.00     0.261 C 
BRANCH   5   6
ATOM      6  O   UNL     1       8.092   3.855  -5.138  1.00  0.00    -0.460 OA
BRANCH   6   7
ATOM      7  C   UNL     1       7.171   4.438  -4.342  1.00  0.00     0.338 C 
ATOM      8  O   UNL     1       7.281   5.476  -3.717  1.00  0.00    -0.246 OA
BRANCH   7   9
ATOM      9  C   UNL     1       5.909   3.673  -4.463  1.00  0.00     0.060 A 
ATOM     10  C   UNL     1       3.526   2.290  -4.399  1.00  0.00     0.067 A 
ATOM     11  C   UNL     1       3.484   3.685  -4.449  1.00  0.00     0.029 A 
ATOM     12  C   UNL     1       4.726   1.585  -4.556  1.00  0.00     0.029 A 
ATOM     13  C   UNL     1       4.694   4.377  -4.454  1.00  0.00     0.018 A 
ATOM     14  C   UNL     1       5.926   2.281  -4.590  1.00  0.00     0.018 A 
BRANCH  10  15
ATOM     15  N   UNL     1       2.430   1.603  -3.842  1.00  0.00    -0.217 N 
ATOM     16  C   UNL     1       1.153   0.569  -2.418  1.00  0.00     0.132 A 
ATOM     17  N   UNL     1       0.371   1.097  -3.414  1.00  0.00    -0.128 NA
ATOM     18  C   UNL     1       2.465   0.937  -2.626  1.00  0.00     0.071 A 
ATOM     19  N   UNL     1       1.151   1.814  -4.217  1.00  0.00    -0.061 NA
ATOM     20  C   UNL     1       3.659   0.849  -1.749  1.00  0.00     0.069 C 
BRANCH  16  21
ATOM     21  C   UNL     1       0.605  -0.064  -1.234  1.00  0.00     0.087 C 
ATOM     22  C   UNL     1       0.554   0.783   0.009  1.00  0.00     0.071 C 
ATOM     23  N   UNL     1       0.202  -1.288  -1.397  1.00  0.00    -0.176 NA
BRANCH  23  24
ATOM     24  N   UNL     1      -0.386  -2.015  -0.406  1.00  0.00    -0.254 N 
ATOM     25  H   UNL     1      -1.316  -2.288  -0.577  1.00  0.00     0.193 HD
BRANCH  24  26
ATOM     26  C   UNL     1       0.138  -2.422   0.805  1.00  0.00     0.184 C 
ATOM     27  S   UNL     1       1.592  -2.058   1.524  1.00  0.00    -0.040 S 
BRANCH  26  28
ATOM     28  N   UNL     1      -0.719  -3.252   1.477  1.00  0.00    -0.375 N 
ATOM     29  H   UNL     1      -1.588  -3.488   1.080  1.00  0.00     0.159 HD
ATOM     30  H   UNL     1      -0.466  -3.613   2.357  1.00  0.00     0.159 HD
ENDBRANCH  26  28
ENDBRANCH  24  26
ENDBRANCH  23  24
ENDBRANCH  16  21
ENDBRANCH  10  15
ENDBRANCH   7   9
ENDBRANCH   6   7
ENDBRANCH   5   6
ENDBRANCH   4   5
ENDBRANCH   3   4
ENDBRANCH   2   3
ENDBRANCH   1   2
BRANCH   1  31
ATOM     31  O   UNL     1       8.186   3.380  -7.873  1.00  0.00    -0.377 OA
BRANCH  31  32
ATOM     32  C   UNL     1       8.873   3.432  -9.121  1.00  0.00     0.188 C 
BRANCH  32  33
ATOM     33  C   UNL     1       8.870   4.757  -9.932  1.00  0.00     0.188 C 
BRANCH  33  34
ATOM     34  O   UNL     1       7.657   5.493  -9.871  1.00  0.00    -0.376 OA
BRANCH  34  35
ATOM     35  C   UNL     1       6.746   5.606 -10.950  1.00  0.00     0.202 C 
BRANCH  35  36
ATOM     36  C   UNL     1       6.046   4.356 -11.472  1.00  0.00     0.261 C 
BRANCH  36  37
ATOM     37  O   UNL     1       6.839   3.196 -11.382  1.00  0.00    -0.460 OA
BRANCH  37  38
ATOM     38  C   UNL     1       7.838   3.137 -12.284  1.00  0.00     0.338 C 
ATOM     39  O   UNL     1       8.203   4.017 -13.036  1.00  0.00    -0.246 OA
BRANCH  38  40
ATOM     40  C   UNL     1       8.363   1.769 -12.256  1.00  0.00     0.060 A 
ATOM     41  C   UNL     1       9.405   1.516 -13.142  1.00  0.00     0.016 A 
ATOM     42  C   UNL     1       7.572   0.753 -11.689  1.00  0.00     0.016 A 
ATOM     43  C   UNL     1       9.410   0.289 -13.745  1.00  0.00     0.010 A 
ATOM     44  C   UNL     1       7.579  -0.471 -12.291  1.00  0.00     0.010 A 
ATOM     45  C   UNL     1       8.402  -0.618 -13.397  1.00  0.00    -0.014 A 
BRANCH  45  46
ATOM     46  C   UNL     1       8.204  -1.740 -14.272  1.00  0.00     0.031 A 
ATOM     47  C   UNL     1       9.254  -2.753 -14.113  1.00  0.00     0.074 A 
ATOM     48  C   UNL     1       7.149  -1.805 -15.103  1.00  0.00     0.049 A 
ATOM     49  N   UNL     1      10.227  -2.991 -14.925  1.00  0.00    -0.248 NA
ATOM     50  C   UNL     1       9.369  -3.407 -12.803  1.00  0.00     0.031 C 
ATOM     51  C   UNL     1       5.940  -0.974 -15.123  1.00  0.00     0.029 A 
ATOM     52  N   UNL     1       6.885  -2.751 -16.035  1.00  0.00    -0.354 N 
ATOM     53  C   UNL     1      10.941  -4.016 -14.323  1.00  0.00     0.074 A 
ATOM     54  C   UNL     1      10.518  -4.066 -12.948  1.00  0.00     0.031 C 
ATOM     55  C   UNL     1       4.977  -1.621 -15.820  1.00  0.00     0.029 A 
ATOM     56  C   UNL     1       5.549  -2.825 -16.399  1.00  0.00     0.049 A 
ATOM     57  H   UNL     1       7.579  -3.334 -16.420  1.00  0.00     0.167 HD
ATOM     58  C   UNL     1      11.610  -4.931 -15.069  1.00  0.00     0.034 A 
ATOM     59  C   UNL     1       4.963  -3.875 -17.024  1.00  0.00     0.034 A 
ATOM     60  C   UNL     1      11.774  -4.502 -16.431  1.00  0.00     0.049 A 
ATOM     61  C   UNL     1       6.043  -4.661 -17.673  1.00  0.00     0.074 A 
ATOM     62  C   UNL     1      12.399  -3.435 -17.044  1.00  0.00     0.029 A 
ATOM     63  N   UNL     1      10.880  -5.002 -17.348  1.00  0.00    -0.354 N 
ATOM     64  N   UNL     1       6.768  -4.200 -18.655  1.00  0.00    -0.248 NA
ATOM     65  C   UNL     1       6.635  -5.759 -16.924  1.00  0.00     0.031 C 
ATOM     66  C   UNL     1      11.535  -3.068 -18.117  1.00  0.00     0.029 A 
ATOM     67  C   UNL     1      10.462  -3.961 -18.137  1.00  0.00     0.049 A 
ATOM     68  H   UNL     1      10.590  -5.940 -17.424  1.00  0.00     0.167 HD
ATOM     69  C   UNL     1       8.061  -4.618 -18.360  1.00  0.00     0.074 A 
ATOM     70  C   UNL     1       7.900  -5.661 -17.348  1.00  0.00     0.031 C 
ATOM     71  C   UNL     1       9.146  -3.877 -18.735  1.00  0.00     0.034 A 
BRANCH  58  72
ATOM     72  C   UNL     1      11.777  -6.363 -14.653  1.00  0.00     0.023 A 
ATOM     73  C   UNL     1      12.737  -7.135 -15.333  1.00  0.00     0.012 A 
ATOM     74  C   UNL     1      10.870  -7.045 -13.808  1.00  0.00     0.148 A 
ATOM     75  C   UNL     1      12.782  -8.524 -15.189  1.00  0.00     0.002 A 
ATOM     76  C   UNL     1      10.977  -8.411 -13.597  1.00  0.00     0.091 A 
ATOM     77  F   UNL     1       9.807  -6.404 -13.310  1.00  0.00    -0.205 F 
ATOM     78  C   UNL     1      11.914  -9.162 -14.308  1.00  0.00     0.022 A 
BRANCH  76  79
ATOM     79  S   UNL     1       9.915  -9.262 -12.426  1.00  0.00     0.127 S 
ATOM     80  O   UNL     1       8.999  -9.966 -13.318  1.00  0.00    -0.237 OA
ATOM     81  O   UNL     1      10.873 -10.113 -11.719  1.00  0.00    -0.237 OA
ATOM     82  O   UNL     1       9.331  -8.213 -11.600  1.00  0.00    -0.744 OA
ENDBRANCH  76  79
ENDBRANCH  58  72
BRANCH  59  83
ATOM     83  C   UNL     1       3.611  -4.431 -16.782  1.00  0.00     0.023 A 
ATOM     84  C   UNL     1       2.996  -5.237 -17.758  1.00  0.00     0.012 A 
ATOM     85  C   UNL     1       3.039  -4.393 -15.489  1.00  0.00     0.148 A 
ATOM     86  C   UNL     1       1.855  -5.991 -17.452  1.00  0.00     0.002 A 
ATOM     87  C   UNL     1       1.901  -5.135 -15.193  1.00  0.00     0.091 A 
ATOM     88  F   UNL     1       3.663  -3.700 -14.528  1.00  0.00    -0.205 F 
ATOM     89  C   UNL     1       1.312  -5.945 -16.170  1.00  0.00     0.022 A 
BRANCH  87  90
ATOM     90  S   UNL     1       1.159  -5.140 -13.555  1.00  0.00     0.127 S 
ATOM     91  O   UNL     1      -0.238  -4.829 -13.859  1.00  0.00    -0.237 OA
ATOM     92  O   UNL     1       1.401  -6.512 -13.118  1.00  0.00    -0.237 OA
ATOM     93  O   UNL     1       1.853  -4.106 -12.798  1.00  0.00    -0.744 OA
ENDBRANCH  87  90
ENDBRANCH  59  83
BRANCH  71  94
ATOM     94  C   UNL     1       8.911  -2.710 -19.666  1.00  0.00     0.023 A 
ATOM     95  C   UNL     1       8.150  -1.582 -19.288  1.00  0.00     0.012 A 
ATOM     96  C   UNL     1       9.614  -2.674 -20.881  1.00  0.00     0.148 A 
ATOM     97  C   UNL     1       8.074  -0.456 -20.114  1.00  0.00     0.002 A 
ATOM     98  C   UNL     1       9.573  -1.536 -21.677  1.00  0.00     0.091 A 
ATOM     99  F   UNL     1      10.342  -3.748 -21.222  1.00  0.00    -0.205 F 
ATOM    100  C   UNL     1       8.796  -0.428 -21.303  1.00  0.00     0.022 A 
BRANCH  98 101
ATOM    101  S   UNL     1      10.579  -1.391 -23.156  1.00  0.00     0.127 S 
ATOM    102  O   UNL     1       9.587  -1.547 -24.217  1.00  0.00    -0.237 OA
ATOM    103  O   UNL     1      11.132  -0.041 -23.029  1.00  0.00    -0.237 OA
ATOM    104  O   UNL     1      11.576  -2.451 -23.068  1.00  0.00    -0.744 OA
ENDBRANCH  98 101
ENDBRANCH  71  94
ENDBRANCH  45  46
ENDBRANCH  38  40
ENDBRANCH  37  38
ENDBRANCH  36  37
ENDBRANCH  35  36
ENDBRANCH  34  35
ENDBRANCH  33  34
ENDBRANCH  32  33
ENDBRANCH  31  32
ENDBRANCH   1  31
TORSDOF 28
