REMARK SMILES C[C@H]([NH2+]CC1(O)CCCC1)[C@H](C)C(=O)OCCOCCOCCOCCOC(=O)c1ccc(-c2c3nc(c(-c4cccc(S(=O)(=O)[O-])c4F)c4ccc([nH]4)c(-c4cccc(S(=O)(=O)[O-])c4F)c4nc(c(-c5cccc(S(=O)(=O)[O-])c5F)c5ccc2[nH]5)C=C4)C=C3)cc1
REMARK SMILES IDX 20 1 19 2 18 3 17 4 16 5 15 6 13 7 14 8 11 9 12 10 2 11 1 12
REMARK SMILES IDX 3 13 4 16 5 17 7 18 10 19 8 20 9 21 6 22 21 24 22 25 23 26
REMARK SMILES IDX 24 27 25 28 26 29 27 30 28 31 29 32 30 33 31 34 92 35 32 36
REMARK SMILES IDX 91 37 33 38 34 39 35 40 85 41 36 42 90 43 84 44 86 45 37 46
REMARK SMILES IDX 89 47 83 48 82 49 38 51 70 52 50 53 69 54 51 55 54 56 68 57
REMARK SMILES IDX 87 58 52 59 53 60 67 62 88 63 55 64 39 65 40 66 48 67 41 68
REMARK SMILES IDX 43 69 49 70 42 71 44 72 45 73 46 74 47 75 71 76 72 77 80 78
REMARK SMILES IDX 73 79 75 80 81 81 74 82 76 83 77 84 78 85 79 86 56 87 57 88
REMARK SMILES IDX 65 89 58 90 60 91 66 92 59 93 61 94 62 95 63 96 64 97
REMARK H PARENT 3 14 3 15 6 23 86 50 54 61
REMARK Flexibility Score: inf
ROOT
ATOM      1  C   UNL     1       0.024  -1.530   3.769  1.00  0.00     0.188 C 
ENDROOT
BRANCH   1   2
ATOM      2  C   UNL     1      -1.354  -1.097   4.302  1.00  0.00     0.188 C 
BRANCH   2   3
ATOM      3  O   UNL     1      -2.352  -2.041   4.675  1.00  0.00    -0.376 OA
BRANCH   3   4
ATOM      4  C   UNL     1      -2.371  -3.346   4.122  1.00  0.00     0.202 C 
BRANCH   4   5
ATOM      5  C   UNL     1      -2.478  -3.552   2.600  1.00  0.00     0.261 C 
BRANCH   5   6
ATOM      6  O   UNL     1      -1.699  -2.696   1.746  1.00  0.00    -0.463 OA
BRANCH   6   7
ATOM      7  C   UNL     1      -2.316  -1.566   1.325  1.00  0.00     0.314 C 
ATOM      8  O   UNL     1      -3.415  -1.187   1.724  1.00  0.00    -0.252 OA
BRANCH   7   9
ATOM      9  C   UNL     1      -1.576  -0.840   0.207  1.00  0.00     0.154 C 
ATOM     10  C   UNL     1      -0.090  -0.535   0.453  1.00  0.00     0.026 C 
BRANCH   9  11
ATOM     11  C   UNL     1      -1.808  -1.539  -1.156  1.00  0.00     0.193 C 
ATOM     12  C   UNL     1      -3.188  -2.192  -1.268  1.00  0.00     0.076 C 
BRANCH  11  13
ATOM     13  N   UNL     1      -0.705  -2.455  -1.391  1.00  0.00    -0.341 N 
ATOM     14  H   UNL     1      -0.700  -3.124  -0.621  1.00  0.00     0.346 HD
ATOM     15  H   UNL     1       0.113  -1.850  -1.464  1.00  0.00     0.346 HD
BRANCH  13  16
ATOM     16  C   UNL     1      -0.692  -3.224  -2.629  1.00  0.00     0.296 C 
BRANCH  16  17
ATOM     17  C   UNL     1       0.517  -4.178  -2.541  1.00  0.00     0.113 C 
ATOM     18  C   UNL     1       1.867  -3.461  -2.641  1.00  0.00     0.041 C 
ATOM     19  C   UNL     1       0.580  -5.175  -3.691  1.00  0.00     0.041 C 
ATOM     20  C   UNL     1       2.852  -4.563  -3.022  1.00  0.00     0.003 C 
ATOM     21  C   UNL     1       2.020  -5.681  -3.654  1.00  0.00     0.003 C 
BRANCH  17  22
ATOM     22  O   UNL     1       0.431  -4.872  -1.281  1.00  0.00    -0.384 OA
ATOM     23  H   UNL     1       0.392  -4.226  -0.558  1.00  0.00     0.211 HD
ENDBRANCH  17  22
ENDBRANCH  16  17
ENDBRANCH  13  16
ENDBRANCH  11  13
ENDBRANCH   9  11
ENDBRANCH   7   9
ENDBRANCH   6   7
ENDBRANCH   5   6
ENDBRANCH   4   5
ENDBRANCH   3   4
ENDBRANCH   2   3
ENDBRANCH   1   2
BRANCH   1  24
ATOM     24  O   UNL     1       0.250  -2.922   3.726  1.00  0.00    -0.377 OA
BRANCH  24  25
ATOM     25  C   UNL     1       1.003  -3.472   4.792  1.00  0.00     0.188 C 
BRANCH  25  26
ATOM     26  C   UNL     1       0.673  -2.953   6.204  1.00  0.00     0.188 C 
BRANCH  26  27
ATOM     27  O   UNL     1       0.737  -1.536   6.324  1.00  0.00    -0.376 OA
BRANCH  27  28
ATOM     28  C   UNL     1       1.931  -0.931   6.795  1.00  0.00     0.202 C 
BRANCH  28  29
ATOM     29  C   UNL     1       3.208  -1.057   5.945  1.00  0.00     0.261 C 
BRANCH  29  30
ATOM     30  O   UNL     1       3.667  -2.384   5.646  1.00  0.00    -0.460 OA
BRANCH  30  31
ATOM     31  C   UNL     1       3.897  -3.230   6.670  1.00  0.00     0.338 C 
ATOM     32  O   UNL     1       3.832  -2.972   7.861  1.00  0.00    -0.246 OA
BRANCH  31  33
ATOM     33  C   UNL     1       4.029  -4.593   6.109  1.00  0.00     0.060 A 
ATOM     34  C   UNL     1       3.150  -5.592   6.548  1.00  0.00     0.016 A 
ATOM     35  C   UNL     1       4.997  -4.880   5.143  1.00  0.00     0.016 A 
ATOM     36  C   UNL     1       3.259  -6.890   6.049  1.00  0.00     0.010 A 
ATOM     37  C   UNL     1       5.123  -6.188   4.665  1.00  0.00     0.010 A 
ATOM     38  C   UNL     1       4.278  -7.205   5.143  1.00  0.00    -0.014 A 
BRANCH  38  39
ATOM     39  C   UNL     1       4.582  -8.626   4.845  1.00  0.00     0.031 A 
ATOM     40  C   UNL     1       5.710  -9.285   5.590  1.00  0.00     0.074 A 
ATOM     41  C   UNL     1       3.873  -9.320   3.937  1.00  0.00     0.049 A 
ATOM     42  N   UNL     1       6.191 -10.494   5.469  1.00  0.00    -0.248 NA
ATOM     43  C   UNL     1       6.390  -8.466   6.608  1.00  0.00     0.031 C 
ATOM     44  C   UNL     1       2.747  -8.800   3.166  1.00  0.00     0.029 A 
ATOM     45  N   UNL     1       4.021 -10.611   3.494  1.00  0.00    -0.354 N 
ATOM     46  C   UNL     1       7.247 -10.572   6.368  1.00  0.00     0.074 A 
ATOM     47  C   UNL     1       7.344  -9.287   7.023  1.00  0.00     0.031 C 
ATOM     48  C   UNL     1       2.325  -9.754   2.316  1.00  0.00     0.029 A 
ATOM     49  C   UNL     1       3.172 -10.937   2.463  1.00  0.00     0.049 A 
ATOM     50  H   UNL     1       4.673 -11.242   3.876  1.00  0.00     0.167 HD
ATOM     51  C   UNL     1       8.059 -11.623   6.632  1.00  0.00     0.034 A 
ATOM     52  C   UNL     1       3.109 -12.051   1.705  1.00  0.00     0.034 A 
ATOM     53  C   UNL     1       7.956 -12.902   5.986  1.00  0.00     0.049 A 
ATOM     54  C   UNL     1       4.053 -13.191   1.989  1.00  0.00     0.074 A 
ATOM     55  C   UNL     1       8.702 -14.044   6.217  1.00  0.00     0.029 A 
ATOM     56  N   UNL     1       7.068 -13.205   4.966  1.00  0.00    -0.354 N 
ATOM     57  N   UNL     1       4.974 -13.292   2.917  1.00  0.00    -0.248 NA
ATOM     58  C   UNL     1       3.930 -14.385   1.138  1.00  0.00     0.031 C 
ATOM     59  C   UNL     1       8.294 -15.024   5.306  1.00  0.00     0.029 A 
ATOM     60  C   UNL     1       7.261 -14.508   4.541  1.00  0.00     0.049 A 
ATOM     61  H   UNL     1       6.397 -12.585   4.598  1.00  0.00     0.167 HD
ATOM     62  C   UNL     1       5.514 -14.568   2.785  1.00  0.00     0.074 A 
ATOM     63  C   UNL     1       4.801 -15.211   1.701  1.00  0.00     0.031 C 
ATOM     64  C   UNL     1       6.516 -15.152   3.489  1.00  0.00     0.034 A 
BRANCH  51  65
ATOM     65  C   UNL     1       9.133 -11.431   7.670  1.00  0.00     0.023 A 
ATOM     66  C   UNL     1       8.786 -11.327   9.033  1.00  0.00     0.012 A 
ATOM     67  C   UNL     1      10.492 -11.404   7.299  1.00  0.00     0.148 A 
ATOM     68  C   UNL     1       9.772 -11.165  10.006  1.00  0.00     0.002 A 
ATOM     69  C   UNL     1      11.471 -11.291   8.278  1.00  0.00     0.091 A 
ATOM     70  F   UNL     1      10.800 -11.480   5.997  1.00  0.00    -0.205 F 
ATOM     71  C   UNL     1      11.113 -11.158   9.630  1.00  0.00     0.022 A 
BRANCH  69  72
ATOM     72  S   UNL     1      13.226 -11.353   7.905  1.00  0.00     0.127 S 
ATOM     73  O   UNL     1      13.640  -9.983   8.204  1.00  0.00    -0.237 OA
ATOM     74  O   UNL     1      13.706 -12.356   8.857  1.00  0.00    -0.237 OA
ATOM     75  O   UNL     1      13.328 -11.743   6.506  1.00  0.00    -0.744 OA
ENDBRANCH  69  72
ENDBRANCH  51  65
BRANCH  52  76
ATOM     76  C   UNL     1       2.108 -12.149   0.604  1.00  0.00     0.023 A 
ATOM     77  C   UNL     1       1.049 -13.072   0.700  1.00  0.00     0.012 A 
ATOM     78  C   UNL     1       2.200 -11.327  -0.536  1.00  0.00     0.148 A 
ATOM     79  C   UNL     1       0.120 -13.198  -0.334  1.00  0.00     0.002 A 
ATOM     80  C   UNL     1       1.238 -11.415  -1.535  1.00  0.00     0.091 A 
ATOM     81  F   UNL     1       3.225 -10.467  -0.618  1.00  0.00    -0.205 F 
ATOM     82  C   UNL     1       0.208 -12.364  -1.446  1.00  0.00     0.022 A 
BRANCH  80  83
ATOM     83  S   UNL     1       1.202 -10.294  -2.938  1.00  0.00     0.127 S 
ATOM     84  O   UNL     1       1.521 -11.189  -4.047  1.00  0.00    -0.237 OA
ATOM     85  O   UNL     1      -0.181  -9.817  -2.908  1.00  0.00    -0.237 OA
ATOM     86  O   UNL     1       2.194  -9.268  -2.649  1.00  0.00    -0.744 OA
ENDBRANCH  80  83
ENDBRANCH  52  76
BRANCH  64  87
ATOM     87  C   UNL     1       6.884 -16.574   3.143  1.00  0.00     0.023 A 
ATOM     88  C   UNL     1       7.544 -16.858   1.931  1.00  0.00     0.012 A 
ATOM     89  C   UNL     1       6.638 -17.619   4.056  1.00  0.00     0.148 A 
ATOM     90  C   UNL     1       7.919 -18.164   1.616  1.00  0.00     0.002 A 
ATOM     91  C   UNL     1       7.063 -18.909   3.760  1.00  0.00     0.091 A 
ATOM     92  F   UNL     1       5.997 -17.333   5.198  1.00  0.00    -0.205 F 
ATOM     93  C   UNL     1       7.689 -19.186   2.534  1.00  0.00     0.022 A 
BRANCH  91  94
ATOM     94  S   UNL     1       6.899 -20.271   4.920  1.00  0.00     0.127 S 
ATOM     95  O   UNL     1       5.885 -21.097   4.268  1.00  0.00    -0.237 OA
ATOM     96  O   UNL     1       8.246 -20.843   4.916  1.00  0.00    -0.237 OA
ATOM     97  O   UNL     1       6.497 -19.676   6.187  1.00  0.00    -0.744 OA
ENDBRANCH  91  94
ENDBRANCH  64  87
ENDBRANCH  38  39
ENDBRANCH  31  33
ENDBRANCH  30  31
ENDBRANCH  29  30
ENDBRANCH  28  29
ENDBRANCH  27  28
ENDBRANCH  26  27
ENDBRANCH  25  26
ENDBRANCH  24  25
ENDBRANCH   1  24
TORSDOF 28
