REMARK SMILES COc1ccc(/C=C2/C(=O)N(c3ccccc3)C(=O)N=C2OCCOCCOCCOCCOC(=O)c2ccc(-c3c4nc(c(-c5cccc(S(=O)(=O)[O-])c5F)c5ccc([nH]5)c(-c5cccc(S(=O)(=O)[O-])c5F)c5nc(c(-c6cccc(S(=O)(=O)[O-])c6F)c6ccc3[nH]6)C=C5)C=C4)cc2)cc1C(=O)[O-]
REMARK SMILES IDX 29 1 28 2 27 3 26 4 25 5 24 6 23 7 22 8 21 9 7 10 8 11 9 12
REMARK SMILES IDX 10 13 11 14 20 15 18 16 19 17 6 18 3 19 4 20 101 21 5 22
REMARK SMILES IDX 100 23 2 24 1 25 102 26 103 27 104 28 12 29 13 30 17 31
REMARK SMILES IDX 14 32 16 33 15 34 30 35 31 36 32 37 33 38 34 39 35 40 36 41
REMARK SMILES IDX 37 42 38 43 99 44 39 45 98 46 40 47 41 48 42 49 92 50 43 51
REMARK SMILES IDX 97 52 91 53 93 54 44 55 96 56 90 57 89 58 45 60 77 61 57 62
REMARK SMILES IDX 76 63 58 64 61 65 75 66 94 67 59 68 60 69 74 71 95 72 62 73
REMARK SMILES IDX 46 74 47 75 55 76 48 77 50 78 56 79 49 80 51 81 52 82 53 83
REMARK SMILES IDX 54 84 78 85 79 86 87 87 80 88 82 89 88 90 81 91 83 92 84 93
REMARK SMILES IDX 85 94 86 95 63 96 64 97 72 98 65 99 67 100 73 101 66 102
REMARK SMILES IDX 68 103 69 104 70 105 71 106
REMARK H PARENT 93 59 61 70
REMARK Flexibility Score: inf
ROOT
ATOM      1  C   UNL     1      -2.440   1.972  -4.898  1.00  0.00     0.188 C 
ENDROOT
BRANCH   1   2
ATOM      2  O   UNL     1      -1.292   2.355  -5.636  1.00  0.00    -0.377 OA
BRANCH   2   3
ATOM      3  C   UNL     1      -0.814   1.369  -6.533  1.00  0.00     0.188 C 
BRANCH   3   4
ATOM      4  C   UNL     1      -1.654   1.033  -7.778  1.00  0.00     0.188 C 
BRANCH   4   5
ATOM      5  O   UNL     1      -2.766   0.141  -7.760  1.00  0.00    -0.376 OA
BRANCH   5   6
ATOM      6  C   UNL     1      -2.972  -0.872  -6.791  1.00  0.00     0.201 C 
BRANCH   6   7
ATOM      7  C   UNL     1      -2.061  -2.098  -6.740  1.00  0.00     0.260 C 
BRANCH   7   8
ATOM      8  O   UNL     1      -0.674  -1.764  -6.574  1.00  0.00    -0.475 OA
BRANCH   8   9
ATOM      9  C   UNL     1       0.074  -1.607  -7.672  1.00  0.00     0.231 C 
ATOM     10  C   UNL     1       2.059  -0.719  -6.273  1.00  0.00     0.027 C 
ATOM     11  C   UNL     1       1.395  -0.993  -7.432  1.00  0.00     0.103 C 
ATOM     12  C   UNL     1       2.035  -0.494  -8.716  1.00  0.00     0.272 C 
ATOM     13  O   UNL     1       3.157   0.012  -8.714  1.00  0.00    -0.268 OA
ATOM     14  N   UNL     1       1.231  -0.602  -9.852  1.00  0.00    -0.226 N 
ATOM     15  N   UNL     1      -0.448  -1.883  -8.805  1.00  0.00    -0.156 NA
ATOM     16  C   UNL     1       0.139  -1.464  -9.950  1.00  0.00     0.358 C 
ATOM     17  O   UNL     1      -0.328  -1.827 -11.027  1.00  0.00    -0.245 OA
BRANCH  10  18
ATOM     18  C   UNL     1       1.818  -0.841  -4.792  1.00  0.00    -0.024 A 
ATOM     19  C   UNL     1       1.407  -0.798  -1.946  1.00  0.00     0.127 A 
ATOM     20  C   UNL     1       0.528  -1.457  -2.794  1.00  0.00     0.048 A 
ATOM     21  C   UNL     1       2.572  -0.268  -2.498  1.00  0.00     0.040 A 
ATOM     22  C   UNL     1       0.765  -1.521  -4.176  1.00  0.00     0.012 A 
ATOM     23  C   UNL     1       2.739  -0.234  -3.907  1.00  0.00     0.022 A 
BRANCH  19  24
ATOM     24  O   UNL     1       1.076  -0.866  -0.624  1.00  0.00    -0.496 OA
ATOM     25  C   UNL     1       1.020   0.385   0.057  1.00  0.00     0.278 C 
ENDBRANCH  19  24
BRANCH  21  26
ATOM     26  C   UNL     1       3.718   0.155  -1.668  1.00  0.00     0.075 C 
ATOM     27  O   UNL     1       4.453   1.100  -1.891  1.00  0.00    -0.545 OA
ATOM     28  O   UNL     1       3.926  -0.724  -0.678  1.00  0.00    -0.545 OA
ENDBRANCH  21  26
ENDBRANCH  10  18
BRANCH  14  29
ATOM     29  C   UNL     1       1.589   0.065 -11.057  1.00  0.00     0.054 A 
ATOM     30  C   UNL     1       0.705   1.016 -11.598  1.00  0.00     0.027 A 
ATOM     31  C   UNL     1       2.707  -0.336 -11.789  1.00  0.00     0.027 A 
ATOM     32  C   UNL     1       0.939   1.556 -12.863  1.00  0.00     0.002 A 
ATOM     33  C   UNL     1       2.917   0.184 -13.069  1.00  0.00     0.002 A 
ATOM     34  C   UNL     1       2.037   1.127 -13.604  1.00  0.00     0.000 A 
ENDBRANCH  14  29
ENDBRANCH   8   9
ENDBRANCH   7   8
ENDBRANCH   6   7
ENDBRANCH   5   6
ENDBRANCH   4   5
ENDBRANCH   3   4
ENDBRANCH   2   3
ENDBRANCH   1   2
BRANCH   1  35
ATOM     35  C   UNL     1      -3.734   2.404  -5.601  1.00  0.00     0.188 C 
BRANCH  35  36
ATOM     36  O   UNL     1      -3.495   3.071  -6.834  1.00  0.00    -0.376 OA
BRANCH  36  37
ATOM     37  C   UNL     1      -3.370   4.489  -6.811  1.00  0.00     0.202 C 
BRANCH  37  38
ATOM     38  C   UNL     1      -2.297   5.145  -5.921  1.00  0.00     0.261 C 
BRANCH  38  39
ATOM     39  O   UNL     1      -2.369   4.872  -4.513  1.00  0.00    -0.460 OA
BRANCH  39  40
ATOM     40  C   UNL     1      -3.514   5.165  -3.862  1.00  0.00     0.338 C 
ATOM     41  O   UNL     1      -4.502   5.711  -4.318  1.00  0.00    -0.246 OA
BRANCH  40  42
ATOM     42  C   UNL     1      -3.452   4.496  -2.544  1.00  0.00     0.060 A 
ATOM     43  C   UNL     1      -4.479   3.609  -2.194  1.00  0.00     0.016 A 
ATOM     44  C   UNL     1      -2.373   4.709  -1.681  1.00  0.00     0.016 A 
ATOM     45  C   UNL     1      -4.451   2.964  -0.959  1.00  0.00     0.010 A 
ATOM     46  C   UNL     1      -2.360   4.083  -0.432  1.00  0.00     0.010 A 
ATOM     47  C   UNL     1      -3.420   3.241  -0.053  1.00  0.00    -0.014 A 
BRANCH  47  48
ATOM     48  C   UNL     1      -3.586   2.849   1.364  1.00  0.00     0.031 A 
ATOM     49  C   UNL     1      -4.188   3.858   2.304  1.00  0.00     0.074 A 
ATOM     50  C   UNL     1      -3.234   1.629   1.805  1.00  0.00     0.049 A 
ATOM     51  N   UNL     1      -4.455   3.749   3.578  1.00  0.00    -0.248 NA
ATOM     52  C   UNL     1      -4.538   5.168   1.725  1.00  0.00     0.031 C 
ATOM     53  C   UNL     1      -2.648   0.568   0.990  1.00  0.00     0.029 A 
ATOM     54  N   UNL     1      -3.303   1.090   3.065  1.00  0.00    -0.354 N 
ATOM     55  C   UNL     1      -4.989   4.975   3.956  1.00  0.00     0.074 A 
ATOM     56  C   UNL     1      -4.990   5.821   2.784  1.00  0.00     0.031 C 
ATOM     57  C   UNL     1      -2.378  -0.487   1.780  1.00  0.00     0.029 A 
ATOM     58  C   UNL     1      -2.763  -0.170   3.154  1.00  0.00     0.049 A 
ATOM     59  H   UNL     1      -3.701   1.562   3.832  1.00  0.00     0.167 HD
ATOM     60  C   UNL     1      -5.458   5.359   5.165  1.00  0.00     0.034 A 
ATOM     61  C   UNL     1      -2.589  -0.965   4.229  1.00  0.00     0.034 A 
ATOM     62  C   UNL     1      -5.463   4.516   6.328  1.00  0.00     0.049 A 
ATOM     63  C   UNL     1      -3.092  -0.505   5.574  1.00  0.00     0.074 A 
ATOM     64  C   UNL     1      -5.947   4.796   7.592  1.00  0.00     0.029 A 
ATOM     65  N   UNL     1      -4.943   3.232   6.372  1.00  0.00    -0.354 N 
ATOM     66  N   UNL     1      -3.712   0.608   5.889  1.00  0.00    -0.248 NA
ATOM     67  C   UNL     1      -2.910  -1.428   6.704  1.00  0.00     0.031 C 
ATOM     68  C   UNL     1      -5.698   3.688   8.409  1.00  0.00     0.029 A 
ATOM     69  C   UNL     1      -5.085   2.708   7.644  1.00  0.00     0.049 A 
ATOM     70  H   UNL     1      -4.534   2.762   5.610  1.00  0.00     0.167 HD
ATOM     71  C   UNL     1      -4.028   0.501   7.240  1.00  0.00     0.074 A 
ATOM     72  C   UNL     1      -3.547  -0.793   7.679  1.00  0.00     0.031 C 
ATOM     73  C   UNL     1      -4.649   1.396   8.049  1.00  0.00     0.034 A 
BRANCH  60  74
ATOM     74  C   UNL     1      -6.027   6.747   5.278  1.00  0.00     0.023 A 
ATOM     75  C   UNL     1      -7.278   7.037   4.694  1.00  0.00     0.012 A 
ATOM     76  C   UNL     1      -5.344   7.752   5.988  1.00  0.00     0.148 A 
ATOM     77  C   UNL     1      -7.826   8.315   4.789  1.00  0.00     0.002 A 
ATOM     78  C   UNL     1      -5.917   9.012   6.115  1.00  0.00     0.091 A 
ATOM     79  F   UNL     1      -4.143   7.464   6.508  1.00  0.00    -0.205 F 
ATOM     80  C   UNL     1      -7.151   9.298   5.508  1.00  0.00     0.022 A 
BRANCH  78  81
ATOM     81  S   UNL     1      -5.161  10.323   7.081  1.00  0.00     0.127 S 
ATOM     82  O   UNL     1      -4.719  11.244   6.034  1.00  0.00    -0.237 OA
ATOM     83  O   UNL     1      -6.287  10.805   7.881  1.00  0.00    -0.237 OA
ATOM     84  O   UNL     1      -4.096   9.693   7.849  1.00  0.00    -0.744 OA
ENDBRANCH  78  81
ENDBRANCH  60  74
BRANCH  61  85
ATOM     85  C   UNL     1      -1.939  -2.297   4.074  1.00  0.00     0.023 A 
ATOM     86  C   UNL     1      -2.702  -3.469   4.234  1.00  0.00     0.012 A 
ATOM     87  C   UNL     1      -0.568  -2.403   3.769  1.00  0.00     0.148 A 
ATOM     88  C   UNL     1      -2.105  -4.726   4.123  1.00  0.00     0.002 A 
ATOM     89  C   UNL     1       0.011  -3.657   3.615  1.00  0.00     0.091 A 
ATOM     90  F   UNL     1       0.141  -1.273   3.633  1.00  0.00    -0.205 F 
ATOM     91  C   UNL     1      -0.752  -4.820   3.806  1.00  0.00     0.022 A 
BRANCH  89  92
ATOM     92  S   UNL     1       1.723  -3.877   3.118  1.00  0.00     0.127 S 
ATOM     93  O   UNL     1       2.307  -4.469   4.319  1.00  0.00    -0.237 OA
ATOM     94  O   UNL     1       1.588  -4.793   1.984  1.00  0.00    -0.237 OA
ATOM     95  O   UNL     1       2.210  -2.548   2.777  1.00  0.00    -0.744 OA
ENDBRANCH  89  92
ENDBRANCH  61  85
BRANCH  73  96
ATOM     96  C   UNL     1      -4.885   0.998   9.483  1.00  0.00     0.023 A 
ATOM     97  C   UNL     1      -3.803   0.941  10.384  1.00  0.00     0.012 A 
ATOM     98  C   UNL     1      -6.191   0.755   9.955  1.00  0.00     0.148 A 
ATOM     99  C   UNL     1      -4.013   0.612  11.723  1.00  0.00     0.002 A 
ATOM    100  C   UNL     1      -6.397   0.477  11.301  1.00  0.00     0.091 A 
ATOM    101  F   UNL     1      -7.206   0.797   9.080  1.00  0.00    -0.205 F 
ATOM    102  C   UNL     1      -5.309   0.392  12.183  1.00  0.00     0.022 A 
BRANCH 100 103
ATOM    103  S   UNL     1      -8.042   0.279  11.996  1.00  0.00     0.127 S 
ATOM    104  O   UNL     1      -8.120  -1.170  12.170  1.00  0.00    -0.237 OA
ATOM    105  O   UNL     1      -7.948   1.039  13.243  1.00  0.00    -0.237 OA
ATOM    106  O   UNL     1      -8.959   0.845  11.015  1.00  0.00    -0.744 OA
ENDBRANCH 100 103
ENDBRANCH  73  96
ENDBRANCH  47  48
ENDBRANCH  40  42
ENDBRANCH  39  40
ENDBRANCH  38  39
ENDBRANCH  37  38
ENDBRANCH  36  37
ENDBRANCH  35  36
ENDBRANCH   1  35
TORSDOF 26
