REMARK SMILES O=C(OCCOCCOCCOCCOC(=O)c1ccc(S(=O)(=O)NCC[NH+]2CCCC2)c(F)c1)c1ccc(-c2c3nc(c(-c4cccc(S(=O)(=O)[O-])c4F)c4ccc([nH]4)c(-c4cccc(S(=O)(=O)[O-])c4F)c4nc(c(-c5cccc(S(=O)(=O)[O-])c5F)c5ccc2[nH]5)C=C4)C=C3)cc1
REMARK SMILES IDX 10 1 9 2 8 3 7 4 6 5 5 6 4 7 3 8 2 9 1 10 36 11 37 12 98 13
REMARK SMILES IDX 38 14 97 15 39 16 40 17 41 18 91 19 42 20 96 21 90 22 92 23
REMARK SMILES IDX 43 24 95 25 89 26 88 27 44 29 76 30 56 31 75 32 57 33 60 34
REMARK SMILES IDX 74 35 93 36 58 37 59 38 73 40 94 41 61 42 45 43 46 44 54 45
REMARK SMILES IDX 47 46 49 47 55 48 48 49 50 50 51 51 52 52 53 53 77 54 78 55
REMARK SMILES IDX 86 56 79 57 81 58 87 59 80 60 82 61 83 62 84 63 85 64 62 65
REMARK SMILES IDX 63 66 71 67 64 68 66 69 72 70 65 71 67 72 68 73 69 74 70 75
REMARK SMILES IDX 11 76 12 77 13 78 14 79 15 80 16 81 17 82 18 83 19 84 35 85
REMARK SMILES IDX 20 86 33 87 21 88 34 89 22 90 23 91 24 92 25 93 26 95 27 96
REMARK SMILES IDX 28 97 29 98 32 99 30 101 31 102
REMARK H PARENT 92 28 60 39 25 94 28 100
REMARK Flexibility Score: inf
ROOT
ATOM      1  C   UNL     1       3.913  -2.442  -3.032  1.00  0.00     0.188 C 
ENDROOT
BRANCH   1   2
ATOM      2  O   UNL     1       2.494  -2.529  -3.032  1.00  0.00    -0.377 OA
BRANCH   2   3
ATOM      3  C   UNL     1       1.791  -1.494  -2.349  1.00  0.00     0.188 C 
BRANCH   3   4
ATOM      4  C   UNL     1       2.260  -1.210  -0.923  1.00  0.00     0.188 C 
BRANCH   4   5
ATOM      5  O   UNL     1       3.613  -0.757  -0.888  1.00  0.00    -0.376 OA
BRANCH   5   6
ATOM      6  C   UNL     1       4.426  -1.296   0.154  1.00  0.00     0.202 C 
BRANCH   6   7
ATOM      7  C   UNL     1       4.201  -0.676   1.535  1.00  0.00     0.261 C 
BRANCH   7   8
ATOM      8  O   UNL     1       2.834  -0.304   1.758  1.00  0.00    -0.460 OA
BRANCH   8   9
ATOM      9  C   UNL     1       2.250   0.896   1.509  1.00  0.00     0.338 C 
ATOM     10  O   UNL     1       1.068   1.034   1.823  1.00  0.00    -0.246 OA
BRANCH   9  11
ATOM     11  C   UNL     1       2.948   2.060   0.873  1.00  0.00     0.060 A 
ATOM     12  C   UNL     1       4.077   1.986   0.054  1.00  0.00     0.016 A 
ATOM     13  C   UNL     1       2.376   3.328   1.076  1.00  0.00     0.016 A 
ATOM     14  C   UNL     1       4.670   3.115  -0.487  1.00  0.00     0.010 A 
ATOM     15  C   UNL     1       2.954   4.475   0.525  1.00  0.00     0.010 A 
ATOM     16  C   UNL     1       4.129   4.366  -0.227  1.00  0.00    -0.014 A 
BRANCH  16  17
ATOM     17  C   UNL     1       4.948   5.536  -0.572  1.00  0.00     0.031 A 
ATOM     18  C   UNL     1       5.702   6.197   0.540  1.00  0.00     0.074 A 
ATOM     19  C   UNL     1       5.121   5.884  -1.859  1.00  0.00     0.049 A 
ATOM     20  N   UNL     1       6.448   7.263   0.512  1.00  0.00    -0.248 NA
ATOM     21  C   UNL     1       5.619   5.555   1.867  1.00  0.00     0.031 C 
ATOM     22  C   UNL     1       4.531   5.190  -3.006  1.00  0.00     0.029 A 
ATOM     23  N   UNL     1       5.854   6.895  -2.418  1.00  0.00    -0.354 N 
ATOM     24  C   UNL     1       6.869   7.456   1.821  1.00  0.00     0.074 A 
ATOM     25  C   UNL     1       6.320   6.388   2.619  1.00  0.00     0.031 C 
ATOM     26  C   UNL     1       4.922   5.803  -4.135  1.00  0.00     0.029 A 
ATOM     27  C   UNL     1       5.729   6.966  -3.785  1.00  0.00     0.049 A 
ATOM     28  H   UNL     1       6.416   7.510  -1.893  1.00  0.00     0.167 HD
ATOM     29  C   UNL     1       7.645   8.450   2.304  1.00  0.00     0.034 A 
ATOM     30  C   UNL     1       6.183   7.902  -4.642  1.00  0.00     0.034 A 
ATOM     31  C   UNL     1       8.189   9.483   1.471  1.00  0.00     0.049 A 
ATOM     32  C   UNL     1       6.983   9.041  -4.068  1.00  0.00     0.074 A 
ATOM     33  C   UNL     1       8.952  10.572   1.838  1.00  0.00     0.029 A 
ATOM     34  N   UNL     1       8.018   9.548   0.094  1.00  0.00    -0.354 N 
ATOM     35  N   UNL     1       7.366   9.233  -2.827  1.00  0.00    -0.248 NA
ATOM     36  C   UNL     1       7.421  10.087  -5.000  1.00  0.00     0.031 C 
ATOM     37  C   UNL     1       9.215  11.316   0.685  1.00  0.00     0.029 A 
ATOM     38  C   UNL     1       8.652  10.666  -0.406  1.00  0.00     0.049 A 
ATOM     39  H   UNL     1       7.519   8.893  -0.445  1.00  0.00     0.167 HD
ATOM     40  C   UNL     1       8.106  10.408  -2.829  1.00  0.00     0.074 A 
ATOM     41  C   UNL     1       8.136  10.871  -4.204  1.00  0.00     0.031 C 
ATOM     42  C   UNL     1       8.693  11.058  -1.794  1.00  0.00     0.034 A 
BRANCH  29  43
ATOM     43  C   UNL     1       7.902   8.480   3.784  1.00  0.00     0.023 A 
ATOM     44  C   UNL     1       8.781   7.551   4.374  1.00  0.00     0.012 A 
ATOM     45  C   UNL     1       7.275   9.450   4.591  1.00  0.00     0.148 A 
ATOM     46  C   UNL     1       9.014   7.571   5.749  1.00  0.00     0.002 A 
ATOM     47  C   UNL     1       7.546   9.492   5.952  1.00  0.00     0.091 A 
ATOM     48  F   UNL     1       6.417  10.302   4.013  1.00  0.00    -0.205 F 
ATOM     49  C   UNL     1       8.405   8.546   6.535  1.00  0.00     0.022 A 
BRANCH  47  50
ATOM     50  S   UNL     1       6.866  10.749   7.038  1.00  0.00     0.127 S 
ATOM     51  O   UNL     1       6.042   9.945   7.941  1.00  0.00    -0.237 OA
ATOM     52  O   UNL     1       8.072  11.308   7.648  1.00  0.00    -0.237 OA
ATOM     53  O   UNL     1       6.128  11.668   6.183  1.00  0.00    -0.744 OA
ENDBRANCH  47  50
ENDBRANCH  29  43
BRANCH  30  54
ATOM     54  C   UNL     1       5.879   7.796  -6.098  1.00  0.00     0.023 A 
ATOM     55  C   UNL     1       6.921   7.579  -7.019  1.00  0.00     0.012 A 
ATOM     56  C   UNL     1       4.552   7.859  -6.573  1.00  0.00     0.148 A 
ATOM     57  C   UNL     1       6.651   7.441  -8.383  1.00  0.00     0.002 A 
ATOM     58  C   UNL     1       4.283   7.660  -7.923  1.00  0.00     0.091 A 
ATOM     59  F   UNL     1       3.571   8.089  -5.688  1.00  0.00    -0.205 F 
ATOM     60  C   UNL     1       5.333   7.467  -8.832  1.00  0.00     0.022 A 
BRANCH  58  61
ATOM     61  S   UNL     1       2.610   7.542  -8.568  1.00  0.00     0.127 S 
ATOM     62  O   UNL     1       2.515   8.754  -9.378  1.00  0.00    -0.237 OA
ATOM     63  O   UNL     1       2.669   6.295  -9.331  1.00  0.00    -0.237 OA
ATOM     64  O   UNL     1       1.739   7.493  -7.402  1.00  0.00    -0.744 OA
ENDBRANCH  58  61
ENDBRANCH  30  54
BRANCH  42  65
ATOM     65  C   UNL     1       9.442  12.324  -2.102  1.00  0.00     0.023 A 
ATOM     66  C   UNL     1       8.729  13.506  -2.376  1.00  0.00     0.012 A 
ATOM     67  C   UNL     1      10.843  12.366  -1.966  1.00  0.00     0.148 A 
ATOM     68  C   UNL     1       9.405  14.715  -2.525  1.00  0.00     0.002 A 
ATOM     69  C   UNL     1      11.502  13.583  -2.058  1.00  0.00     0.091 A 
ATOM     70  F   UNL     1      11.496  11.221  -1.719  1.00  0.00    -0.205 F 
ATOM     71  C   UNL     1      10.787  14.756  -2.348  1.00  0.00     0.022 A 
BRANCH  69  72
ATOM     72  S   UNL     1      13.258  13.750  -1.719  1.00  0.00     0.127 S 
ATOM     73  O   UNL     1      13.790  14.041  -3.049  1.00  0.00    -0.237 OA
ATOM     74  O   UNL     1      13.286  14.878  -0.789  1.00  0.00    -0.237 OA
ATOM     75  O   UNL     1      13.681  12.480  -1.144  1.00  0.00    -0.744 OA
ENDBRANCH  69  72
ENDBRANCH  42  65
ENDBRANCH  16  17
ENDBRANCH   9  11
ENDBRANCH   8   9
ENDBRANCH   7   8
ENDBRANCH   6   7
ENDBRANCH   5   6
ENDBRANCH   4   5
ENDBRANCH   3   4
ENDBRANCH   2   3
ENDBRANCH   1   2
BRANCH   1  76
ATOM     76  C   UNL     1       4.607  -1.162  -3.554  1.00  0.00     0.188 C 
BRANCH  76  77
ATOM     77  O   UNL     1       3.732  -0.117  -3.947  1.00  0.00    -0.376 OA
BRANCH  77  78
ATOM     78  C   UNL     1       3.633   0.106  -5.352  1.00  0.00     0.202 C 
BRANCH  78  79
ATOM     79  C   UNL     1       2.825  -0.962  -6.104  1.00  0.00     0.261 C 
BRANCH  79  80
ATOM     80  O   UNL     1       3.361  -2.298  -6.019  1.00  0.00    -0.460 OA
BRANCH  80  81
ATOM     81  C   UNL     1       4.573  -2.538  -6.566  1.00  0.00     0.338 C 
ATOM     82  O   UNL     1       5.254  -1.777  -7.229  1.00  0.00    -0.246 OA
BRANCH  81  83
ATOM     83  C   UNL     1       5.063  -3.816  -5.995  1.00  0.00     0.063 A 
ATOM     84  C   UNL     1       4.234  -4.941  -5.930  1.00  0.00     0.017 A 
ATOM     85  C   UNL     1       6.315  -3.826  -5.358  1.00  0.00     0.056 A 
ATOM     86  C   UNL     1       4.657  -6.071  -5.226  1.00  0.00     0.026 A 
ATOM     87  C   UNL     1       6.718  -4.949  -4.636  1.00  0.00     0.144 A 
ATOM     88  C   UNL     1       5.902  -6.068  -4.575  1.00  0.00     0.118 A 
ATOM     89  F   UNL     1       7.893  -4.902  -3.994  1.00  0.00    -0.205 F 
BRANCH  88  90
ATOM     90  S   UNL     1       6.421  -7.540  -3.762  1.00  0.00     0.243 S 
ATOM     91  O   UNL     1       5.234  -8.197  -3.298  1.00  0.00    -0.207 OA
ATOM     92  O   UNL     1       7.336  -8.200  -4.684  1.00  0.00    -0.207 OA
BRANCH  90  93
ATOM     93  N   UNL     1       7.354  -7.084  -2.452  1.00  0.00    -0.205 NA
ATOM     94  H   UNL     1       7.659  -6.130  -2.647  1.00  0.00     0.141 HD
BRANCH  93  95
ATOM     95  C   UNL     1       6.865  -7.072  -1.065  1.00  0.00     0.160 C 
BRANCH  95  96
ATOM     96  C   UNL     1       6.278  -8.396  -0.517  1.00  0.00     0.278 C 
BRANCH  96  97
ATOM     97  N   UNL     1       7.159  -9.562  -0.277  1.00  0.00    -0.334 N 
ATOM     98  C   UNL     1       7.887 -10.073  -1.445  1.00  0.00     0.262 C 
ATOM     99  C   UNL     1       6.328 -10.704   0.194  1.00  0.00     0.262 C 
ATOM    100  H   UNL     1       7.847  -9.219   0.394  1.00  0.00     0.348 HD
ATOM    101  C   UNL     1       6.993 -11.123  -2.066  1.00  0.00     0.067 C 
ATOM    102  C   UNL     1       6.444 -11.819  -0.842  1.00  0.00     0.067 C 
ENDBRANCH  96  97
ENDBRANCH  95  96
ENDBRANCH  93  95
ENDBRANCH  90  93
ENDBRANCH  88  90
ENDBRANCH  81  83
ENDBRANCH  80  81
ENDBRANCH  79  80
ENDBRANCH  78  79
ENDBRANCH  77  78
ENDBRANCH  76  77
ENDBRANCH   1  76
TORSDOF 28
