REMARK SMILES Cc1nc(-c2ccc(S(=O)(=O)N3CC[NH2+][C@H](C(=O)OCCOCCOCCOCCOC(=O)c4ccc(-c5c6nc(c(-c7cccc(S(=O)(=O)[O-])c7F)c7ccc([nH]7)c(-c7cccc(S(=O)(=O)[O-])c7F)c7nc(c(-c8cccc(S(=O)(=O)[O-])c8F)c8ccc5[nH]8)C=C7)C=C6)cc4)C3)s2)cs1
REMARK SMILES IDX 25 1 24 2 23 3 22 4 21 5 20 6 19 7 17 8 18 9 16 10 12 11
REMARK SMILES IDX 13 12 97 13 14 14 15 15 9 18 10 19 11 20 8 21 5 22 6 23
REMARK SMILES IDX 98 24 7 25 4 26 1 27 2 28 3 29 100 30 99 31 26 32 27 33
REMARK SMILES IDX 28 34 29 35 30 36 31 37 32 38 33 39 34 40 35 41 96 42 36 43
REMARK SMILES IDX 95 44 37 45 38 46 39 47 89 48 40 49 94 50 88 51 90 52 41 53
REMARK SMILES IDX 93 54 87 55 86 56 42 58 74 59 54 60 73 61 55 62 58 63 72 64
REMARK SMILES IDX 91 65 56 66 57 67 71 69 92 70 59 71 43 72 44 73 52 74 45 75
REMARK SMILES IDX 47 76 53 77 46 78 48 79 49 80 50 81 51 82 75 83 76 84 84 85
REMARK SMILES IDX 77 86 79 87 85 88 78 89 80 90 81 91 82 92 83 93 60 94 61 95
REMARK SMILES IDX 69 96 62 97 64 98 70 99 63 100 65 101 66 102 67 103 68 104
REMARK H PARENT 15 16 15 17 90 57 58 68
REMARK Flexibility Score: inf
ROOT
ATOM      1  O   UNL     1       6.419  -6.532  -5.648  1.00  0.00    -0.377 OA
ENDROOT
BRANCH   1   2
ATOM      2  C   UNL     1       5.216  -6.626  -4.915  1.00  0.00     0.188 C 
BRANCH   2   3
ATOM      3  C   UNL     1       4.113  -5.649  -5.386  1.00  0.00     0.188 C 
BRANCH   3   4
ATOM      4  O   UNL     1       4.419  -4.374  -5.947  1.00  0.00    -0.376 OA
BRANCH   4   5
ATOM      5  C   UNL     1       5.748  -3.885  -5.946  1.00  0.00     0.202 C 
BRANCH   5   6
ATOM      6  C   UNL     1       6.320  -3.428  -4.596  1.00  0.00     0.261 C 
BRANCH   6   7
ATOM      7  O   UNL     1       5.995  -4.255  -3.463  1.00  0.00    -0.459 OA
BRANCH   7   8
ATOM      8  C   UNL     1       4.843  -3.925  -2.824  1.00  0.00     0.366 C 
ATOM      9  O   UNL     1       4.107  -3.000  -3.154  1.00  0.00    -0.245 OA
BRANCH   8  10
ATOM     10  C   UNL     1       4.510  -4.850  -1.649  1.00  0.00     0.308 C 
ATOM     11  N   UNL     1       5.163  -5.872   0.469  1.00  0.00    -0.185 NA
ATOM     12  C   UNL     1       4.412  -7.120   0.209  1.00  0.00     0.164 C 
ATOM     13  C   UNL     1       5.699  -5.286  -0.796  1.00  0.00     0.180 C 
ATOM     14  C   UNL     1       3.385  -6.983  -0.932  1.00  0.00     0.278 C 
ATOM     15  N   UNL     1       3.572  -5.968  -1.987  1.00  0.00    -0.332 N 
ATOM     16  H   UNL     1       2.660  -5.560  -2.196  1.00  0.00     0.347 HD
ATOM     17  H   UNL     1       3.993  -6.458  -2.776  1.00  0.00     0.347 HD
BRANCH  11  18
ATOM     18  S   UNL     1       4.637  -4.811   1.697  1.00  0.00     0.253 S 
ATOM     19  O   UNL     1       5.710  -3.852   1.895  1.00  0.00    -0.206 OA
ATOM     20  O   UNL     1       4.125  -5.607   2.784  1.00  0.00    -0.206 OA
BRANCH  18  21
ATOM     21  C   UNL     1       3.213  -3.835   1.180  1.00  0.00     0.135 A 
ATOM     22  C   UNL     1       1.743  -1.892   0.723  1.00  0.00     0.055 A 
ATOM     23  C   UNL     1       1.223  -3.066   0.230  1.00  0.00     0.023 A 
ATOM     24  S   UNL     1       3.266  -2.130   1.448  1.00  0.00    -0.121 S 
ATOM     25  C   UNL     1       2.020  -4.184   0.573  1.00  0.00     0.034 A 
BRANCH  22  26
ATOM     26  C   UNL     1       0.958  -0.622   0.628  1.00  0.00     0.091 A 
ATOM     27  C   UNL     1      -2.371   0.722   0.009  1.00  0.00     0.079 C 
ATOM     28  C   UNL     1      -0.931   0.490   0.295  1.00  0.00     0.090 A 
ATOM     29  N   UNL     1      -0.367  -0.691   0.223  1.00  0.00    -0.241 NA
ATOM     30  S   UNL     1       0.110   1.770   0.770  1.00  0.00    -0.127 S 
ATOM     31  C   UNL     1       1.400   0.643   0.953  1.00  0.00     0.096 A 
ENDBRANCH  22  26
ENDBRANCH  18  21
ENDBRANCH  11  18
ENDBRANCH   8  10
ENDBRANCH   7   8
ENDBRANCH   6   7
ENDBRANCH   5   6
ENDBRANCH   4   5
ENDBRANCH   3   4
ENDBRANCH   2   3
ENDBRANCH   1   2
BRANCH   1  32
ATOM     32  C   UNL     1       6.589  -7.497  -6.668  1.00  0.00     0.188 C 
BRANCH  32  33
ATOM     33  C   UNL     1       5.432  -7.609  -7.667  1.00  0.00     0.188 C 
BRANCH  33  34
ATOM     34  O   UNL     1       4.234  -8.115  -7.067  1.00  0.00    -0.376 OA
BRANCH  34  35
ATOM     35  C   UNL     1       3.913  -9.477  -7.326  1.00  0.00     0.202 C 
BRANCH  35  36
ATOM     36  C   UNL     1       4.557 -10.459  -6.337  1.00  0.00     0.261 C 
BRANCH  36  37
ATOM     37  O   UNL     1       5.991 -10.521  -6.389  1.00  0.00    -0.460 OA
BRANCH  37  38
ATOM     38  C   UNL     1       6.544 -10.833  -7.583  1.00  0.00     0.338 C 
ATOM     39  O   UNL     1       5.955 -11.184  -8.589  1.00  0.00    -0.246 OA
BRANCH  38  40
ATOM     40  C   UNL     1       7.972 -10.455  -7.546  1.00  0.00     0.060 A 
ATOM     41  C   UNL     1       8.464  -9.652  -8.583  1.00  0.00     0.016 A 
ATOM     42  C   UNL     1       8.810 -10.865  -6.505  1.00  0.00     0.016 A 
ATOM     43  C   UNL     1       9.813  -9.309  -8.615  1.00  0.00     0.010 A 
ATOM     44  C   UNL     1      10.169 -10.541  -6.551  1.00  0.00     0.010 A 
ATOM     45  C   UNL     1      10.680  -9.806  -7.634  1.00  0.00    -0.014 A 
BRANCH  45  46
ATOM     46  C   UNL     1      12.136  -9.795  -7.908  1.00  0.00     0.031 A 
ATOM     47  C   UNL     1      12.714 -10.983  -8.630  1.00  0.00     0.074 A 
ATOM     48  C   UNL     1      12.918  -8.759  -7.564  1.00  0.00     0.049 A 
ATOM     49  N   UNL     1      13.931 -11.181  -9.059  1.00  0.00    -0.248 NA
ATOM     50  C   UNL     1      11.790 -12.098  -8.907  1.00  0.00     0.031 C 
ATOM     51  C   UNL     1      12.478  -7.560  -6.854  1.00  0.00     0.029 A 
ATOM     52  N   UNL     1      14.262  -8.562  -7.761  1.00  0.00    -0.354 N 
ATOM     53  C   UNL     1      13.921 -12.439  -9.650  1.00  0.00     0.074 A 
ATOM     54  C   UNL     1      12.585 -12.971  -9.505  1.00  0.00     0.031 C 
ATOM     55  C   UNL     1      13.541  -6.760  -6.654  1.00  0.00     0.029 A 
ATOM     56  C   UNL     1      14.733  -7.390  -7.221  1.00  0.00     0.049 A 
ATOM     57  H   UNL     1      14.835  -9.201  -8.244  1.00  0.00     0.167 HD
ATOM     58  C   UNL     1      14.925 -13.087 -10.283  1.00  0.00     0.034 A 
ATOM     59  C   UNL     1      15.985  -6.889  -7.192  1.00  0.00     0.034 A 
ATOM     60  C   UNL     1      16.251 -12.560 -10.432  1.00  0.00     0.049 A 
ATOM     61  C   UNL     1      17.094  -7.640  -7.888  1.00  0.00     0.074 A 
ATOM     62  C   UNL     1      17.333 -13.123 -11.084  1.00  0.00     0.029 A 
ATOM     63  N   UNL     1      16.680 -11.351  -9.909  1.00  0.00    -0.354 N 
ATOM     64  N   UNL     1      17.035  -8.758  -8.572  1.00  0.00    -0.248 NA
ATOM     65  C   UNL     1      18.435  -7.037  -7.844  1.00  0.00     0.031 C 
ATOM     66  C   UNL     1      18.423 -12.258 -10.940  1.00  0.00     0.029 A 
ATOM     67  C   UNL     1      18.014 -11.151 -10.214  1.00  0.00     0.049 A 
ATOM     68  H   UNL     1      16.118 -10.727  -9.395  1.00  0.00     0.167 HD
ATOM     69  C   UNL     1      18.317  -8.972  -9.069  1.00  0.00     0.074 A 
ATOM     70  C   UNL     1      19.127  -7.857  -8.625  1.00  0.00     0.031 C 
ATOM     71  C   UNL     1      18.787 -10.004  -9.814  1.00  0.00     0.034 A 
BRANCH  58  72
ATOM     72  C   UNL     1      14.607 -14.425 -10.889  1.00  0.00     0.023 A 
ATOM     73  C   UNL     1      13.845 -14.482 -12.075  1.00  0.00     0.012 A 
ATOM     74  C   UNL     1      15.075 -15.617 -10.307  1.00  0.00     0.148 A 
ATOM     75  C   UNL     1      13.532 -15.709 -12.658  1.00  0.00     0.002 A 
ATOM     76  C   UNL     1      14.791 -16.834 -10.915  1.00  0.00     0.091 A 
ATOM     77  F   UNL     1      15.767 -15.541  -9.162  1.00  0.00    -0.205 F 
ATOM     78  C   UNL     1      14.014 -16.883 -12.084  1.00  0.00     0.022 A 
BRANCH  76  79
ATOM     79  S   UNL     1      15.418 -18.394 -10.286  1.00  0.00     0.127 S 
ATOM     80  O   UNL     1      14.212 -18.985  -9.707  1.00  0.00    -0.237 OA
ATOM     81  O   UNL     1      15.895 -19.050 -11.504  1.00  0.00    -0.237 OA
ATOM     82  O   UNL     1      16.466 -18.049  -9.335  1.00  0.00    -0.744 OA
ENDBRANCH  76  79
ENDBRANCH  58  72
BRANCH  59  83
ATOM     83  C   UNL     1      16.252  -5.581  -6.530  1.00  0.00     0.023 A 
ATOM     84  C   UNL     1      16.593  -4.461  -7.313  1.00  0.00     0.012 A 
ATOM     85  C   UNL     1      16.166  -5.440  -5.132  1.00  0.00     0.148 A 
ATOM     86  C   UNL     1      16.872  -3.232  -6.714  1.00  0.00     0.002 A 
ATOM     87  C   UNL     1      16.395  -4.200  -4.545  1.00  0.00     0.091 A 
ATOM     88  F   UNL     1      15.863  -6.522  -4.401  1.00  0.00    -0.205 F 
ATOM     89  C   UNL     1      16.763  -3.099  -5.332  1.00  0.00     0.022 A 
BRANCH  87  90
ATOM     90  S   UNL     1      16.158  -3.912  -2.788  1.00  0.00     0.127 S 
ATOM     91  O   UNL     1      17.535  -3.804  -2.314  1.00  0.00    -0.237 OA
ATOM     92  O   UNL     1      15.404  -2.658  -2.785  1.00  0.00    -0.237 OA
ATOM     93  O   UNL     1      15.406  -5.062  -2.304  1.00  0.00    -0.744 OA
ENDBRANCH  87  90
ENDBRANCH  59  83
BRANCH  71  94
ATOM     94  C   UNL     1      20.235  -9.970 -10.227  1.00  0.00     0.023 A 
ATOM     95  C   UNL     1      21.239 -10.230  -9.273  1.00  0.00     0.012 A 
ATOM     96  C   UNL     1      20.596  -9.766 -11.573  1.00  0.00     0.148 A 
ATOM     97  C   UNL     1      22.582 -10.259  -9.649  1.00  0.00     0.002 A 
ATOM     98  C   UNL     1      21.932  -9.841 -11.948  1.00  0.00     0.091 A 
ATOM     99  F   UNL     1      19.628  -9.499 -12.463  1.00  0.00    -0.205 F 
ATOM    100  C   UNL     1      22.927 -10.077 -10.986  1.00  0.00     0.022 A 
BRANCH  98 101
ATOM    101  S   UNL     1      22.449  -9.716 -13.664  1.00  0.00     0.127 S 
ATOM    102  O   UNL     1      22.930  -8.338 -13.732  1.00  0.00    -0.237 OA
ATOM    103  O   UNL     1      23.497 -10.733 -13.754  1.00  0.00    -0.237 OA
ATOM    104  O   UNL     1      21.261 -10.011 -14.456  1.00  0.00    -0.744 OA
ENDBRANCH  98 101
ENDBRANCH  71  94
ENDBRANCH  45  46
ENDBRANCH  38  40
ENDBRANCH  37  38
ENDBRANCH  36  37
ENDBRANCH  35  36
ENDBRANCH  34  35
ENDBRANCH  33  34
ENDBRANCH  32  33
ENDBRANCH   1  32
TORSDOF 26
