REMARK SMILES CCC[NH+]1CCC([NH2+]CC(C)(C)C(=O)OCCOCCOCCOCCOC(=O)c2ccc(-c3c4nc(c(-c5cccc(S(=O)(=O)[O-])c5F)c5ccc([nH]5)c(-c5cccc(S(=O)(=O)[O-])c5F)c5nc(c(-c6cccc(S(=O)(=O)[O-])c6F)c6ccc3[nH]6)C=C5)C=C4)cc2)CC1
REMARK SMILES IDX 20 1 19 2 18 3 17 4 16 5 15 6 13 7 14 8 10 9 11 10 12 11
REMARK SMILES IDX 9 12 8 13 7 16 4 17 5 18 94 19 6 21 93 22 3 23 2 24 1 25
REMARK SMILES IDX 21 26 22 27 23 28 24 29 25 30 26 31 27 32 28 33 29 34 30 35
REMARK SMILES IDX 31 36 92 37 32 38 91 39 33 40 34 41 35 42 85 43 36 44 90 45
REMARK SMILES IDX 84 46 86 47 37 48 89 49 83 50 82 51 38 53 70 54 50 55 69 56
REMARK SMILES IDX 51 57 54 58 68 59 87 60 52 61 53 62 67 64 88 65 55 66 39 67
REMARK SMILES IDX 40 68 48 69 41 70 43 71 49 72 42 73 44 74 45 75 46 76 47 77
REMARK SMILES IDX 71 78 72 79 80 80 73 81 75 82 81 83 74 84 76 85 77 86 78 87
REMARK SMILES IDX 79 88 56 89 57 90 65 91 58 92 60 93 66 94 59 95 61 96 62 97
REMARK SMILES IDX 63 98 64 99
REMARK H PARENT 8 14 8 15 4 20 86 52 54 63
REMARK Flexibility Score: inf
ROOT
ATOM      1  C   UNL     1       3.416  -1.605  -4.879  1.00  0.00     0.188 C 
ENDROOT
BRANCH   1   2
ATOM      2  C   UNL     1       3.626  -0.440  -3.907  1.00  0.00     0.188 C 
BRANCH   2   3
ATOM      3  O   UNL     1       3.460  -0.811  -2.549  1.00  0.00    -0.376 OA
BRANCH   3   4
ATOM      4  C   UNL     1       2.186  -0.866  -1.939  1.00  0.00     0.202 C 
BRANCH   4   5
ATOM      5  C   UNL     1       1.016  -1.838  -2.344  1.00  0.00     0.261 C 
BRANCH   5   6
ATOM      6  O   UNL     1       0.368  -1.890  -3.650  1.00  0.00    -0.463 OA
BRANCH   6   7
ATOM      7  C   UNL     1       0.390  -0.762  -4.369  1.00  0.00     0.317 C 
ATOM      8  O   UNL     1       1.062   0.171  -3.993  1.00  0.00    -0.251 OA
BRANCH   7   9
ATOM      9  C   UNL     1      -0.417  -0.678  -5.659  1.00  0.00     0.111 C 
ATOM     10  C   UNL     1      -1.917  -0.890  -5.431  1.00  0.00     0.029 C 
ATOM     11  C   UNL     1       0.063  -1.817  -6.592  1.00  0.00     0.029 C 
BRANCH   9  12
ATOM     12  C   UNL     1      -0.114   0.734  -6.346  1.00  0.00     0.279 C 
BRANCH  12  13
ATOM     13  N   UNL     1      -0.590   2.071  -5.832  1.00  0.00    -0.343 N 
ATOM     14  H   UNL     1      -0.304   2.787  -6.500  1.00  0.00     0.346 HD
ATOM     15  H   UNL     1      -1.602   1.992  -5.730  1.00  0.00     0.346 HD
BRANCH  13  16
ATOM     16  C   UNL     1      -0.069   2.453  -4.496  1.00  0.00     0.193 C 
ATOM     17  N   UNL     1       0.077   3.301  -1.622  1.00  0.00    -0.335 N 
ATOM     18  C   UNL     1       0.808   4.008  -2.709  1.00  0.00     0.268 C 
ATOM     19  C   UNL     1      -0.346   1.978  -2.053  1.00  0.00     0.268 C 
ATOM     20  H   UNL     1      -0.749   3.854  -1.397  1.00  0.00     0.348 HD
ATOM     21  C   UNL     1       0.152   3.932  -4.131  1.00  0.00     0.126 C 
ATOM     22  C   UNL     1      -1.015   1.938  -3.407  1.00  0.00     0.126 C 
BRANCH  17  23
ATOM     23  C   UNL     1       0.929   3.180  -0.403  1.00  0.00     0.261 C 
BRANCH  23  24
ATOM     24  C   UNL     1       0.357   2.360   0.785  1.00  0.00     0.058 C 
ATOM     25  C   UNL     1       0.732   0.876   0.815  1.00  0.00     0.010 C 
ENDBRANCH  23  24
ENDBRANCH  17  23
ENDBRANCH  13  16
ENDBRANCH  12  13
ENDBRANCH   9  12
ENDBRANCH   7   9
ENDBRANCH   6   7
ENDBRANCH   5   6
ENDBRANCH   4   5
ENDBRANCH   3   4
ENDBRANCH   2   3
ENDBRANCH   1   2
BRANCH   1  26
ATOM     26  O   UNL     1       3.227  -2.897  -4.316  1.00  0.00    -0.377 OA
BRANCH  26  27
ATOM     27  C   UNL     1       4.056  -3.311  -3.228  1.00  0.00     0.188 C 
BRANCH  27  28
ATOM     28  C   UNL     1       5.455  -2.682  -3.029  1.00  0.00     0.188 C 
BRANCH  28  29
ATOM     29  O   UNL     1       5.966  -1.998  -4.159  1.00  0.00    -0.376 OA
BRANCH  29  30
ATOM     30  C   UNL     1       6.797  -2.699  -5.062  1.00  0.00     0.202 C 
BRANCH  30  31
ATOM     31  C   UNL     1       6.263  -3.993  -5.694  1.00  0.00     0.261 C 
BRANCH  31  32
ATOM     32  O   UNL     1       5.824  -5.026  -4.799  1.00  0.00    -0.460 OA
BRANCH  32  33
ATOM     33  C   UNL     1       6.685  -5.464  -3.854  1.00  0.00     0.338 C 
ATOM     34  O   UNL     1       7.853  -5.146  -3.729  1.00  0.00    -0.246 OA
BRANCH  33  35
ATOM     35  C   UNL     1       5.901  -6.207  -2.836  1.00  0.00     0.060 A 
ATOM     36  C   UNL     1       6.000  -5.812  -1.492  1.00  0.00     0.016 A 
ATOM     37  C   UNL     1       5.051  -7.255  -3.200  1.00  0.00     0.016 A 
ATOM     38  C   UNL     1       5.316  -6.513  -0.504  1.00  0.00     0.010 A 
ATOM     39  C   UNL     1       4.393  -7.983  -2.204  1.00  0.00     0.010 A 
ATOM     40  C   UNL     1       4.580  -7.652  -0.850  1.00  0.00    -0.014 A 
BRANCH  40  41
ATOM     41  C   UNL     1       4.329  -8.656   0.210  1.00  0.00     0.031 A 
ATOM     42  C   UNL     1       5.346  -9.758   0.368  1.00  0.00     0.074 A 
ATOM     43  C   UNL     1       3.291  -8.561   1.058  1.00  0.00     0.049 A 
ATOM     44  N   UNL     1       5.393 -10.730   1.238  1.00  0.00    -0.248 NA
ATOM     45  C   UNL     1       6.469  -9.756  -0.588  1.00  0.00     0.031 C 
ATOM     46  C   UNL     1       2.262  -7.524   1.030  1.00  0.00     0.029 A 
ATOM     47  N   UNL     1       2.934  -9.365   2.112  1.00  0.00    -0.354 N 
ATOM     48  C   UNL     1       6.529 -11.465   0.920  1.00  0.00     0.074 A 
ATOM     49  C   UNL     1       7.134 -10.843  -0.234  1.00  0.00     0.031 C 
ATOM     50  C   UNL     1       1.372  -7.769   2.009  1.00  0.00     0.029 A 
ATOM     51  C   UNL     1       1.760  -8.988   2.719  1.00  0.00     0.049 A 
ATOM     52  H   UNL     1       3.468 -10.138   2.405  1.00  0.00     0.167 HD
ATOM     53  C   UNL     1       7.040 -12.552   1.542  1.00  0.00     0.034 A 
ATOM     54  C   UNL     1       1.075  -9.574   3.722  1.00  0.00     0.034 A 
ATOM     55  C   UNL     1       6.446 -13.164   2.697  1.00  0.00     0.049 A 
ATOM     56  C   UNL     1       1.641 -10.814   4.370  1.00  0.00     0.074 A 
ATOM     57  C   UNL     1       6.898 -14.251   3.421  1.00  0.00     0.029 A 
ATOM     58  N   UNL     1       5.262 -12.750   3.286  1.00  0.00    -0.354 N 
ATOM     59  N   UNL     1       2.768 -11.438   4.125  1.00  0.00    -0.248 NA
ATOM     60  C   UNL     1       0.853 -11.411   5.460  1.00  0.00     0.031 C 
ATOM     61  C   UNL     1       5.965 -14.519   4.428  1.00  0.00     0.029 A 
ATOM     62  C   UNL     1       4.956 -13.571   4.357  1.00  0.00     0.049 A 
ATOM     63  H   UNL     1       4.720 -11.985   2.987  1.00  0.00     0.167 HD
ATOM     64  C   UNL     1       2.842 -12.475   5.050  1.00  0.00     0.074 A 
ATOM     65  C   UNL     1       1.658 -12.378   5.878  1.00  0.00     0.031 C 
ATOM     66  C   UNL     1       3.795 -13.431   5.197  1.00  0.00     0.034 A 
BRANCH  53  67
ATOM     67  C   UNL     1       8.306 -13.143   0.981  1.00  0.00     0.023 A 
ATOM     68  C   UNL     1       9.529 -12.455   1.124  1.00  0.00     0.012 A 
ATOM     69  C   UNL     1       8.289 -14.396   0.340  1.00  0.00     0.148 A 
ATOM     70  C   UNL     1      10.708 -12.989   0.607  1.00  0.00     0.002 A 
ATOM     71  C   UNL     1       9.476 -14.945  -0.128  1.00  0.00     0.091 A 
ATOM     72  F   UNL     1       7.112 -15.021   0.190  1.00  0.00    -0.205 F 
ATOM     73  C   UNL     1      10.683 -14.238  -0.008  1.00  0.00     0.022 A 
BRANCH  71  74
ATOM     74  S   UNL     1       9.562 -16.581  -0.863  1.00  0.00     0.127 S 
ATOM     75  O   UNL     1       9.895 -16.263  -2.252  1.00  0.00    -0.237 OA
ATOM     76  O   UNL     1      10.647 -17.200  -0.102  1.00  0.00    -0.237 OA
ATOM     77  O   UNL     1       8.253 -17.185  -0.660  1.00  0.00    -0.744 OA
ENDBRANCH  71  74
ENDBRANCH  53  67
BRANCH  54  78
ATOM     78  C   UNL     1      -0.214  -8.992   4.193  1.00  0.00     0.023 A 
ATOM     79  C   UNL     1      -0.306  -8.448   5.489  1.00  0.00     0.012 A 
ATOM     80  C   UNL     1      -1.354  -8.987   3.365  1.00  0.00     0.148 A 
ATOM     81  C   UNL     1      -1.518  -7.946   5.966  1.00  0.00     0.002 A 
ATOM     82  C   UNL     1      -2.542  -8.432   3.825  1.00  0.00     0.091 A 
ATOM     83  F   UNL     1      -1.252  -9.526   2.142  1.00  0.00    -0.205 F 
ATOM     84  C   UNL     1      -2.633  -7.929   5.131  1.00  0.00     0.022 A 
BRANCH  82  85
ATOM     85  S   UNL     1      -3.992  -8.256   2.779  1.00  0.00     0.127 S 
ATOM     86  O   UNL     1      -4.926  -9.190   3.401  1.00  0.00    -0.237 OA
ATOM     87  O   UNL     1      -4.321  -6.841   2.961  1.00  0.00    -0.237 OA
ATOM     88  O   UNL     1      -3.553  -8.602   1.434  1.00  0.00    -0.744 OA
ENDBRANCH  82  85
ENDBRANCH  54  78
BRANCH  66  89
ATOM     89  C   UNL     1       3.620 -14.427   6.315  1.00  0.00     0.023 A 
ATOM     90  C   UNL     1       2.605 -15.402   6.240  1.00  0.00     0.012 A 
ATOM     91  C   UNL     1       4.504 -14.435   7.413  1.00  0.00     0.148 A 
ATOM     92  C   UNL     1       2.444 -16.338   7.261  1.00  0.00     0.002 A 
ATOM     93  C   UNL     1       4.372 -15.405   8.399  1.00  0.00     0.091 A 
ATOM     94  F   UNL     1       5.457 -13.492   7.474  1.00  0.00    -0.205 F 
ATOM     95  C   UNL     1       3.333 -16.346   8.334  1.00  0.00     0.022 A 
BRANCH  93  96
ATOM     96  S   UNL     1       5.531 -15.556   9.763  1.00  0.00     0.127 S 
ATOM     97  O   UNL     1       4.726 -15.092  10.891  1.00  0.00    -0.237 OA
ATOM     98  O   UNL     1       5.818 -16.991   9.768  1.00  0.00    -0.237 OA
ATOM     99  O   UNL     1       6.669 -14.714   9.419  1.00  0.00    -0.744 OA
ENDBRANCH  93  96
ENDBRANCH  66  89
ENDBRANCH  40  41
ENDBRANCH  33  35
ENDBRANCH  32  33
ENDBRANCH  31  32
ENDBRANCH  30  31
ENDBRANCH  29  30
ENDBRANCH  28  29
ENDBRANCH  27  28
ENDBRANCH  26  27
ENDBRANCH   1  26
TORSDOF 28
