REMARK SMILES O=C(CCOc1cccc(/C=C2\CCn3c2nc2cc(Cl)ccc2c3=O)c1)OCCOCCOCCOCCOC(=O)c1ccc(-c2c3nc(c(-c4cccc(S(=O)(=O)[O-])c4F)c4ccc([nH]4)c(-c4cccc(S(=O)(=O)[O-])c4F)c4nc(c(-c5cccc(S(=O)(=O)[O-])c5F)c5ccc2[nH]5)C=C4)C=C3)cc1
REMARK SMILES IDX 33 1 32 2 31 3 30 4 29 5 28 6 2 7 1 8 3 9 4 10 5 11 6 12
REMARK SMILES IDX 7 13 27 14 8 15 10 16 9 17 11 18 12 19 13 20 16 21 14 22
REMARK SMILES IDX 15 23 17 24 25 25 18 26 24 27 26 28 19 29 23 30 20 31 22 32
REMARK SMILES IDX 21 33 34 34 35 35 36 36 37 37 38 38 39 39 40 40 41 41 42 42
REMARK SMILES IDX 43 43 44 44 105 45 45 46 104 47 46 48 47 49 48 50 98 51
REMARK SMILES IDX 49 52 103 53 97 54 99 55 50 56 102 57 96 58 95 59 51 61
REMARK SMILES IDX 83 62 63 63 82 64 64 65 67 66 81 67 100 68 65 69 66 70 80 72
REMARK SMILES IDX 101 73 68 74 52 75 53 76 61 77 54 78 56 79 62 80 55 81 57 82
REMARK SMILES IDX 58 83 59 84 60 85 84 86 85 87 93 88 86 89 88 90 94 91 87 92
REMARK SMILES IDX 89 93 90 94 91 95 92 96 69 97 70 98 78 99 71 100 73 101
REMARK SMILES IDX 79 102 72 103 74 104 75 105 76 106 77 107
REMARK H PARENT 99 60 67 71
REMARK Flexibility Score: inf
ROOT
ATOM      1  C   UNL     1       2.865  -1.960  -1.251  1.00  0.00     0.188 C 
ENDROOT
BRANCH   1   2
ATOM      2  C   UNL     1       3.039  -1.006  -2.446  1.00  0.00     0.188 C 
BRANCH   2   3
ATOM      3  O   UNL     1       3.749   0.226  -2.243  1.00  0.00    -0.376 OA
BRANCH   3   4
ATOM      4  C   UNL     1       4.967   0.135  -1.504  1.00  0.00     0.202 C 
BRANCH   4   5
ATOM      5  C   UNL     1       4.766   0.382  -0.001  1.00  0.00     0.261 C 
BRANCH   5   6
ATOM      6  O   UNL     1       3.380   0.361   0.399  1.00  0.00    -0.463 OA
BRANCH   6   7
ATOM      7  C   UNL     1       2.474   1.262  -0.042  1.00  0.00     0.309 C 
ATOM      8  O   UNL     1       1.266   1.034   0.027  1.00  0.00    -0.252 OA
BRANCH   7   9
ATOM      9  C   UNL     1       2.980   2.597  -0.492  1.00  0.00     0.164 C 
BRANCH   9  10
ATOM     10  C   UNL     1       3.005   3.562   0.681  1.00  0.00     0.241 C 
BRANCH  10  11
ATOM     11  O   UNL     1       4.121   3.364   1.548  1.00  0.00    -0.493 OA
BRANCH  11  12
ATOM     12  C   UNL     1       4.046   2.484   2.596  1.00  0.00     0.119 A 
ATOM     13  C   UNL     1       5.276   2.262   3.216  1.00  0.00     0.046 A 
ATOM     14  C   UNL     1       2.927   1.750   3.018  1.00  0.00     0.054 A 
ATOM     15  C   UNL     1       5.391   1.320   4.229  1.00  0.00     0.004 A 
ATOM     16  C   UNL     1       3.039   0.724   3.986  1.00  0.00    -0.022 A 
ATOM     17  C   UNL     1       4.283   0.558   4.602  1.00  0.00     0.008 A 
BRANCH  16  18
ATOM     18  C   UNL     1       1.928  -0.270   4.082  1.00  0.00     0.015 C 
ATOM     19  C   UNL     1       1.880  -1.434   4.768  1.00  0.00    -0.003 C 
ATOM     20  C   UNL     1       2.754  -2.062   5.816  1.00  0.00     0.061 C 
ATOM     21  C   UNL     1       1.523  -2.579   3.870  1.00  0.00     0.139 A 
ATOM     22  C   UNL     1       3.562  -3.027   4.960  1.00  0.00     0.132 C 
ATOM     23  N   UNL     1       2.657  -3.378   3.882  1.00  0.00    -0.292 N 
ATOM     24  N   UNL     1       0.491  -2.789   3.130  1.00  0.00    -0.230 NA
ATOM     25  C   UNL     1       2.986  -4.140   2.793  1.00  0.00     0.261 A 
ATOM     26  C   UNL     1       0.596  -3.871   2.228  1.00  0.00     0.080 A 
ATOM     27  C   UNL     1       1.833  -4.446   1.921  1.00  0.00     0.066 A 
ATOM     28  O   UNL     1       4.108  -4.512   2.499  1.00  0.00    -0.269 OA
ATOM     29  C   UNL     1      -0.530  -4.317   1.532  1.00  0.00     0.049 A 
ATOM     30  C   UNL     1       1.976  -5.324   0.849  1.00  0.00     0.017 A 
ATOM     31  C   UNL     1      -0.393  -5.244   0.493  1.00  0.00     0.043 A 
ATOM     32  C   UNL     1       0.863  -5.716   0.117  1.00  0.00     0.021 A 
ATOM     33  Cl  UNL     1      -1.782  -5.797  -0.361  1.00  0.00    -0.084 Cl
ENDBRANCH  16  18
ENDBRANCH  11  12
ENDBRANCH  10  11
ENDBRANCH   9  10
ENDBRANCH   7   9
ENDBRANCH   6   7
ENDBRANCH   5   6
ENDBRANCH   4   5
ENDBRANCH   3   4
ENDBRANCH   2   3
ENDBRANCH   1   2
BRANCH   1  34
ATOM     34  O   UNL     1       4.105  -2.295  -0.643  1.00  0.00    -0.377 OA
BRANCH  34  35
ATOM     35  C   UNL     1       4.689  -3.538  -0.987  1.00  0.00     0.188 C 
BRANCH  35  36
ATOM     36  C   UNL     1       5.441  -3.587  -2.325  1.00  0.00     0.188 C 
BRANCH  36  37
ATOM     37  O   UNL     1       4.694  -3.531  -3.536  1.00  0.00    -0.376 OA
BRANCH  37  38
ATOM     38  C   UNL     1       3.530  -4.330  -3.696  1.00  0.00     0.202 C 
BRANCH  38  39
ATOM     39  C   UNL     1       3.655  -5.847  -3.560  1.00  0.00     0.261 C 
BRANCH  39  40
ATOM     40  O   UNL     1       3.914  -6.257  -2.205  1.00  0.00    -0.460 OA
BRANCH  40  41
ATOM     41  C   UNL     1       5.104  -6.870  -2.005  1.00  0.00     0.338 C 
ATOM     42  O   UNL     1       5.932  -7.154  -2.863  1.00  0.00    -0.246 OA
BRANCH  41  43
ATOM     43  C   UNL     1       5.385  -6.993  -0.564  1.00  0.00     0.060 A 
ATOM     44  C   UNL     1       6.595  -6.472  -0.093  1.00  0.00     0.016 A 
ATOM     45  C   UNL     1       4.518  -7.663   0.303  1.00  0.00     0.016 A 
ATOM     46  C   UNL     1       6.976  -6.679   1.229  1.00  0.00     0.010 A 
ATOM     47  C   UNL     1       4.889  -7.847   1.640  1.00  0.00     0.010 A 
ATOM     48  C   UNL     1       6.152  -7.418   2.088  1.00  0.00    -0.014 A 
BRANCH  48  49
ATOM     49  C   UNL     1       6.745  -7.962   3.336  1.00  0.00     0.031 A 
ATOM     50  C   UNL     1       7.203  -9.399   3.333  1.00  0.00     0.074 A 
ATOM     51  C   UNL     1       6.963  -7.191   4.417  1.00  0.00     0.049 A 
ATOM     52  N   UNL     1       7.849 -10.066   4.254  1.00  0.00    -0.248 NA
ATOM     53  C   UNL     1       6.901 -10.187   2.125  1.00  0.00     0.031 C 
ATOM     54  C   UNL     1       6.576  -5.790   4.551  1.00  0.00     0.029 A 
ATOM     55  N   UNL     1       7.566  -7.490   5.614  1.00  0.00    -0.354 N 
ATOM     56  C   UNL     1       8.029 -11.343   3.737  1.00  0.00     0.074 A 
ATOM     57  C   UNL     1       7.383 -11.377   2.445  1.00  0.00     0.031 C 
ATOM     58  C   UNL     1       6.925  -5.356   5.774  1.00  0.00     0.029 A 
ATOM     59  C   UNL     1       7.562  -6.447   6.509  1.00  0.00     0.049 A 
ATOM     60  H   UNL     1       7.964  -8.368   5.813  1.00  0.00     0.167 HD
ATOM     61  C   UNL     1       8.707 -12.388   4.265  1.00  0.00     0.034 A 
ATOM     62  C   UNL     1       8.020  -6.383   7.776  1.00  0.00     0.034 A 
ATOM     63  C   UNL     1       9.361 -12.361   5.543  1.00  0.00     0.049 A 
ATOM     64  C   UNL     1       8.745  -7.570   8.358  1.00  0.00     0.074 A 
ATOM     65  C   UNL     1      10.087 -13.363   6.159  1.00  0.00     0.029 A 
ATOM     66  N   UNL     1       9.362 -11.276   6.405  1.00  0.00    -0.354 N 
ATOM     67  N   UNL     1       9.017  -8.727   7.804  1.00  0.00    -0.248 NA
ATOM     68  C   UNL     1       9.273  -7.423   9.723  1.00  0.00     0.031 C 
ATOM     69  C   UNL     1      10.510 -12.891   7.406  1.00  0.00     0.029 A 
ATOM     70  C   UNL     1      10.072 -11.585   7.552  1.00  0.00     0.049 A 
ATOM     71  H   UNL     1       8.922 -10.413   6.228  1.00  0.00     0.167 HD
ATOM     72  C   UNL     1       9.776  -9.429   8.734  1.00  0.00     0.074 A 
ATOM     73  C   UNL     1       9.946  -8.556   9.877  1.00  0.00     0.031 C 
ATOM     74  C   UNL     1      10.275 -10.688   8.659  1.00  0.00     0.034 A 
BRANCH  61  75
ATOM     75  C   UNL     1       8.808 -13.636   3.431  1.00  0.00     0.023 A 
ATOM     76  C   UNL     1       9.641 -13.642   2.292  1.00  0.00     0.012 A 
ATOM     77  C   UNL     1       8.113 -14.807   3.787  1.00  0.00     0.148 A 
ATOM     78  C   UNL     1       9.756 -14.785   1.503  1.00  0.00     0.002 A 
ATOM     79  C   UNL     1       8.268 -15.956   3.021  1.00  0.00     0.091 A 
ATOM     80  F   UNL     1       7.305 -14.770   4.856  1.00  0.00    -0.205 F 
ATOM     81  C   UNL     1       9.079 -15.944   1.873  1.00  0.00     0.022 A 
BRANCH  79  82
ATOM     82  S   UNL     1       7.498 -17.519   3.453  1.00  0.00     0.127 S 
ATOM     83  O   UNL     1       6.518 -17.672   2.378  1.00  0.00    -0.237 OA
ATOM     84  O   UNL     1       8.628 -18.446   3.384  1.00  0.00    -0.237 OA
ATOM     85  O   UNL     1       6.939 -17.338   4.785  1.00  0.00    -0.744 OA
ENDBRANCH  79  82
ENDBRANCH  61  75
BRANCH  62  86
ATOM     86  C   UNL     1       7.839  -5.134   8.571  1.00  0.00     0.023 A 
ATOM     87  C   UNL     1       8.956  -4.362   8.946  1.00  0.00     0.012 A 
ATOM     88  C   UNL     1       6.553  -4.705   8.952  1.00  0.00     0.148 A 
ATOM     89  C   UNL     1       8.798  -3.213   9.723  1.00  0.00     0.002 A 
ATOM     90  C   UNL     1       6.398  -3.521   9.663  1.00  0.00     0.091 A 
ATOM     91  F   UNL     1       5.500  -5.461   8.610  1.00  0.00    -0.205 F 
ATOM     92  C   UNL     1       7.520  -2.786  10.072  1.00  0.00     0.022 A 
BRANCH  90  93
ATOM     93  S   UNL     1       4.776  -2.819   9.978  1.00  0.00     0.127 S 
ATOM     94  O   UNL     1       4.566  -3.160  11.381  1.00  0.00    -0.237 OA
ATOM     95  O   UNL     1       5.001  -1.398   9.710  1.00  0.00    -0.237 OA
ATOM     96  O   UNL     1       3.887  -3.459   9.014  1.00  0.00    -0.744 OA
ENDBRANCH  90  93
ENDBRANCH  62  86
BRANCH  74  97
ATOM     97  C   UNL     1      11.081 -11.192   9.830  1.00  0.00     0.023 A 
ATOM     98  C   UNL     1      10.438 -11.491  11.047  1.00  0.00     0.012 A 
ATOM     99  C   UNL     1      12.466 -11.424   9.705  1.00  0.00     0.148 A 
ATOM    100  C   UNL     1      11.166 -11.970  12.136  1.00  0.00     0.002 A 
ATOM    101  C   UNL     1      13.176 -11.950  10.778  1.00  0.00     0.091 A 
ATOM    102  F   UNL     1      13.065 -11.118   8.546  1.00  0.00    -0.205 F 
ATOM    103  C   UNL     1      12.531 -12.209  11.998  1.00  0.00     0.022 A 
BRANCH 101 104
ATOM    104  S   UNL     1      14.916 -12.378  10.658  1.00  0.00     0.127 S 
ATOM    105  O   UNL     1      15.545 -11.280  11.389  1.00  0.00    -0.237 OA
ATOM    106  O   UNL     1      14.967 -13.672  11.340  1.00  0.00    -0.237 OA
ATOM    107  O   UNL     1      15.214 -12.438   9.233  1.00  0.00    -0.744 OA
ENDBRANCH 101 104
ENDBRANCH  74  97
ENDBRANCH  48  49
ENDBRANCH  41  43
ENDBRANCH  40  41
ENDBRANCH  39  40
ENDBRANCH  38  39
ENDBRANCH  37  38
ENDBRANCH  36  37
ENDBRANCH  35  36
ENDBRANCH  34  35
ENDBRANCH   1  34
TORSDOF 27
