REMARK SMILES CC[C@](C)(NC(=O)NC[C@@H](C)[NH+](C)C)C(=O)OCCOCCOCCOCCOC(=O)c1ccc(-c2c3nc(c(-c4cccc(S(=O)(=O)[O-])c4F)c4ccc([nH]4)c(-c4cccc(S(=O)(=O)[O-])c4F)c4nc(c(-c5cccc(S(=O)(=O)[O-])c5F)c5ccc2[nH]5)C=C4)C=C3)cc1
REMARK SMILES IDX 22 1 21 2 20 3 19 4 18 5 17 6 15 7 16 8 3 9 4 10 2 11 1 12
REMARK SMILES IDX 5 13 6 14 7 16 8 17 9 19 10 20 11 21 12 22 13 23 14 24 23 26
REMARK SMILES IDX 24 27 25 28 26 29 27 30 28 31 29 32 30 33 31 34 32 35 33 36
REMARK SMILES IDX 94 37 34 38 93 39 35 40 36 41 37 42 87 43 38 44 92 45 86 46
REMARK SMILES IDX 88 47 39 48 91 49 85 50 84 51 40 53 72 54 52 55 71 56 53 57
REMARK SMILES IDX 56 58 70 59 89 60 54 61 55 62 69 64 90 65 57 66 41 67 42 68
REMARK SMILES IDX 50 69 43 70 45 71 51 72 44 73 46 74 47 75 48 76 49 77 73 78
REMARK SMILES IDX 74 79 82 80 75 81 77 82 83 83 76 84 78 85 79 86 80 87 81 88
REMARK SMILES IDX 58 89 59 90 67 91 60 92 62 93 68 94 61 95 63 96 64 97 65 98
REMARK SMILES IDX 66 99
REMARK H PARENT 5 15 8 18 12 25 88 52 56 63
REMARK Flexibility Score: inf
ROOT
ATOM      1  C   UNL     1       2.915  -3.251   2.681  1.00  0.00     0.188 C 
ENDROOT
BRANCH   1   2
ATOM      2  C   UNL     1       3.138  -3.369   1.159  1.00  0.00     0.188 C 
BRANCH   2   3
ATOM      3  O   UNL     1       4.451  -3.239   0.623  1.00  0.00    -0.376 OA
BRANCH   3   4
ATOM      4  C   UNL     1       5.170  -2.051   0.947  1.00  0.00     0.202 C 
BRANCH   4   5
ATOM      5  C   UNL     1       4.449  -0.706   0.760  1.00  0.00     0.261 C 
BRANCH   5   6
ATOM      6  O   UNL     1       3.220  -0.628   1.506  1.00  0.00    -0.462 OA
BRANCH   6   7
ATOM      7  C   UNL     1       2.297   0.298   1.147  1.00  0.00     0.331 C 
ATOM      8  O   UNL     1       2.445   1.059   0.197  1.00  0.00    -0.249 OA
BRANCH   7   9
ATOM      9  C   UNL     1       0.962   0.146   1.954  1.00  0.00     0.136 C 
ATOM     10  C   UNL     1       0.139  -0.797   1.030  1.00  0.00     0.047 C 
BRANCH   9  11
ATOM     11  C   UNL     1       0.240   1.513   2.073  1.00  0.00     0.037 C 
ATOM     12  C   UNL     1      -1.245   1.430   2.423  1.00  0.00     0.007 C 
ENDBRANCH   9  11
BRANCH   9  13
ATOM     13  N   UNL     1       1.002  -0.526   3.285  1.00  0.00    -0.322 N 
ATOM     14  C   UNL     1       1.448  -0.232   4.515  1.00  0.00     0.315 C 
ATOM     15  H   UNL     1       0.593  -1.421   3.251  1.00  0.00     0.166 HD
ATOM     16  O   UNL     1       0.943  -0.858   5.451  1.00  0.00    -0.249 OA
ATOM     17  N   UNL     1       2.391   0.679   4.783  1.00  0.00    -0.332 N 
ATOM     18  H   UNL     1       2.430   0.986   5.718  1.00  0.00     0.165 HD
BRANCH  17  19
ATOM     19  C   UNL     1       3.358   1.273   3.894  1.00  0.00     0.182 C 
BRANCH  19  20
ATOM     20  C   UNL     1       4.446   2.174   4.530  1.00  0.00     0.200 C 
ATOM     21  C   UNL     1       5.515   1.293   5.200  1.00  0.00     0.077 C 
BRANCH  20  22
ATOM     22  N   UNL     1       4.981   3.139   3.529  1.00  0.00    -0.336 N 
ATOM     23  C   UNL     1       6.054   3.980   4.051  1.00  0.00     0.332 C 
ATOM     24  C   UNL     1       5.374   2.566   2.247  1.00  0.00     0.332 C 
ATOM     25  H   UNL     1       4.167   3.724   3.339  1.00  0.00     0.347 HD
ENDBRANCH  20  22
ENDBRANCH  19  20
ENDBRANCH  17  19
ENDBRANCH   9  13
ENDBRANCH   7   9
ENDBRANCH   6   7
ENDBRANCH   5   6
ENDBRANCH   4   5
ENDBRANCH   3   4
ENDBRANCH   2   3
ENDBRANCH   1   2
BRANCH   1  26
ATOM     26  O   UNL     1       3.809  -2.370   3.354  1.00  0.00    -0.377 OA
BRANCH  26  27
ATOM     27  C   UNL     1       4.435  -2.929   4.508  1.00  0.00     0.188 C 
BRANCH  27  28
ATOM     28  C   UNL     1       5.491  -3.982   4.134  1.00  0.00     0.188 C 
BRANCH  28  29
ATOM     29  O   UNL     1       4.961  -5.016   3.317  1.00  0.00    -0.376 OA
BRANCH  29  30
ATOM     30  C   UNL     1       4.464  -6.203   3.924  1.00  0.00     0.202 C 
BRANCH  30  31
ATOM     31  C   UNL     1       3.483  -6.130   5.112  1.00  0.00     0.261 C 
BRANCH  31  32
ATOM     32  O   UNL     1       3.873  -5.320   6.230  1.00  0.00    -0.460 OA
BRANCH  32  33
ATOM     33  C   UNL     1       4.994  -5.668   6.884  1.00  0.00     0.338 C 
ATOM     34  O   UNL     1       5.712  -6.632   6.642  1.00  0.00    -0.246 OA
BRANCH  33  35
ATOM     35  C   UNL     1       5.338  -4.586   7.825  1.00  0.00     0.060 A 
ATOM     36  C   UNL     1       6.612  -4.012   7.739  1.00  0.00     0.016 A 
ATOM     37  C   UNL     1       4.445  -4.189   8.826  1.00  0.00     0.016 A 
ATOM     38  C   UNL     1       7.033  -3.109   8.709  1.00  0.00     0.010 A 
ATOM     39  C   UNL     1       4.877  -3.297   9.812  1.00  0.00     0.010 A 
ATOM     40  C   UNL     1       6.195  -2.810   9.791  1.00  0.00    -0.014 A 
BRANCH  40  41
ATOM     41  C   UNL     1       6.813  -2.251  11.017  1.00  0.00     0.031 A 
ATOM     42  C   UNL     1       7.270  -3.222  12.076  1.00  0.00     0.074 A 
ATOM     43  C   UNL     1       7.031  -0.933  11.162  1.00  0.00     0.049 A 
ATOM     44  N   UNL     1       7.898  -2.993  13.199  1.00  0.00    -0.248 NA
ATOM     45  C   UNL     1       6.984  -4.647  11.830  1.00  0.00     0.031 C 
ATOM     46  C   UNL     1       6.660   0.098  10.196  1.00  0.00     0.029 A 
ATOM     47  N   UNL     1       7.621  -0.241  12.189  1.00  0.00    -0.354 N 
ATOM     48  C   UNL     1       8.058  -4.235  13.802  1.00  0.00     0.074 A 
ATOM     49  C   UNL     1       7.454  -5.215  12.929  1.00  0.00     0.031 C 
ATOM     50  C   UNL     1       7.020   1.299  10.684  1.00  0.00     0.029 A 
ATOM     51  C   UNL     1       7.631   1.120  12.001  1.00  0.00     0.049 A 
ATOM     52  H   UNL     1       8.000  -0.678  12.985  1.00  0.00     0.167 HD
ATOM     53  C   UNL     1       8.669  -4.540  14.970  1.00  0.00     0.034 A 
ATOM     54  C   UNL     1       8.078   2.104  12.807  1.00  0.00     0.034 A 
ATOM     55  C   UNL     1       9.289  -3.569  15.827  1.00  0.00     0.049 A 
ATOM     56  C   UNL     1       8.728   1.741  14.119  1.00  0.00     0.074 A 
ATOM     57  C   UNL     1       9.971  -3.776  17.012  1.00  0.00     0.029 A 
ATOM     58  N   UNL     1       9.290  -2.202  15.596  1.00  0.00    -0.354 N 
ATOM     59  N   UNL     1       8.978   0.554  14.619  1.00  0.00    -0.248 NA
ATOM     60  C   UNL     1       9.189   2.854  14.963  1.00  0.00     0.031 C 
ATOM     61  C   UNL     1      10.360  -2.530  17.513  1.00  0.00     0.029 A 
ATOM     62  C   UNL     1       9.947  -1.550  16.624  1.00  0.00     0.049 A 
ATOM     63  H   UNL     1       8.882  -1.760  14.816  1.00  0.00     0.167 HD
ATOM     64  C   UNL     1       9.662   0.776  15.810  1.00  0.00     0.074 A 
ATOM     65  C   UNL     1       9.800   2.211  15.949  1.00  0.00     0.031 C 
ATOM     66  C   UNL     1      10.125  -0.123  16.715  1.00  0.00     0.034 A 
BRANCH  53  67
ATOM     67  C   UNL     1       8.700  -5.988  15.381  1.00  0.00     0.023 A 
ATOM     68  C   UNL     1       9.543  -6.893  14.704  1.00  0.00     0.012 A 
ATOM     69  C   UNL     1       7.913  -6.446  16.455  1.00  0.00     0.148 A 
ATOM     70  C   UNL     1       9.577  -8.239  15.069  1.00  0.00     0.002 A 
ATOM     71  C   UNL     1       7.985  -7.779  16.841  1.00  0.00     0.091 A 
ATOM     72  F   UNL     1       7.095  -5.577  17.065  1.00  0.00    -0.205 F 
ATOM     73  C   UNL     1       8.806  -8.679  16.142  1.00  0.00     0.022 A 
BRANCH  71  74
ATOM     74  S   UNL     1       7.087  -8.422  18.257  1.00  0.00     0.127 S 
ATOM     75  O   UNL     1       6.039  -9.210  17.610  1.00  0.00    -0.237 OA
ATOM     76  O   UNL     1       8.112  -9.214  18.939  1.00  0.00    -0.237 OA
ATOM     77  O   UNL     1       6.628  -7.258  19.001  1.00  0.00    -0.744 OA
ENDBRANCH  71  74
ENDBRANCH  53  67
BRANCH  54  78
ATOM     78  C   UNL     1       7.973   3.528  12.379  1.00  0.00     0.023 A 
ATOM     79  C   UNL     1       9.144   4.253  12.082  1.00  0.00     0.012 A 
ATOM     80  C   UNL     1       6.723   4.165  12.259  1.00  0.00     0.148 A 
ATOM     81  C   UNL     1       9.073   5.594  11.702  1.00  0.00     0.002 A 
ATOM     82  C   UNL     1       6.656   5.484  11.826  1.00  0.00     0.091 A 
ATOM     83  F   UNL     1       5.622   3.464  12.565  1.00  0.00    -0.205 F 
ATOM     84  C   UNL     1       7.830   6.206  11.564  1.00  0.00     0.022 A 
BRANCH  82  85
ATOM     85  S   UNL     1       5.097   6.313  11.499  1.00  0.00     0.127 S 
ATOM     86  O   UNL     1       5.047   7.294  12.581  1.00  0.00    -0.237 OA
ATOM     87  O   UNL     1       5.329   6.873  10.168  1.00  0.00    -0.237 OA
ATOM     88  O   UNL     1       4.081   5.270  11.543  1.00  0.00    -0.744 OA
ENDBRANCH  82  85
ENDBRANCH  54  78
BRANCH  66  89
ATOM     89  C   UNL     1      10.867   0.408  17.915  1.00  0.00     0.023 A 
ATOM     90  C   UNL     1      10.164   1.072  18.939  1.00  0.00     0.012 A 
ATOM     91  C   UNL     1      12.250   0.180  18.060  1.00  0.00     0.148 A 
ATOM     92  C   UNL     1      10.833   1.534  20.072  1.00  0.00     0.002 A 
ATOM     93  C   UNL     1      12.900   0.599  19.215  1.00  0.00     0.091 A 
ATOM     94  F   UNL     1      12.906  -0.437  17.067  1.00  0.00    -0.205 F 
ATOM     95  C   UNL     1      12.197   1.288  20.215  1.00  0.00     0.022 A 
BRANCH  93  96
ATOM     96  S   UNL     1      14.632   0.232  19.524  1.00  0.00     0.127 S 
ATOM     97  O   UNL     1      15.263   1.524  19.259  1.00  0.00    -0.237 OA
ATOM     98  O   UNL     1      14.621  -0.164  20.933  1.00  0.00    -0.237 OA
ATOM     99  O   UNL     1      14.982  -0.840  18.602  1.00  0.00    -0.744 OA
ENDBRANCH  93  96
ENDBRANCH  66  89
ENDBRANCH  40  41
ENDBRANCH  33  35
ENDBRANCH  32  33
ENDBRANCH  31  32
ENDBRANCH  30  31
ENDBRANCH  29  30
ENDBRANCH  28  29
ENDBRANCH  27  28
ENDBRANCH  26  27
ENDBRANCH   1  26
TORSDOF 28
