REMARK SMILES COc1cccc([C@@]([NH3+])(C(=O)OCCOCCOCCOCCOC(=O)c2ccc(-c3c4nc(c(-c5cccc(S(=O)(=O)[O-])c5F)c5ccc([nH]5)c(-c5cccc(S(=O)(=O)[O-])c5F)c5nc(c(-c6cccc(S(=O)(=O)[O-])c6F)c6ccc3[nH]6)C=C5)C=C4)cc2)C(F)(F)F)c1
REMARK SMILES IDX 19 1 18 2 17 3 16 4 15 5 14 6 13 7 12 8 10 9 11 10 8 11 7 12
REMARK SMILES IDX 3 13 4 14 94 15 5 16 6 17 2 18 1 19 9 20 90 24 91 25 92 26
REMARK SMILES IDX 93 27 20 28 21 29 22 30 23 31 24 32 25 33 26 34 27 35 28 36
REMARK SMILES IDX 89 37 29 38 88 39 30 40 31 41 32 42 82 43 33 44 87 45 81 46
REMARK SMILES IDX 83 47 34 48 86 49 80 50 79 51 35 53 67 54 47 55 66 56 48 57
REMARK SMILES IDX 51 58 65 59 84 60 49 61 50 62 64 64 85 65 52 66 36 67 37 68
REMARK SMILES IDX 45 69 38 70 40 71 46 72 39 73 41 74 42 75 43 76 44 77 68 78
REMARK SMILES IDX 69 79 77 80 70 81 72 82 78 83 71 84 73 85 74 86 75 87 76 88
REMARK SMILES IDX 53 89 54 90 62 91 55 92 57 93 63 94 56 95 58 96 59 97 60 98
REMARK SMILES IDX 61 99
REMARK H PARENT 9 21 9 22 9 23 83 52 51 63
REMARK Flexibility Score: inf
ROOT
ATOM      1  C   UNL     1       1.090   1.316  -6.526  1.00  0.00     0.188 C 
ENDROOT
BRANCH   1   2
ATOM      2  O   UNL     1       2.028   0.401  -5.986  1.00  0.00    -0.377 OA
BRANCH   2   3
ATOM      3  C   UNL     1       2.685   0.782  -4.796  1.00  0.00     0.188 C 
BRANCH   3   4
ATOM      4  C   UNL     1       4.098   1.353  -5.006  1.00  0.00     0.188 C 
BRANCH   4   5
ATOM      5  O   UNL     1       4.554   1.696  -6.307  1.00  0.00    -0.376 OA
BRANCH   5   6
ATOM      6  C   UNL     1       4.322   0.815  -7.400  1.00  0.00     0.202 C 
BRANCH   6   7
ATOM      7  C   UNL     1       4.479  -0.715  -7.266  1.00  0.00     0.261 C 
BRANCH   7   8
ATOM      8  O   UNL     1       4.026  -1.295  -6.024  1.00  0.00    -0.458 OA
BRANCH   8   9
ATOM      9  C   UNL     1       4.928  -1.982  -5.289  1.00  0.00     0.382 C 
ATOM     10  O   UNL     1       6.092  -2.143  -5.658  1.00  0.00    -0.244 OA
BRANCH   9  11
ATOM     11  C   UNL     1       4.413  -2.577  -3.946  1.00  0.00     0.314 C 
BRANCH  11  12
ATOM     12  C   UNL     1       2.901  -2.459  -3.595  1.00  0.00     0.037 A 
ATOM     13  C   UNL     1       1.088  -1.905  -2.011  1.00  0.00     0.119 A 
ATOM     14  C   UNL     1       0.135  -2.294  -2.941  1.00  0.00     0.046 A 
ATOM     15  C   UNL     1       2.449  -2.016  -2.323  1.00  0.00     0.057 A 
ATOM     16  C   UNL     1       0.543  -2.759  -4.191  1.00  0.00     0.004 A 
ATOM     17  C   UNL     1       1.907  -2.845  -4.513  1.00  0.00     0.011 A 
BRANCH  13  18
ATOM     18  O   UNL     1       0.631  -1.521  -0.778  1.00  0.00    -0.497 OA
ATOM     19  C   UNL     1       1.159  -0.275  -0.328  1.00  0.00     0.278 C 
ENDBRANCH  13  18
ENDBRANCH  11  12
BRANCH  11  20
ATOM     20  N   UNL     1       4.723  -4.056  -4.014  1.00  0.00    -0.332 N 
ATOM     21  H   UNL     1       4.112  -4.499  -4.700  1.00  0.00     0.346 HD
ATOM     22  H   UNL     1       4.570  -4.478  -3.099  1.00  0.00     0.346 HD
ATOM     23  H   UNL     1       5.696  -4.187  -4.291  1.00  0.00     0.346 HD
ENDBRANCH  11  20
BRANCH  11  24
ATOM     24  C   UNL     1       5.314  -1.816  -2.908  1.00  0.00     0.460 C 
ATOM     25  F   UNL     1       4.927  -0.533  -2.709  1.00  0.00    -0.164 F 
ATOM     26  F   UNL     1       5.257  -2.427  -1.689  1.00  0.00    -0.164 F 
ATOM     27  F   UNL     1       6.629  -1.790  -3.221  1.00  0.00    -0.164 F 
ENDBRANCH  11  24
ENDBRANCH   9  11
ENDBRANCH   8   9
ENDBRANCH   7   8
ENDBRANCH   6   7
ENDBRANCH   5   6
ENDBRANCH   4   5
ENDBRANCH   3   4
ENDBRANCH   2   3
ENDBRANCH   1   2
BRANCH   1  28
ATOM     28  C   UNL     1       1.407   2.818  -6.400  1.00  0.00     0.188 C 
BRANCH  28  29
ATOM     29  O   UNL     1       1.729   3.240  -5.079  1.00  0.00    -0.376 OA
BRANCH  29  30
ATOM     30  C   UNL     1       0.699   3.761  -4.252  1.00  0.00     0.202 C 
BRANCH  30  31
ATOM     31  C   UNL     1      -0.463   2.839  -3.838  1.00  0.00     0.261 C 
BRANCH  31  32
ATOM     32  O   UNL     1      -1.243   2.251  -4.888  1.00  0.00    -0.460 OA
BRANCH  32  33
ATOM     33  C   UNL     1      -1.801   3.058  -5.814  1.00  0.00     0.338 C 
ATOM     34  O   UNL     1      -1.778   4.277  -5.833  1.00  0.00    -0.246 OA
BRANCH  33  35
ATOM     35  C   UNL     1      -2.265   2.201  -6.926  1.00  0.00     0.060 A 
ATOM     36  C   UNL     1      -1.751   2.414  -8.214  1.00  0.00     0.016 A 
ATOM     37  C   UNL     1      -3.183   1.175  -6.694  1.00  0.00     0.016 A 
ATOM     38  C   UNL     1      -2.184   1.626  -9.281  1.00  0.00     0.010 A 
ATOM     39  C   UNL     1      -3.636   0.405  -7.768  1.00  0.00     0.010 A 
ATOM     40  C   UNL     1      -3.167   0.652  -9.071  1.00  0.00    -0.014 A 
BRANCH  40  41
ATOM     41  C   UNL     1      -3.882   0.052 -10.222  1.00  0.00     0.031 A 
ATOM     42  C   UNL     1      -5.212   0.641 -10.603  1.00  0.00     0.074 A 
ATOM     43  C   UNL     1      -3.391  -1.006 -10.890  1.00  0.00     0.049 A 
ATOM     44  N   UNL     1      -6.086   0.225 -11.479  1.00  0.00    -0.248 NA
ATOM     45  C   UNL     1      -5.614   1.865  -9.886  1.00  0.00     0.031 C 
ATOM     46  C   UNL     1      -2.104  -1.648 -10.635  1.00  0.00     0.029 A 
ATOM     47  N   UNL     1      -3.946  -1.751 -11.902  1.00  0.00    -0.354 N 
ATOM     48  C   UNL     1      -7.157   1.106 -11.391  1.00  0.00     0.074 A 
ATOM     49  C   UNL     1      -6.826   2.079 -10.374  1.00  0.00     0.031 C 
ATOM     50  C   UNL     1      -1.985  -2.718 -11.442  1.00  0.00     0.029 A 
ATOM     51  C   UNL     1      -3.202  -2.857 -12.240  1.00  0.00     0.049 A 
ATOM     52  H   UNL     1      -4.795  -1.516 -12.343  1.00  0.00     0.167 HD
ATOM     53  C   UNL     1      -8.312   1.109 -12.095  1.00  0.00     0.034 A 
ATOM     54  C   UNL     1      -3.492  -3.882 -13.068  1.00  0.00     0.034 A 
ATOM     55  C   UNL     1      -8.633   0.144 -13.109  1.00  0.00     0.049 A 
ATOM     56  C   UNL     1      -4.808  -3.885 -13.807  1.00  0.00     0.074 A 
ATOM     57  C   UNL     1      -9.760   0.082 -13.908  1.00  0.00     0.029 A 
ATOM     58  N   UNL     1      -7.837  -0.938 -13.451  1.00  0.00    -0.354 N 
ATOM     59  N   UNL     1      -5.771  -2.996 -13.784  1.00  0.00    -0.248 NA
ATOM     60  C   UNL     1      -5.066  -5.019 -14.708  1.00  0.00     0.031 C 
ATOM     61  C   UNL     1      -9.665  -1.063 -14.704  1.00  0.00     0.029 A 
ATOM     62  C   UNL     1      -8.454  -1.683 -14.438  1.00  0.00     0.049 A 
ATOM     63  H   UNL     1      -6.962  -1.144 -13.050  1.00  0.00     0.167 HD
ATOM     64  C   UNL     1      -6.723  -3.437 -14.699  1.00  0.00     0.074 A 
ATOM     65  C   UNL     1      -6.218  -4.670 -15.264  1.00  0.00     0.031 C 
ATOM     66  C   UNL     1      -7.910  -2.875 -15.037  1.00  0.00     0.034 A 
BRANCH  53  67
ATOM     67  C   UNL     1      -9.315   2.188 -11.789  1.00  0.00     0.023 A 
ATOM     68  C   UNL     1      -9.053   3.521 -12.165  1.00  0.00     0.012 A 
ATOM     69  C   UNL     1     -10.540   1.872 -11.169  1.00  0.00     0.148 A 
ATOM     70  C   UNL     1      -9.979   4.529 -11.897  1.00  0.00     0.002 A 
ATOM     71  C   UNL     1     -11.478   2.872 -10.951  1.00  0.00     0.091 A 
ATOM     72  F   UNL     1     -10.759   0.603 -10.798  1.00  0.00    -0.205 F 
ATOM     73  C   UNL     1     -11.194   4.202 -11.301  1.00  0.00     0.022 A 
BRANCH  71  74
ATOM     74  S   UNL     1     -13.104   2.541 -10.265  1.00  0.00     0.127 S 
ATOM     75  O   UNL     1     -13.011   3.193  -8.959  1.00  0.00    -0.237 OA
ATOM     76  O   UNL     1     -13.982   3.214 -11.222  1.00  0.00    -0.237 OA
ATOM     77  O   UNL     1     -13.239   1.091 -10.228  1.00  0.00    -0.744 OA
ENDBRANCH  71  74
ENDBRANCH  53  67
BRANCH  54  78
ATOM     78  C   UNL     1      -2.517  -4.995 -13.254  1.00  0.00     0.023 A 
ATOM     79  C   UNL     1      -1.880  -5.163 -14.499  1.00  0.00     0.012 A 
ATOM     80  C   UNL     1      -2.222  -5.890 -12.206  1.00  0.00     0.148 A 
ATOM     81  C   UNL     1      -0.994  -6.220 -14.708  1.00  0.00     0.002 A 
ATOM     82  C   UNL     1      -1.295  -6.906 -12.404  1.00  0.00     0.091 A 
ATOM     83  F   UNL     1      -2.850  -5.723 -11.034  1.00  0.00    -0.205 F 
ATOM     84  C   UNL     1      -0.694  -7.085 -13.659  1.00  0.00     0.022 A 
BRANCH  82  85
ATOM     85  S   UNL     1      -0.756  -7.994 -11.080  1.00  0.00     0.127 S 
ATOM     86  O   UNL     1      -1.287  -9.283 -11.517  1.00  0.00    -0.237 OA
ATOM     87  O   UNL     1       0.699  -7.866 -11.164  1.00  0.00    -0.237 OA
ATOM     88  O   UNL     1      -1.341  -7.452  -9.861  1.00  0.00    -0.744 OA
ENDBRANCH  82  85
ENDBRANCH  54  78
BRANCH  66  89
ATOM     89  C   UNL     1      -8.728  -3.534 -16.117  1.00  0.00     0.023 A 
ATOM     90  C   UNL     1      -9.408  -4.740 -15.861  1.00  0.00     0.012 A 
ATOM     91  C   UNL     1      -8.908  -2.888 -17.358  1.00  0.00     0.148 A 
ATOM     92  C   UNL     1     -10.234  -5.306 -16.832  1.00  0.00     0.002 A 
ATOM     93  C   UNL     1      -9.774  -3.429 -18.299  1.00  0.00     0.091 A 
ATOM     94  F   UNL     1      -8.240  -1.748 -17.586  1.00  0.00    -0.205 F 
ATOM     95  C   UNL     1     -10.429  -4.644 -18.043  1.00  0.00     0.022 A 
BRANCH  93  96
ATOM     96  S   UNL     1     -10.167  -2.596 -19.841  1.00  0.00     0.127 S 
ATOM     97  O   UNL     1      -9.557  -3.489 -20.826  1.00  0.00    -0.237 OA
ATOM     98  O   UNL     1     -11.630  -2.606 -19.832  1.00  0.00    -0.237 OA
ATOM     99  O   UNL     1      -9.569  -1.271 -19.751  1.00  0.00    -0.744 OA
ENDBRANCH  93  96
ENDBRANCH  66  89
ENDBRANCH  40  41
ENDBRANCH  33  35
ENDBRANCH  32  33
ENDBRANCH  31  32
ENDBRANCH  30  31
ENDBRANCH  29  30
ENDBRANCH  28  29
ENDBRANCH   1  28
TORSDOF 27
