REMARK SMILES O=C(COc1ccc(Br)cc1/C=C1\C(=O)Nc2ccc(Br)cc21)OCCOCCOCCOCCOC(=O)c1ccc(-c2c3nc(c(-c4cccc(S(=O)(=O)[O-])c4F)c4ccc([nH]4)c(-c4cccc(S(=O)(=O)[O-])c4F)c4nc(c(-c5cccc(S(=O)(=O)[O-])c5F)c5ccc2[nH]5)C=C4)C=C3)cc1
REMARK SMILES IDX 30 1 29 2 28 3 27 4 26 5 25 6 24 7 2 8 1 9 3 10 4 11 5 12
REMARK SMILES IDX 6 13 11 14 7 15 10 16 8 17 9 18 12 19 13 20 14 21 23 22
REMARK SMILES IDX 15 23 16 24 17 25 22 26 18 28 20 29 19 30 21 31 31 32 32 33
REMARK SMILES IDX 33 34 34 35 35 36 36 37 37 38 38 39 39 40 40 41 101 42 41 43
REMARK SMILES IDX 100 44 42 45 43 46 44 47 94 48 45 49 99 50 93 51 95 52 46 53
REMARK SMILES IDX 98 54 92 55 91 56 47 58 79 59 59 60 78 61 60 62 63 63 77 64
REMARK SMILES IDX 96 65 61 66 62 67 76 69 97 70 64 71 48 72 49 73 57 74 50 75
REMARK SMILES IDX 52 76 58 77 51 78 53 79 54 80 55 81 56 82 80 83 81 84 89 85
REMARK SMILES IDX 82 86 84 87 90 88 83 89 85 90 86 91 87 92 88 93 65 94 66 95
REMARK SMILES IDX 74 96 67 97 69 98 75 99 68 100 70 101 71 102 72 103 73 104
REMARK H PARENT 16 27 95 57 63 68
REMARK Flexibility Score: inf
ROOT
ATOM      1  O   UNL     1       2.709   1.192  -3.351  1.00  0.00    -0.377 OA
ENDROOT
BRANCH   1   2
ATOM      2  C   UNL     1       2.243   1.003  -2.016  1.00  0.00     0.188 C 
BRANCH   2   3
ATOM      3  C   UNL     1       3.008   1.832  -0.974  1.00  0.00     0.188 C 
BRANCH   3   4
ATOM      4  O   UNL     1       4.387   1.494  -0.891  1.00  0.00    -0.376 OA
BRANCH   4   5
ATOM      5  C   UNL     1       4.855   0.469  -0.032  1.00  0.00     0.202 C 
BRANCH   5   6
ATOM      6  C   UNL     1       4.083  -0.849   0.034  1.00  0.00     0.261 C 
BRANCH   6   7
ATOM      7  O   UNL     1       2.687  -0.737   0.394  1.00  0.00    -0.461 OA
BRANCH   7   8
ATOM      8  C   UNL     1       2.177  -0.117   1.480  1.00  0.00     0.344 C 
ATOM      9  O   UNL     1       0.975   0.139   1.528  1.00  0.00    -0.248 OA
BRANCH   8  10
ATOM     10  C   UNL     1       3.119   0.296   2.602  1.00  0.00     0.351 C 
BRANCH  10  11
ATOM     11  O   UNL     1       4.162  -0.621   2.952  1.00  0.00    -0.481 OA
BRANCH  11  12
ATOM     12  C   UNL     1       3.635  -1.592   3.778  1.00  0.00     0.127 A 
ATOM     13  C   UNL     1       2.754  -2.529   3.205  1.00  0.00     0.048 A 
ATOM     14  C   UNL     1       3.880  -1.543   5.164  1.00  0.00     0.018 A 
ATOM     15  C   UNL     1       1.944  -3.312   4.011  1.00  0.00     0.019 A 
ATOM     16  C   UNL     1       3.013  -2.322   5.940  1.00  0.00     0.027 A 
ATOM     17  C   UNL     1       2.051  -3.174   5.381  1.00  0.00     0.018 A 
ATOM     18  Br  UNL     1       0.874  -4.123   6.517  1.00  0.00    -0.051 Br
BRANCH  14  19
ATOM     19  C   UNL     1       4.935  -0.640   5.729  1.00  0.00     0.026 C 
ATOM     20  C   UNL     1       5.263  -0.359   7.008  1.00  0.00     0.050 C 
ATOM     21  C   UNL     1       4.592  -0.855   8.258  1.00  0.00     0.256 C 
ATOM     22  C   UNL     1       5.986   0.857   7.431  1.00  0.00     0.012 A 
ATOM     23  O   UNL     1       4.336  -1.992   8.598  1.00  0.00    -0.269 OA
ATOM     24  N   UNL     1       4.458   0.274   9.042  1.00  0.00    -0.321 N 
ATOM     25  C   UNL     1       5.314   1.273   8.592  1.00  0.00     0.049 A 
ATOM     26  C   UNL     1       7.127   1.524   7.027  1.00  0.00     0.026 A 
ATOM     27  H   UNL     1       3.846   0.359   9.809  1.00  0.00     0.170 HD
ATOM     28  C   UNL     1       5.613   2.431   9.273  1.00  0.00     0.028 A 
ATOM     29  C   UNL     1       7.510   2.653   7.771  1.00  0.00     0.018 A 
ATOM     30  C   UNL     1       6.735   3.135   8.846  1.00  0.00     0.018 A 
ATOM     31  Br  UNL     1       9.154   3.516   7.393  1.00  0.00    -0.051 Br
ENDBRANCH  14  19
ENDBRANCH  11  12
ENDBRANCH  10  11
ENDBRANCH   8  10
ENDBRANCH   7   8
ENDBRANCH   6   7
ENDBRANCH   5   6
ENDBRANCH   4   5
ENDBRANCH   3   4
ENDBRANCH   2   3
ENDBRANCH   1   2
BRANCH   1  32
ATOM     32  C   UNL     1       4.056   0.794  -3.567  1.00  0.00     0.188 C 
BRANCH  32  33
ATOM     33  C   UNL     1       5.107   1.929  -3.601  1.00  0.00     0.188 C 
BRANCH  33  34
ATOM     34  O   UNL     1       4.741   3.297  -3.451  1.00  0.00    -0.376 OA
BRANCH  34  35
ATOM     35  C   UNL     1       3.555   3.792  -4.052  1.00  0.00     0.202 C 
BRANCH  35  36
ATOM     36  C   UNL     1       3.408   3.717  -5.574  1.00  0.00     0.261 C 
BRANCH  36  37
ATOM     37  O   UNL     1       3.557   2.397  -6.110  1.00  0.00    -0.460 OA
BRANCH  37  38
ATOM     38  C   UNL     1       4.703   2.170  -6.799  1.00  0.00     0.338 C 
ATOM     39  O   UNL     1       5.577   2.980  -7.061  1.00  0.00    -0.246 OA
BRANCH  38  40
ATOM     40  C   UNL     1       4.846   0.713  -7.004  1.00  0.00     0.060 A 
ATOM     41  C   UNL     1       3.787  -0.063  -7.486  1.00  0.00     0.016 A 
ATOM     42  C   UNL     1       6.059   0.112  -6.643  1.00  0.00     0.016 A 
ATOM     43  C   UNL     1       3.961  -1.440  -7.644  1.00  0.00     0.010 A 
ATOM     44  C   UNL     1       6.219  -1.266  -6.767  1.00  0.00     0.010 A 
ATOM     45  C   UNL     1       5.182  -2.045  -7.301  1.00  0.00    -0.014 A 
BRANCH  45  46
ATOM     46  C   UNL     1       5.471  -3.431  -7.734  1.00  0.00     0.031 A 
ATOM     47  C   UNL     1       5.248  -4.617  -6.850  1.00  0.00     0.074 A 
ATOM     48  C   UNL     1       5.987  -3.582  -8.969  1.00  0.00     0.049 A 
ATOM     49  N   UNL     1       5.414  -5.883  -7.134  1.00  0.00    -0.248 NA
ATOM     50  C   UNL     1       4.784  -4.364  -5.477  1.00  0.00     0.031 C 
ATOM     51  C   UNL     1       6.279  -2.481  -9.894  1.00  0.00     0.029 A 
ATOM     52  N   UNL     1       6.370  -4.703  -9.655  1.00  0.00    -0.354 N 
ATOM     53  C   UNL     1       5.072  -6.583  -5.986  1.00  0.00     0.074 A 
ATOM     54  C   UNL     1       4.703  -5.599  -4.989  1.00  0.00     0.031 C 
ATOM     55  C   UNL     1       6.801  -2.982 -11.022  1.00  0.00     0.029 A 
ATOM     56  C   UNL     1       6.877  -4.434 -10.903  1.00  0.00     0.049 A 
ATOM     57  H   UNL     1       6.289  -5.614  -9.289  1.00  0.00     0.167 HD
ATOM     58  C   UNL     1       5.052  -7.924  -5.800  1.00  0.00     0.034 A 
ATOM     59  C   UNL     1       7.340  -5.263 -11.855  1.00  0.00     0.034 A 
ATOM     60  C   UNL     1       5.414  -8.890  -6.805  1.00  0.00     0.049 A 
ATOM     61  C   UNL     1       7.290  -6.742 -11.619  1.00  0.00     0.074 A 
ATOM     62  C   UNL     1       5.381 -10.272  -6.716  1.00  0.00     0.029 A 
ATOM     63  N   UNL     1       5.878  -8.584  -8.074  1.00  0.00    -0.354 N 
ATOM     64  N   UNL     1       6.842  -7.389 -10.572  1.00  0.00    -0.248 NA
ATOM     65  C   UNL     1       7.770  -7.607 -12.705  1.00  0.00     0.031 C 
ATOM     66  C   UNL     1       5.827 -10.801  -7.931  1.00  0.00     0.029 A 
ATOM     67  C   UNL     1       6.130  -9.748  -8.778  1.00  0.00     0.049 A 
ATOM     68  H   UNL     1       6.009  -7.672  -8.423  1.00  0.00     0.167 HD
ATOM     69  C   UNL     1       6.949  -8.736 -10.886  1.00  0.00     0.074 A 
ATOM     70  C   UNL     1       7.502  -8.814 -12.223  1.00  0.00     0.031 C 
ATOM     71  C   UNL     1       6.626  -9.810 -10.128  1.00  0.00     0.034 A 
BRANCH  58  72
ATOM     72  C   UNL     1       4.550  -8.466  -4.489  1.00  0.00     0.023 A 
ATOM     73  C   UNL     1       3.160  -8.593  -4.301  1.00  0.00     0.012 A 
ATOM     74  C   UNL     1       5.434  -9.014  -3.539  1.00  0.00     0.148 A 
ATOM     75  C   UNL     1       2.653  -9.264  -3.189  1.00  0.00     0.002 A 
ATOM     76  C   UNL     1       4.921  -9.703  -2.444  1.00  0.00     0.091 A 
ATOM     77  F   UNL     1       6.752  -8.879  -3.742  1.00  0.00    -0.205 F 
ATOM     78  C   UNL     1       3.533  -9.829  -2.269  1.00  0.00     0.022 A 
BRANCH  76  79
ATOM     79  S   UNL     1       5.962 -10.518  -1.227  1.00  0.00     0.127 S 
ATOM     80  O   UNL     1       5.600  -9.800  -0.005  1.00  0.00    -0.237 OA
ATOM     81  O   UNL     1       5.483 -11.898  -1.290  1.00  0.00    -0.237 OA
ATOM     82  O   UNL     1       7.335 -10.319  -1.671  1.00  0.00    -0.744 OA
ENDBRANCH  76  79
ENDBRANCH  58  72
BRANCH  59  83
ATOM     83  C   UNL     1       7.782  -4.700 -13.156  1.00  0.00     0.023 A 
ATOM     84  C   UNL     1       6.931  -4.812 -14.272  1.00  0.00     0.012 A 
ATOM     85  C   UNL     1       8.994  -3.995 -13.275  1.00  0.00     0.148 A 
ATOM     86  C   UNL     1       7.288  -4.243 -15.493  1.00  0.00     0.002 A 
ATOM     87  C   UNL     1       9.326  -3.397 -14.485  1.00  0.00     0.091 A 
ATOM     88  F   UNL     1       9.785  -3.907 -12.197  1.00  0.00    -0.205 F 
ATOM     89  C   UNL     1       8.479  -3.528 -15.597  1.00  0.00     0.022 A 
BRANCH  87  90
ATOM     90  S   UNL     1      10.786  -2.371 -14.683  1.00  0.00     0.127 S 
ATOM     91  O   UNL     1      11.634  -3.219 -15.516  1.00  0.00    -0.237 OA
ATOM     92  O   UNL     1      10.239  -1.193 -15.359  1.00  0.00    -0.237 OA
ATOM     93  O   UNL     1      11.274  -2.117 -13.335  1.00  0.00    -0.744 OA
ENDBRANCH  87  90
ENDBRANCH  59  83
BRANCH  71  94
ATOM     94  C   UNL     1       6.830 -11.174 -10.723  1.00  0.00     0.023 A 
ATOM     95  C   UNL     1       8.122 -11.730 -10.753  1.00  0.00     0.012 A 
ATOM     96  C   UNL     1       5.729 -11.941 -11.150  1.00  0.00     0.148 A 
ATOM     97  C   UNL     1       8.319 -13.031 -11.211  1.00  0.00     0.002 A 
ATOM     98  C   UNL     1       5.928 -13.248 -11.574  1.00  0.00     0.091 A 
ATOM     99  F   UNL     1       4.511 -11.380 -11.123  1.00  0.00    -0.205 F 
ATOM    100  C   UNL     1       7.222 -13.793 -11.610  1.00  0.00     0.022 A 
BRANCH  98 101
ATOM    101  S   UNL     1       4.572 -14.332 -12.038  1.00  0.00     0.127 S 
ATOM    102  O   UNL     1       4.790 -14.481 -13.476  1.00  0.00    -0.237 OA
ATOM    103  O   UNL     1       4.853 -15.532 -11.251  1.00  0.00    -0.237 OA
ATOM    104  O   UNL     1       3.350 -13.633 -11.664  1.00  0.00    -0.744 OA
ENDBRANCH  98 101
ENDBRANCH  71  94
ENDBRANCH  45  46
ENDBRANCH  38  40
ENDBRANCH  37  38
ENDBRANCH  36  37
ENDBRANCH  35  36
ENDBRANCH  34  35
ENDBRANCH  33  34
ENDBRANCH  32  33
ENDBRANCH   1  32
TORSDOF 26
