REMARK SMILES CN(C)C(=O)CSc1ccc(C(=O)OCCOCCOCCOCCOC(=O)c2ccc(-c3c4nc(c(-c5cccc(S(=O)(=O)[O-])c5F)c5ccc([nH]5)c(-c5cccc(S(=O)(=O)[O-])c5F)c5nc(c(-c6cccc(S(=O)(=O)[O-])c6F)c6ccc3[nH]6)C=C5)C=C4)cc2)cc1
REMARK SMILES IDX 20 1 19 2 18 3 17 4 16 5 15 6 14 7 12 8 13 9 11 10 8 11 9 12
REMARK SMILES IDX 93 13 10 14 92 15 7 16 6 17 4 18 1 19 2 20 3 21 5 22 21 23
REMARK SMILES IDX 22 24 23 25 24 26 25 27 26 28 27 29 28 30 29 31 30 32 91 33
REMARK SMILES IDX 31 34 90 35 32 36 33 37 34 38 84 39 35 40 89 41 83 42 85 43
REMARK SMILES IDX 36 44 88 45 82 46 81 47 37 49 69 50 49 51 68 52 50 53 53 54
REMARK SMILES IDX 67 55 86 56 51 57 52 58 66 60 87 61 54 62 38 63 39 64 47 65
REMARK SMILES IDX 40 66 42 67 48 68 41 69 43 70 44 71 45 72 46 73 70 74 71 75
REMARK SMILES IDX 79 76 72 77 74 78 80 79 73 80 75 81 76 82 77 83 78 84 55 85
REMARK SMILES IDX 56 86 64 87 57 88 59 89 65 90 58 91 60 92 61 93 62 94 63 95
REMARK H PARENT 85 48 53 59
REMARK Flexibility Score: inf
ROOT
ATOM      1  O   UNL     1       7.657   5.953   2.415  1.00  0.00    -0.377 OA
ENDROOT
BRANCH   1   2
ATOM      2  C   UNL     1       7.126   4.651   2.236  1.00  0.00     0.188 C 
BRANCH   2   3
ATOM      3  C   UNL     1       7.945   3.633   1.416  1.00  0.00     0.188 C 
BRANCH   3   4
ATOM      4  O   UNL     1       9.294   4.010   1.209  1.00  0.00    -0.376 OA
BRANCH   4   5
ATOM      5  C   UNL     1       9.705   4.501  -0.053  1.00  0.00     0.202 C 
BRANCH   5   6
ATOM      6  C   UNL     1       8.963   5.664  -0.733  1.00  0.00     0.261 C 
BRANCH   6   7
ATOM      7  O   UNL     1       7.541   5.687  -0.590  1.00  0.00    -0.460 OA
BRANCH   7   8
ATOM      8  C   UNL     1       6.837   4.825  -1.351  1.00  0.00     0.338 C 
ATOM      9  O   UNL     1       7.286   4.024  -2.153  1.00  0.00    -0.246 OA
BRANCH   8  10
ATOM     10  C   UNL     1       5.426   4.842  -0.894  1.00  0.00     0.060 A 
ATOM     11  C   UNL     1       2.723   4.752  -0.106  1.00  0.00     0.008 A 
ATOM     12  C   UNL     1       3.422   3.576  -0.390  1.00  0.00     0.016 A 
ATOM     13  C   UNL     1       3.412   5.973  -0.172  1.00  0.00     0.016 A 
ATOM     14  C   UNL     1       4.763   3.618  -0.780  1.00  0.00     0.017 A 
ATOM     15  C   UNL     1       4.761   6.022  -0.553  1.00  0.00     0.017 A 
BRANCH  11  16
ATOM     16  S   UNL     1       0.944   4.801   0.053  1.00  0.00    -0.116 SA
BRANCH  16  17
ATOM     17  C   UNL     1       0.531   3.619   1.376  1.00  0.00     0.175 C 
BRANCH  17  18
ATOM     18  C   UNL     1       0.978   2.182   1.167  1.00  0.00     0.232 C 
ATOM     19  C   UNL     1       1.021   0.096  -0.075  1.00  0.00     0.146 C 
ATOM     20  N   UNL     1       0.496   1.442   0.091  1.00  0.00    -0.348 N 
ATOM     21  C   UNL     1      -0.398   1.946  -0.939  1.00  0.00     0.146 C 
ATOM     22  O   UNL     1       1.739   1.663   1.992  1.00  0.00    -0.274 OA
ENDBRANCH  17  18
ENDBRANCH  16  17
ENDBRANCH  11  16
ENDBRANCH   8  10
ENDBRANCH   7   8
ENDBRANCH   6   7
ENDBRANCH   5   6
ENDBRANCH   4   5
ENDBRANCH   3   4
ENDBRANCH   2   3
ENDBRANCH   1   2
BRANCH   1  23
ATOM     23  C   UNL     1       8.970   6.129   2.942  1.00  0.00     0.188 C 
BRANCH  23  24
ATOM     24  C   UNL     1       9.708   5.012   3.719  1.00  0.00     0.188 C 
BRANCH  24  25
ATOM     25  O   UNL     1       8.901   3.910   4.100  1.00  0.00    -0.376 OA
BRANCH  25  26
ATOM     26  C   UNL     1       8.548   3.792   5.465  1.00  0.00     0.202 C 
BRANCH  26  27
ATOM     27  C   UNL     1       7.688   4.913   6.064  1.00  0.00     0.261 C 
BRANCH  27  28
ATOM     28  O   UNL     1       8.193   6.247   5.914  1.00  0.00    -0.460 OA
BRANCH  28  29
ATOM     29  C   UNL     1       9.341   6.555   6.552  1.00  0.00     0.338 C 
ATOM     30  O   UNL     1      10.012   5.816   7.258  1.00  0.00    -0.246 OA
BRANCH  29  31
ATOM     31  C   UNL     1       9.760   7.895   6.093  1.00  0.00     0.060 A 
ATOM     32  C   UNL     1      10.982   8.038   5.420  1.00  0.00     0.016 A 
ATOM     33  C   UNL     1       8.935   9.001   6.307  1.00  0.00     0.016 A 
ATOM     34  C   UNL     1      11.396   9.298   4.988  1.00  0.00     0.010 A 
ATOM     35  C   UNL     1       9.361  10.265   5.892  1.00  0.00     0.010 A 
ATOM     36  C   UNL     1      10.608  10.424   5.261  1.00  0.00    -0.014 A 
BRANCH  36  37
ATOM     37  C   UNL     1      11.169  11.783   5.067  1.00  0.00     0.031 A 
ATOM     38  C   UNL     1      11.718  12.505   6.267  1.00  0.00     0.074 A 
ATOM     39  C   UNL     1      11.187  12.370   3.857  1.00  0.00     0.049 A 
ATOM     40  N   UNL     1      12.212  13.711   6.356  1.00  0.00    -0.248 NA
ATOM     41  C   UNL     1      11.703  11.765   7.541  1.00  0.00     0.031 C 
ATOM     42  C   UNL     1      10.697  11.771   2.618  1.00  0.00     0.029 A 
ATOM     43  N   UNL     1      11.615  13.620   3.482  1.00  0.00    -0.354 N 
ATOM     44  C   UNL     1      12.534  13.889   7.696  1.00  0.00     0.074 A 
ATOM     45  C   UNL     1      12.171  12.671   8.386  1.00  0.00     0.031 C 
ATOM     46  C   UNL     1      10.822  12.667   1.623  1.00  0.00     0.029 A 
ATOM     47  C   UNL     1      11.373  13.910   2.160  1.00  0.00     0.049 A 
ATOM     48  H   UNL     1      12.053  14.248   4.101  1.00  0.00     0.167 HD
ATOM     49  C   UNL     1      13.093  14.964   8.299  1.00  0.00     0.034 A 
ATOM     50  C   UNL     1      11.548  15.058   1.474  1.00  0.00     0.034 A 
ATOM     51  C   UNL     1      13.461  16.171   7.611  1.00  0.00     0.049 A 
ATOM     52  C   UNL     1      12.136  16.256   2.176  1.00  0.00     0.074 A 
ATOM     53  C   UNL     1      14.075  17.299   8.124  1.00  0.00     0.029 A 
ATOM     54  N   UNL     1      13.230  16.417   6.266  1.00  0.00    -0.354 N 
ATOM     55  N   UNL     1      12.542  16.371   3.418  1.00  0.00    -0.248 NA
ATOM     56  C   UNL     1      12.319  17.475   1.373  1.00  0.00     0.031 C 
ATOM     57  C   UNL     1      14.177  18.245   7.098  1.00  0.00     0.029 A 
ATOM     58  C   UNL     1      13.671  17.687   5.935  1.00  0.00     0.049 A 
ATOM     59  H   UNL     1      12.814  15.783   5.639  1.00  0.00     0.167 HD
ATOM     60  C   UNL     1      13.062  17.657   3.534  1.00  0.00     0.074 A 
ATOM     61  C   UNL     1      12.938  18.275   2.231  1.00  0.00     0.031 C 
ATOM     62  C   UNL     1      13.586  18.274   4.622  1.00  0.00     0.034 A 
BRANCH  49  63
ATOM     63  C   UNL     1      13.344  14.882   9.782  1.00  0.00     0.023 A 
ATOM     64  C   UNL     1      14.360  14.040  10.278  1.00  0.00     0.012 A 
ATOM     65  C   UNL     1      12.604  15.675  10.679  1.00  0.00     0.148 A 
ATOM     66  C   UNL     1      14.611  13.962  11.648  1.00  0.00     0.002 A 
ATOM     67  C   UNL     1      12.893  15.630  12.037  1.00  0.00     0.091 A 
ATOM     68  F   UNL     1      11.627  16.452  10.190  1.00  0.00    -0.205 F 
ATOM     69  C   UNL     1      13.886  14.765  12.525  1.00  0.00     0.022 A 
BRANCH  67  70
ATOM     70  S   UNL     1      12.072  16.683  13.238  1.00  0.00     0.127 S 
ATOM     71  O   UNL     1      11.293  15.709  14.002  1.00  0.00    -0.237 OA
ATOM     72  O   UNL     1      13.205  17.261  13.962  1.00  0.00    -0.237 OA
ATOM     73  O   UNL     1      11.289  17.640  12.469  1.00  0.00    -0.744 OA
ENDBRANCH  67  70
ENDBRANCH  49  63
BRANCH  50  74
ATOM     74  C   UNL     1      11.177  15.132   0.031  1.00  0.00     0.023 A 
ATOM     75  C   UNL     1      12.184  15.284  -0.942  1.00  0.00     0.012 A 
ATOM     76  C   UNL     1       9.832  15.055  -0.380  1.00  0.00     0.148 A 
ATOM     77  C   UNL     1      11.855  15.394  -2.294  1.00  0.00     0.002 A 
ATOM     78  C   UNL     1       9.516  15.107  -1.732  1.00  0.00     0.091 A 
ATOM     79  F   UNL     1       8.887  14.927   0.563  1.00  0.00    -0.205 F 
ATOM     80  C   UNL     1      10.524  15.296  -2.690  1.00  0.00     0.022 A 
BRANCH  78  81
ATOM     81  S   UNL     1       7.845  14.866  -2.344  1.00  0.00     0.127 S 
ATOM     82  O   UNL     1       7.533  16.185  -2.889  1.00  0.00    -0.237 OA
ATOM     83  O   UNL     1       8.041  13.816  -3.343  1.00  0.00    -0.237 OA
ATOM     84  O   UNL     1       7.055  14.459  -1.190  1.00  0.00    -0.744 OA
ENDBRANCH  78  81
ENDBRANCH  50  74
BRANCH  62  85
ATOM     85  C   UNL     1      14.115  19.677   4.451  1.00  0.00     0.023 A 
ATOM     86  C   UNL     1      13.225  20.750   4.253  1.00  0.00     0.012 A 
ATOM     87  C   UNL     1      15.496  19.937   4.564  1.00  0.00     0.148 A 
ATOM     88  C   UNL     1      13.703  22.055   4.131  1.00  0.00     0.002 A 
ATOM     89  C   UNL     1      15.960  21.245   4.496  1.00  0.00     0.091 A 
ATOM     90  F   UNL     1      16.329  18.901   4.739  1.00  0.00    -0.205 F 
ATOM     91  C   UNL     1      15.067  22.304   4.265  1.00  0.00     0.022 A 
BRANCH  89  92
ATOM     92  S   UNL     1      17.685  21.672   4.756  1.00  0.00     0.127 S 
ATOM     93  O   UNL     1      18.095  22.088   3.416  1.00  0.00    -0.237 OA
ATOM     94  O   UNL     1      17.591  22.760   5.730  1.00  0.00    -0.237 OA
ATOM     95  O   UNL     1      18.329  20.465   5.257  1.00  0.00    -0.744 OA
ENDBRANCH  89  92
ENDBRANCH  62  85
ENDBRANCH  36  37
ENDBRANCH  29  31
ENDBRANCH  28  29
ENDBRANCH  27  28
ENDBRANCH  26  27
ENDBRANCH  25  26
ENDBRANCH  24  25
ENDBRANCH  23  24
ENDBRANCH   1  23
TORSDOF 26
