REMARK SMILES NS(=O)(=O)c1ccc(-n2nc(C(=O)NCCCC(=O)OCCOCCOCCOCCOC(=O)c3ccc(-c4c5nc(c(-c6cccc(S(=O)(=O)[O-])c6F)c6ccc([nH]6)c(-c6cccc(S(=O)(=O)[O-])c6F)c6nc(c(-c7cccc(S(=O)(=O)[O-])c7F)c7ccc4[nH]7)C=C6)C=C5)cc3)cc2-c2ccccc2)cc1
REMARK SMILES IDX 24 1 23 2 22 3 21 4 20 5 18 6 19 7 17 8 16 9 15 10 14 11
REMARK SMILES IDX 12 12 13 13 11 15 9 16 10 17 99 18 98 19 8 20 5 21 6 22
REMARK SMILES IDX 107 23 7 24 106 25 2 26 3 27 4 28 1 29 100 32 101 33 105 34
REMARK SMILES IDX 102 35 104 36 103 37 25 38 26 39 27 40 28 41 29 42 30 43
REMARK SMILES IDX 31 44 32 45 33 46 34 47 35 48 36 49 97 50 37 51 96 52 38 53
REMARK SMILES IDX 39 54 40 55 90 56 41 57 95 58 89 59 91 60 42 61 94 62 88 63
REMARK SMILES IDX 87 64 43 66 75 67 55 68 74 69 56 70 59 71 73 72 92 73 57 74
REMARK SMILES IDX 58 75 72 77 93 78 60 79 44 80 45 81 53 82 46 83 48 84 54 85
REMARK SMILES IDX 47 86 49 87 50 88 51 89 52 90 76 91 77 92 85 93 78 94 80 95
REMARK SMILES IDX 86 96 79 97 81 98 82 99 83 100 84 101 61 102 62 103 70 104
REMARK SMILES IDX 63 105 65 106 71 107 64 108 66 109 67 110 68 111 69 112
REMARK H PARENT 14 14 1 30 1 31 91 65 59 76
REMARK Flexibility Score: inf
ROOT
ATOM      1  C   UNL     1       6.503  14.175   2.162  1.00  0.00     0.188 C 
ENDROOT
BRANCH   1   2
ATOM      2  O   UNL     1       6.560  14.842   3.420  1.00  0.00    -0.376 OA
BRANCH   2   3
ATOM      3  C   UNL     1       5.759  14.383   4.497  1.00  0.00     0.202 C 
BRANCH   3   4
ATOM      4  C   UNL     1       4.240  14.299   4.306  1.00  0.00     0.261 C 
BRANCH   4   5
ATOM      5  O   UNL     1       3.803  13.745   3.050  1.00  0.00    -0.463 OA
BRANCH   5   6
ATOM      6  C   UNL     1       3.120  14.581   2.236  1.00  0.00     0.305 C 
ATOM      7  O   UNL     1       2.887  15.759   2.490  1.00  0.00    -0.252 OA
BRANCH   6   8
ATOM      8  C   UNL     1       2.588  13.941   0.969  1.00  0.00     0.124 C 
BRANCH   8   9
ATOM      9  C   UNL     1       3.115  12.612   0.432  1.00  0.00     0.033 C 
BRANCH   9  10
ATOM     10  C   UNL     1       3.052  11.377   1.333  1.00  0.00     0.117 C 
BRANCH  10  11
ATOM     11  N   UNL     1       1.699  10.932   1.576  1.00  0.00    -0.351 N 
ATOM     12  C   UNL     1       1.051   9.740   1.332  1.00  0.00     0.271 C 
ATOM     13  O   UNL     1      -0.162   9.754   1.570  1.00  0.00    -0.267 OA
ATOM     14  H   UNL     1       1.128  11.613   1.999  1.00  0.00     0.163 HD
BRANCH  12  15
ATOM     15  C   UNL     1       1.743   8.527   0.836  1.00  0.00     0.151 A 
ATOM     16  N   UNL     1       1.886   6.514   0.102  1.00  0.00    -0.232 N 
ATOM     17  N   UNL     1       1.024   7.549   0.237  1.00  0.00    -0.162 NA
ATOM     18  C   UNL     1       3.198   6.931   0.253  1.00  0.00     0.075 A 
ATOM     19  C   UNL     1       3.114   8.147   0.895  1.00  0.00     0.065 A 
BRANCH  16  20
ATOM     20  C   UNL     1       1.440   5.188  -0.145  1.00  0.00     0.065 A 
ATOM     21  C   UNL     1       0.761   2.560  -0.775  1.00  0.00     0.082 A 
ATOM     22  C   UNL     1       1.772   2.800   0.153  1.00  0.00     0.024 A 
ATOM     23  C   UNL     1       0.053   3.626  -1.351  1.00  0.00     0.024 A 
ATOM     24  C   UNL     1       2.109   4.113   0.465  1.00  0.00     0.030 A 
ATOM     25  C   UNL     1       0.377   4.948  -1.018  1.00  0.00     0.030 A 
BRANCH  21  26
ATOM     26  S   UNL     1       0.341   0.902  -1.236  1.00  0.00     0.238 S 
ATOM     27  O   UNL     1       0.883   0.640  -2.545  1.00  0.00    -0.207 OA
ATOM     28  O   UNL     1      -1.063   0.707  -0.936  1.00  0.00    -0.207 OA
BRANCH  26  29
ATOM     29  N   UNL     1       1.181  -0.052  -0.156  1.00  0.00    -0.225 NA
ATOM     30  H   UNL     1       0.993  -1.035  -0.353  1.00  0.00     0.137 HD
ATOM     31  H   UNL     1       0.883   0.167   0.795  1.00  0.00     0.137 HD
ENDBRANCH  26  29
ENDBRANCH  21  26
ENDBRANCH  16  20
BRANCH  18  32
ATOM     32  C   UNL     1       4.340   6.163  -0.230  1.00  0.00     0.000 A 
ATOM     33  C   UNL     1       4.461   5.896  -1.604  1.00  0.00     0.010 A 
ATOM     34  C   UNL     1       5.234   5.580   0.667  1.00  0.00     0.010 A 
ATOM     35  C   UNL     1       5.454   5.040  -2.071  1.00  0.00     0.001 A 
ATOM     36  C   UNL     1       6.205   4.700   0.196  1.00  0.00     0.001 A 
ATOM     37  C   UNL     1       6.317   4.444  -1.164  1.00  0.00     0.000 A 
ENDBRANCH  18  32
ENDBRANCH  12  15
ENDBRANCH  10  11
ENDBRANCH   9  10
ENDBRANCH   8   9
ENDBRANCH   6   8
ENDBRANCH   5   6
ENDBRANCH   4   5
ENDBRANCH   3   4
ENDBRANCH   2   3
ENDBRANCH   1   2
BRANCH   1  38
ATOM     38  C   UNL     1       6.402  12.637   2.076  1.00  0.00     0.188 C 
BRANCH  38  39
ATOM     39  O   UNL     1       6.199  11.962   3.304  1.00  0.00    -0.377 OA
BRANCH  39  40
ATOM     40  C   UNL     1       7.360  11.302   3.805  1.00  0.00     0.188 C 
BRANCH  40  41
ATOM     41  C   UNL     1       8.624  12.172   3.966  1.00  0.00     0.188 C 
BRANCH  41  42
ATOM     42  O   UNL     1       8.998  12.876   2.779  1.00  0.00    -0.376 OA
BRANCH  42  43
ATOM     43  C   UNL     1      10.133  12.417   2.054  1.00  0.00     0.202 C 
BRANCH  43  44
ATOM     44  C   UNL     1       9.864  11.200   1.175  1.00  0.00     0.261 C 
BRANCH  44  45
ATOM     45  O   UNL     1       9.407  10.066   1.897  1.00  0.00    -0.460 OA
BRANCH  45  46
ATOM     46  C   UNL     1      10.200   9.588   2.879  1.00  0.00     0.338 C 
ATOM     47  O   UNL     1      11.239  10.068   3.291  1.00  0.00    -0.246 OA
BRANCH  46  48
ATOM     48  C   UNL     1       9.661   8.286   3.287  1.00  0.00     0.060 A 
ATOM     49  C   UNL     1      10.527   7.457   4.000  1.00  0.00     0.016 A 
ATOM     50  C   UNL     1       8.482   7.803   2.706  1.00  0.00     0.016 A 
ATOM     51  C   UNL     1      10.362   6.096   3.877  1.00  0.00     0.010 A 
ATOM     52  C   UNL     1       8.329   6.448   2.588  1.00  0.00     0.010 A 
ATOM     53  C   UNL     1       9.329   5.618   3.069  1.00  0.00    -0.014 A 
BRANCH  53  54
ATOM     54  C   UNL     1       9.331   4.223   2.701  1.00  0.00     0.031 A 
ATOM     55  C   UNL     1       8.734   3.328   3.698  1.00  0.00     0.074 A 
ATOM     56  C   UNL     1       9.785   3.768   1.518  1.00  0.00     0.049 A 
ATOM     57  N   UNL     1       9.370   2.582   4.535  1.00  0.00    -0.248 NA
ATOM     58  C   UNL     1       7.279   3.358   3.878  1.00  0.00     0.031 C 
ATOM     59  C   UNL     1      10.098   4.530   0.308  1.00  0.00     0.029 A 
ATOM     60  N   UNL     1       9.963   2.475   1.131  1.00  0.00    -0.354 N 
ATOM     61  C   UNL     1       8.386   1.857   5.186  1.00  0.00     0.074 A 
ATOM     62  C   UNL     1       7.132   2.505   4.892  1.00  0.00     0.031 C 
ATOM     63  C   UNL     1      10.242   3.670  -0.729  1.00  0.00     0.029 A 
ATOM     64  C   UNL     1      10.160   2.305  -0.233  1.00  0.00     0.049 A 
ATOM     65  H   UNL     1       9.953   1.723   1.766  1.00  0.00     0.167 HD
ATOM     66  C   UNL     1       8.646   0.628   5.702  1.00  0.00     0.034 A 
ATOM     67  C   UNL     1      10.203   1.121  -0.894  1.00  0.00     0.034 A 
ATOM     68  C   UNL     1      10.058   0.355   5.777  1.00  0.00     0.049 A 
ATOM     69  C   UNL     1      10.511   0.072   0.110  1.00  0.00     0.074 A 
ATOM     70  C   UNL     1      11.145   0.981   6.356  1.00  0.00     0.029 A 
ATOM     71  N   UNL     1      10.575  -0.533   4.865  1.00  0.00    -0.354 N 
ATOM     72  N   UNL     1      11.675  -0.067   0.679  1.00  0.00    -0.248 NA
ATOM     73  C   UNL     1       9.412  -0.620   0.767  1.00  0.00     0.031 C 
ATOM     74  C   UNL     1      12.224   0.766   5.450  1.00  0.00     0.029 A 
ATOM     75  C   UNL     1      11.741   0.002   4.386  1.00  0.00     0.049 A 
ATOM     76  H   UNL     1      10.179  -1.396   4.604  1.00  0.00     0.167 HD
ATOM     77  C   UNL     1      11.389  -0.481   1.973  1.00  0.00     0.074 A 
ATOM     78  C   UNL     1      10.003  -0.935   1.923  1.00  0.00     0.031 C 
ATOM     79  C   UNL     1      12.201  -0.145   3.020  1.00  0.00     0.034 A 
BRANCH  66  80
ATOM     80  C   UNL     1       7.621  -0.462   5.819  1.00  0.00     0.023 A 
ATOM     81  C   UNL     1       7.932  -1.563   6.642  1.00  0.00     0.012 A 
ATOM     82  C   UNL     1       6.488  -0.578   4.981  1.00  0.00     0.148 A 
ATOM     83  C   UNL     1       7.163  -2.729   6.618  1.00  0.00     0.002 A 
ATOM     84  C   UNL     1       5.672  -1.699   5.033  1.00  0.00     0.091 A 
ATOM     85  F   UNL     1       6.264   0.331   4.024  1.00  0.00    -0.205 F 
ATOM     86  C   UNL     1       6.020  -2.791   5.829  1.00  0.00     0.022 A 
BRANCH  84  87
ATOM     87  S   UNL     1       4.144  -1.763   4.091  1.00  0.00     0.127 S 
ATOM     88  O   UNL     1       4.554  -2.507   2.905  1.00  0.00    -0.237 OA
ATOM     89  O   UNL     1       3.252  -2.483   4.999  1.00  0.00    -0.237 OA
ATOM     90  O   UNL     1       3.774  -0.368   3.880  1.00  0.00    -0.744 OA
ENDBRANCH  84  87
ENDBRANCH  66  80
BRANCH  67  91
ATOM     91  C   UNL     1       9.869   0.772  -2.298  1.00  0.00     0.023 A 
ATOM     92  C   UNL     1      10.286  -0.459  -2.839  1.00  0.00     0.012 A 
ATOM     93  C   UNL     1       8.913   1.506  -3.024  1.00  0.00     0.148 A 
ATOM     94  C   UNL     1       9.728  -0.957  -4.026  1.00  0.00     0.002 A 
ATOM     95  C   UNL     1       8.342   1.003  -4.189  1.00  0.00     0.091 A 
ATOM     96  F   UNL     1       8.497   2.677  -2.542  1.00  0.00    -0.205 F 
ATOM     97  C   UNL     1       8.741  -0.236  -4.693  1.00  0.00     0.022 A 
BRANCH  95  98
ATOM     98  S   UNL     1       7.029   1.912  -5.016  1.00  0.00     0.127 S 
ATOM     99  O   UNL     1       7.131   1.444  -6.399  1.00  0.00    -0.237 OA
ATOM    100  O   UNL     1       5.846   1.456  -4.296  1.00  0.00    -0.237 OA
ATOM    101  O   UNL     1       7.384   3.317  -4.837  1.00  0.00    -0.744 OA
ENDBRANCH  95  98
ENDBRANCH  67  91
BRANCH  79 102
ATOM    102  C   UNL     1      13.568   0.422   2.712  1.00  0.00     0.023 A 
ATOM    103  C   UNL     1      13.730   1.611   1.970  1.00  0.00     0.012 A 
ATOM    104  C   UNL     1      14.696  -0.148   3.330  1.00  0.00     0.148 A 
ATOM    105  C   UNL     1      14.988   2.198   1.818  1.00  0.00     0.002 A 
ATOM    106  C   UNL     1      15.938   0.469   3.221  1.00  0.00     0.091 A 
ATOM    107  F   UNL     1      14.533  -1.275   4.040  1.00  0.00    -0.205 F 
ATOM    108  C   UNL     1      16.090   1.635   2.455  1.00  0.00     0.022 A 
BRANCH 106 109
ATOM    109  S   UNL     1      17.364  -0.124   4.138  1.00  0.00     0.127 S 
ATOM    110  O   UNL     1      18.099  -0.866   3.117  1.00  0.00    -0.237 OA
ATOM    111  O   UNL     1      18.004   1.120   4.570  1.00  0.00    -0.237 OA
ATOM    112  O   UNL     1      16.823  -0.920   5.234  1.00  0.00    -0.744 OA
ENDBRANCH 106 109
ENDBRANCH  79 102
ENDBRANCH  53  54
ENDBRANCH  46  48
ENDBRANCH  45  46
ENDBRANCH  44  45
ENDBRANCH  43  44
ENDBRANCH  42  43
ENDBRANCH  41  42
ENDBRANCH  40  41
ENDBRANCH  39  40
ENDBRANCH  38  39
ENDBRANCH   1  38
TORSDOF 31
