REMARK SMILES CCOc1cc2c(cc1/C=C1/C(=O)N(c3cccc(C(=O)OCCOCCOCCOCCOC(=O)c4ccc(-c5c6nc(c(-c7cccc(S(=O)(=O)[O-])c7F)c7ccc([nH]7)c(-c7cccc(S(=O)(=O)[O-])c7F)c7nc(c(-c8cccc(S(=O)(=O)[O-])c8F)c8ccc5[nH]8)C=C7)C=C6)cc4)c3)C(=S)N=C1O)OCO2
REMARK SMILES IDX 27 1 26 2 25 3 24 4 23 5 22 6 20 7 21 8 19 9 15 10 16 11
REMARK SMILES IDX 100 12 17 13 18 14 14 15 10 16 11 17 12 18 104 19 13 20
REMARK SMILES IDX 103 21 101 22 102 23 9 24 4 25 5 26 6 27 8 28 7 29 108 30
REMARK SMILES IDX 106 31 107 32 3 33 2 34 1 35 105 36 28 38 29 39 30 40 31 41
REMARK SMILES IDX 32 42 33 43 34 44 35 45 36 46 37 47 38 48 99 49 39 50 98 51
REMARK SMILES IDX 40 52 41 53 42 54 92 55 43 56 97 57 91 58 93 59 44 60 96 61
REMARK SMILES IDX 90 62 89 63 45 65 77 66 57 67 76 68 58 69 61 70 75 71 94 72
REMARK SMILES IDX 59 73 60 74 74 76 95 77 62 78 46 79 47 80 55 81 48 82 50 83
REMARK SMILES IDX 56 84 49 85 51 86 52 87 53 88 54 89 78 90 79 91 87 92 80 93
REMARK SMILES IDX 82 94 88 95 81 96 83 97 84 98 85 99 86 100 63 101 64 102
REMARK SMILES IDX 72 103 65 104 67 105 73 106 66 107 68 108 69 109 70 110
REMARK SMILES IDX 71 111
REMARK H PARENT 105 37 93 64 61 75
REMARK Flexibility Score: inf
ROOT
ATOM      1  C   UNL     1       0.111  12.118   2.698  1.00  0.00     0.188 C 
ENDROOT
BRANCH   1   2
ATOM      2  C   UNL     1      -1.302  12.729   2.702  1.00  0.00     0.188 C 
BRANCH   2   3
ATOM      3  O   UNL     1      -2.025  12.459   3.893  1.00  0.00    -0.376 OA
BRANCH   3   4
ATOM      4  C   UNL     1      -3.031  11.460   3.876  1.00  0.00     0.202 C 
BRANCH   4   5
ATOM      5  C   UNL     1      -2.692  10.028   3.430  1.00  0.00     0.261 C 
BRANCH   5   6
ATOM      6  O   UNL     1      -1.931   9.905   2.225  1.00  0.00    -0.460 OA
BRANCH   6   7
ATOM      7  C   UNL     1      -2.523  10.198   1.050  1.00  0.00     0.338 C 
ATOM      8  O   UNL     1      -3.677  10.551   0.873  1.00  0.00    -0.246 OA
BRANCH   7   9
ATOM      9  C   UNL     1      -1.441  10.270   0.036  1.00  0.00     0.062 A 
ATOM     10  C   UNL     1       0.727   9.529  -0.798  1.00  0.00     0.052 A 
ATOM     11  C   UNL     1       0.716  10.616  -1.692  1.00  0.00     0.027 A 
ATOM     12  C   UNL     1      -0.368   9.367   0.062  1.00  0.00     0.042 A 
ATOM     13  C   UNL     1      -0.353  11.519  -1.719  1.00  0.00     0.003 A 
ATOM     14  C   UNL     1      -1.436  11.342  -0.862  1.00  0.00     0.016 A 
BRANCH  10  15
ATOM     15  N   UNL     1       1.808   8.570  -0.804  1.00  0.00    -0.251 N 
ATOM     16  C   UNL     1       2.303   4.948  -0.595  1.00  0.00     0.031 C 
ATOM     17  C   UNL     1       2.580   6.240  -0.896  1.00  0.00     0.103 C 
ATOM     18  C   UNL     1       1.442   7.211  -0.815  1.00  0.00     0.270 C 
ATOM     19  C   UNL     1       3.816   6.859  -1.361  1.00  0.00     0.226 C 
ATOM     20  O   UNL     1       0.281   6.799  -0.841  1.00  0.00    -0.268 OA
ATOM     21  N   UNL     1       4.091   8.107  -1.359  1.00  0.00    -0.184 NA
ATOM     22  C   UNL     1       3.157   8.985  -0.862  1.00  0.00     0.210 C 
ATOM     23  S   UNL     1       3.725  10.505  -0.344  1.00  0.00    -0.038 S 
BRANCH  16  24
ATOM     24  C   UNL     1       3.125   3.712  -0.655  1.00  0.00     0.021 A 
ATOM     25  C   UNL     1       2.521   2.455  -0.948  1.00  0.00     0.130 A 
ATOM     26  C   UNL     1       3.289   1.321  -1.242  1.00  0.00     0.097 A 
ATOM     27  C   UNL     1       4.651   1.426  -1.126  1.00  0.00     0.169 A 
ATOM     28  C   UNL     1       4.509   3.727  -0.430  1.00  0.00     0.062 A 
ATOM     29  C   UNL     1       5.243   2.590  -0.707  1.00  0.00     0.166 A 
ATOM     30  O   UNL     1       5.551   0.443  -1.387  1.00  0.00    -0.453 OA
ATOM     31  O   UNL     1       6.598   2.486  -0.648  1.00  0.00    -0.454 OA
ATOM     32  C   UNL     1       6.785   1.125  -1.088  1.00  0.00     0.468 C 
BRANCH  25  33
ATOM     33  O   UNL     1       1.153   2.318  -1.022  1.00  0.00    -0.493 OA
BRANCH  33  34
ATOM     34  C   UNL     1       0.617   1.723   0.181  1.00  0.00     0.226 C 
ATOM     35  C   UNL     1       0.590   0.200   0.117  1.00  0.00     0.049 C 
ENDBRANCH  33  34
ENDBRANCH  25  33
ENDBRANCH  16  24
BRANCH  19  36
ATOM     36  O   UNL     1       4.734   6.069  -1.915  1.00  0.00    -0.493 OA
ATOM     37  H   UNL     1       4.596   5.143  -1.950  1.00  0.00     0.295 HD
ENDBRANCH  19  36
ENDBRANCH  10  15
ENDBRANCH   7   9
ENDBRANCH   6   7
ENDBRANCH   5   6
ENDBRANCH   4   5
ENDBRANCH   3   4
ENDBRANCH   2   3
ENDBRANCH   1   2
BRANCH   1  38
ATOM     38  O   UNL     1       0.340  11.135   3.692  1.00  0.00    -0.377 OA
BRANCH  38  39
ATOM     39  C   UNL     1       0.411  11.533   5.062  1.00  0.00     0.188 C 
BRANCH  39  40
ATOM     40  C   UNL     1       0.149  12.984   5.539  1.00  0.00     0.188 C 
BRANCH  40  41
ATOM     41  O   UNL     1       0.447  14.001   4.590  1.00  0.00    -0.376 OA
BRANCH  41  42
ATOM     42  C   UNL     1       1.589  14.806   4.831  1.00  0.00     0.202 C 
BRANCH  42  43
ATOM     43  C   UNL     1       2.933  14.096   4.634  1.00  0.00     0.261 C 
BRANCH  43  44
ATOM     44  O   UNL     1       3.152  12.968   5.494  1.00  0.00    -0.460 OA
BRANCH  44  45
ATOM     45  C   UNL     1       3.191  13.222   6.821  1.00  0.00     0.338 C 
ATOM     46  O   UNL     1       3.100  14.308   7.364  1.00  0.00    -0.246 OA
BRANCH  45  47
ATOM     47  C   UNL     1       3.170  11.931   7.533  1.00  0.00     0.060 A 
ATOM     48  C   UNL     1       2.155  11.701   8.470  1.00  0.00     0.016 A 
ATOM     49  C   UNL     1       4.149  10.964   7.290  1.00  0.00     0.016 A 
ATOM     50  C   UNL     1       2.154  10.523   9.212  1.00  0.00     0.010 A 
ATOM     51  C   UNL     1       4.152   9.789   8.043  1.00  0.00     0.010 A 
ATOM     52  C   UNL     1       3.182   9.586   9.040  1.00  0.00    -0.014 A 
BRANCH  52  53
ATOM     53  C   UNL     1       3.333   8.500  10.037  1.00  0.00     0.031 A 
ATOM     54  C   UNL     1       4.344   8.668  11.138  1.00  0.00     0.074 A 
ATOM     55  C   UNL     1       2.557   7.403   9.991  1.00  0.00     0.049 A 
ATOM     56  N   UNL     1       4.591   7.892  12.160  1.00  0.00    -0.248 NA
ATOM     57  C   UNL     1       5.191   9.872  11.079  1.00  0.00     0.031 C 
ATOM     58  C   UNL     1       1.556   7.119   8.966  1.00  0.00     0.029 A 
ATOM     59  N   UNL     1       2.504   6.317  10.828  1.00  0.00    -0.354 N 
ATOM     60  C   UNL     1       5.634   8.497  12.851  1.00  0.00     0.074 A 
ATOM     61  C   UNL     1       5.987   9.695  12.123  1.00  0.00     0.031 C 
ATOM     62  C   UNL     1       0.999   5.923   9.223  1.00  0.00     0.029 A 
ATOM     63  C   UNL     1       1.612   5.354  10.422  1.00  0.00     0.049 A 
ATOM     64  H   UNL     1       3.053   6.235  11.641  1.00  0.00     0.167 HD
ATOM     65  C   UNL     1       6.234   8.101  13.998  1.00  0.00     0.034 A 
ATOM     66  C   UNL     1       1.330   4.147  10.954  1.00  0.00     0.034 A 
ATOM     67  C   UNL     1       5.873   6.916  14.728  1.00  0.00     0.049 A 
ATOM     68  C   UNL     1       2.004   3.732  12.236  1.00  0.00     0.074 A 
ATOM     69  C   UNL     1       6.379   6.460  15.931  1.00  0.00     0.029 A 
ATOM     70  N   UNL     1       4.931   5.988  14.312  1.00  0.00    -0.354 N 
ATOM     71  N   UNL     1       2.889   4.382  12.953  1.00  0.00    -0.248 NA
ATOM     72  C   UNL     1       1.607   2.437  12.807  1.00  0.00     0.031 C 
ATOM     73  C   UNL     1       5.771   5.235  16.224  1.00  0.00     0.029 A 
ATOM     74  C   UNL     1       4.852   4.952  15.226  1.00  0.00     0.049 A 
ATOM     75  H   UNL     1       4.398   6.056  13.487  1.00  0.00     0.167 HD
ATOM     76  C   UNL     1       3.124   3.597  14.077  1.00  0.00     0.074 A 
ATOM     77  C   UNL     1       2.274   2.430  13.953  1.00  0.00     0.031 C 
ATOM     78  C   UNL     1       3.970   3.818  15.115  1.00  0.00     0.034 A 
BRANCH  65  79
ATOM     79  C   UNL     1       7.342   8.966  14.540  1.00  0.00     0.023 A 
ATOM     80  C   UNL     1       7.044  10.227  15.096  1.00  0.00     0.012 A 
ATOM     81  C   UNL     1       8.675   8.511  14.536  1.00  0.00     0.148 A 
ATOM     82  C   UNL     1       8.059  11.036  15.606  1.00  0.00     0.002 A 
ATOM     83  C   UNL     1       9.674   9.301  15.090  1.00  0.00     0.091 A 
ATOM     84  F   UNL     1       8.942   7.321  13.979  1.00  0.00    -0.205 F 
ATOM     85  C   UNL     1       9.371  10.569  15.613  1.00  0.00     0.022 A 
BRANCH  83  86
ATOM     86  S   UNL     1      11.379   8.751  15.220  1.00  0.00     0.127 S 
ATOM     87  O   UNL     1      12.039   9.598  14.228  1.00  0.00    -0.237 OA
ATOM     88  O   UNL     1      11.701   9.077  16.610  1.00  0.00    -0.237 OA
ATOM     89  O   UNL     1      11.366   7.327  14.918  1.00  0.00    -0.744 OA
ENDBRANCH  83  86
ENDBRANCH  65  79
BRANCH  66  90
ATOM     90  C   UNL     1       0.328   3.265  10.292  1.00  0.00     0.023 A 
ATOM     91  C   UNL     1      -0.915   3.027  10.908  1.00  0.00     0.012 A 
ATOM     92  C   UNL     1       0.596   2.684   9.037  1.00  0.00     0.148 A 
ATOM     93  C   UNL     1      -1.863   2.203  10.299  1.00  0.00     0.002 A 
ATOM     94  C   UNL     1      -0.374   1.912   8.409  1.00  0.00     0.091 A 
ATOM     95  F   UNL     1       1.792   2.911   8.475  1.00  0.00    -0.205 F 
ATOM     96  C   UNL     1      -1.597   1.655   9.046  1.00  0.00     0.022 A 
BRANCH  94  97
ATOM     97  S   UNL     1      -0.169   1.277   6.741  1.00  0.00     0.127 S 
ATOM     98  O   UNL     1      -0.084  -0.162   6.976  1.00  0.00    -0.237 OA
ATOM     99  O   UNL     1      -1.404   1.724   6.096  1.00  0.00    -0.237 OA
ATOM    100  O   UNL     1       1.039   1.903   6.222  1.00  0.00    -0.744 OA
ENDBRANCH  94  97
ENDBRANCH  66  90
BRANCH  78 101
ATOM    101  C   UNL     1       3.990   2.805  16.232  1.00  0.00     0.023 A 
ATOM    102  C   UNL     1       4.548   1.528  16.023  1.00  0.00     0.012 A 
ATOM    103  C   UNL     1       3.512   3.147  17.513  1.00  0.00     0.148 A 
ATOM    104  C   UNL     1       4.591   0.595  17.059  1.00  0.00     0.002 A 
ATOM    105  C   UNL     1       3.607   2.231  18.554  1.00  0.00     0.091 A 
ATOM    106  F   UNL     1       2.968   4.360  17.691  1.00  0.00    -0.205 F 
ATOM    107  C   UNL     1       4.131   0.949  18.325  1.00  0.00     0.022 A 
BRANCH 105 108
ATOM    108  S   UNL     1       3.132   2.639  20.238  1.00  0.00     0.127 S 
ATOM    109  O   UNL     1       1.875   1.906  20.379  1.00  0.00    -0.237 OA
ATOM    110  O   UNL     1       4.246   2.094  21.016  1.00  0.00    -0.237 OA
ATOM    111  O   UNL     1       3.021   4.090  20.282  1.00  0.00    -0.744 OA
ENDBRANCH 105 108
ENDBRANCH  78 101
ENDBRANCH  52  53
ENDBRANCH  45  47
ENDBRANCH  44  45
ENDBRANCH  43  44
ENDBRANCH  42  43
ENDBRANCH  41  42
ENDBRANCH  40  41
ENDBRANCH  39  40
ENDBRANCH  38  39
ENDBRANCH   1  38
TORSDOF 28
