REMARK SMILES O=C(OCCOCCOCCOCCOC(=O)[C@H]1Cc2[nH]cnc2CN1C(=O)c1ccncc1Cl)c1ccc(-c2c3nc(c(-c4cccc(S(=O)(=O)[O-])c4F)c4ccc([nH]4)c(-c4cccc(S(=O)(=O)[O-])c4F)c4nc(c(-c5cccc(S(=O)(=O)[O-])c5F)c5ccc2[nH]5)C=C4)C=C3)cc1
REMARK SMILES IDX 8 1 7 2 6 3 5 4 4 5 3 6 2 7 1 8 36 9 37 10 98 11 38 12 97 13
REMARK SMILES IDX 39 14 40 15 41 16 91 17 42 18 96 19 90 20 92 21 43 22 95 23
REMARK SMILES IDX 89 24 88 25 44 27 76 28 56 29 75 30 57 31 60 32 74 33 93 34
REMARK SMILES IDX 58 35 59 36 73 38 94 39 61 40 45 41 46 42 54 43 47 44 49 45
REMARK SMILES IDX 55 46 48 47 50 48 51 49 52 50 53 51 77 52 78 53 86 54 79 55
REMARK SMILES IDX 81 56 87 57 80 58 82 59 83 60 84 61 85 62 62 63 63 64 71 65
REMARK SMILES IDX 64 66 66 67 72 68 65 69 67 70 68 71 69 72 70 73 9 74 10 75
REMARK SMILES IDX 11 76 12 77 13 78 14 79 15 80 16 81 17 82 18 83 19 84 26 85
REMARK SMILES IDX 20 86 25 87 21 88 24 89 22 90 23 92 27 93 28 94 29 95 30 96
REMARK SMILES IDX 34 97 31 98 33 99 35 100 32 101
REMARK H PARENT 92 26 60 37 21 91
REMARK Flexibility Score: inf
ROOT
ATOM      1  C   UNL     1       1.893  -1.632   0.429  1.00  0.00     0.188 C 
ENDROOT
BRANCH   1   2
ATOM      2  C   UNL     1       2.692  -0.891  -0.658  1.00  0.00     0.188 C 
BRANCH   2   3
ATOM      3  O   UNL     1       3.638   0.144  -0.398  1.00  0.00    -0.376 OA
BRANCH   3   4
ATOM      4  C   UNL     1       4.474   0.167   0.743  1.00  0.00     0.202 C 
BRANCH   4   5
ATOM      5  C   UNL     1       4.311   1.427   1.587  1.00  0.00     0.261 C 
BRANCH   5   6
ATOM      6  O   UNL     1       2.951   1.758   1.912  1.00  0.00    -0.460 OA
BRANCH   6   7
ATOM      7  C   UNL     1       1.928   1.680   1.030  1.00  0.00     0.338 C 
ATOM      8  O   UNL     1       0.847   1.214   1.384  1.00  0.00    -0.246 OA
BRANCH   7   9
ATOM      9  C   UNL     1       2.023   2.359  -0.295  1.00  0.00     0.060 A 
ATOM     10  C   UNL     1       3.170   2.980  -0.796  1.00  0.00     0.016 A 
ATOM     11  C   UNL     1       0.827   2.427  -1.031  1.00  0.00     0.016 A 
ATOM     12  C   UNL     1       3.062   3.874  -1.829  1.00  0.00     0.010 A 
ATOM     13  C   UNL     1       0.712   3.307  -2.084  1.00  0.00     0.010 A 
ATOM     14  C   UNL     1       1.804   4.104  -2.374  1.00  0.00    -0.014 A 
BRANCH  14  15
ATOM     15  C   UNL     1       1.696   5.230  -3.263  1.00  0.00     0.031 A 
ATOM     16  C   UNL     1       2.431   5.013  -4.523  1.00  0.00     0.074 A 
ATOM     17  C   UNL     1       1.086   6.358  -2.852  1.00  0.00     0.049 A 
ATOM     18  N   UNL     1       3.609   5.461  -4.802  1.00  0.00    -0.248 NA
ATOM     19  C   UNL     1       1.943   3.986  -5.452  1.00  0.00     0.031 C 
ATOM     20  C   UNL     1       0.195   6.552  -1.704  1.00  0.00     0.029 A 
ATOM     21  N   UNL     1       1.070   7.577  -3.442  1.00  0.00    -0.354 N 
ATOM     22  C   UNL     1       3.877   5.003  -6.085  1.00  0.00     0.074 A 
ATOM     23  C   UNL     1       2.951   3.930  -6.326  1.00  0.00     0.031 C 
ATOM     24  C   UNL     1      -0.483   7.713  -1.860  1.00  0.00     0.029 A 
ATOM     25  C   UNL     1       0.033   8.404  -3.029  1.00  0.00     0.049 A 
ATOM     26  H   UNL     1       1.739   7.854  -4.110  1.00  0.00     0.167 HD
ATOM     27  C   UNL     1       4.615   5.772  -6.929  1.00  0.00     0.034 A 
ATOM     28  C   UNL     1      -0.402   9.521  -3.669  1.00  0.00     0.034 A 
ATOM     29  C   UNL     1       5.370   6.761  -6.193  1.00  0.00     0.049 A 
ATOM     30  C   UNL     1       0.703   9.972  -4.553  1.00  0.00     0.074 A 
ATOM     31  C   UNL     1       6.318   6.711  -5.189  1.00  0.00     0.029 A 
ATOM     32  N   UNL     1       4.849   8.033  -6.167  1.00  0.00    -0.354 N 
ATOM     33  N   UNL     1       1.832  10.434  -4.092  1.00  0.00    -0.248 NA
ATOM     34  C   UNL     1       0.750   9.431  -5.904  1.00  0.00     0.031 C 
ATOM     35  C   UNL     1       5.986   7.790  -4.318  1.00  0.00     0.029 A 
ATOM     36  C   UNL     1       4.925   8.501  -4.883  1.00  0.00     0.049 A 
ATOM     37  H   UNL     1       4.484   8.523  -6.939  1.00  0.00     0.167 HD
ATOM     38  C   UNL     1       2.797   9.801  -4.865  1.00  0.00     0.074 A 
ATOM     39  C   UNL     1       2.072   9.268  -6.021  1.00  0.00     0.031 C 
ATOM     40  C   UNL     1       4.021   9.493  -4.346  1.00  0.00     0.034 A 
BRANCH  27  41
ATOM     41  C   UNL     1       4.306   5.951  -8.399  1.00  0.00     0.023 A 
ATOM     42  C   UNL     1       5.190   6.769  -9.138  1.00  0.00     0.012 A 
ATOM     43  C   UNL     1       3.071   5.631  -9.010  1.00  0.00     0.148 A 
ATOM     44  C   UNL     1       4.829   7.307 -10.377  1.00  0.00     0.002 A 
ATOM     45  C   UNL     1       2.744   6.111 -10.271  1.00  0.00     0.091 A 
ATOM     46  F   UNL     1       2.137   4.958  -8.338  1.00  0.00    -0.205 F 
ATOM     47  C   UNL     1       3.604   6.979 -10.944  1.00  0.00     0.022 A 
BRANCH  45  48
ATOM     48  S   UNL     1       1.187   5.691 -11.069  1.00  0.00     0.127 S 
ATOM     49  O   UNL     1       0.518   6.988 -11.107  1.00  0.00    -0.237 OA
ATOM     50  O   UNL     1       1.649   5.191 -12.364  1.00  0.00    -0.237 OA
ATOM     51  O   UNL     1       0.561   4.681 -10.226  1.00  0.00    -0.744 OA
ENDBRANCH  45  48
ENDBRANCH  27  41
BRANCH  28  52
ATOM     52  C   UNL     1      -1.792  10.012  -3.851  1.00  0.00     0.023 A 
ATOM     53  C   UNL     1      -2.016  11.331  -4.302  1.00  0.00     0.012 A 
ATOM     54  C   UNL     1      -2.880   9.111  -3.877  1.00  0.00     0.148 A 
ATOM     55  C   UNL     1      -3.268  11.725  -4.794  1.00  0.00     0.002 A 
ATOM     56  C   UNL     1      -4.122   9.507  -4.365  1.00  0.00     0.091 A 
ATOM     57  F   UNL     1      -2.674   7.840  -3.513  1.00  0.00    -0.205 F 
ATOM     58  C   UNL     1      -4.318  10.811  -4.836  1.00  0.00     0.022 A 
BRANCH  56  59
ATOM     59  S   UNL     1      -5.510   8.369  -4.489  1.00  0.00     0.127 S 
ATOM     60  O   UNL     1      -6.579   9.124  -3.835  1.00  0.00    -0.237 OA
ATOM     61  O   UNL     1      -5.657   8.229  -5.936  1.00  0.00    -0.237 OA
ATOM     62  O   UNL     1      -5.105   7.163  -3.778  1.00  0.00    -0.744 OA
ENDBRANCH  56  59
ENDBRANCH  28  52
BRANCH  40  63
ATOM     63  C   UNL     1       4.400  10.092  -3.017  1.00  0.00     0.023 A 
ATOM     64  C   UNL     1       3.722   9.811  -1.812  1.00  0.00     0.012 A 
ATOM     65  C   UNL     1       5.578  10.853  -2.973  1.00  0.00     0.148 A 
ATOM     66  C   UNL     1       4.201  10.307  -0.594  1.00  0.00     0.002 A 
ATOM     67  C   UNL     1       6.074  11.304  -1.760  1.00  0.00     0.091 A 
ATOM     68  F   UNL     1       6.209  11.108  -4.130  1.00  0.00    -0.205 F 
ATOM     69  C   UNL     1       5.385  11.044  -0.567  1.00  0.00     0.022 A 
BRANCH  67  70
ATOM     70  S   UNL     1       7.649  12.155  -1.671  1.00  0.00     0.127 S 
ATOM     71  O   UNL     1       7.234  13.548  -1.520  1.00  0.00    -0.237 OA
ATOM     72  O   UNL     1       8.261  11.565  -0.479  1.00  0.00    -0.237 OA
ATOM     73  O   UNL     1       8.345  11.837  -2.912  1.00  0.00    -0.744 OA
ENDBRANCH  67  70
ENDBRANCH  40  63
ENDBRANCH  14  15
ENDBRANCH   7   9
ENDBRANCH   6   7
ENDBRANCH   5   6
ENDBRANCH   4   5
ENDBRANCH   3   4
ENDBRANCH   2   3
ENDBRANCH   1   2
BRANCH   1  74
ATOM     74  O   UNL     1       2.535  -1.991   1.640  1.00  0.00    -0.377 OA
BRANCH  74  75
ATOM     75  C   UNL     1       3.571  -2.941   1.540  1.00  0.00     0.188 C 
BRANCH  75  76
ATOM     76  C   UNL     1       3.212  -4.202   0.796  1.00  0.00     0.188 C 
BRANCH  76  77
ATOM     77  O   UNL     1       3.250  -4.137  -0.617  1.00  0.00    -0.376 OA
BRANCH  77  78
ATOM     78  C   UNL     1       2.695  -5.254  -1.312  1.00  0.00     0.202 C 
BRANCH  78  79
ATOM     79  C   UNL     1       2.695  -6.668  -0.679  1.00  0.00     0.261 C 
BRANCH  79  80
ATOM     80  O   UNL     1       3.547  -6.869   0.461  1.00  0.00    -0.462 OA
BRANCH  80  81
ATOM     81  C   UNL     1       4.910  -6.851   0.291  1.00  0.00     0.329 C 
ATOM     82  O   UNL     1       5.482  -7.067  -0.751  1.00  0.00    -0.250 OA
BRANCH  81  83
ATOM     83  C   UNL     1       5.545  -6.471   1.659  1.00  0.00     0.201 C 
ATOM     84  C   UNL     1       5.916  -7.790   2.392  1.00  0.00     0.093 C 
ATOM     85  N   UNL     1       6.586  -5.370   1.837  1.00  0.00    -0.318 N 
ATOM     86  C   UNL     1       6.428  -7.445   3.739  1.00  0.00     0.042 A 
ATOM     87  C   UNL     1       6.820  -4.985   3.262  1.00  0.00     0.179 C 
ATOM     88  N   UNL     1       6.581  -8.249   4.829  1.00  0.00    -0.348 N 
ATOM     89  C   UNL     1       6.845  -6.195   4.131  1.00  0.00     0.081 A 
ATOM     90  C   UNL     1       7.100  -7.465   5.826  1.00  0.00     0.197 A 
ATOM     91  H   UNL     1       6.361  -9.207   4.888  1.00  0.00     0.167 HD
ATOM     92  N   UNL     1       7.255  -6.218   5.438  1.00  0.00    -0.240 NA
BRANCH  85  93
ATOM     93  C   UNL     1       6.918  -4.322   0.947  1.00  0.00     0.256 C 
ATOM     94  O   UNL     1       7.244  -3.212   1.374  1.00  0.00    -0.269 OA
BRANCH  93  95
ATOM     95  C   UNL     1       7.090  -4.517  -0.513  1.00  0.00     0.061 A 
ATOM     96  C   UNL     1       8.067  -5.417  -0.937  1.00  0.00     0.035 A 
ATOM     97  C   UNL     1       6.569  -3.638  -1.468  1.00  0.00     0.072 A 
ATOM     98  C   UNL     1       8.381  -5.468  -2.290  1.00  0.00     0.112 A 
ATOM     99  C   UNL     1       6.880  -3.826  -2.807  1.00  0.00     0.132 A 
ATOM    100  Cl  UNL     1       5.732  -2.202  -1.122  1.00  0.00    -0.082 Cl
ATOM    101  N   UNL     1       7.773  -4.733  -3.243  1.00  0.00    -0.263 NA
ENDBRANCH  93  95
ENDBRANCH  85  93
ENDBRANCH  81  83
ENDBRANCH  80  81
ENDBRANCH  79  80
ENDBRANCH  78  79
ENDBRANCH  77  78
ENDBRANCH  76  77
ENDBRANCH  75  76
ENDBRANCH  74  75
ENDBRANCH   1  74
TORSDOF 25
