REMARK SMILES Cc1cccc(NC(=O)[C@H]2C=C[C@@H]([NH3+])C2)c1C(=O)OCCOCCOCCOCCOC(=O)c1ccc(-c2c3nc(c(-c4cccc(S(=O)(=O)[O-])c4F)c4ccc([nH]4)c(-c4cccc(S(=O)(=O)[O-])c4F)c4nc(c(-c5cccc(S(=O)(=O)[O-])c5F)c5ccc2[nH]5)C=C4)C=C3)cc1
REMARK SMILES IDX 25 1 24 2 23 3 22 4 21 5 20 6 19 7 17 8 18 9 16 10 1 11 2 12
REMARK SMILES IDX 3 13 4 14 6 15 5 16 7 17 8 18 9 20 10 21 11 22 15 23 12 24
REMARK SMILES IDX 13 25 14 26 26 30 27 31 28 32 29 33 30 34 31 35 32 36 33 37
REMARK SMILES IDX 34 38 35 39 96 40 36 41 95 42 37 43 38 44 39 45 89 46 40 47
REMARK SMILES IDX 94 48 88 49 90 50 41 51 93 52 87 53 86 54 42 56 74 57 54 58
REMARK SMILES IDX 73 59 55 60 58 61 72 62 91 63 56 64 57 65 71 67 92 68 59 69
REMARK SMILES IDX 43 70 44 71 52 72 45 73 47 74 53 75 46 76 48 77 49 78 50 79
REMARK SMILES IDX 51 80 75 81 76 82 84 83 77 84 79 85 85 86 78 87 80 88 81 89
REMARK SMILES IDX 82 90 83 91 60 92 61 93 69 94 62 95 64 96 70 97 63 98 65 99
REMARK SMILES IDX 66 100 67 101 68 102
REMARK H PARENT 7 19 14 27 14 28 14 29 90 55 58 66
REMARK Flexibility Score: inf
ROOT
ATOM      1  O   UNL     1       0.885   2.346  -3.665  1.00  0.00    -0.377 OA
ENDROOT
BRANCH   1   2
ATOM      2  C   UNL     1       0.189   1.874  -2.535  1.00  0.00     0.188 C 
BRANCH   2   3
ATOM      3  C   UNL     1      -1.013   2.717  -2.111  1.00  0.00     0.188 C 
BRANCH   3   4
ATOM      4  O   UNL     1      -0.799   3.995  -1.528  1.00  0.00    -0.376 OA
BRANCH   4   5
ATOM      5  C   UNL     1       0.253   4.107  -0.577  1.00  0.00     0.202 C 
BRANCH   5   6
ATOM      6  C   UNL     1      -0.079   3.577   0.792  1.00  0.00     0.261 C 
BRANCH   6   7
ATOM      7  O   UNL     1       0.226   2.182   0.768  1.00  0.00    -0.460 OA
BRANCH   7   8
ATOM      8  C   UNL     1      -0.411   1.402   1.634  1.00  0.00     0.340 C 
ATOM      9  O   UNL     1      -1.052   1.712   2.648  1.00  0.00    -0.246 OA
BRANCH   8  10
ATOM     10  C   UNL     1      -0.756   0.244   0.825  1.00  0.00     0.086 A 
ATOM     11  C   UNL     1       1.617  -0.563   0.312  1.00  0.00     0.045 C 
ATOM     12  C   UNL     1       0.143  -0.775   0.465  1.00  0.00    -0.034 A 
ATOM     13  C   UNL     1      -0.353  -1.920  -0.141  1.00  0.00     0.004 A 
ATOM     14  C   UNL     1      -1.545  -1.813  -0.825  1.00  0.00     0.002 A 
ATOM     15  C   UNL     1      -2.013   0.327   0.207  1.00  0.00     0.056 A 
ATOM     16  C   UNL     1      -2.295  -0.635  -0.749  1.00  0.00     0.027 A 
BRANCH  15  17
ATOM     17  N   UNL     1      -2.807   1.483   0.397  1.00  0.00    -0.325 N 
ATOM     18  C   UNL     1      -4.086   1.845   0.178  1.00  0.00     0.231 C 
ATOM     19  H   UNL     1      -2.286   2.218   0.795  1.00  0.00     0.169 HD
ATOM     20  O   UNL     1      -4.322   3.059   0.127  1.00  0.00    -0.274 OA
BRANCH  18  21
ATOM     21  C   UNL     1      -5.231   0.877   0.008  1.00  0.00     0.107 C 
ATOM     22  C   UNL     1      -5.524   0.725  -1.450  1.00  0.00    -0.012 C 
ATOM     23  C   UNL     1      -5.117  -0.551   0.544  1.00  0.00     0.087 C 
ATOM     24  C   UNL     1      -5.733  -0.553  -1.775  1.00  0.00     0.033 C 
ATOM     25  C   UNL     1      -5.653  -1.454  -0.584  1.00  0.00     0.205 C 
BRANCH  25  26
ATOM     26  N   UNL     1      -4.837  -2.624  -0.860  1.00  0.00    -0.352 N 
ATOM     27  H   UNL     1      -3.902  -2.328  -1.141  1.00  0.00     0.345 HD
ATOM     28  H   UNL     1      -5.263  -3.165  -1.613  1.00  0.00     0.345 HD
ATOM     29  H   UNL     1      -4.773  -3.200  -0.021  1.00  0.00     0.345 HD
ENDBRANCH  25  26
ENDBRANCH  18  21
ENDBRANCH  15  17
ENDBRANCH   8  10
ENDBRANCH   7   8
ENDBRANCH   6   7
ENDBRANCH   5   6
ENDBRANCH   4   5
ENDBRANCH   3   4
ENDBRANCH   2   3
ENDBRANCH   1   2
BRANCH   1  30
ATOM     30  C   UNL     1       1.079   3.740  -3.739  1.00  0.00     0.188 C 
BRANCH  30  31
ATOM     31  C   UNL     1       0.237   4.483  -4.807  1.00  0.00     0.188 C 
BRANCH  31  32
ATOM     32  O   UNL     1      -0.583   3.708  -5.643  1.00  0.00    -0.376 OA
BRANCH  32  33
ATOM     33  C   UNL     1       0.102   2.576  -6.150  1.00  0.00     0.202 C 
BRANCH  33  34
ATOM     34  C   UNL     1       1.691   2.606  -6.427  1.00  0.00     0.261 C 
BRANCH  34  35
ATOM     35  O   UNL     1       2.412   3.988  -6.296  1.00  0.00    -0.460 OA
BRANCH  35  36
ATOM     36  C   UNL     1       3.571   4.701  -6.021  1.00  0.00     0.338 C 
ATOM     37  O   UNL     1       4.479   4.834  -6.837  1.00  0.00    -0.246 OA
BRANCH  36  38
ATOM     38  C   UNL     1       3.579   5.700  -4.821  1.00  0.00     0.060 A 
ATOM     39  C   UNL     1       4.774   6.016  -4.183  1.00  0.00     0.016 A 
ATOM     40  C   UNL     1       2.491   6.288  -4.205  1.00  0.00     0.016 A 
ATOM     41  C   UNL     1       4.806   6.232  -2.784  1.00  0.00     0.010 A 
ATOM     42  C   UNL     1       2.480   6.341  -2.807  1.00  0.00     0.010 A 
ATOM     43  C   UNL     1       3.639   6.092  -2.072  1.00  0.00    -0.014 A 
BRANCH  43  44
ATOM     44  C   UNL     1       3.495   5.592  -0.678  1.00  0.00     0.031 A 
ATOM     45  C   UNL     1       2.603   6.399   0.260  1.00  0.00     0.074 A 
ATOM     46  C   UNL     1       3.770   4.271  -0.432  1.00  0.00     0.049 A 
ATOM     47  N   UNL     1       2.096   6.015   1.386  1.00  0.00    -0.248 NA
ATOM     48  C   UNL     1       2.123   7.737  -0.093  1.00  0.00     0.031 C 
ATOM     49  C   UNL     1       3.082   3.477   0.577  1.00  0.00     0.029 A 
ATOM     50  N   UNL     1       4.585   3.292  -1.020  1.00  0.00    -0.354 N 
ATOM     51  C   UNL     1       1.062   6.878   1.754  1.00  0.00     0.074 A 
ATOM     52  C   UNL     1       1.141   7.945   0.794  1.00  0.00     0.031 C 
ATOM     53  C   UNL     1       3.451   2.193   0.543  1.00  0.00     0.029 A 
ATOM     54  C   UNL     1       4.688   2.164  -0.176  1.00  0.00     0.049 A 
ATOM     55  H   UNL     1       5.024   3.378  -1.897  1.00  0.00     0.167 HD
ATOM     56  C   UNL     1       0.209   6.545   2.777  1.00  0.00     0.034 A 
ATOM     57  C   UNL     1       5.785   1.768   0.553  1.00  0.00     0.034 A 
ATOM     58  C   UNL     1       0.711   5.352   3.518  1.00  0.00     0.049 A 
ATOM     59  C   UNL     1       5.649   2.092   2.071  1.00  0.00     0.074 A 
ATOM     60  C   UNL     1       0.158   4.159   3.951  1.00  0.00     0.029 A 
ATOM     61  N   UNL     1       2.079   5.234   3.801  1.00  0.00    -0.354 N 
ATOM     62  N   UNL     1       4.763   2.953   2.535  1.00  0.00    -0.248 NA
ATOM     63  C   UNL     1       6.326   1.422   3.184  1.00  0.00     0.031 C 
ATOM     64  C   UNL     1       1.228   3.254   4.241  1.00  0.00     0.029 A 
ATOM     65  C   UNL     1       2.433   3.937   4.138  1.00  0.00     0.049 A 
ATOM     66  H   UNL     1       2.715   5.985   3.766  1.00  0.00     0.167 HD
ATOM     67  C   UNL     1       4.667   2.913   3.893  1.00  0.00     0.074 A 
ATOM     68  C   UNL     1       5.707   1.962   4.259  1.00  0.00     0.031 C 
ATOM     69  C   UNL     1       3.769   3.631   4.645  1.00  0.00     0.034 A 
BRANCH  56  70
ATOM     70  C   UNL     1      -1.182   7.181   3.105  1.00  0.00     0.023 A 
ATOM     71  C   UNL     1      -1.827   6.721   4.284  1.00  0.00     0.012 A 
ATOM     72  C   UNL     1      -1.948   8.116   2.346  1.00  0.00     0.148 A 
ATOM     73  C   UNL     1      -3.127   7.096   4.665  1.00  0.00     0.002 A 
ATOM     74  C   UNL     1      -3.227   8.552   2.769  1.00  0.00     0.091 A 
ATOM     75  F   UNL     1      -1.478   8.569   1.180  1.00  0.00    -0.205 F 
ATOM     76  C   UNL     1      -3.826   8.020   3.914  1.00  0.00     0.022 A 
BRANCH  74  77
ATOM     77  S   UNL     1      -4.198   9.843   1.944  1.00  0.00     0.127 S 
ATOM     78  O   UNL     1      -5.441   9.145   1.610  1.00  0.00    -0.237 OA
ATOM     79  O   UNL     1      -4.342  10.847   2.999  1.00  0.00    -0.237 OA
ATOM     80  O   UNL     1      -3.409  10.276   0.797  1.00  0.00    -0.744 OA
ENDBRANCH  74  77
ENDBRANCH  56  70
BRANCH  57  81
ATOM     81  C   UNL     1       6.928   1.337  -0.312  1.00  0.00     0.023 A 
ATOM     82  C   UNL     1       6.627   0.234  -1.168  1.00  0.00     0.012 A 
ATOM     83  C   UNL     1       7.715   2.371  -0.819  1.00  0.00     0.148 A 
ATOM     84  C   UNL     1       6.813   0.323  -2.553  1.00  0.00     0.002 A 
ATOM     85  C   UNL     1       7.796   2.505  -2.201  1.00  0.00     0.091 A 
ATOM     86  F   UNL     1       8.124   3.333   0.019  1.00  0.00    -0.205 F 
ATOM     87  C   UNL     1       7.343   1.490  -3.073  1.00  0.00     0.022 A 
BRANCH  85  88
ATOM     88  S   UNL     1       7.636   4.152  -2.891  1.00  0.00     0.127 S 
ATOM     89  O   UNL     1       8.753   4.258  -3.817  1.00  0.00    -0.237 OA
ATOM     90  O   UNL     1       6.323   3.960  -3.503  1.00  0.00    -0.237 OA
ATOM     91  O   UNL     1       7.657   5.068  -1.761  1.00  0.00    -0.744 OA
ENDBRANCH  85  88
ENDBRANCH  57  81
BRANCH  69  92
ATOM     92  C   UNL     1       4.109   4.181   6.019  1.00  0.00     0.023 A 
ATOM     93  C   UNL     1       5.452   4.295   6.418  1.00  0.00     0.012 A 
ATOM     94  C   UNL     1       3.139   4.848   6.821  1.00  0.00     0.148 A 
ATOM     95  C   UNL     1       5.817   4.981   7.575  1.00  0.00     0.002 A 
ATOM     96  C   UNL     1       3.522   5.631   7.901  1.00  0.00     0.091 A 
ATOM     97  F   UNL     1       1.833   4.732   6.550  1.00  0.00    -0.205 F 
ATOM     98  C   UNL     1       4.857   5.670   8.302  1.00  0.00     0.022 A 
BRANCH  96  99
ATOM     99  S   UNL     1       2.371   6.753   8.713  1.00  0.00     0.127 S 
ATOM    100  O   UNL     1       2.051   6.017   9.934  1.00  0.00    -0.237 OA
ATOM    101  O   UNL     1       3.199   7.944   8.917  1.00  0.00    -0.237 OA
ATOM    102  O   UNL     1       1.272   6.944   7.776  1.00  0.00    -0.744 OA
ENDBRANCH  96  99
ENDBRANCH  69  92
ENDBRANCH  43  44
ENDBRANCH  36  38
ENDBRANCH  35  36
ENDBRANCH  34  35
ENDBRANCH  33  34
ENDBRANCH  32  33
ENDBRANCH  31  32
ENDBRANCH  30  31
ENDBRANCH   1  30
TORSDOF 26
