REMARK SMILES O=C(CCCCc1nc2cccc(Cl)c2s1)OCCOCCOCCOCCOC(=O)c1ccc(-c2c3nc(c(-c4cccc(S(=O)(=O)[O-])c4F)c4ccc([nH]4)c(-c4cccc(S(=O)(=O)[O-])c4F)c4nc(c(-c5cccc(S(=O)(=O)[O-])c5F)c5ccc2[nH]5)C=C4)C=C3)cc1
REMARK SMILES IDX 22 1 21 2 20 3 19 4 18 5 17 6 2 7 1 8 3 9 4 10 5 11 6 12
REMARK SMILES IDX 7 13 8 14 16 15 9 16 15 17 10 18 13 19 11 20 12 21 14 22
REMARK SMILES IDX 23 23 24 24 25 25 26 26 27 27 28 28 29 29 30 30 31 31 32 32
REMARK SMILES IDX 33 33 94 34 34 35 93 36 35 37 36 38 37 39 87 40 38 41 92 42
REMARK SMILES IDX 86 43 88 44 39 45 91 46 85 47 84 48 40 50 72 51 52 52 71 53
REMARK SMILES IDX 53 54 56 55 70 56 89 57 54 58 55 59 69 61 90 62 57 63 41 64
REMARK SMILES IDX 42 65 50 66 43 67 45 68 51 69 44 70 46 71 47 72 48 73 49 74
REMARK SMILES IDX 73 75 74 76 82 77 75 78 77 79 83 80 76 81 78 82 79 83 80 84
REMARK SMILES IDX 81 85 58 86 59 87 67 88 60 89 62 90 68 91 61 92 63 93 64 94
REMARK SMILES IDX 65 95 66 96
REMARK H PARENT 88 49 56 60
REMARK Flexibility Score: inf
ROOT
ATOM      1  C   UNL     1       2.439   2.155   2.158  1.00  0.00     0.188 C 
ENDROOT
BRANCH   1   2
ATOM      2  C   UNL     1       2.603   0.879   1.326  1.00  0.00     0.188 C 
BRANCH   2   3
ATOM      3  O   UNL     1       3.674   0.929   0.386  1.00  0.00    -0.376 OA
BRANCH   3   4
ATOM      4  C   UNL     1       3.534   1.886  -0.651  1.00  0.00     0.202 C 
BRANCH   4   5
ATOM      5  C   UNL     1       3.327   1.155  -1.965  1.00  0.00     0.261 C 
BRANCH   5   6
ATOM      6  O   UNL     1       2.061   0.470  -2.000  1.00  0.00    -0.463 OA
BRANCH   6   7
ATOM      7  C   UNL     1       1.871  -0.849  -1.784  1.00  0.00     0.305 C 
ATOM      8  O   UNL     1       0.793  -1.360  -2.086  1.00  0.00    -0.252 OA
BRANCH   7   9
ATOM      9  C   UNL     1       2.951  -1.692  -1.139  1.00  0.00     0.123 C 
BRANCH   9  10
ATOM     10  C   UNL     1       3.894  -2.407  -2.104  1.00  0.00     0.012 C 
BRANCH  10  11
ATOM     11  C   UNL     1       5.343  -1.889  -2.212  1.00  0.00     0.008 C 
BRANCH  11  12
ATOM     12  C   UNL     1       6.092  -1.532  -0.921  1.00  0.00     0.068 C 
BRANCH  12  13
ATOM     13  C   UNL     1       6.702  -2.650  -0.119  1.00  0.00     0.094 A 
ATOM     14  N   UNL     1       7.635  -2.423   0.781  1.00  0.00    -0.241 NA
ATOM     15  S   UNL     1       6.238  -4.290  -0.274  1.00  0.00    -0.117 S 
ATOM     16  C   UNL     1       7.985  -3.595   1.429  1.00  0.00     0.083 A 
ATOM     17  C   UNL     1       7.327  -4.743   0.981  1.00  0.00     0.073 A 
ATOM     18  C   UNL     1       8.925  -3.707   2.474  1.00  0.00     0.030 A 
ATOM     19  C   UNL     1       7.596  -6.000   1.549  1.00  0.00     0.060 A 
ATOM     20  C   UNL     1       9.185  -4.953   3.051  1.00  0.00     0.004 A 
ATOM     21  C   UNL     1       8.528  -6.088   2.589  1.00  0.00     0.022 A 
ATOM     22  Cl  UNL     1       6.809  -7.434   1.006  1.00  0.00    -0.083 Cl
ENDBRANCH  12  13
ENDBRANCH  11  12
ENDBRANCH  10  11
ENDBRANCH   9  10
ENDBRANCH   7   9
ENDBRANCH   6   7
ENDBRANCH   5   6
ENDBRANCH   4   5
ENDBRANCH   3   4
ENDBRANCH   2   3
ENDBRANCH   1   2
BRANCH   1  23
ATOM     23  O   UNL     1       3.510   2.601   2.982  1.00  0.00    -0.377 OA
BRANCH  23  24
ATOM     24  C   UNL     1       4.800   2.034   2.861  1.00  0.00     0.188 C 
BRANCH  24  25
ATOM     25  C   UNL     1       5.149   0.962   3.905  1.00  0.00     0.188 C 
BRANCH  25  26
ATOM     26  O   UNL     1       4.252  -0.120   4.116  1.00  0.00    -0.376 OA
BRANCH  26  27
ATOM     27  C   UNL     1       3.014   0.074   4.802  1.00  0.00     0.202 C 
BRANCH  27  28
ATOM     28  C   UNL     1       2.916   0.981   6.027  1.00  0.00     0.261 C 
BRANCH  28  29
ATOM     29  O   UNL     1       2.977   2.353   5.646  1.00  0.00    -0.460 OA
BRANCH  29  30
ATOM     30  C   UNL     1       4.081   2.995   6.077  1.00  0.00     0.338 C 
ATOM     31  O   UNL     1       4.955   2.542   6.797  1.00  0.00    -0.246 OA
BRANCH  30  32
ATOM     32  C   UNL     1       4.138   4.362   5.551  1.00  0.00     0.060 A 
ATOM     33  C   UNL     1       5.402   4.960   5.572  1.00  0.00     0.016 A 
ATOM     34  C   UNL     1       2.962   5.101   5.392  1.00  0.00     0.016 A 
ATOM     35  C   UNL     1       5.473   6.320   5.743  1.00  0.00     0.010 A 
ATOM     36  C   UNL     1       3.032   6.466   5.568  1.00  0.00     0.010 A 
ATOM     37  C   UNL     1       4.275   7.025   5.876  1.00  0.00    -0.014 A 
BRANCH  37  38
ATOM     38  C   UNL     1       4.357   8.277   6.601  1.00  0.00     0.031 A 
ATOM     39  C   UNL     1       4.724   9.469   5.825  1.00  0.00     0.074 A 
ATOM     40  C   UNL     1       4.063   8.330   7.915  1.00  0.00     0.049 A 
ATOM     41  N   UNL     1       5.784  10.198   5.947  1.00  0.00    -0.248 NA
ATOM     42  C   UNL     1       3.823   9.851   4.733  1.00  0.00     0.031 C 
ATOM     43  C   UNL     1       3.411   7.292   8.722  1.00  0.00     0.029 A 
ATOM     44  N   UNL     1       4.152   9.386   8.772  1.00  0.00    -0.354 N 
ATOM     45  C   UNL     1       5.572  11.269   5.091  1.00  0.00     0.074 A 
ATOM     46  C   UNL     1       4.439  10.933   4.261  1.00  0.00     0.031 C 
ATOM     47  C   UNL     1       2.935   7.855   9.853  1.00  0.00     0.029 A 
ATOM     48  C   UNL     1       3.352   9.245   9.898  1.00  0.00     0.049 A 
ATOM     49  H   UNL     1       4.726  10.170   8.608  1.00  0.00     0.167 HD
ATOM     50  C   UNL     1       6.160  12.478   5.277  1.00  0.00     0.034 A 
ATOM     51  C   UNL     1       2.978  10.238  10.738  1.00  0.00     0.034 A 
ATOM     52  C   UNL     1       7.264  12.460   6.187  1.00  0.00     0.049 A 
ATOM     53  C   UNL     1       3.944  11.351  10.565  1.00  0.00     0.074 A 
ATOM     54  C   UNL     1       8.474  11.802   6.254  1.00  0.00     0.029 A 
ATOM     55  N   UNL     1       7.055  13.010   7.427  1.00  0.00    -0.354 N 
ATOM     56  N   UNL     1       5.196  11.315  10.929  1.00  0.00    -0.248 NA
ATOM     57  C   UNL     1       3.581  12.456   9.690  1.00  0.00     0.031 C 
ATOM     58  C   UNL     1       8.750  11.654   7.643  1.00  0.00     0.029 A 
ATOM     59  C   UNL     1       7.679  12.211   8.347  1.00  0.00     0.049 A 
ATOM     60  H   UNL     1       6.548  13.832   7.620  1.00  0.00     0.167 HD
ATOM     61  C   UNL     1       5.851  12.144  10.028  1.00  0.00     0.074 A 
ATOM     62  C   UNL     1       4.795  12.925   9.398  1.00  0.00     0.031 C 
ATOM     63  C   UNL     1       7.148  11.917   9.664  1.00  0.00     0.034 A 
BRANCH  50  64
ATOM     64  C   UNL     1       5.480  13.745   4.866  1.00  0.00     0.023 A 
ATOM     65  C   UNL     1       6.256  14.871   4.549  1.00  0.00     0.012 A 
ATOM     66  C   UNL     1       4.083  13.912   4.969  1.00  0.00     0.148 A 
ATOM     67  C   UNL     1       5.652  16.108   4.298  1.00  0.00     0.002 A 
ATOM     68  C   UNL     1       3.483  15.112   4.623  1.00  0.00     0.091 A 
ATOM     69  F   UNL     1       3.332  12.935   5.500  1.00  0.00    -0.205 F 
ATOM     70  C   UNL     1       4.263  16.223   4.304  1.00  0.00     0.022 A 
BRANCH  68  71
ATOM     71  S   UNL     1       1.697  15.201   4.503  1.00  0.00     0.127 S 
ATOM     72  O   UNL     1       1.316  15.497   5.880  1.00  0.00    -0.237 OA
ATOM     73  O   UNL     1       1.496  16.297   3.554  1.00  0.00    -0.237 OA
ATOM     74  O   UNL     1       1.319  13.892   3.981  1.00  0.00    -0.744 OA
ENDBRANCH  68  71
ENDBRANCH  50  64
BRANCH  51  75
ATOM     75  C   UNL     1       1.733  10.389  11.534  1.00  0.00     0.023 A 
ATOM     76  C   UNL     1       1.687  11.376  12.540  1.00  0.00     0.012 A 
ATOM     77  C   UNL     1       0.517   9.761  11.179  1.00  0.00     0.148 A 
ATOM     78  C   UNL     1       0.478  11.749  13.141  1.00  0.00     0.002 A 
ATOM     79  C   UNL     1      -0.679  10.110  11.806  1.00  0.00     0.091 A 
ATOM     80  F   UNL     1       0.494   8.890  10.162  1.00  0.00    -0.205 F 
ATOM     81  C   UNL     1      -0.705  11.117  12.774  1.00  0.00     0.022 A 
BRANCH  79  82
ATOM     82  S   UNL     1      -2.217   9.277  11.387  1.00  0.00     0.127 S 
ATOM     83  O   UNL     1      -2.977   9.359  12.637  1.00  0.00    -0.237 OA
ATOM     84  O   UNL     1      -2.737  10.105  10.304  1.00  0.00    -0.237 OA
ATOM     85  O   UNL     1      -1.820   7.920  11.029  1.00  0.00    -0.744 OA
ENDBRANCH  79  82
ENDBRANCH  51  75
BRANCH  63  86
ATOM     86  C   UNL     1       7.986  11.000  10.518  1.00  0.00     0.023 A 
ATOM     87  C   UNL     1       7.692   9.625  10.623  1.00  0.00     0.012 A 
ATOM     88  C   UNL     1       9.200  11.482  11.042  1.00  0.00     0.148 A 
ATOM     89  C   UNL     1       8.583   8.751  11.249  1.00  0.00     0.002 A 
ATOM     90  C   UNL     1      10.102  10.601  11.629  1.00  0.00     0.091 A 
ATOM     91  F   UNL     1       9.470  12.790  10.916  1.00  0.00    -0.205 F 
ATOM     92  C   UNL     1       9.793   9.236  11.740  1.00  0.00     0.022 A 
BRANCH  90  93
ATOM     93  S   UNL     1      11.735  11.123  12.167  1.00  0.00     0.127 S 
ATOM     94  O   UNL     1      11.624  11.028  13.621  1.00  0.00    -0.237 OA
ATOM     95  O   UNL     1      12.603  10.116  11.554  1.00  0.00    -0.237 OA
ATOM     96  O   UNL     1      11.923  12.471  11.644  1.00  0.00    -0.744 OA
ENDBRANCH  90  93
ENDBRANCH  63  86
ENDBRANCH  37  38
ENDBRANCH  30  32
ENDBRANCH  29  30
ENDBRANCH  28  29
ENDBRANCH  27  28
ENDBRANCH  26  27
ENDBRANCH  25  26
ENDBRANCH  24  25
ENDBRANCH  23  24
ENDBRANCH   1  23
TORSDOF 27
