REMARK SMILES Cc1ccc(C(=O)OCCOCCOCCOCCOC(=O)c2ccc(-c3c4nc(c(-c5cccc(S(=O)(=O)[O-])c5F)c5ccc([nH]5)c(-c5cccc(S(=O)(=O)[O-])c5F)c5nc(c(-c6cccc(S(=O)(=O)[O-])c6F)c6ccc3[nH]6)C=C5)C=C4)cc2)cc1N1C(=O)/C(=C\c2nc3ccccc3n2C)SC1=S
REMARK SMILES IDX 15 1 14 2 13 3 12 4 11 5 10 6 9 7 8 8 6 9 7 10 5 11 1 12
REMARK SMILES IDX 2 13 3 14 87 15 4 16 86 17 88 18 89 19 104 20 90 21 91 22
REMARK SMILES IDX 103 23 105 24 92 25 93 26 94 27 101 28 95 29 100 30 102 31
REMARK SMILES IDX 96 32 99 33 97 34 98 35 16 36 17 37 18 38 19 39 20 40 21 41
REMARK SMILES IDX 22 42 23 43 24 44 85 45 25 46 84 47 26 48 27 49 28 50 78 51
REMARK SMILES IDX 29 52 83 53 77 54 79 55 30 56 82 57 76 58 75 59 31 61 63 62
REMARK SMILES IDX 43 63 62 64 44 65 47 66 61 67 80 68 45 69 46 70 60 72 81 73
REMARK SMILES IDX 48 74 32 75 33 76 41 77 34 78 36 79 42 80 35 81 37 82 38 83
REMARK SMILES IDX 39 84 40 85 64 86 65 87 73 88 66 89 68 90 74 91 67 92 69 93
REMARK SMILES IDX 70 94 71 95 72 96 49 97 50 98 58 99 51 100 53 101 59 102
REMARK SMILES IDX 52 103 54 104 55 105 56 106 57 107
REMARK H PARENT 79 60 47 71
REMARK Flexibility Score: inf
ROOT
ATOM      1  C   UNL     1      -3.782   0.604  -5.377  1.00  0.00     0.188 C 
ENDROOT
BRANCH   1   2
ATOM      2  O   UNL     1      -2.740   1.502  -5.059  1.00  0.00    -0.377 OA
BRANCH   2   3
ATOM      3  C   UNL     1      -2.453   1.512  -3.682  1.00  0.00     0.188 C 
BRANCH   3   4
ATOM      4  C   UNL     1      -3.546   0.980  -2.743  1.00  0.00     0.188 C 
BRANCH   4   5
ATOM      5  O   UNL     1      -4.824   1.867  -2.321  1.00  0.00    -0.376 OA
BRANCH   5   6
ATOM      6  C   UNL     1      -5.783   1.871  -0.846  1.00  0.00     0.202 C 
BRANCH   6   7
ATOM      7  C   UNL     1      -5.778   0.936   0.776  1.00  0.00     0.261 C 
BRANCH   7   8
ATOM      8  O   UNL     1      -4.561  -0.293   1.421  1.00  0.00    -0.460 OA
BRANCH   8   9
ATOM      9  C   UNL     1      -3.352  -1.275   1.071  1.00  0.00     0.338 C 
ATOM     10  O   UNL     1      -3.547  -2.492   1.208  1.00  0.00    -0.246 OA
BRANCH   9  11
ATOM     11  C   UNL     1      -1.730  -1.036   0.630  1.00  0.00     0.062 A 
ATOM     12  C   UNL     1       2.687  -0.789   0.193  1.00  0.00     0.046 C 
ATOM     13  C   UNL     1       1.193  -0.842   0.300  1.00  0.00    -0.027 A 
ATOM     14  C   UNL     1       0.539  -2.039   0.655  1.00  0.00     0.006 A 
ATOM     15  C   UNL     1       0.394   0.255   0.031  1.00  0.00     0.054 A 
ATOM     16  C   UNL     1      -0.870  -2.118   0.859  1.00  0.00     0.016 A 
ATOM     17  C   UNL     1      -1.010   0.079   0.091  1.00  0.00     0.042 A 
BRANCH  15  18
ATOM     18  N   UNL     1       0.908   1.605  -0.035  1.00  0.00    -0.261 N 
ATOM     19  C   UNL     1       0.811   2.402   1.106  1.00  0.00     0.270 C 
ATOM     20  C   UNL     1       1.479   2.192  -1.141  1.00  0.00     0.152 C 
ATOM     21  O   UNL     1       0.327   2.010   2.168  1.00  0.00    -0.268 OA
ATOM     22  C   UNL     1       1.385   3.782   0.878  1.00  0.00     0.084 C 
ATOM     23  S   UNL     1       1.939   3.862  -0.767  1.00  0.00    -0.054 SA
ATOM     24  S   UNL     1       1.738   1.548  -2.660  1.00  0.00    -0.051 S 
ATOM     25  C   UNL     1       1.492   4.851   1.702  1.00  0.00     0.068 C 
BRANCH  25  26
ATOM     26  C   UNL     1       1.056   4.819   3.053  1.00  0.00     0.134 A 
ATOM     27  N   UNL     1       1.028   3.791   3.869  1.00  0.00    -0.229 NA
ATOM     28  N   UNL     1       0.480   5.903   3.697  1.00  0.00    -0.328 N 
ATOM     29  C   UNL     1       0.001   4.050   4.727  1.00  0.00     0.089 A 
ATOM     30  C   UNL     1      -0.368   5.390   4.659  1.00  0.00     0.068 A 
ATOM     31  C   UNL     1       0.699   7.305   3.444  1.00  0.00     0.152 C 
ATOM     32  C   UNL     1      -0.700   3.167   5.555  1.00  0.00     0.030 A 
ATOM     33  C   UNL     1      -1.405   5.920   5.437  1.00  0.00     0.028 A 
ATOM     34  C   UNL     1      -1.781   3.660   6.288  1.00  0.00     0.002 A 
ATOM     35  C   UNL     1      -2.118   5.015   6.238  1.00  0.00     0.002 A 
ENDBRANCH  25  26
ENDBRANCH  15  18
ENDBRANCH   9  11
ENDBRANCH   8   9
ENDBRANCH   7   8
ENDBRANCH   6   7
ENDBRANCH   5   6
ENDBRANCH   4   5
ENDBRANCH   3   4
ENDBRANCH   2   3
ENDBRANCH   1   2
BRANCH   1  36
ATOM     36  C   UNL     1      -3.346  -0.865  -5.585  1.00  0.00     0.188 C 
BRANCH  36  37
ATOM     37  O   UNL     1      -2.795  -1.171  -6.857  1.00  0.00    -0.376 OA
BRANCH  37  38
ATOM     38  C   UNL     1      -3.271  -0.365  -7.928  1.00  0.00     0.202 C 
BRANCH  38  39
ATOM     39  C   UNL     1      -4.811  -0.051  -8.080  1.00  0.00     0.261 C 
BRANCH  39  40
ATOM     40  O   UNL     1      -5.676  -0.704  -7.096  1.00  0.00    -0.460 OA
BRANCH  40  41
ATOM     41  C   UNL     1      -6.678   0.019  -6.488  1.00  0.00     0.338 C 
ATOM     42  O   UNL     1      -7.162   1.046  -6.969  1.00  0.00    -0.246 OA
BRANCH  41  43
ATOM     43  C   UNL     1      -6.871  -0.429  -5.041  1.00  0.00     0.060 A 
ATOM     44  C   UNL     1      -7.360   0.432  -4.071  1.00  0.00     0.016 A 
ATOM     45  C   UNL     1      -6.256  -1.577  -4.548  1.00  0.00     0.016 A 
ATOM     46  C   UNL     1      -6.976   0.247  -2.711  1.00  0.00     0.010 A 
ATOM     47  C   UNL     1      -5.643  -1.564  -3.256  1.00  0.00     0.010 A 
ATOM     48  C   UNL     1      -5.844  -0.524  -2.331  1.00  0.00    -0.014 A 
BRANCH  48  49
ATOM     49  C   UNL     1      -4.831  -0.355  -0.899  1.00  0.00     0.031 A 
ATOM     50  C   UNL     1      -5.737  -1.641  -0.029  1.00  0.00     0.074 A 
ATOM     51  C   UNL     1      -3.797   0.854  -0.272  1.00  0.00     0.049 A 
ATOM     52  N   UNL     1      -6.376  -1.518   1.122  1.00  0.00    -0.248 NA
ATOM     53  C   UNL     1      -6.031  -2.989  -0.558  1.00  0.00     0.031 C 
ATOM     54  C   UNL     1      -3.051   1.227   1.205  1.00  0.00     0.029 A 
ATOM     55  N   UNL     1      -3.386   2.330  -0.692  1.00  0.00    -0.354 N 
ATOM     56  C   UNL     1      -6.453  -2.762   1.682  1.00  0.00     0.074 A 
ATOM     57  C   UNL     1      -6.564  -3.602   0.512  1.00  0.00     0.031 C 
ATOM     58  C   UNL     1      -2.583   2.467   1.366  1.00  0.00     0.029 A 
ATOM     59  C   UNL     1      -3.228   3.237   0.385  1.00  0.00     0.049 A 
ATOM     60  H   UNL     1      -3.251   2.595  -1.630  1.00  0.00     0.167 HD
ATOM     61  C   UNL     1      -6.029  -3.017   2.971  1.00  0.00     0.034 A 
ATOM     62  C   UNL     1      -4.026   4.298   0.749  1.00  0.00     0.034 A 
ATOM     63  C   UNL     1      -5.393  -1.835   3.681  1.00  0.00     0.049 A 
ATOM     64  C   UNL     1      -4.603   4.040   2.189  1.00  0.00     0.074 A 
ATOM     65  C   UNL     1      -4.075  -1.608   4.083  1.00  0.00     0.029 A 
ATOM     66  N   UNL     1      -6.023  -0.587   3.868  1.00  0.00    -0.354 N 
ATOM     67  N   UNL     1      -4.685   2.849   2.739  1.00  0.00    -0.248 NA
ATOM     68  C   UNL     1      -5.051   5.062   3.125  1.00  0.00     0.031 C 
ATOM     69  C   UNL     1      -3.898  -0.239   4.425  1.00  0.00     0.029 A 
ATOM     70  C   UNL     1      -5.115   0.411   4.287  1.00  0.00     0.049 A 
ATOM     71  H   UNL     1      -6.984  -0.430   3.722  1.00  0.00     0.167 HD
ATOM     72  C   UNL     1      -5.223   2.883   3.993  1.00  0.00     0.074 A 
ATOM     73  C   UNL     1      -5.367   4.323   4.211  1.00  0.00     0.031 C 
ATOM     74  C   UNL     1      -5.534   1.758   4.736  1.00  0.00     0.034 A 
BRANCH  61  75
ATOM     75  C   UNL     1      -5.728  -4.486   3.376  1.00  0.00     0.023 A 
ATOM     76  C   UNL     1      -4.716  -4.767   4.320  1.00  0.00     0.012 A 
ATOM     77  C   UNL     1      -6.350  -5.630   2.816  1.00  0.00     0.148 A 
ATOM     78  C   UNL     1      -4.217  -6.060   4.543  1.00  0.00     0.002 A 
ATOM     79  C   UNL     1      -5.806  -6.914   2.970  1.00  0.00     0.091 A 
ATOM     80  F   UNL     1      -7.536  -5.497   2.205  1.00  0.00    -0.205 F 
ATOM     81  C   UNL     1      -4.722  -7.130   3.823  1.00  0.00     0.022 A 
BRANCH  79  82
ATOM     82  S   UNL     1      -6.380  -8.324   2.005  1.00  0.00     0.127 S 
ATOM     83  O   UNL     1      -5.127  -8.952   1.577  1.00  0.00    -0.237 OA
ATOM     84  O   UNL     1      -7.135  -9.096   2.989  1.00  0.00    -0.237 OA
ATOM     85  O   UNL     1      -7.159  -7.760   0.908  1.00  0.00    -0.744 OA
ENDBRANCH  79  82
ENDBRANCH  61  75
BRANCH  62  86
ATOM     86  C   UNL     1      -4.711   5.038  -0.383  1.00  0.00     0.023 A 
ATOM     87  C   UNL     1      -3.922   5.334  -1.528  1.00  0.00     0.012 A 
ATOM     88  C   UNL     1      -6.112   5.116  -0.524  1.00  0.00     0.148 A 
ATOM     89  C   UNL     1      -4.497   5.505  -2.793  1.00  0.00     0.002 A 
ATOM     90  C   UNL     1      -6.679   5.243  -1.801  1.00  0.00     0.091 A 
ATOM     91  F   UNL     1      -6.877   4.894   0.553  1.00  0.00    -0.205 F 
ATOM     92  C   UNL     1      -5.874   5.415  -2.936  1.00  0.00     0.022 A 
BRANCH  90  93
ATOM     93  S   UNL     1      -8.437   4.920  -2.064  1.00  0.00     0.127 S 
ATOM     94  O   UNL     1      -9.013   6.247  -1.864  1.00  0.00    -0.237 OA
ATOM     95  O   UNL     1      -8.484   4.430  -3.442  1.00  0.00    -0.237 OA
ATOM     96  O   UNL     1      -8.764   3.910  -1.066  1.00  0.00    -0.744 OA
ENDBRANCH  90  93
ENDBRANCH  62  86
BRANCH  74  97
ATOM     97  C   UNL     1      -6.243   1.809   6.078  1.00  0.00     0.023 A 
ATOM     98  C   UNL     1      -7.189   2.805   6.370  1.00  0.00     0.012 A 
ATOM     99  C   UNL     1      -6.112   0.750   7.019  1.00  0.00     0.148 A 
ATOM    100  C   UNL     1      -7.941   2.780   7.549  1.00  0.00     0.002 A 
ATOM    101  C   UNL     1      -6.948   0.666   8.127  1.00  0.00     0.091 A 
ATOM    102  F   UNL     1      -5.151  -0.173   6.872  1.00  0.00    -0.205 F 
ATOM    103  C   UNL     1      -7.846   1.694   8.410  1.00  0.00     0.022 A 
BRANCH 101 104
ATOM    104  S   UNL     1      -7.010  -0.836   9.117  1.00  0.00     0.127 S 
ATOM    105  O   UNL     1      -6.013  -0.562  10.152  1.00  0.00    -0.237 OA
ATOM    106  O   UNL     1      -8.395  -0.839   9.598  1.00  0.00    -0.237 OA
ATOM    107  O   UNL     1      -6.701  -1.914   8.194  1.00  0.00    -0.744 OA
ENDBRANCH 101 104
ENDBRANCH  74  97
ENDBRANCH  48  49
ENDBRANCH  41  43
ENDBRANCH  40  41
ENDBRANCH  39  40
ENDBRANCH  38  39
ENDBRANCH  37  38
ENDBRANCH  36  37
ENDBRANCH   1  36
TORSDOF 25
