REMARK SMILES NC(=O)C1CC[NH+](Cc2ccc(C(=O)OCCOCCOCCOCCOC(=O)c3ccc(-c4c5nc(c(-c6cccc(S(=O)(=O)[O-])c6F)c6ccc([nH]6)c(-c6cccc(S(=O)(=O)[O-])c6F)c6nc(c(-c7cccc(S(=O)(=O)[O-])c7F)c7ccc4[nH]7)C=C6)C=C5)cc3)cc2)CC1
REMARK SMILES IDX 21 1 20 2 19 3 18 4 17 5 16 6 15 7 13 8 14 9 12 10 9 11
REMARK SMILES IDX 10 12 94 13 11 14 93 15 8 16 7 17 4 18 5 19 96 20 6 21 95 22
REMARK SMILES IDX 2 24 1 25 3 28 22 29 23 30 24 31 25 32 26 33 27 34 28 35
REMARK SMILES IDX 29 36 30 37 31 38 92 39 32 40 91 41 33 42 34 43 35 44 85 45
REMARK SMILES IDX 36 46 90 47 84 48 86 49 37 50 89 51 83 52 82 53 38 55 70 56
REMARK SMILES IDX 50 57 69 58 51 59 54 60 68 61 87 62 52 63 53 64 67 66 88 67
REMARK SMILES IDX 55 68 39 69 40 70 48 71 41 72 43 73 49 74 42 75 44 76 45 77
REMARK SMILES IDX 46 78 47 79 71 80 72 81 80 82 73 83 75 84 81 85 74 86 76 87
REMARK SMILES IDX 77 88 78 89 79 90 56 91 57 92 65 93 58 94 60 95 66 96 59 97
REMARK SMILES IDX 61 98 62 99 63 100 64 101
REMARK H PARENT 7 23 1 26 1 27 86 54 54 65
REMARK Flexibility Score: inf
ROOT
ATOM      1  O   UNL     1      -5.416   5.225   2.070  1.00  0.00    -0.377 OA
ENDROOT
BRANCH   1   2
ATOM      2  C   UNL     1      -6.022   4.955   0.817  1.00  0.00     0.188 C 
BRANCH   2   3
ATOM      3  C   UNL     1      -7.059   3.816   0.743  1.00  0.00     0.188 C 
BRANCH   3   4
ATOM      4  O   UNL     1      -7.551   3.405   2.007  1.00  0.00    -0.376 OA
BRANCH   4   5
ATOM      5  C   UNL     1      -7.163   2.150   2.538  1.00  0.00     0.202 C 
BRANCH   5   6
ATOM      6  C   UNL     1      -5.676   1.833   2.755  1.00  0.00     0.261 C 
BRANCH   6   7
ATOM      7  O   UNL     1      -4.796   2.262   1.719  1.00  0.00    -0.460 OA
BRANCH   7   8
ATOM      8  C   UNL     1      -4.807   1.565   0.564  1.00  0.00     0.338 C 
ATOM      9  O   UNL     1      -5.473   0.574   0.320  1.00  0.00    -0.246 OA
BRANCH   8  10
ATOM     10  C   UNL     1      -4.047   2.349  -0.442  1.00  0.00     0.060 A 
ATOM     11  C   UNL     1      -2.590   3.716  -2.396  1.00  0.00     0.006 A 
ATOM     12  C   UNL     1      -3.712   2.954  -2.759  1.00  0.00     0.010 A 
ATOM     13  C   UNL     1      -2.328   3.939  -1.037  1.00  0.00     0.010 A 
ATOM     14  C   UNL     1      -4.435   2.268  -1.783  1.00  0.00     0.016 A 
ATOM     15  C   UNL     1      -3.020   3.222  -0.065  1.00  0.00     0.016 A 
BRANCH  11  16
ATOM     16  C   UNL     1      -1.548   4.085  -3.440  1.00  0.00     0.299 C 
BRANCH  16  17
ATOM     17  N   UNL     1      -0.395   3.142  -3.518  1.00  0.00    -0.331 N 
ATOM     18  C   UNL     1       1.180   0.820  -2.563  1.00  0.00     0.089 C 
ATOM     19  C   UNL     1       1.646   2.264  -2.367  1.00  0.00     0.075 C 
ATOM     20  C   UNL     1       0.310   0.751  -3.821  1.00  0.00     0.075 C 
ATOM     21  C   UNL     1       0.458   3.221  -2.322  1.00  0.00     0.263 C 
ATOM     22  C   UNL     1      -0.838   1.764  -3.792  1.00  0.00     0.263 C 
ATOM     23  H   UNL     1       0.181   3.432  -4.309  1.00  0.00     0.348 HD
BRANCH  18  24
ATOM     24  C   UNL     1       0.458   0.267  -1.331  1.00  0.00     0.220 C 
ATOM     25  N   UNL     1       1.218   0.151  -0.207  1.00  0.00    -0.369 N 
ATOM     26  H   UNL     1       0.820  -0.197   0.623  1.00  0.00     0.159 HD
ATOM     27  H   UNL     1       2.167   0.415  -0.224  1.00  0.00     0.159 HD
ATOM     28  O   UNL     1      -0.712  -0.098  -1.320  1.00  0.00    -0.275 OA
ENDBRANCH  18  24
ENDBRANCH  16  17
ENDBRANCH  11  16
ENDBRANCH   8  10
ENDBRANCH   7   8
ENDBRANCH   6   7
ENDBRANCH   5   6
ENDBRANCH   4   5
ENDBRANCH   3   4
ENDBRANCH   2   3
ENDBRANCH   1   2
BRANCH   1  29
ATOM     29  C   UNL     1      -6.233   5.503   3.205  1.00  0.00     0.188 C 
BRANCH  29  30
ATOM     30  C   UNL     1      -7.721   5.917   3.074  1.00  0.00     0.188 C 
BRANCH  30  31
ATOM     31  O   UNL     1      -8.140   6.274   1.767  1.00  0.00    -0.376 OA
BRANCH  31  32
ATOM     32  C   UNL     1      -8.355   7.647   1.495  1.00  0.00     0.202 C 
BRANCH  32  33
ATOM     33  C   UNL     1      -7.133   8.570   1.584  1.00  0.00     0.261 C 
BRANCH  33  34
ATOM     34  O   UNL     1      -6.425   8.557   2.831  1.00  0.00    -0.460 OA
BRANCH  34  35
ATOM     35  C   UNL     1      -7.094   8.988   3.926  1.00  0.00     0.338 C 
ATOM     36  O   UNL     1      -8.233   9.399   3.976  1.00  0.00    -0.246 OA
BRANCH  35  37
ATOM     37  C   UNL     1      -6.248   8.687   5.101  1.00  0.00     0.060 A 
ATOM     38  C   UNL     1      -6.735   7.822   6.090  1.00  0.00     0.016 A 
ATOM     39  C   UNL     1      -4.974   9.247   5.211  1.00  0.00     0.016 A 
ATOM     40  C   UNL     1      -5.958   7.544   7.215  1.00  0.00     0.010 A 
ATOM     41  C   UNL     1      -4.206   8.983   6.347  1.00  0.00     0.010 A 
ATOM     42  C   UNL     1      -4.710   8.159   7.369  1.00  0.00    -0.014 A 
BRANCH  42  43
ATOM     43  C   UNL     1      -4.017   8.107   8.679  1.00  0.00     0.031 A 
ATOM     44  C   UNL     1      -4.156   9.286   9.603  1.00  0.00     0.074 A 
ATOM     45  C   UNL     1      -3.276   7.045   9.039  1.00  0.00     0.049 A 
ATOM     46  N   UNL     1      -3.610   9.494  10.771  1.00  0.00    -0.248 NA
ATOM     47  C   UNL     1      -5.026  10.381   9.141  1.00  0.00     0.031 C 
ATOM     48  C   UNL     1      -3.076   5.840   8.237  1.00  0.00     0.029 A 
ATOM     49  N   UNL     1      -2.530   6.826  10.171  1.00  0.00    -0.354 N 
ATOM     50  C   UNL     1      -4.044  10.752  11.172  1.00  0.00     0.074 A 
ATOM     51  C   UNL     1      -4.887  11.267  10.115  1.00  0.00     0.031 C 
ATOM     52  C   UNL     1      -2.237   5.017   8.891  1.00  0.00     0.029 A 
ATOM     53  C   UNL     1      -1.819   5.650  10.141  1.00  0.00     0.049 A 
ATOM     54  H   UNL     1      -2.506   7.451  10.931  1.00  0.00     0.167 HD
ATOM     55  C   UNL     1      -3.778  11.415  12.321  1.00  0.00     0.034 A 
ATOM     56  C   UNL     1      -0.915   5.157  11.012  1.00  0.00     0.034 A 
ATOM     57  C   UNL     1      -2.945  10.898  13.372  1.00  0.00     0.049 A 
ATOM     58  C   UNL     1      -0.601   5.934  12.267  1.00  0.00     0.074 A 
ATOM     59  C   UNL     1      -2.643  11.474  14.592  1.00  0.00     0.029 A 
ATOM     60  N   UNL     1      -2.265   9.690  13.320  1.00  0.00    -0.354 N 
ATOM     61  N   UNL     1      -1.102   7.072  12.683  1.00  0.00    -0.248 NA
ATOM     62  C   UNL     1       0.381   5.342  13.188  1.00  0.00     0.031 C 
ATOM     63  C   UNL     1      -1.748  10.633  15.262  1.00  0.00     0.029 A 
ATOM     64  C   UNL     1      -1.531   9.510  14.480  1.00  0.00     0.049 A 
ATOM     65  H   UNL     1      -2.300   9.055  12.569  1.00  0.00     0.167 HD
ATOM     66  C   UNL     1      -0.531   7.310  13.930  1.00  0.00     0.074 A 
ATOM     67  C   UNL     1       0.342   6.189  14.207  1.00  0.00     0.031 C 
ATOM     68  C   UNL     1      -0.706   8.364  14.765  1.00  0.00     0.034 A 
BRANCH  55  69
ATOM     69  C   UNL     1      -4.403  12.773  12.502  1.00  0.00     0.023 A 
ATOM     70  C   UNL     1      -5.792  12.885  12.716  1.00  0.00     0.012 A 
ATOM     71  C   UNL     1      -3.609  13.937  12.499  1.00  0.00     0.148 A 
ATOM     72  C   UNL     1      -6.387  14.135  12.885  1.00  0.00     0.002 A 
ATOM     73  C   UNL     1      -4.201  15.174  12.717  1.00  0.00     0.091 A 
ATOM     74  F   UNL     1      -2.294  13.813  12.270  1.00  0.00    -0.205 F 
ATOM     75  C   UNL     1      -5.591  15.277  12.896  1.00  0.00     0.022 A 
BRANCH  73  76
ATOM     76  S   UNL     1      -3.253  16.695  12.830  1.00  0.00     0.127 S 
ATOM     77  O   UNL     1      -3.660  17.387  11.608  1.00  0.00    -0.237 OA
ATOM     78  O   UNL     1      -3.768  17.286  14.065  1.00  0.00    -0.237 OA
ATOM     79  O   UNL     1      -1.854  16.295  12.884  1.00  0.00    -0.744 OA
ENDBRANCH  73  76
ENDBRANCH  55  69
BRANCH  56  80
ATOM     80  C   UNL     1      -0.257   3.844  10.748  1.00  0.00     0.023 A 
ATOM     81  C   UNL     1      -0.541   2.744  11.580  1.00  0.00     0.012 A 
ATOM     82  C   UNL     1       0.647   3.681   9.680  1.00  0.00     0.148 A 
ATOM     83  C   UNL     1       0.090   1.516  11.377  1.00  0.00     0.002 A 
ATOM     84  C   UNL     1       1.229   2.440   9.447  1.00  0.00     0.091 A 
ATOM     85  F   UNL     1       0.916   4.744   8.908  1.00  0.00    -0.205 F 
ATOM     86  C   UNL     1       0.967   1.361  10.306  1.00  0.00     0.022 A 
BRANCH  84  87
ATOM     87  S   UNL     1       2.276   2.114   8.025  1.00  0.00     0.127 S 
ATOM     88  O   UNL     1       3.574   1.880   8.654  1.00  0.00    -0.237 OA
ATOM     89  O   UNL     1       1.645   0.924   7.454  1.00  0.00    -0.237 OA
ATOM     90  O   UNL     1       2.189   3.302   7.186  1.00  0.00    -0.744 OA
ENDBRANCH  84  87
ENDBRANCH  56  80
BRANCH  68  91
ATOM     91  C   UNL     1       0.017   8.341  16.089  1.00  0.00     0.023 A 
ATOM     92  C   UNL     1       1.413   8.521  16.138  1.00  0.00     0.012 A 
ATOM     93  C   UNL     1      -0.705   8.217  17.294  1.00  0.00     0.148 A 
ATOM     94  C   UNL     1       2.084   8.540  17.361  1.00  0.00     0.002 A 
ATOM     95  C   UNL     1      -0.038   8.291  18.510  1.00  0.00     0.091 A 
ATOM     96  F   UNL     1      -2.032   8.033  17.227  1.00  0.00    -0.205 F 
ATOM     97  C   UNL     1       1.358   8.438  18.546  1.00  0.00     0.022 A 
BRANCH  95  98
ATOM     98  S   UNL     1      -0.899   8.271  20.087  1.00  0.00     0.127 S 
ATOM     99  O   UNL     1      -0.511   6.966  20.621  1.00  0.00    -0.237 OA
ATOM    100  O   UNL     1      -0.305   9.415  20.779  1.00  0.00    -0.237 OA
ATOM    101  O   UNL     1      -2.314   8.421  19.775  1.00  0.00    -0.744 OA
ENDBRANCH  95  98
ENDBRANCH  68  91
ENDBRANCH  42  43
ENDBRANCH  35  37
ENDBRANCH  34  35
ENDBRANCH  33  34
ENDBRANCH  32  33
ENDBRANCH  31  32
ENDBRANCH  30  31
ENDBRANCH  29  30
ENDBRANCH   1  29
TORSDOF 26
