REMARK SMILES O=C(OCCOCCOCCOCCOC(=O)[C@H]1C[C@](O)(c2ccc(Cl)cc2)[C@@H](c2ccc(Cl)cc2)O1)c1ccc(-c2c3nc(c(-c4cccc(S(=O)(=O)[O-])c4F)c4ccc([nH]4)c(-c4cccc(S(=O)(=O)[O-])c4F)c4nc(c(-c5cccc(S(=O)(=O)[O-])c5F)c5ccc2[nH]5)C=C4)C=C3)cc1
REMARK SMILES IDX 8 1 7 2 6 3 5 4 4 5 3 6 2 7 1 8 38 9 39 10 100 11 40 12
REMARK SMILES IDX 99 13 41 14 42 15 43 16 93 17 44 18 98 19 92 20 94 21 45 22
REMARK SMILES IDX 97 23 91 24 90 25 46 27 78 28 58 29 77 30 59 31 62 32 76 33
REMARK SMILES IDX 95 34 60 35 61 36 75 38 96 39 63 40 47 41 48 42 56 43 49 44
REMARK SMILES IDX 51 45 57 46 50 47 52 48 53 49 54 50 55 51 79 52 80 53 88 54
REMARK SMILES IDX 81 55 83 56 89 57 82 58 84 59 85 60 86 61 87 62 64 63 65 64
REMARK SMILES IDX 73 65 66 66 68 67 74 68 67 69 69 70 70 71 71 72 72 73 9 74
REMARK SMILES IDX 10 75 11 76 12 77 13 78 14 79 15 80 16 81 17 82 18 83 19 84
REMARK SMILES IDX 37 85 20 86 29 87 22 88 23 89 28 90 24 91 27 92 25 93 26 94
REMARK SMILES IDX 21 95 30 97 31 98 36 99 32 100 35 101 33 102 34 103
REMARK H PARENT 94 26 62 37 21 96
REMARK Flexibility Score: inf
ROOT
ATOM      1  C   UNL     1       6.984  -4.163   3.367  1.00  0.00     0.188 C 
ENDROOT
BRANCH   1   2
ATOM      2  C   UNL     1       7.223  -3.761   1.909  1.00  0.00     0.188 C 
BRANCH   2   3
ATOM      3  O   UNL     1       7.832  -2.472   1.873  1.00  0.00    -0.376 OA
BRANCH   3   4
ATOM      4  C   UNL     1       7.525  -1.663   0.746  1.00  0.00     0.202 C 
BRANCH   4   5
ATOM      5  C   UNL     1       8.436  -1.912  -0.454  1.00  0.00     0.261 C 
BRANCH   5   6
ATOM      6  O   UNL     1       8.954  -3.249  -0.476  1.00  0.00    -0.460 OA
BRANCH   6   7
ATOM      7  C   UNL     1      10.148  -3.661   0.022  1.00  0.00     0.338 C 
ATOM      8  O   UNL     1      10.487  -4.831  -0.146  1.00  0.00    -0.246 OA
BRANCH   7   9
ATOM      9  C   UNL     1      11.106  -2.740   0.703  1.00  0.00     0.060 A 
ATOM     10  C   UNL     1      10.743  -1.759   1.629  1.00  0.00     0.016 A 
ATOM     11  C   UNL     1      12.472  -2.954   0.474  1.00  0.00     0.016 A 
ATOM     12  C   UNL     1      11.688  -0.951   2.247  1.00  0.00     0.010 A 
ATOM     13  C   UNL     1      13.434  -2.184   1.135  1.00  0.00     0.010 A 
ATOM     14  C   UNL     1      13.041  -1.163   2.010  1.00  0.00    -0.014 A 
BRANCH  14  15
ATOM     15  C   UNL     1      14.026  -0.255   2.628  1.00  0.00     0.031 A 
ATOM     16  C   UNL     1      14.761   0.702   1.742  1.00  0.00     0.074 A 
ATOM     17  C   UNL     1      14.213  -0.268   3.961  1.00  0.00     0.049 A 
ATOM     18  N   UNL     1      15.756   1.495   2.029  1.00  0.00    -0.248 NA
ATOM     19  C   UNL     1      14.314   0.779   0.338  1.00  0.00     0.031 C 
ATOM     20  C   UNL     1      13.480  -1.112   4.909  1.00  0.00     0.029 A 
ATOM     21  N   UNL     1      15.082   0.439   4.750  1.00  0.00    -0.354 N 
ATOM     22  C   UNL     1      16.105   2.103   0.831  1.00  0.00     0.074 A 
ATOM     23  C   UNL     1      15.194   1.621  -0.182  1.00  0.00     0.031 C 
ATOM     24  C   UNL     1      13.941  -0.883   6.150  1.00  0.00     0.029 A 
ATOM     25  C   UNL     1      15.046   0.065   6.075  1.00  0.00     0.049 A 
ATOM     26  H   UNL     1      15.675   1.145   4.404  1.00  0.00     0.167 HD
ATOM     27  C   UNL     1      17.110   2.977   0.603  1.00  0.00     0.034 A 
ATOM     28  C   UNL     1      15.857   0.410   7.094  1.00  0.00     0.034 A 
ATOM     29  C   UNL     1      17.973   3.469   1.637  1.00  0.00     0.049 A 
ATOM     30  C   UNL     1      16.987   1.362   6.802  1.00  0.00     0.074 A 
ATOM     31  C   UNL     1      19.013   4.373   1.535  1.00  0.00     0.029 A 
ATOM     32  N   UNL     1      17.897   3.085   2.969  1.00  0.00    -0.354 N 
ATOM     33  N   UNL     1      17.276   1.978   5.679  1.00  0.00    -0.248 NA
ATOM     34  C   UNL     1      17.906   1.665   7.907  1.00  0.00     0.031 C 
ATOM     35  C   UNL     1      19.583   4.514   2.804  1.00  0.00     0.029 A 
ATOM     36  C   UNL     1      18.887   3.713   3.698  1.00  0.00     0.049 A 
ATOM     37  H   UNL     1      17.234   2.457   3.338  1.00  0.00     0.167 HD
ATOM     38  C   UNL     1      18.404   2.744   5.943  1.00  0.00     0.074 A 
ATOM     39  C   UNL     1      18.722   2.546   7.343  1.00  0.00     0.031 C 
ATOM     40  C   UNL     1      19.136   3.518   5.103  1.00  0.00     0.034 A 
BRANCH  27  41
ATOM     41  C   UNL     1      17.339   3.420  -0.813  1.00  0.00     0.023 A 
ATOM     42  C   UNL     1      16.494   4.381  -1.401  1.00  0.00     0.012 A 
ATOM     43  C   UNL     1      18.411   2.889  -1.556  1.00  0.00     0.148 A 
ATOM     44  C   UNL     1      16.700   4.790  -2.719  1.00  0.00     0.002 A 
ATOM     45  C   UNL     1      18.630   3.325  -2.856  1.00  0.00     0.091 A 
ATOM     46  F   UNL     1      19.185   1.957  -0.981  1.00  0.00    -0.205 F 
ATOM     47  C   UNL     1      17.771   4.269  -3.442  1.00  0.00     0.022 A 
BRANCH  45  48
ATOM     48  S   UNL     1      20.004   2.748  -3.857  1.00  0.00     0.127 S 
ATOM     49  O   UNL     1      19.308   2.064  -4.947  1.00  0.00    -0.237 OA
ATOM     50  O   UNL     1      20.649   4.004  -4.239  1.00  0.00    -0.237 OA
ATOM     51  O   UNL     1      20.800   1.886  -2.996  1.00  0.00    -0.744 OA
ENDBRANCH  45  48
ENDBRANCH  27  41
BRANCH  28  52
ATOM     52  C   UNL     1      15.658  -0.170   8.456  1.00  0.00     0.023 A 
ATOM     53  C   UNL     1      15.309   0.670   9.531  1.00  0.00     0.012 A 
ATOM     54  C   UNL     1      15.805  -1.552   8.694  1.00  0.00     0.148 A 
ATOM     55  C   UNL     1      15.138   0.150  10.817  1.00  0.00     0.002 A 
ATOM     56  C   UNL     1      15.571  -2.071   9.963  1.00  0.00     0.091 A 
ATOM     57  F   UNL     1      16.172  -2.341   7.674  1.00  0.00    -0.205 F 
ATOM     58  C   UNL     1      15.257  -1.221  11.031  1.00  0.00     0.022 A 
BRANCH  56  59
ATOM     59  S   UNL     1      15.558  -3.843  10.266  1.00  0.00     0.127 S 
ATOM     60  O   UNL     1      16.902  -4.071  10.787  1.00  0.00    -0.237 OA
ATOM     61  O   UNL     1      14.483  -3.984  11.251  1.00  0.00    -0.237 OA
ATOM     62  O   UNL     1      15.255  -4.444   8.973  1.00  0.00    -0.744 OA
ENDBRANCH  56  59
ENDBRANCH  28  52
BRANCH  40  63
ATOM     63  C   UNL     1      20.345   4.201   5.676  1.00  0.00     0.023 A 
ATOM     64  C   UNL     1      21.512   3.450   5.914  1.00  0.00     0.012 A 
ATOM     65  C   UNL     1      20.358   5.595   5.869  1.00  0.00     0.148 A 
ATOM     66  C   UNL     1      22.674   4.076   6.355  1.00  0.00     0.002 A 
ATOM     67  C   UNL     1      21.535   6.218   6.261  1.00  0.00     0.091 A 
ATOM     68  F   UNL     1      19.227   6.282   5.652  1.00  0.00    -0.205 F 
ATOM     69  C   UNL     1      22.690   5.461   6.513  1.00  0.00     0.022 A 
BRANCH  67  70
ATOM     70  S   UNL     1      21.675   8.004   6.386  1.00  0.00     0.127 S 
ATOM     71  O   UNL     1      21.723   8.198   7.834  1.00  0.00    -0.237 OA
ATOM     72  O   UNL     1      22.936   8.266   5.692  1.00  0.00    -0.237 OA
ATOM     73  O   UNL     1      20.497   8.546   5.722  1.00  0.00    -0.744 OA
ENDBRANCH  67  70
ENDBRANCH  40  63
ENDBRANCH  14  15
ENDBRANCH   7   9
ENDBRANCH   6   7
ENDBRANCH   5   6
ENDBRANCH   4   5
ENDBRANCH   3   4
ENDBRANCH   2   3
ENDBRANCH   1   2
BRANCH   1  74
ATOM     74  O   UNL     1       6.007  -3.367   4.044  1.00  0.00    -0.377 OA
BRANCH  74  75
ATOM     75  C   UNL     1       6.218  -1.956   4.007  1.00  0.00     0.188 C 
BRANCH  75  76
ATOM     76  C   UNL     1       7.470  -1.355   4.695  1.00  0.00     0.188 C 
BRANCH  76  77
ATOM     77  O   UNL     1       8.493  -2.284   5.052  1.00  0.00    -0.376 OA
BRANCH  77  78
ATOM     78  C   UNL     1       8.756  -2.357   6.460  1.00  0.00     0.202 C 
BRANCH  78  79
ATOM     79  C   UNL     1       7.740  -3.225   7.220  1.00  0.00     0.261 C 
BRANCH  79  80
ATOM     80  O   UNL     1       6.415  -2.803   6.868  1.00  0.00    -0.461 OA
BRANCH  80  81
ATOM     81  C   UNL     1       5.522  -2.393   7.798  1.00  0.00     0.335 C 
ATOM     82  O   UNL     1       5.617  -2.526   9.002  1.00  0.00    -0.249 OA
BRANCH  81  83
ATOM     83  C   UNL     1       4.399  -1.648   7.062  1.00  0.00     0.232 C 
ATOM     84  C   UNL     1       3.254  -1.173   7.922  1.00  0.00     0.087 C 
ATOM     85  O   UNL     1       4.918  -0.507   6.389  1.00  0.00    -0.355 OA
ATOM     86  C   UNL     1       3.382   0.362   8.025  1.00  0.00     0.123 C 
ATOM     87  C   UNL     1       4.576   0.700   7.080  1.00  0.00     0.186 C 
BRANCH  86  88
ATOM     88  C   UNL     1       2.026   1.010   7.674  1.00  0.00    -0.013 A 
ATOM     89  C   UNL     1       0.855   0.522   8.296  1.00  0.00     0.008 A 
ATOM     90  C   UNL     1       1.868   2.072   6.764  1.00  0.00     0.008 A 
ATOM     91  C   UNL     1      -0.412   1.013   7.969  1.00  0.00     0.021 A 
ATOM     92  C   UNL     1       0.599   2.565   6.434  1.00  0.00     0.021 A 
ATOM     93  C   UNL     1      -0.536   2.027   7.029  1.00  0.00     0.041 A 
ATOM     94  Cl  UNL     1      -2.093   2.626   6.609  1.00  0.00    -0.084 Cl
ENDBRANCH  86  88
BRANCH  86  95
ATOM     95  O   UNL     1       3.618   0.724   9.387  1.00  0.00    -0.382 OA
ATOM     96  H   UNL     1       4.462   0.347   9.680  1.00  0.00     0.212 HD
ENDBRANCH  86  95
BRANCH  87  97
ATOM     97  C   UNL     1       5.876   1.302   7.601  1.00  0.00    -0.016 A 
ATOM     98  C   UNL     1       6.693   0.665   8.548  1.00  0.00     0.008 A 
ATOM     99  C   UNL     1       6.361   2.491   7.022  1.00  0.00     0.008 A 
ATOM    100  C   UNL     1       7.956   1.168   8.880  1.00  0.00     0.021 A 
ATOM    101  C   UNL     1       7.619   3.004   7.360  1.00  0.00     0.021 A 
ATOM    102  C   UNL     1       8.417   2.334   8.281  1.00  0.00     0.041 A 
ATOM    103  Cl  UNL     1       9.977   2.938   8.671  1.00  0.00    -0.084 Cl
ENDBRANCH  87  97
ENDBRANCH  81  83
ENDBRANCH  80  81
ENDBRANCH  79  80
ENDBRANCH  78  79
ENDBRANCH  77  78
ENDBRANCH  76  77
ENDBRANCH  75  76
ENDBRANCH  74  75
ENDBRANCH   1  74
TORSDOF 26
