REMARK SMILES C[C@H](C(=O)NC1CCCC1)[N@@H+]1CCn2nc(CCC(=O)OCCOCCOCCOCCOC(=O)c3ccc(-c4c5nc(c(-c6cccc(S(=O)(=O)[O-])c6F)c6ccc([nH]6)c(-c6cccc(S(=O)(=O)[O-])c6F)c6nc(c(-c7cccc(S(=O)(=O)[O-])c7F)c7ccc4[nH]7)C=C6)C=C5)cc3)cc2C1
REMARK SMILES IDX 26 1 25 2 24 3 23 4 22 5 21 6 19 7 20 8 18 9 17 10 16 11
REMARK SMILES IDX 11 12 12 13 101 14 13 16 100 17 14 18 99 19 15 20 2 21 1 22
REMARK SMILES IDX 3 23 4 24 5 25 6 27 7 28 10 29 8 30 9 31 27 32 28 33 29 34
REMARK SMILES IDX 30 35 31 36 32 37 33 38 34 39 35 40 36 41 37 42 98 43 38 44
REMARK SMILES IDX 97 45 39 46 40 47 41 48 91 49 42 50 96 51 90 52 92 53 43 54
REMARK SMILES IDX 95 55 89 56 88 57 44 59 76 60 56 61 75 62 57 63 60 64 74 65
REMARK SMILES IDX 93 66 58 67 59 68 73 70 94 71 61 72 45 73 46 74 54 75 47 76
REMARK SMILES IDX 49 77 55 78 48 79 50 80 51 81 52 82 53 83 77 84 78 85 86 86
REMARK SMILES IDX 79 87 81 88 87 89 80 90 82 91 83 92 84 93 85 94 62 95 63 96
REMARK SMILES IDX 71 97 64 98 66 99 72 100 65 101 67 102 68 103 69 104 70 105
REMARK H PARENT 11 15 5 26 92 58 60 69
REMARK Flexibility Score: inf
ROOT
ATOM      1  C   UNL     1      -5.703   2.500  -5.111  1.00  0.00     0.188 C 
ENDROOT
BRANCH   1   2
ATOM      2  C   UNL     1      -5.702   2.137  -6.614  1.00  0.00     0.188 C 
BRANCH   2   3
ATOM      3  O   UNL     1      -5.355   0.816  -6.967  1.00  0.00    -0.376 OA
BRANCH   3   4
ATOM      4  C   UNL     1      -4.033   0.376  -7.167  1.00  0.00     0.202 C 
BRANCH   4   5
ATOM      5  C   UNL     1      -2.785   1.097  -6.649  1.00  0.00     0.261 C 
BRANCH   5   6
ATOM      6  O   UNL     1      -2.988   2.346  -5.991  1.00  0.00    -0.463 OA
BRANCH   6   7
ATOM      7  C   UNL     1      -2.476   3.454  -6.547  1.00  0.00     0.306 C 
ATOM      8  O   UNL     1      -1.988   3.478  -7.676  1.00  0.00    -0.252 OA
BRANCH   7   9
ATOM      9  C   UNL     1      -2.569   4.728  -5.720  1.00  0.00     0.129 C 
BRANCH   9  10
ATOM     10  C   UNL     1      -3.131   4.854  -4.301  1.00  0.00     0.070 C 
BRANCH  10  11
ATOM     11  C   UNL     1      -2.614   3.961  -3.220  1.00  0.00     0.064 A 
ATOM     12  N   UNL     1      -0.761   1.375   0.012  1.00  0.00    -0.318 N 
ATOM     13  C   UNL     1      -1.724   0.411  -0.525  1.00  0.00     0.287 C 
ATOM     14  C   UNL     1      -1.348   2.732   0.043  1.00  0.00     0.319 C 
ATOM     15  H   UNL     1      -0.614   1.033   0.962  1.00  0.00     0.349 HD
ATOM     16  C   UNL     1      -2.321   0.743  -1.899  1.00  0.00     0.206 C 
ATOM     17  C   UNL     1      -1.906   3.122  -1.282  1.00  0.00     0.093 A 
ATOM     18  N   UNL     1      -2.352   2.167  -2.141  1.00  0.00    -0.258 N 
ATOM     19  C   UNL     1      -2.141   4.319  -1.926  1.00  0.00     0.055 A 
ATOM     20  N   UNL     1      -2.672   2.634  -3.351  1.00  0.00    -0.177 NA
BRANCH  12  21
ATOM     21  C   UNL     1       0.655   1.331  -0.423  1.00  0.00     0.271 C 
ATOM     22  C   UNL     1       1.073   2.119  -1.658  1.00  0.00     0.086 C 
BRANCH  21  23
ATOM     23  C   UNL     1       1.358  -0.044  -0.284  1.00  0.00     0.278 C 
ATOM     24  O   UNL     1       1.966  -0.327   0.758  1.00  0.00    -0.268 OA
ATOM     25  N   UNL     1       1.438  -0.992  -1.260  1.00  0.00    -0.348 N 
ATOM     26  H   UNL     1       2.129  -1.671  -1.085  1.00  0.00     0.163 HD
BRANCH  25  27
ATOM     27  C   UNL     1       0.725  -1.213  -2.498  1.00  0.00     0.082 C 
ATOM     28  C   UNL     1       1.248  -0.491  -3.732  1.00  0.00     0.025 C 
ATOM     29  C   UNL     1       0.809  -2.672  -2.960  1.00  0.00     0.025 C 
ATOM     30  C   UNL     1       0.528  -1.198  -4.876  1.00  0.00     0.002 C 
ATOM     31  C   UNL     1       0.329  -2.638  -4.409  1.00  0.00     0.002 C 
ENDBRANCH  25  27
ENDBRANCH  21  23
ENDBRANCH  12  21
ENDBRANCH  10  11
ENDBRANCH   9  10
ENDBRANCH   7   9
ENDBRANCH   6   7
ENDBRANCH   5   6
ENDBRANCH   4   5
ENDBRANCH   3   4
ENDBRANCH   2   3
ENDBRANCH   1   2
BRANCH   1  32
ATOM     32  O   UNL     1      -6.024   1.607  -4.059  1.00  0.00    -0.377 OA
BRANCH  32  33
ATOM     33  C   UNL     1      -5.789   0.229  -4.246  1.00  0.00     0.188 C 
BRANCH  33  34
ATOM     34  C   UNL     1      -6.956  -0.457  -4.975  1.00  0.00     0.188 C 
BRANCH  34  35
ATOM     35  O   UNL     1      -7.751   0.435  -5.746  1.00  0.00    -0.376 OA
BRANCH  35  36
ATOM     36  C   UNL     1      -8.894   1.094  -5.217  1.00  0.00     0.202 C 
BRANCH  36  37
ATOM     37  C   UNL     1      -8.941   1.789  -3.852  1.00  0.00     0.261 C 
BRANCH  37  38
ATOM     38  O   UNL     1      -8.227   1.170  -2.808  1.00  0.00    -0.460 OA
BRANCH  38  39
ATOM     39  C   UNL     1      -8.613  -0.055  -2.459  1.00  0.00     0.338 C 
ATOM     40  O   UNL     1      -9.485  -0.742  -2.990  1.00  0.00    -0.246 OA
BRANCH  39  41
ATOM     41  C   UNL     1      -7.880  -0.418  -1.248  1.00  0.00     0.060 A 
ATOM     42  C   UNL     1      -8.185  -1.676  -0.739  1.00  0.00     0.016 A 
ATOM     43  C   UNL     1      -7.346   0.618  -0.459  1.00  0.00     0.016 A 
ATOM     44  C   UNL     1      -8.323  -1.772   0.617  1.00  0.00     0.010 A 
ATOM     45  C   UNL     1      -7.500   0.525   0.897  1.00  0.00     0.010 A 
ATOM     46  C   UNL     1      -8.101  -0.625   1.391  1.00  0.00    -0.014 A 
BRANCH  46  47
ATOM     47  C   UNL     1      -8.461  -0.707   2.781  1.00  0.00     0.031 A 
ATOM     48  C   UNL     1      -7.507  -1.547   3.521  1.00  0.00     0.074 A 
ATOM     49  C   UNL     1      -9.530  -0.065   3.283  1.00  0.00     0.049 A 
ATOM     50  N   UNL     1      -7.702  -2.744   3.960  1.00  0.00    -0.248 NA
ATOM     51  C   UNL     1      -6.103  -1.111   3.537  1.00  0.00     0.031 C 
ATOM     52  C   UNL     1     -10.339   0.978   2.645  1.00  0.00     0.029 A 
ATOM     53  N   UNL     1     -10.031  -0.118   4.544  1.00  0.00    -0.354 N 
ATOM     54  C   UNL     1      -6.499  -3.092   4.560  1.00  0.00     0.074 A 
ATOM     55  C   UNL     1      -5.508  -2.194   4.036  1.00  0.00     0.031 C 
ATOM     56  C   UNL     1     -11.037   1.635   3.600  1.00  0.00     0.029 A 
ATOM     57  C   UNL     1     -10.816   0.978   4.877  1.00  0.00     0.049 A 
ATOM     58  H   UNL     1      -9.854  -0.862   5.163  1.00  0.00     0.167 HD
ATOM     59  C   UNL     1      -6.493  -3.849   5.687  1.00  0.00     0.034 A 
ATOM     60  C   UNL     1     -11.147   1.366   6.133  1.00  0.00     0.034 A 
ATOM     61  C   UNL     1      -7.745  -4.548   5.851  1.00  0.00     0.049 A 
ATOM     62  C   UNL     1     -10.946   0.199   7.026  1.00  0.00     0.074 A 
ATOM     63  C   UNL     1      -8.460  -5.465   5.108  1.00  0.00     0.029 A 
ATOM     64  N   UNL     1      -8.627  -4.010   6.757  1.00  0.00    -0.354 N 
ATOM     65  N   UNL     1     -11.668  -0.885   6.966  1.00  0.00    -0.248 NA
ATOM     66  C   UNL     1      -9.661   0.056   7.691  1.00  0.00     0.031 C 
ATOM     67  C   UNL     1      -9.829  -5.137   5.327  1.00  0.00     0.029 A 
ATOM     68  C   UNL     1      -9.888  -4.074   6.232  1.00  0.00     0.049 A 
ATOM     69  H   UNL     1      -8.391  -3.640   7.638  1.00  0.00     0.167 HD
ATOM     70  C   UNL     1     -10.755  -1.917   7.150  1.00  0.00     0.074 A 
ATOM     71  C   UNL     1      -9.571  -1.277   7.718  1.00  0.00     0.031 C 
ATOM     72  C   UNL     1     -10.939  -3.128   6.544  1.00  0.00     0.034 A 
BRANCH  59  73
ATOM     73  C   UNL     1      -5.564  -3.603   6.856  1.00  0.00     0.023 A 
ATOM     74  C   UNL     1      -5.637  -4.522   7.924  1.00  0.00     0.012 A 
ATOM     75  C   UNL     1      -4.862  -2.397   7.100  1.00  0.00     0.148 A 
ATOM     76  C   UNL     1      -5.109  -4.225   9.184  1.00  0.00     0.002 A 
ATOM     77  C   UNL     1      -4.272  -2.139   8.329  1.00  0.00     0.091 A 
ATOM     78  F   UNL     1      -4.863  -1.413   6.199  1.00  0.00    -0.205 F 
ATOM     79  C   UNL     1      -4.423  -3.034   9.387  1.00  0.00     0.022 A 
BRANCH  77  80
ATOM     80  S   UNL     1      -3.347  -0.625   8.627  1.00  0.00     0.127 S 
ATOM     81  O   UNL     1      -4.263   0.108   9.494  1.00  0.00    -0.237 OA
ATOM     82  O   UNL     1      -2.144  -1.139   9.283  1.00  0.00    -0.237 OA
ATOM     83  O   UNL     1      -3.106  -0.043   7.312  1.00  0.00    -0.744 OA
ENDBRANCH  77  80
ENDBRANCH  59  73
BRANCH  60  84
ATOM     84  C   UNL     1     -11.316   2.739   6.662  1.00  0.00     0.023 A 
ATOM     85  C   UNL     1     -12.030   2.947   7.858  1.00  0.00     0.012 A 
ATOM     86  C   UNL     1     -10.558   3.814   6.143  1.00  0.00     0.148 A 
ATOM     87  C   UNL     1     -11.974   4.177   8.526  1.00  0.00     0.002 A 
ATOM     88  C   UNL     1     -10.518   5.038   6.801  1.00  0.00     0.091 A 
ATOM     89  F   UNL     1      -9.804   3.607   5.056  1.00  0.00    -0.205 F 
ATOM     90  C   UNL     1     -11.215   5.220   8.001  1.00  0.00     0.022 A 
BRANCH  88  91
ATOM     91  S   UNL     1      -9.548   6.423   6.188  1.00  0.00     0.127 S 
ATOM     92  O   UNL     1     -10.534   7.505   6.193  1.00  0.00    -0.237 OA
ATOM     93  O   UNL     1      -8.507   6.539   7.205  1.00  0.00    -0.237 OA
ATOM     94  O   UNL     1      -9.091   6.036   4.859  1.00  0.00    -0.744 OA
ENDBRANCH  88  91
ENDBRANCH  60  84
BRANCH  72  95
ATOM     95  C   UNL     1     -12.290  -3.412   5.937  1.00  0.00     0.023 A 
ATOM     96  C   UNL     1     -12.800  -2.686   4.841  1.00  0.00     0.012 A 
ATOM     97  C   UNL     1     -12.983  -4.549   6.382  1.00  0.00     0.148 A 
ATOM     98  C   UNL     1     -13.989  -3.076   4.217  1.00  0.00     0.002 A 
ATOM     99  C   UNL     1     -14.137  -4.963   5.729  1.00  0.00     0.091 A 
ATOM    100  F   UNL     1     -12.482  -5.229   7.425  1.00  0.00    -0.205 F 
ATOM    101  C   UNL     1     -14.650  -4.223   4.652  1.00  0.00     0.022 A 
BRANCH  99 102
ATOM    102  S   UNL     1     -14.953  -6.500   6.161  1.00  0.00     0.127 S 
ATOM    103  O   UNL     1     -16.127  -6.029   6.893  1.00  0.00    -0.237 OA
ATOM    104  O   UNL     1     -15.242  -7.082   4.849  1.00  0.00    -0.237 OA
ATOM    105  O   UNL     1     -13.987  -7.260   6.946  1.00  0.00    -0.744 OA
ENDBRANCH  99 102
ENDBRANCH  72  95
ENDBRANCH  46  47
ENDBRANCH  39  41
ENDBRANCH  38  39
ENDBRANCH  37  38
ENDBRANCH  36  37
ENDBRANCH  35  36
ENDBRANCH  34  35
ENDBRANCH  33  34
ENDBRANCH  32  33
ENDBRANCH   1  32
TORSDOF 28
