REMARK SMILES O=C(OCCOCCOCCOCCOC(=O)[C@H]1CC(=O)N(Cc2ccc(OCc3ccccc3)cc2)C1)c1ccc(-c2c3nc(c(-c4cccc(S(=O)(=O)[O-])c4F)c4ccc([nH]4)c(-c4cccc(S(=O)(=O)[O-])c4F)c4nc(c(-c5cccc(S(=O)(=O)[O-])c5F)c5ccc2[nH]5)C=C4)C=C3)cc1
REMARK SMILES IDX 10 1 9 2 8 3 7 4 6 5 5 6 4 7 3 8 2 9 1 10 39 11 40 12 101 13
REMARK SMILES IDX 41 14 100 15 42 16 43 17 44 18 94 19 45 20 99 21 93 22 95 23
REMARK SMILES IDX 46 24 98 25 92 26 91 27 47 29 79 30 59 31 78 32 60 33 63 34
REMARK SMILES IDX 77 35 96 36 61 37 62 38 76 40 97 41 64 42 48 43 49 44 57 45
REMARK SMILES IDX 50 46 52 47 58 48 51 49 53 50 54 51 55 52 56 53 80 54 81 55
REMARK SMILES IDX 89 56 82 57 84 58 90 59 83 60 85 61 86 62 87 63 88 64 65 65
REMARK SMILES IDX 66 66 74 67 67 68 69 69 75 70 68 71 70 72 71 73 72 74 73 75
REMARK SMILES IDX 11 76 12 77 13 78 14 79 15 80 16 81 17 82 18 83 19 84 38 85
REMARK SMILES IDX 20 86 22 87 21 88 23 89 24 90 25 91 37 92 26 93 36 94 27 95
REMARK SMILES IDX 28 96 29 97 30 98 31 99 35 100 32 101 34 102 33 103
REMARK H PARENT 95 28 63 39
REMARK Flexibility Score: inf
ROOT
ATOM      1  C   UNL     1       5.533  -3.955   6.561  1.00  0.00     0.188 C 
ENDROOT
BRANCH   1   2
ATOM      2  O   UNL     1       6.633  -4.859   6.601  1.00  0.00    -0.377 OA
BRANCH   2   3
ATOM      3  C   UNL     1       6.960  -5.356   7.899  1.00  0.00     0.188 C 
BRANCH   3   4
ATOM      4  C   UNL     1       6.959  -4.300   9.004  1.00  0.00     0.188 C 
BRANCH   4   5
ATOM      5  O   UNL     1       5.665  -3.740   9.198  1.00  0.00    -0.376 OA
BRANCH   5   6
ATOM      6  C   UNL     1       5.562  -2.339   9.434  1.00  0.00     0.202 C 
BRANCH   6   7
ATOM      7  C   UNL     1       6.285  -1.800  10.661  1.00  0.00     0.261 C 
BRANCH   7   8
ATOM      8  O   UNL     1       7.145  -2.713  11.363  1.00  0.00    -0.460 OA
BRANCH   8   9
ATOM      9  C   UNL     1       6.923  -3.764  12.180  1.00  0.00     0.338 C 
ATOM     10  O   UNL     1       7.904  -4.327  12.668  1.00  0.00    -0.246 OA
BRANCH   9  11
ATOM     11  C   UNL     1       5.585  -4.308  12.525  1.00  0.00     0.060 A 
ATOM     12  C   UNL     1       4.446  -4.171  11.743  1.00  0.00     0.016 A 
ATOM     13  C   UNL     1       5.491  -5.096  13.682  1.00  0.00     0.016 A 
ATOM     14  C   UNL     1       3.240  -4.730  12.084  1.00  0.00     0.010 A 
ATOM     15  C   UNL     1       4.279  -5.682  14.046  1.00  0.00     0.010 A 
ATOM     16  C   UNL     1       3.152  -5.466  13.249  1.00  0.00    -0.014 A 
BRANCH  16  17
ATOM     17  C   UNL     1       1.797  -5.774  13.689  1.00  0.00     0.031 A 
ATOM     18  C   UNL     1       1.236  -4.904  14.762  1.00  0.00     0.074 A 
ATOM     19  C   UNL     1       1.079  -6.677  13.004  1.00  0.00     0.049 A 
ATOM     20  N   UNL     1       0.114  -5.017  15.405  1.00  0.00    -0.248 NA
ATOM     21  C   UNL     1       2.048  -3.736  15.162  1.00  0.00     0.031 C 
ATOM     22  C   UNL     1       1.548  -7.407  11.819  1.00  0.00     0.029 A 
ATOM     23  N   UNL     1      -0.192  -7.130  13.195  1.00  0.00    -0.354 N 
ATOM     24  C   UNL     1       0.129  -4.000  16.348  1.00  0.00     0.074 A 
ATOM     25  C   UNL     1       1.341  -3.242  16.165  1.00  0.00     0.031 C 
ATOM     26  C   UNL     1       0.584  -8.248  11.414  1.00  0.00     0.029 A 
ATOM     27  C   UNL     1      -0.518  -8.172  12.361  1.00  0.00     0.049 A 
ATOM     28  H   UNL     1      -0.811  -6.750  13.860  1.00  0.00     0.167 HD
ATOM     29  C   UNL     1      -0.792  -3.765  17.304  1.00  0.00     0.034 A 
ATOM     30  C   UNL     1      -1.560  -9.016  12.435  1.00  0.00     0.034 A 
ATOM     31  C   UNL     1      -1.977  -4.563  17.421  1.00  0.00     0.049 A 
ATOM     32  C   UNL     1      -2.536  -8.777  13.554  1.00  0.00     0.074 A 
ATOM     33  C   UNL     1      -2.993  -4.474  18.348  1.00  0.00     0.029 A 
ATOM     34  N   UNL     1      -2.284  -5.621  16.572  1.00  0.00    -0.354 N 
ATOM     35  N   UNL     1      -2.530  -7.824  14.460  1.00  0.00    -0.248 NA
ATOM     36  C   UNL     1      -3.658  -9.712  13.669  1.00  0.00     0.031 C 
ATOM     37  C   UNL     1      -3.892  -5.514  18.087  1.00  0.00     0.029 A 
ATOM     38  C   UNL     1      -3.463  -6.215  16.966  1.00  0.00     0.049 A 
ATOM     39  H   UNL     1      -1.739  -5.904  15.803  1.00  0.00     0.167 HD
ATOM     40  C   UNL     1      -3.657  -8.027  15.239  1.00  0.00     0.074 A 
ATOM     41  C   UNL     1      -4.335  -9.184  14.679  1.00  0.00     0.031 C 
ATOM     42  C   UNL     1      -4.096  -7.343  16.325  1.00  0.00     0.034 A 
BRANCH  29  43
ATOM     43  C   UNL     1      -0.485  -2.699  18.315  1.00  0.00     0.023 A 
ATOM     44  C   UNL     1      -0.512  -1.335  17.962  1.00  0.00     0.012 A 
ATOM     45  C   UNL     1      -0.131  -3.067  19.628  1.00  0.00     0.148 A 
ATOM     46  C   UNL     1      -0.159  -0.356  18.892  1.00  0.00     0.002 A 
ATOM     47  C   UNL     1       0.170  -2.086  20.562  1.00  0.00     0.091 A 
ATOM     48  F   UNL     1      -0.069  -4.372  19.928  1.00  0.00    -0.205 F 
ATOM     49  C   UNL     1       0.172  -0.731  20.193  1.00  0.00     0.022 A 
BRANCH  47  50
ATOM     50  S   UNL     1       0.547  -2.464  22.275  1.00  0.00     0.127 S 
ATOM     51  O   UNL     1       1.926  -1.988  22.388  1.00  0.00    -0.237 OA
ATOM     52  O   UNL     1      -0.439  -1.652  22.986  1.00  0.00    -0.237 OA
ATOM     53  O   UNL     1       0.378  -3.903  22.421  1.00  0.00    -0.744 OA
ENDBRANCH  47  50
ENDBRANCH  29  43
BRANCH  30  54
ATOM     54  C   UNL     1      -1.681 -10.161  11.489  1.00  0.00     0.023 A 
ATOM     55  C   UNL     1      -2.765 -10.220  10.594  1.00  0.00     0.012 A 
ATOM     56  C   UNL     1      -0.712 -11.187  11.457  1.00  0.00     0.148 A 
ATOM     57  C   UNL     1      -2.901 -11.294   9.711  1.00  0.00     0.002 A 
ATOM     58  C   UNL     1      -0.823 -12.224  10.537  1.00  0.00     0.091 A 
ATOM     59  F   UNL     1       0.308 -11.127  12.324  1.00  0.00    -0.205 F 
ATOM     60  C   UNL     1      -1.928 -12.290   9.676  1.00  0.00     0.022 A 
BRANCH  58  61
ATOM     61  S   UNL     1       0.449 -13.478  10.339  1.00  0.00     0.127 S 
ATOM     62  O   UNL     1      -0.205 -14.658  10.897  1.00  0.00    -0.237 OA
ATOM     63  O   UNL     1       0.628 -13.501   8.886  1.00  0.00    -0.237 OA
ATOM     64  O   UNL     1       1.606 -12.986  11.075  1.00  0.00    -0.744 OA
ENDBRANCH  58  61
ENDBRANCH  30  54
BRANCH  42  65
ATOM     65  C   UNL     1      -5.383  -7.807  16.937  1.00  0.00     0.023 A 
ATOM     66  C   UNL     1      -5.410  -8.984  17.708  1.00  0.00     0.012 A 
ATOM     67  C   UNL     1      -6.532  -7.001  16.838  1.00  0.00     0.148 A 
ATOM     68  C   UNL     1      -6.580  -9.366  18.356  1.00  0.00     0.002 A 
ATOM     69  C   UNL     1      -7.673  -7.355  17.538  1.00  0.00     0.091 A 
ATOM     70  F   UNL     1      -6.473  -5.894  16.083  1.00  0.00    -0.205 F 
ATOM     71  C   UNL     1      -7.704  -8.544  18.285  1.00  0.00     0.022 A 
BRANCH  69  72
ATOM     72  S   UNL     1      -9.119  -6.297  17.604  1.00  0.00     0.127 S 
ATOM     73  O   UNL     1     -10.096  -7.083  16.852  1.00  0.00    -0.237 OA
ATOM     74  O   UNL     1      -9.374  -6.218  19.042  1.00  0.00    -0.237 OA
ATOM     75  O   UNL     1      -8.729  -5.037  16.987  1.00  0.00    -0.744 OA
ENDBRANCH  69  72
ENDBRANCH  42  65
ENDBRANCH  16  17
ENDBRANCH   9  11
ENDBRANCH   8   9
ENDBRANCH   7   8
ENDBRANCH   6   7
ENDBRANCH   5   6
ENDBRANCH   4   5
ENDBRANCH   3   4
ENDBRANCH   2   3
ENDBRANCH   1   2
BRANCH   1  76
ATOM     76  C   UNL     1       4.128  -4.468   6.934  1.00  0.00     0.188 C 
BRANCH  76  77
ATOM     77  O   UNL     1       4.158  -5.711   7.595  1.00  0.00    -0.376 OA
BRANCH  77  78
ATOM     78  C   UNL     1       3.934  -6.872   6.811  1.00  0.00     0.202 C 
BRANCH  78  79
ATOM     79  C   UNL     1       4.547  -7.061   5.397  1.00  0.00     0.261 C 
BRANCH  79  80
ATOM     80  O   UNL     1       5.002  -5.903   4.658  1.00  0.00    -0.463 OA
BRANCH  80  81
ATOM     81  C   UNL     1       4.177  -5.325   3.757  1.00  0.00     0.311 C 
ATOM     82  O   UNL     1       3.038  -5.715   3.526  1.00  0.00    -0.252 OA
BRANCH  81  83
ATOM     83  C   UNL     1       4.742  -4.070   3.092  1.00  0.00     0.128 C 
ATOM     84  C   UNL     1       4.024  -2.815   3.606  1.00  0.00     0.117 C 
ATOM     85  C   UNL     1       6.237  -3.757   3.219  1.00  0.00     0.135 C 
ATOM     86  C   UNL     1       5.073  -1.739   3.608  1.00  0.00     0.223 C 
ATOM     87  N   UNL     1       6.309  -2.312   3.380  1.00  0.00    -0.337 N 
ATOM     88  O   UNL     1       4.843  -0.545   3.782  1.00  0.00    -0.275 OA
BRANCH  87  89
ATOM     89  C   UNL     1       7.512  -1.514   3.165  1.00  0.00     0.155 C 
BRANCH  89  90
ATOM     90  C   UNL     1       8.589  -1.565   4.226  1.00  0.00    -0.028 A 
ATOM     91  C   UNL     1       9.034  -0.385   4.848  1.00  0.00     0.009 A 
ATOM     92  C   UNL     1       9.273  -2.750   4.517  1.00  0.00     0.009 A 
ATOM     93  C   UNL     1      10.126  -0.398   5.725  1.00  0.00     0.047 A 
ATOM     94  C   UNL     1      10.363  -2.762   5.398  1.00  0.00     0.047 A 
ATOM     95  C   UNL     1      10.797  -1.588   6.009  1.00  0.00     0.119 A 
BRANCH  95  96
ATOM     96  O   UNL     1      11.839  -1.470   6.888  1.00  0.00    -0.489 OA
BRANCH  96  97
ATOM     97  C   UNL     1      12.508  -2.662   7.319  1.00  0.00     0.265 C 
BRANCH  97  98
ATOM     98  C   UNL     1      11.679  -3.528   8.239  1.00  0.00    -0.011 A 
ATOM     99  C   UNL     1      10.876  -2.946   9.226  1.00  0.00     0.007 A 
ATOM    100  C   UNL     1      11.719  -4.927   8.131  1.00  0.00     0.007 A 
ATOM    101  C   UNL     1      10.127  -3.748  10.080  1.00  0.00     0.000 A 
ATOM    102  C   UNL     1      10.939  -5.726   8.968  1.00  0.00     0.000 A 
ATOM    103  C   UNL     1      10.145  -5.135   9.945  1.00  0.00     0.000 A 
ENDBRANCH  97  98
ENDBRANCH  96  97
ENDBRANCH  95  96
ENDBRANCH  89  90
ENDBRANCH  87  89
ENDBRANCH  81  83
ENDBRANCH  80  81
ENDBRANCH  79  80
ENDBRANCH  78  79
ENDBRANCH  77  78
ENDBRANCH  76  77
ENDBRANCH   1  76
TORSDOF 28
