REMARK SMILES CSc1ncccc1C(=O)N1CSC[C@H]1C(=O)OCCOCCOCCOCCOC(=O)c1ccc(-c2c3nc(c(-c4cccc(S(=O)(=O)[O-])c4F)c4ccc([nH]4)c(-c4cccc(S(=O)(=O)[O-])c4F)c4nc(c(-c5cccc(S(=O)(=O)[O-])c5F)c5ccc2[nH]5)C=C4)C=C3)cc1
REMARK SMILES IDX 24 1 23 2 22 3 21 4 20 5 19 6 18 7 16 8 17 9 15 10 11 11
REMARK SMILES IDX 12 12 13 13 14 14 9 15 10 16 8 17 3 18 4 19 5 20 7 21 6 22
REMARK SMILES IDX 2 23 1 24 25 25 26 26 27 27 28 28 29 29 30 30 31 31 32 32
REMARK SMILES IDX 33 33 34 34 95 35 35 36 94 37 36 38 37 39 38 40 88 41 39 42
REMARK SMILES IDX 93 43 87 44 89 45 40 46 92 47 86 48 85 49 41 51 73 52 53 53
REMARK SMILES IDX 72 54 54 55 57 56 71 57 90 58 55 59 56 60 70 62 91 63 58 64
REMARK SMILES IDX 42 65 43 66 51 67 44 68 46 69 52 70 45 71 47 72 48 73 49 74
REMARK SMILES IDX 50 75 74 76 75 77 83 78 76 79 78 80 84 81 77 82 79 83 80 84
REMARK SMILES IDX 81 85 82 86 59 87 60 88 68 89 61 90 63 91 69 92 62 93 64 94
REMARK SMILES IDX 65 95 66 96 67 97
REMARK H PARENT 89 50 57 61
REMARK Flexibility Score: inf
ROOT
ATOM      1  O   UNL     1       2.996  -5.526  -2.141  1.00  0.00    -0.377 OA
ENDROOT
BRANCH   1   2
ATOM      2  C   UNL     1       1.806  -4.917  -2.606  1.00  0.00     0.188 C 
BRANCH   2   3
ATOM      3  C   UNL     1       0.659  -5.885  -2.959  1.00  0.00     0.188 C 
BRANCH   3   4
ATOM      4  O   UNL     1       0.869  -7.292  -3.087  1.00  0.00    -0.376 OA
BRANCH   4   5
ATOM      5  C   UNL     1       2.177  -7.804  -3.288  1.00  0.00     0.202 C 
BRANCH   5   6
ATOM      6  C   UNL     1       2.909  -7.407  -4.582  1.00  0.00     0.261 C 
BRANCH   6   7
ATOM      7  O   UNL     1       2.857  -6.004  -4.935  1.00  0.00    -0.462 OA
BRANCH   7   8
ATOM      8  C   UNL     1       1.962  -5.660  -5.894  1.00  0.00     0.329 C 
ATOM      9  O   UNL     1       1.306  -6.478  -6.538  1.00  0.00    -0.250 OA
BRANCH   8  10
ATOM     10  C   UNL     1       1.939  -4.156  -6.271  1.00  0.00     0.206 C 
ATOM     11  N   UNL     1       2.318  -2.998  -5.418  1.00  0.00    -0.315 N 
ATOM     12  C   UNL     1       3.722  -2.666  -5.505  1.00  0.00     0.191 C 
ATOM     13  S   UNL     1       4.097  -2.835  -7.261  1.00  0.00    -0.138 SA
ATOM     14  C   UNL     1       2.785  -4.062  -7.552  1.00  0.00     0.108 C 
BRANCH  11  15
ATOM     15  C   UNL     1       1.320  -2.240  -4.785  1.00  0.00     0.258 C 
ATOM     16  O   UNL     1       0.229  -2.742  -4.521  1.00  0.00    -0.269 OA
BRANCH  15  17
ATOM     17  C   UNL     1       1.485  -0.762  -4.583  1.00  0.00     0.072 A 
ATOM     18  C   UNL     1       1.011  -0.044  -3.475  1.00  0.00     0.108 A 
ATOM     19  N   UNL     1       1.058   1.321  -3.411  1.00  0.00    -0.249 NA
ATOM     20  C   UNL     1       1.544   2.003  -4.463  1.00  0.00     0.112 A 
ATOM     21  C   UNL     1       1.962  -0.003  -5.666  1.00  0.00     0.018 A 
ATOM     22  C   UNL     1       2.003   1.389  -5.606  1.00  0.00     0.021 A 
BRANCH  18  23
ATOM     23  S   UNL     1       0.220  -0.757  -2.046  1.00  0.00    -0.109 SA
ATOM     24  C   UNL     1       0.851   0.354  -0.747  1.00  0.00     0.092 C 
ENDBRANCH  18  23
ENDBRANCH  15  17
ENDBRANCH  11  15
ENDBRANCH   8  10
ENDBRANCH   7   8
ENDBRANCH   6   7
ENDBRANCH   5   6
ENDBRANCH   4   5
ENDBRANCH   3   4
ENDBRANCH   2   3
ENDBRANCH   1   2
BRANCH   1  25
ATOM     25  C   UNL     1       3.226  -5.466  -0.747  1.00  0.00     0.188 C 
BRANCH  25  26
ATOM     26  C   UNL     1       2.046  -5.891   0.140  1.00  0.00     0.188 C 
BRANCH  26  27
ATOM     27  O   UNL     1       0.862  -5.141  -0.097  1.00  0.00    -0.376 OA
BRANCH  27  28
ATOM     28  C   UNL     1       0.595  -4.002   0.708  1.00  0.00     0.202 C 
BRANCH  28  29
ATOM     29  C   UNL     1       1.549  -2.805   0.609  1.00  0.00     0.261 C 
BRANCH  29  30
ATOM     30  O   UNL     1       2.925  -2.995   0.942  1.00  0.00    -0.460 OA
BRANCH  30  31
ATOM     31  C   UNL     1       3.244  -3.537   2.132  1.00  0.00     0.338 C 
ATOM     32  O   UNL     1       2.495  -3.824   3.038  1.00  0.00    -0.246 OA
BRANCH  31  33
ATOM     33  C   UNL     1       4.666  -3.928   2.018  1.00  0.00     0.060 A 
ATOM     34  C   UNL     1       5.004  -5.274   2.203  1.00  0.00     0.016 A 
ATOM     35  C   UNL     1       5.639  -2.990   1.660  1.00  0.00     0.016 A 
ATOM     36  C   UNL     1       6.330  -5.678   2.075  1.00  0.00     0.010 A 
ATOM     37  C   UNL     1       6.970  -3.392   1.553  1.00  0.00     0.010 A 
ATOM     38  C   UNL     1       7.323  -4.729   1.804  1.00  0.00    -0.014 A 
BRANCH  38  39
ATOM     39  C   UNL     1       8.741  -5.087   2.022  1.00  0.00     0.031 A 
ATOM     40  C   UNL     1       9.361  -4.718   3.341  1.00  0.00     0.074 A 
ATOM     41  C   UNL     1       9.456  -5.731   1.084  1.00  0.00     0.049 A 
ATOM     42  N   UNL     1      10.576  -4.919   3.772  1.00  0.00    -0.248 NA
ATOM     43  C   UNL     1       8.487  -4.024   4.303  1.00  0.00     0.031 C 
ATOM     44  C   UNL     1       8.955  -6.151  -0.223  1.00  0.00     0.029 A 
ATOM     45  N   UNL     1      10.768  -6.129   1.088  1.00  0.00    -0.354 N 
ATOM     46  C   UNL     1      10.625  -4.347   5.037  1.00  0.00     0.074 A 
ATOM     47  C   UNL     1       9.322  -3.780   5.300  1.00  0.00     0.031 C 
ATOM     48  C   UNL     1       9.957  -6.732  -0.905  1.00  0.00     0.029 A 
ATOM     49  C   UNL     1      11.173  -6.701  -0.093  1.00  0.00     0.049 A 
ATOM     50  H   UNL     1      11.364  -6.015   1.864  1.00  0.00     0.167 HD
ATOM     51  C   UNL     1      11.660  -4.304   5.907  1.00  0.00     0.034 A 
ATOM     52  C   UNL     1      12.391  -7.131  -0.476  1.00  0.00     0.034 A 
ATOM     53  C   UNL     1      12.950  -4.877   5.641  1.00  0.00     0.049 A 
ATOM     54  C   UNL     1      13.539  -7.042   0.497  1.00  0.00     0.074 A 
ATOM     55  C   UNL     1      14.052  -4.938   6.473  1.00  0.00     0.029 A 
ATOM     56  N   UNL     1      13.320  -5.463   4.440  1.00  0.00    -0.354 N 
ATOM     57  N   UNL     1      13.542  -6.606   1.735  1.00  0.00    -0.248 NA
ATOM     58  C   UNL     1      14.844  -7.532   0.032  1.00  0.00     0.031 C 
ATOM     59  C   UNL     1      15.104  -5.519   5.758  1.00  0.00     0.029 A 
ATOM     60  C   UNL     1      14.642  -5.867   4.497  1.00  0.00     0.049 A 
ATOM     61  H   UNL     1      12.728  -5.576   3.661  1.00  0.00     0.167 HD
ATOM     62  C   UNL     1      14.835  -6.807   2.209  1.00  0.00     0.074 A 
ATOM     63  C   UNL     1      15.582  -7.417   1.128  1.00  0.00     0.031 C 
ATOM     64  C   UNL     1      15.358  -6.510   3.425  1.00  0.00     0.034 A 
BRANCH  51  65
ATOM     65  C   UNL     1      11.433  -3.604   7.221  1.00  0.00     0.023 A 
ATOM     66  C   UNL     1      10.581  -4.173   8.190  1.00  0.00     0.012 A 
ATOM     67  C   UNL     1      12.082  -2.387   7.502  1.00  0.00     0.148 A 
ATOM     68  C   UNL     1      10.343  -3.518   9.399  1.00  0.00     0.002 A 
ATOM     69  C   UNL     1      11.881  -1.766   8.729  1.00  0.00     0.091 A 
ATOM     70  F   UNL     1      12.865  -1.847   6.558  1.00  0.00    -0.205 F 
ATOM     71  C   UNL     1      11.001  -2.322   9.671  1.00  0.00     0.022 A 
BRANCH  69  72
ATOM     72  S   UNL     1      12.744  -0.265   9.203  1.00  0.00     0.127 S 
ATOM     73  O   UNL     1      11.664   0.720   9.167  1.00  0.00    -0.237 OA
ATOM     74  O   UNL     1      13.221  -0.598  10.546  1.00  0.00    -0.237 OA
ATOM     75  O   UNL     1      13.796  -0.077   8.214  1.00  0.00    -0.744 OA
ENDBRANCH  69  72
ENDBRANCH  51  65
BRANCH  52  76
ATOM     76  C   UNL     1      12.581  -7.721  -1.831  1.00  0.00     0.023 A 
ATOM     77  C   UNL     1      12.856  -9.097  -1.958  1.00  0.00     0.012 A 
ATOM     78  C   UNL     1      12.467  -6.933  -2.993  1.00  0.00     0.148 A 
ATOM     79  C   UNL     1      13.040  -9.672  -3.216  1.00  0.00     0.002 A 
ATOM     80  C   UNL     1      12.597  -7.523  -4.245  1.00  0.00     0.091 A 
ATOM     81  F   UNL     1      12.217  -5.624  -2.849  1.00  0.00    -0.205 F 
ATOM     82  C   UNL     1      12.901  -8.888  -4.359  1.00  0.00     0.022 A 
BRANCH  80  83
ATOM     83  S   UNL     1      12.315  -6.621  -5.772  1.00  0.00     0.127 S 
ATOM     84  O   UNL     1      13.640  -6.647  -6.385  1.00  0.00    -0.237 OA
ATOM     85  O   UNL     1      11.313  -7.460  -6.431  1.00  0.00    -0.237 OA
ATOM     86  O   UNL     1      11.833  -5.306  -5.374  1.00  0.00    -0.744 OA
ENDBRANCH  80  83
ENDBRANCH  52  76
BRANCH  64  87
ATOM     87  C   UNL     1      16.798  -6.878   3.678  1.00  0.00     0.023 A 
ATOM     88  C   UNL     1      17.834  -6.164   3.046  1.00  0.00     0.012 A 
ATOM     89  C   UNL     1      17.122  -7.886   4.610  1.00  0.00     0.148 A 
ATOM     90  C   UNL     1      19.169  -6.472   3.308  1.00  0.00     0.002 A 
ATOM     91  C   UNL     1      18.452  -8.149   4.908  1.00  0.00     0.091 A 
ATOM     92  F   UNL     1      16.121  -8.564   5.191  1.00  0.00    -0.205 F 
ATOM     93  C   UNL     1      19.478  -7.454   4.247  1.00  0.00     0.022 A 
BRANCH  91  94
ATOM     94  S   UNL     1      18.942  -9.321   6.178  1.00  0.00     0.127 S 
ATOM     95  O   UNL     1      19.515 -10.403   5.378  1.00  0.00    -0.237 OA
ATOM     96  O   UNL     1      19.917  -8.550   6.950  1.00  0.00    -0.237 OA
ATOM     97  O   UNL     1      17.726  -9.660   6.904  1.00  0.00    -0.744 OA
ENDBRANCH  91  94
ENDBRANCH  64  87
ENDBRANCH  38  39
ENDBRANCH  31  33
ENDBRANCH  30  31
ENDBRANCH  29  30
ENDBRANCH  28  29
ENDBRANCH  27  28
ENDBRANCH  26  27
ENDBRANCH  25  26
ENDBRANCH   1  25
TORSDOF 26
