REMARK SMILES COc1ccc(OC)c(N2C(=O)c3ccc(C(=O)OCCOCCOCCOCCOC(=O)c4ccc(-c5c6nc(c(-c7cccc(S(=O)(=O)[O-])c7F)c7ccc([nH]7)c(-c7cccc(S(=O)(=O)[O-])c7F)c7nc(c(-c8cccc(S(=O)(=O)[O-])c8F)c8ccc5[nH]8)C=C7)C=C6)cc4)cc3C2=O)c1
REMARK SMILES IDX 26 1 25 2 24 3 23 4 22 5 21 6 20 7 19 8 17 9 18 10 16 11
REMARK SMILES IDX 10 12 11 13 99 14 12 15 13 16 98 17 100 18 14 19 97 20 15 21
REMARK SMILES IDX 9 22 3 23 4 24 101 25 5 26 6 27 2 28 1 29 7 30 8 31 27 32
REMARK SMILES IDX 28 33 29 34 30 35 31 36 32 37 33 38 34 39 35 40 96 41 36 42
REMARK SMILES IDX 95 43 37 44 38 45 39 46 89 47 40 48 94 49 88 50 90 51 41 52
REMARK SMILES IDX 93 53 87 54 86 55 42 57 74 58 54 59 73 60 55 61 58 62 72 63
REMARK SMILES IDX 91 64 56 65 57 66 71 68 92 69 59 70 43 71 44 72 52 73 45 74
REMARK SMILES IDX 47 75 53 76 46 77 48 78 49 79 50 80 51 81 75 82 76 83 84 84
REMARK SMILES IDX 77 85 79 86 85 87 78 88 80 89 81 90 82 91 83 92 60 93 61 94
REMARK SMILES IDX 69 95 62 96 64 97 70 98 63 99 65 100 66 101 67 102 68 103
REMARK H PARENT 90 56 58 67
REMARK Flexibility Score: inf
ROOT
ATOM      1  C   UNL     1      12.087   2.129  -5.662  1.00  0.00     0.188 C 
ENDROOT
BRANCH   1   2
ATOM      2  O   UNL     1      10.835   1.569  -5.294  1.00  0.00    -0.377 OA
BRANCH   2   3
ATOM      3  C   UNL     1      10.730   0.744  -4.149  1.00  0.00     0.188 C 
BRANCH   3   4
ATOM      4  C   UNL     1      11.834  -0.286  -3.852  1.00  0.00     0.188 C 
BRANCH   4   5
ATOM      5  O   UNL     1      12.788  -0.466  -4.891  1.00  0.00    -0.376 OA
BRANCH   5   6
ATOM      6  C   UNL     1      12.676  -1.670  -5.640  1.00  0.00     0.202 C 
BRANCH   6   7
ATOM      7  C   UNL     1      11.532  -1.662  -6.660  1.00  0.00     0.261 C 
BRANCH   7   8
ATOM      8  O   UNL     1      10.225  -1.646  -6.062  1.00  0.00    -0.460 OA
BRANCH   8   9
ATOM      9  C   UNL     1       9.884  -2.737  -5.348  1.00  0.00     0.338 C 
ATOM     10  O   UNL     1      10.536  -3.749  -5.168  1.00  0.00    -0.246 OA
BRANCH   9  11
ATOM     11  C   UNL     1       8.655  -2.421  -4.604  1.00  0.00     0.060 A 
ATOM     12  N   UNL     1       4.237  -1.725  -3.638  1.00  0.00    -0.238 N 
ATOM     13  C   UNL     1       5.090  -1.753  -2.560  1.00  0.00     0.266 C 
ATOM     14  C   UNL     1       4.947  -1.706  -4.820  1.00  0.00     0.266 C 
ATOM     15  O   UNL     1       4.887  -1.717  -1.358  1.00  0.00    -0.268 OA
ATOM     16  C   UNL     1       6.432  -1.925  -3.093  1.00  0.00     0.053 A 
ATOM     17  C   UNL     1       6.350  -1.922  -4.471  1.00  0.00     0.054 A 
ATOM     18  O   UNL     1       4.614  -1.457  -5.962  1.00  0.00    -0.268 OA
ATOM     19  C   UNL     1       7.612  -2.154  -2.415  1.00  0.00     0.015 A 
ATOM     20  C   UNL     1       7.456  -2.141  -5.270  1.00  0.00     0.030 A 
ATOM     21  C   UNL     1       8.735  -2.428  -3.190  1.00  0.00     0.016 A 
BRANCH  12  22
ATOM     22  C   UNL     1       2.821  -1.752  -3.510  1.00  0.00     0.098 A 
ATOM     23  C   UNL     1       0.855  -1.283  -2.127  1.00  0.00     0.121 A 
ATOM     24  C   UNL     1       0.061  -1.999  -3.021  1.00  0.00     0.050 A 
ATOM     25  C   UNL     1       2.220  -1.154  -2.385  1.00  0.00     0.077 A 
ATOM     26  C   UNL     1       0.624  -2.578  -4.160  1.00  0.00     0.052 A 
ATOM     27  C   UNL     1       1.997  -2.456  -4.406  1.00  0.00     0.143 A 
BRANCH  23  28
ATOM     28  O   UNL     1       0.204  -0.800  -1.023  1.00  0.00    -0.497 OA
ATOM     29  C   UNL     1       0.926   0.114  -0.203  1.00  0.00     0.278 C 
ENDBRANCH  23  28
BRANCH  27  30
ATOM     30  O   UNL     1       2.553  -3.241  -5.385  1.00  0.00    -0.495 OA
ATOM     31  C   UNL     1       2.223  -2.774  -6.696  1.00  0.00     0.278 C 
ENDBRANCH  27  30
ENDBRANCH  12  22
ENDBRANCH   9  11
ENDBRANCH   8   9
ENDBRANCH   7   8
ENDBRANCH   6   7
ENDBRANCH   5   6
ENDBRANCH   4   5
ENDBRANCH   3   4
ENDBRANCH   2   3
ENDBRANCH   1   2
BRANCH   1  32
ATOM     32  C   UNL     1      13.135   2.474  -4.587  1.00  0.00     0.188 C 
BRANCH  32  33
ATOM     33  O   UNL     1      12.614   2.591  -3.265  1.00  0.00    -0.376 OA
BRANCH  33  34
ATOM     34  C   UNL     1      12.576   3.909  -2.735  1.00  0.00     0.202 C 
BRANCH  34  35
ATOM     35  C   UNL     1      11.395   4.734  -3.256  1.00  0.00     0.261 C 
BRANCH  35  36
ATOM     36  O   UNL     1      11.445   5.030  -4.659  1.00  0.00    -0.460 OA
BRANCH  36  37
ATOM     37  C   UNL     1      12.501   5.751  -5.098  1.00  0.00     0.338 C 
ATOM     38  O   UNL     1      13.411   6.210  -4.432  1.00  0.00    -0.246 OA
BRANCH  37  39
ATOM     39  C   UNL     1      12.460   5.748  -6.571  1.00  0.00     0.060 A 
ATOM     40  C   UNL     1      13.580   5.292  -7.278  1.00  0.00     0.016 A 
ATOM     41  C   UNL     1      11.317   6.185  -7.243  1.00  0.00     0.016 A 
ATOM     42  C   UNL     1      13.569   5.309  -8.673  1.00  0.00     0.010 A 
ATOM     43  C   UNL     1      11.314   6.215  -8.636  1.00  0.00     0.010 A 
ATOM     44  C   UNL     1      12.452   5.809  -9.354  1.00  0.00    -0.014 A 
BRANCH  44  45
ATOM     45  C   UNL     1      12.529   6.096 -10.804  1.00  0.00     0.031 A 
ATOM     46  C   UNL     1      12.885   7.491 -11.233  1.00  0.00     0.074 A 
ATOM     47  C   UNL     1      12.233   5.155 -11.718  1.00  0.00     0.049 A 
ATOM     48  N   UNL     1      12.967   7.992 -12.437  1.00  0.00    -0.248 NA
ATOM     49  C   UNL     1      13.177   8.454 -10.157  1.00  0.00     0.031 C 
ATOM     50  C   UNL     1      11.845   3.779 -11.420  1.00  0.00     0.029 A 
ATOM     51  N   UNL     1      12.177   5.236 -13.086  1.00  0.00    -0.354 N 
ATOM     52  C   UNL     1      13.294   9.331 -12.264  1.00  0.00     0.074 A 
ATOM     53  C   UNL     1      13.384   9.569 -10.841  1.00  0.00     0.031 C 
ATOM     54  C   UNL     1      11.548   3.153 -12.573  1.00  0.00     0.029 A 
ATOM     55  C   UNL     1      11.713   4.089 -13.684  1.00  0.00     0.049 A 
ATOM     56  H   UNL     1      12.443   6.038 -13.591  1.00  0.00     0.167 HD
ATOM     57  C   UNL     1      13.515  10.275 -13.207  1.00  0.00     0.034 A 
ATOM     58  C   UNL     1      11.433   3.836 -14.979  1.00  0.00     0.034 A 
ATOM     59  C   UNL     1      13.438  10.035 -14.620  1.00  0.00     0.049 A 
ATOM     60  C   UNL     1      11.688   4.904 -16.012  1.00  0.00     0.074 A 
ATOM     61  C   UNL     1      13.712  10.908 -15.657  1.00  0.00     0.029 A 
ATOM     62  N   UNL     1      13.040   8.839 -15.196  1.00  0.00    -0.354 N 
ATOM     63  N   UNL     1      12.157   6.118 -15.847  1.00  0.00    -0.248 NA
ATOM     64  C   UNL     1      11.409   4.557 -17.414  1.00  0.00     0.031 C 
ATOM     65  C   UNL     1      13.460  10.244 -16.863  1.00  0.00     0.029 A 
ATOM     66  C   UNL     1      13.047   8.953 -16.575  1.00  0.00     0.049 A 
ATOM     67  H   UNL     1      12.790   8.028 -14.697  1.00  0.00     0.167 HD
ATOM     68  C   UNL     1      12.259   6.666 -17.122  1.00  0.00     0.074 A 
ATOM     69  C   UNL     1      11.822   5.645 -18.051  1.00  0.00     0.031 C 
ATOM     70  C   UNL     1      12.664   7.908 -17.490  1.00  0.00     0.034 A 
BRANCH  57  71
ATOM     71  C   UNL     1      13.895  11.650 -12.730  1.00  0.00     0.023 A 
ATOM     72  C   UNL     1      15.189  11.872 -12.216  1.00  0.00     0.012 A 
ATOM     73  C   UNL     1      12.990  12.724 -12.818  1.00  0.00     0.148 A 
ATOM     74  C   UNL     1      15.566  13.137 -11.768  1.00  0.00     0.002 A 
ATOM     75  C   UNL     1      13.387  13.991 -12.406  1.00  0.00     0.091 A 
ATOM     76  F   UNL     1      11.754  12.485 -13.279  1.00  0.00    -0.205 F 
ATOM     77  C   UNL     1      14.670  14.197 -11.872  1.00  0.00     0.022 A 
BRANCH  75  78
ATOM     78  S   UNL     1      12.323  15.429 -12.565  1.00  0.00     0.127 S 
ATOM     79  O   UNL     1      11.886  15.627 -11.184  1.00  0.00    -0.237 OA
ATOM     80  O   UNL     1      13.249  16.447 -13.062  1.00  0.00    -0.237 OA
ATOM     81  O   UNL     1      11.281  15.050 -13.508  1.00  0.00    -0.744 OA
ENDBRANCH  75  78
ENDBRANCH  57  71
BRANCH  58  82
ATOM     82  C   UNL     1      10.918   2.495 -15.376  1.00  0.00     0.023 A 
ATOM     83  C   UNL     1      11.745   1.621 -16.106  1.00  0.00     0.012 A 
ATOM     84  C   UNL     1       9.624   2.073 -15.010  1.00  0.00     0.148 A 
ATOM     85  C   UNL     1      11.286   0.360 -16.488  1.00  0.00     0.002 A 
ATOM     86  C   UNL     1       9.193   0.795 -15.348  1.00  0.00     0.091 A 
ATOM     87  F   UNL     1       8.845   2.927 -14.332  1.00  0.00    -0.205 F 
ATOM     88  C   UNL     1      10.016  -0.057 -16.100  1.00  0.00     0.022 A 
BRANCH  86  89
ATOM     89  S   UNL     1       7.623   0.128 -14.782  1.00  0.00     0.127 S 
ATOM     90  O   UNL     1       6.848   0.097 -16.019  1.00  0.00    -0.237 OA
ATOM     91  O   UNL     1       8.021  -1.185 -14.271  1.00  0.00    -0.237 OA
ATOM     92  O   UNL     1       7.151   1.051 -13.759  1.00  0.00    -0.744 OA
ENDBRANCH  86  89
ENDBRANCH  58  82
BRANCH  70  93
ATOM     93  C   UNL     1      12.684   8.236 -18.960  1.00  0.00     0.023 A 
ATOM     94  C   UNL     1      11.472   8.467 -19.639  1.00  0.00     0.012 A 
ATOM     95  C   UNL     1      13.904   8.408 -19.644  1.00  0.00     0.148 A 
ATOM     96  C   UNL     1      11.472   8.841 -20.983  1.00  0.00     0.002 A 
ATOM     97  C   UNL     1      13.898   8.825 -20.970  1.00  0.00     0.091 A 
ATOM     98  F   UNL     1      15.047   8.165 -18.986  1.00  0.00    -0.205 F 
ATOM     99  C   UNL     1      12.684   9.032 -21.644  1.00  0.00     0.022 A 
BRANCH  97 100
ATOM    100  S   UNL     1      15.412   9.188 -21.867  1.00  0.00     0.127 S 
ATOM    101  O   UNL     1      15.539   8.013 -22.727  1.00  0.00    -0.237 OA
ATOM    102  O   UNL     1      15.072  10.425 -22.571  1.00  0.00    -0.237 OA
ATOM    103  O   UNL     1      16.448   9.339 -20.854  1.00  0.00    -0.744 OA
ENDBRANCH  97 100
ENDBRANCH  70  93
ENDBRANCH  44  45
ENDBRANCH  37  39
ENDBRANCH  36  37
ENDBRANCH  35  36
ENDBRANCH  34  35
ENDBRANCH  33  34
ENDBRANCH  32  33
ENDBRANCH   1  32
TORSDOF 26
