REMARK SMILES O=C(COc1cccc(NC(=O)c2ccc3c(c2)C(=O)N(c2ccccc2-c2ccccc2)C3=O)c1)OCCOCCOCCOCCOC(=O)c1ccc(-c2c3nc(c(-c4cccc(S(=O)(=O)[O-])c4F)c4ccc([nH]4)c(-c4cccc(S(=O)(=O)[O-])c4F)c4nc(c(-c5cccc(S(=O)(=O)[O-])c5F)c5ccc2[nH]5)C=C4)C=C3)cc1
REMARK SMILES IDX 41 1 40 2 39 3 38 4 37 5 2 6 1 7 3 8 4 9 5 10 6 11 36 12
REMARK SMILES IDX 7 13 9 14 8 15 10 16 11 17 12 19 13 20 14 21 18 22 15 23
REMARK SMILES IDX 17 24 16 25 19 26 34 27 20 28 21 29 35 30 22 31 23 32 27 33
REMARK SMILES IDX 24 34 26 35 25 36 28 37 29 38 33 39 30 40 32 41 31 42 42 43
REMARK SMILES IDX 43 44 44 45 45 46 46 47 47 48 48 49 49 50 50 51 51 52 52 53
REMARK SMILES IDX 53 54 114 55 54 56 113 57 55 58 56 59 57 60 107 61 58 62
REMARK SMILES IDX 112 63 106 64 108 65 59 66 111 67 105 68 104 69 60 71 92 72
REMARK SMILES IDX 72 73 91 74 73 75 76 76 90 77 109 78 74 79 75 80 89 82
REMARK SMILES IDX 110 83 77 84 61 85 62 86 70 87 63 88 65 89 71 90 64 91 66 92
REMARK SMILES IDX 67 93 68 94 69 95 93 96 94 97 102 98 95 99 97 100 103 101
REMARK SMILES IDX 96 102 98 103 99 104 100 105 101 106 78 107 79 108 87 109
REMARK SMILES IDX 80 110 82 111 88 112 81 113 83 114 84 115 85 116 86 117
REMARK H PARENT 10 18 108 70 76 81
REMARK Flexibility Score: inf
ROOT
ATOM      1  C   UNL     1       2.727   2.300  -0.212  1.00  0.00     0.188 C 
ENDROOT
BRANCH   1   2
ATOM      2  O   UNL     1       4.090   1.929  -0.084  1.00  0.00    -0.376 OA
BRANCH   2   3
ATOM      3  C   UNL     1       4.538   0.607   0.148  1.00  0.00     0.202 C 
BRANCH   3   4
ATOM      4  C   UNL     1       3.776  -0.611  -0.372  1.00  0.00     0.261 C 
BRANCH   4   5
ATOM      5  O   UNL     1       2.341  -0.609  -0.229  1.00  0.00    -0.461 OA
BRANCH   5   6
ATOM      6  C   UNL     1       1.610  -0.361   0.875  1.00  0.00     0.344 C 
ATOM      7  O   UNL     1       0.398  -0.174   0.777  1.00  0.00    -0.248 OA
BRANCH   6   8
ATOM      8  C   UNL     1       2.305  -0.279   2.222  1.00  0.00     0.351 C 
BRANCH   8   9
ATOM      9  O   UNL     1       3.431  -1.094   2.470  1.00  0.00    -0.482 OA
BRANCH   9  10
ATOM     10  C   UNL     1       3.153  -2.419   2.637  1.00  0.00     0.122 A 
ATOM     11  C   UNL     1       3.858  -3.039   3.659  1.00  0.00     0.046 A 
ATOM     12  C   UNL     1       2.305  -3.162   1.807  1.00  0.00     0.072 A 
ATOM     13  C   UNL     1       3.713  -4.404   3.848  1.00  0.00     0.006 A 
ATOM     14  C   UNL     1       2.107  -4.521   2.021  1.00  0.00     0.045 A 
ATOM     15  C   UNL     1       2.854  -5.137   3.024  1.00  0.00     0.026 A 
BRANCH  14  16
ATOM     16  N   UNL     1       1.193  -5.185   1.169  1.00  0.00    -0.322 N 
ATOM     17  C   UNL     1       0.358  -6.259   1.423  1.00  0.00     0.255 C 
ATOM     18  H   UNL     1       1.143  -4.828   0.253  1.00  0.00     0.170 HD
ATOM     19  O   UNL     1      -0.303  -6.813   0.556  1.00  0.00    -0.269 OA
BRANCH  17  20
ATOM     20  C   UNL     1       0.124  -6.617   2.831  1.00  0.00     0.041 A 
ATOM     21  C   UNL     1       0.858  -7.675   3.408  1.00  0.00     0.015 A 
ATOM     22  C   UNL     1      -0.561  -5.676   3.599  1.00  0.00     0.028 A 
ATOM     23  C   UNL     1       1.089  -7.674   4.791  1.00  0.00     0.015 A 
ATOM     24  C   UNL     1      -0.294  -5.704   4.946  1.00  0.00     0.054 A 
ATOM     25  C   UNL     1       0.551  -6.624   5.520  1.00  0.00     0.053 A 
ATOM     26  C   UNL     1      -0.552  -4.664   5.918  1.00  0.00     0.266 C 
ATOM     27  C   UNL     1       0.869  -6.122   6.861  1.00  0.00     0.266 C 
ATOM     28  O   UNL     1      -1.443  -3.857   5.713  1.00  0.00    -0.268 OA
ATOM     29  N   UNL     1       0.354  -4.837   6.942  1.00  0.00    -0.242 N 
ATOM     30  O   UNL     1       1.395  -6.851   7.668  1.00  0.00    -0.268 OA
BRANCH  29  31
ATOM     31  C   UNL     1       0.669  -3.811   7.905  1.00  0.00     0.060 A 
ATOM     32  C   UNL     1      -0.186  -2.684   7.990  1.00  0.00     0.027 A 
ATOM     33  C   UNL     1       1.842  -3.774   8.709  1.00  0.00     0.006 A 
ATOM     34  C   UNL     1       0.063  -1.590   8.822  1.00  0.00     0.002 A 
ATOM     35  C   UNL     1       2.051  -2.668   9.578  1.00  0.00     0.011 A 
ATOM     36  C   UNL     1       1.177  -1.587   9.634  1.00  0.00     0.001 A 
BRANCH  33  37
ATOM     37  C   UNL     1       2.975  -4.709   8.632  1.00  0.00    -0.016 A 
ATOM     38  C   UNL     1       3.172  -5.694   9.613  1.00  0.00     0.009 A 
ATOM     39  C   UNL     1       3.938  -4.576   7.618  1.00  0.00     0.009 A 
ATOM     40  C   UNL     1       4.257  -6.570   9.537  1.00  0.00     0.001 A 
ATOM     41  C   UNL     1       5.031  -5.444   7.549  1.00  0.00     0.001 A 
ATOM     42  C   UNL     1       5.180  -6.451   8.500  1.00  0.00     0.000 A 
ENDBRANCH  33  37
ENDBRANCH  29  31
ENDBRANCH  17  20
ENDBRANCH  14  16
ENDBRANCH   9  10
ENDBRANCH   8   9
ENDBRANCH   6   8
ENDBRANCH   5   6
ENDBRANCH   4   5
ENDBRANCH   3   4
ENDBRANCH   2   3
ENDBRANCH   1   2
BRANCH   1  43
ATOM     43  C   UNL     1       2.106   2.029  -1.588  1.00  0.00     0.188 C 
BRANCH  43  44
ATOM     44  O   UNL     1       2.737   2.762  -2.632  1.00  0.00    -0.377 OA
BRANCH  44  45
ATOM     45  C   UNL     1       4.083   2.373  -2.862  1.00  0.00     0.188 C 
BRANCH  45  46
ATOM     46  C   UNL     1       5.136   3.373  -2.347  1.00  0.00     0.188 C 
BRANCH  46  47
ATOM     47  O   UNL     1       4.781   4.514  -1.585  1.00  0.00    -0.376 OA
BRANCH  47  48
ATOM     48  C   UNL     1       3.659   5.319  -1.902  1.00  0.00     0.202 C 
BRANCH  48  49
ATOM     49  C   UNL     1       3.223   5.689  -3.329  1.00  0.00     0.261 C 
BRANCH  49  50
ATOM     50  O   UNL     1       3.614   4.821  -4.385  1.00  0.00    -0.460 OA
BRANCH  50  51
ATOM     51  C   UNL     1       4.780   5.117  -4.999  1.00  0.00     0.338 C 
ATOM     52  O   UNL     1       5.537   6.037  -4.752  1.00  0.00    -0.246 OA
BRANCH  51  53
ATOM     53  C   UNL     1       5.084   3.986  -5.900  1.00  0.00     0.060 A 
ATOM     54  C   UNL     1       6.304   3.314  -5.742  1.00  0.00     0.016 A 
ATOM     55  C   UNL     1       4.141   3.547  -6.833  1.00  0.00     0.016 A 
ATOM     56  C   UNL     1       6.586   2.195  -6.520  1.00  0.00     0.010 A 
ATOM     57  C   UNL     1       4.443   2.453  -7.641  1.00  0.00     0.010 A 
ATOM     58  C   UNL     1       5.674   1.790  -7.501  1.00  0.00    -0.014 A 
BRANCH  58  59
ATOM     59  C   UNL     1       6.090   0.822  -8.536  1.00  0.00     0.031 A 
ATOM     60  C   UNL     1       6.715   1.371  -9.786  1.00  0.00     0.074 A 
ATOM     61  C   UNL     1       5.859  -0.495  -8.397  1.00  0.00     0.049 A 
ATOM     62  N   UNL     1       7.064   0.748 -10.877  1.00  0.00    -0.248 NA
ATOM     63  C   UNL     1       6.974   2.823  -9.809  1.00  0.00     0.031 C 
ATOM     64  C   UNL     1       5.259  -1.132  -7.226  1.00  0.00     0.029 A 
ATOM     65  N   UNL     1       6.063  -1.527  -9.278  1.00  0.00    -0.354 N 
ATOM     66  C   UNL     1       7.543   1.732 -11.731  1.00  0.00     0.074 A 
ATOM     67  C   UNL     1       7.459   2.992 -11.030  1.00  0.00     0.031 C 
ATOM     68  C   UNL     1       5.089  -2.441  -7.485  1.00  0.00     0.029 A 
ATOM     69  C   UNL     1       5.540  -2.724  -8.847  1.00  0.00     0.049 A 
ATOM     70  H   UNL     1       6.536  -1.421 -10.135  1.00  0.00     0.167 HD
ATOM     71  C   UNL     1       8.009   1.596 -12.992  1.00  0.00     0.034 A 
ATOM     72  C   UNL     1       5.402  -3.895  -9.500  1.00  0.00     0.034 A 
ATOM     73  C   UNL     1       8.102   0.340 -13.679  1.00  0.00     0.049 A 
ATOM     74  C   UNL     1       5.902  -4.008 -10.919  1.00  0.00     0.074 A 
ATOM     75  C   UNL     1       8.639   0.085 -14.927  1.00  0.00     0.029 A 
ATOM     76  N   UNL     1       7.617  -0.862 -13.192  1.00  0.00    -0.354 N 
ATOM     77  N   UNL     1       6.509  -3.109 -11.656  1.00  0.00    -0.248 NA
ATOM     78  C   UNL     1       5.717  -5.304 -11.591  1.00  0.00     0.031 C 
ATOM     79  C   UNL     1       8.445  -1.270 -15.211  1.00  0.00     0.029 A 
ATOM     80  C   UNL     1       7.813  -1.860 -14.128  1.00  0.00     0.049 A 
ATOM     81  H   UNL     1       7.197  -0.987 -12.311  1.00  0.00     0.167 HD
ATOM     82  C   UNL     1       6.800  -3.736 -12.863  1.00  0.00     0.074 A 
ATOM     83  C   UNL     1       6.328  -5.099 -12.750  1.00  0.00     0.031 C 
ATOM     84  C   UNL     1       7.387  -3.226 -13.974  1.00  0.00     0.034 A 
BRANCH  71  85
ATOM     85  C   UNL     1       8.460   2.833 -13.712  1.00  0.00     0.023 A 
ATOM     86  C   UNL     1       9.697   3.423 -13.384  1.00  0.00     0.012 A 
ATOM     87  C   UNL     1       7.692   3.363 -14.766  1.00  0.00     0.148 A 
ATOM     88  C   UNL     1      10.158   4.533 -14.090  1.00  0.00     0.002 A 
ATOM     89  C   UNL     1       8.176   4.444 -15.490  1.00  0.00     0.091 A 
ATOM     90  F   UNL     1       6.505   2.801 -15.036  1.00  0.00    -0.205 F 
ATOM     91  C   UNL     1       9.405   5.034 -15.149  1.00  0.00     0.022 A 
BRANCH  89  92
ATOM     92  S   UNL     1       7.318   5.116 -16.916  1.00  0.00     0.127 S 
ATOM     93  O   UNL     1       6.931   6.440 -16.430  1.00  0.00    -0.237 OA
ATOM     94  O   UNL     1       8.372   5.123 -17.931  1.00  0.00    -0.237 OA
ATOM     95  O   UNL     1       6.213   4.208 -17.189  1.00  0.00    -0.744 OA
ENDBRANCH  89  92
ENDBRANCH  71  85
BRANCH  72  96
ATOM     96  C   UNL     1       4.747  -5.057  -8.835  1.00  0.00     0.023 A 
ATOM     97  C   UNL     1       5.503  -6.207  -8.533  1.00  0.00     0.012 A 
ATOM     98  C   UNL     1       3.375  -5.036  -8.517  1.00  0.00     0.148 A 
ATOM     99  C   UNL     1       4.897  -7.327  -7.962  1.00  0.00     0.002 A 
ATOM    100  C   UNL     1       2.791  -6.133  -7.895  1.00  0.00     0.091 A 
ATOM    101  F   UNL     1       2.664  -3.945  -8.834  1.00  0.00    -0.205 F 
ATOM    102  C   UNL     1       3.544  -7.287  -7.634  1.00  0.00     0.022 A 
BRANCH 100 103
ATOM    103  S   UNL     1       1.089  -6.110  -7.320  1.00  0.00     0.127 S 
ATOM    104  O   UNL     1       0.424  -6.941  -8.319  1.00  0.00    -0.237 OA
ATOM    105  O   UNL     1       1.211  -6.715  -5.993  1.00  0.00    -0.237 OA
ATOM    106  O   UNL     1       0.708  -4.704  -7.301  1.00  0.00    -0.744 OA
ENDBRANCH 100 103
ENDBRANCH  72  96
BRANCH  84 107
ATOM    107  C   UNL     1       7.581  -4.142 -15.154  1.00  0.00     0.023 A 
ATOM    108  C   UNL     1       6.473  -4.504 -15.944  1.00  0.00     0.012 A 
ATOM    109  C   UNL     1       8.872  -4.553 -15.539  1.00  0.00     0.148 A 
ATOM    110  C   UNL     1       6.645  -5.280 -17.089  1.00  0.00     0.002 A 
ATOM    111  C   UNL     1       9.041  -5.285 -16.707  1.00  0.00     0.091 A 
ATOM    112  F   UNL     1       9.910  -4.206 -14.764  1.00  0.00    -0.205 F 
ATOM    113  C   UNL     1       7.928  -5.658 -17.478  1.00  0.00     0.022 A 
BRANCH 111 114
ATOM    114  S   UNL     1      10.662  -5.730 -17.340  1.00  0.00     0.127 S 
ATOM    115  O   UNL     1      10.673  -7.178 -17.137  1.00  0.00    -0.237 OA
ATOM    116  O   UNL     1      10.575  -5.311 -18.739  1.00  0.00    -0.237 OA
ATOM    117  O   UNL     1      11.626  -4.983 -16.544  1.00  0.00    -0.744 OA
ENDBRANCH 111 114
ENDBRANCH  84 107
ENDBRANCH  58  59
ENDBRANCH  51  53
ENDBRANCH  50  51
ENDBRANCH  49  50
ENDBRANCH  48  49
ENDBRANCH  47  48
ENDBRANCH  46  47
ENDBRANCH  45  46
ENDBRANCH  44  45
ENDBRANCH  43  44
ENDBRANCH   1  43
TORSDOF 29
