REMARK SMILES O=C(OCCOCCOCCOCCOC(=O)[C@@H]1[C@@H](C(=O)Nc2ccc(F)c(F)c2)[C@H]2C=C[C@@H]1O2)c1ccc(-c2c3nc(c(-c4cccc(S(=O)(=O)[O-])c4F)c4ccc([nH]4)c(-c4cccc(S(=O)(=O)[O-])c4F)c4nc(c(-c5cccc(S(=O)(=O)[O-])c5F)c5ccc2[nH]5)C=C4)C=C3)cc1
REMARK SMILES IDX 8 1 7 2 6 3 5 4 4 5 3 6 2 7 1 8 36 9 37 10 98 11 38 12 97 13
REMARK SMILES IDX 39 14 40 15 41 16 91 17 42 18 96 19 90 20 92 21 43 22 95 23
REMARK SMILES IDX 89 24 88 25 44 27 76 28 56 29 75 30 57 31 60 32 74 33 93 34
REMARK SMILES IDX 58 35 59 36 73 38 94 39 61 40 45 41 46 42 54 43 47 44 49 45
REMARK SMILES IDX 55 46 48 47 50 48 51 49 52 50 53 51 77 52 78 53 86 54 79 55
REMARK SMILES IDX 81 56 87 57 80 58 82 59 83 60 84 61 85 62 62 63 63 64 71 65
REMARK SMILES IDX 64 66 66 67 72 68 65 69 67 70 68 71 69 72 70 73 9 74 10 75
REMARK SMILES IDX 11 76 12 77 13 78 14 79 15 80 16 81 17 82 18 83 19 84 34 85
REMARK SMILES IDX 31 86 33 87 35 88 32 89 20 90 21 91 22 92 23 94 24 95 30 96
REMARK SMILES IDX 25 97 28 98 26 99 29 100 27 101
REMARK H PARENT 92 26 60 37 22 93
REMARK Flexibility Score: inf
ROOT
ATOM      1  C   UNL     1       1.934  -1.917  -1.965  1.00  0.00     0.188 C 
ENDROOT
BRANCH   1   2
ATOM      2  C   UNL     1       2.406  -1.268  -0.664  1.00  0.00     0.188 C 
BRANCH   2   3
ATOM      3  O   UNL     1       3.708  -0.737  -0.848  1.00  0.00    -0.376 OA
BRANCH   3   4
ATOM      4  C   UNL     1       4.646  -0.610   0.205  1.00  0.00     0.202 C 
BRANCH   4   5
ATOM      5  C   UNL     1       4.127  -0.332   1.601  1.00  0.00     0.261 C 
BRANCH   5   6
ATOM      6  O   UNL     1       2.765   0.131   1.733  1.00  0.00    -0.460 OA
BRANCH   6   7
ATOM      7  C   UNL     1       2.095   1.214   1.280  1.00  0.00     0.338 C 
ATOM      8  O   UNL     1       0.896   1.317   1.525  1.00  0.00    -0.246 OA
BRANCH   7   9
ATOM      9  C   UNL     1       2.755   2.311   0.544  1.00  0.00     0.060 A 
ATOM     10  C   UNL     1       3.595   2.117  -0.541  1.00  0.00     0.016 A 
ATOM     11  C   UNL     1       2.413   3.623   0.872  1.00  0.00     0.016 A 
ATOM     12  C   UNL     1       4.352   3.131  -1.069  1.00  0.00     0.010 A 
ATOM     13  C   UNL     1       3.025   4.685   0.205  1.00  0.00     0.010 A 
ATOM     14  C   UNL     1       4.060   4.430  -0.708  1.00  0.00    -0.014 A 
BRANCH  14  15
ATOM     15  C   UNL     1       4.962   5.480  -1.188  1.00  0.00     0.031 A 
ATOM     16  C   UNL     1       5.756   6.205  -0.153  1.00  0.00     0.074 A 
ATOM     17  C   UNL     1       5.138   5.673  -2.507  1.00  0.00     0.049 A 
ATOM     18  N   UNL     1       6.449   7.298  -0.265  1.00  0.00    -0.248 NA
ATOM     19  C   UNL     1       5.755   5.624   1.204  1.00  0.00     0.031 C 
ATOM     20  C   UNL     1       4.522   4.878  -3.577  1.00  0.00     0.029 A 
ATOM     21  N   UNL     1       5.896   6.592  -3.175  1.00  0.00    -0.354 N 
ATOM     22  C   UNL     1       6.871   7.596   1.023  1.00  0.00     0.074 A 
ATOM     23  C   UNL     1       6.389   6.554   1.897  1.00  0.00     0.031 C 
ATOM     24  C   UNL     1       4.931   5.343  -4.766  1.00  0.00     0.029 A 
ATOM     25  C   UNL     1       5.729   6.537  -4.539  1.00  0.00     0.049 A 
ATOM     26  H   UNL     1       6.499   7.228  -2.727  1.00  0.00     0.167 HD
ATOM     27  C   UNL     1       7.579   8.673   1.423  1.00  0.00     0.034 A 
ATOM     28  C   UNL     1       6.112   7.414  -5.483  1.00  0.00     0.034 A 
ATOM     29  C   UNL     1       8.052   9.658   0.495  1.00  0.00     0.049 A 
ATOM     30  C   UNL     1       6.848   8.636  -5.011  1.00  0.00     0.074 A 
ATOM     31  C   UNL     1       8.748  10.822   0.743  1.00  0.00     0.029 A 
ATOM     32  N   UNL     1       7.863   9.580  -0.881  1.00  0.00    -0.354 N 
ATOM     33  N   UNL     1       7.203   8.959  -3.788  1.00  0.00    -0.248 NA
ATOM     34  C   UNL     1       7.239   9.609  -6.033  1.00  0.00     0.031 C 
ATOM     35  C   UNL     1       8.947  11.467  -0.483  1.00  0.00     0.029 A 
ATOM     36  C   UNL     1       8.422  10.678  -1.500  1.00  0.00     0.049 A 
ATOM     37  H   UNL     1       7.398   8.847  -1.346  1.00  0.00     0.167 HD
ATOM     38  C   UNL     1       7.890  10.158  -3.893  1.00  0.00     0.074 A 
ATOM     39  C   UNL     1       7.910  10.493  -5.307  1.00  0.00     0.031 C 
ATOM     40  C   UNL     1       8.446  10.924  -2.922  1.00  0.00     0.034 A 
BRANCH  27  41
ATOM     41  C   UNL     1       7.783   8.847   2.902  1.00  0.00     0.023 A 
ATOM     42  C   UNL     1       8.623   7.974   3.624  1.00  0.00     0.012 A 
ATOM     43  C   UNL     1       7.079   9.854   3.591  1.00  0.00     0.148 A 
ATOM     44  C   UNL     1       8.716   8.068   5.014  1.00  0.00     0.002 A 
ATOM     45  C   UNL     1       7.218   9.975   4.967  1.00  0.00     0.091 A 
ATOM     46  F   UNL     1       6.256  10.649   2.893  1.00  0.00    -0.205 F 
ATOM     47  C   UNL     1       8.020   9.072   5.683  1.00  0.00     0.022 A 
BRANCH  45  48
ATOM     48  S   UNL     1       6.415  11.275   5.910  1.00  0.00     0.127 S 
ATOM     49  O   UNL     1       5.469  10.511   6.721  1.00  0.00    -0.237 OA
ATOM     50  O   UNL     1       7.537  11.845   6.654  1.00  0.00    -0.237 OA
ATOM     51  O   UNL     1       5.813  12.171   4.931  1.00  0.00    -0.744 OA
ENDBRANCH  45  48
ENDBRANCH  27  41
BRANCH  28  52
ATOM     52  C   UNL     1       5.765   7.185  -6.914  1.00  0.00     0.023 A 
ATOM     53  C   UNL     1       6.788   6.942  -7.849  1.00  0.00     0.012 A 
ATOM     54  C   UNL     1       4.422   7.162  -7.348  1.00  0.00     0.148 A 
ATOM     55  C   UNL     1       6.483   6.707  -9.192  1.00  0.00     0.002 A 
ATOM     56  C   UNL     1       4.123   6.871  -8.674  1.00  0.00     0.091 A 
ATOM     57  F   UNL     1       3.459   7.402  -6.447  1.00  0.00    -0.205 F 
ATOM     58  C   UNL     1       5.153   6.661  -9.602  1.00  0.00     0.022 A 
BRANCH  56  59
ATOM     59  S   UNL     1       2.438   6.665  -9.264  1.00  0.00     0.127 S 
ATOM     60  O   UNL     1       2.289   7.817 -10.150  1.00  0.00    -0.237 OA
ATOM     61  O   UNL     1       2.514   5.371  -9.944  1.00  0.00    -0.237 OA
ATOM     62  O   UNL     1       1.598   6.670  -8.075  1.00  0.00    -0.744 OA
ENDBRANCH  56  59
ENDBRANCH  28  52
BRANCH  40  63
ATOM     63  C   UNL     1       9.180  12.153  -3.368  1.00  0.00     0.023 A 
ATOM     64  C   UNL     1       8.466  13.285  -3.805  1.00  0.00     0.012 A 
ATOM     65  C   UNL     1      10.581  12.208  -3.247  1.00  0.00     0.148 A 
ATOM     66  C   UNL     1       9.146  14.452  -4.143  1.00  0.00     0.002 A 
ATOM     67  C   UNL     1      11.244  13.392  -3.526  1.00  0.00     0.091 A 
ATOM     68  F   UNL     1      11.232  11.105  -2.848  1.00  0.00    -0.205 F 
ATOM     69  C   UNL     1      10.531  14.510  -3.987  1.00  0.00     0.022 A 
BRANCH  67  70
ATOM     70  S   UNL     1      13.003  13.590  -3.236  1.00  0.00     0.127 S 
ATOM     71  O   UNL     1      13.522  13.660  -4.600  1.00  0.00    -0.237 OA
ATOM     72  O   UNL     1      13.052  14.852  -2.497  1.00  0.00    -0.237 OA
ATOM     73  O   UNL     1      13.420  12.424  -2.469  1.00  0.00    -0.744 OA
ENDBRANCH  67  70
ENDBRANCH  40  63
ENDBRANCH  14  15
ENDBRANCH   7   9
ENDBRANCH   6   7
ENDBRANCH   5   6
ENDBRANCH   4   5
ENDBRANCH   3   4
ENDBRANCH   2   3
ENDBRANCH   1   2
BRANCH   1  74
ATOM     74  O   UNL     1       2.739  -3.006  -2.418  1.00  0.00    -0.377 OA
BRANCH  74  75
ATOM     75  C   UNL     1       4.144  -2.794  -2.346  1.00  0.00     0.188 C 
BRANCH  75  76
ATOM     76  C   UNL     1       4.825  -1.777  -3.304  1.00  0.00     0.188 C 
BRANCH  76  77
ATOM     77  O   UNL     1       4.086  -0.614  -3.608  1.00  0.00    -0.376 OA
BRANCH  77  78
ATOM     78  C   UNL     1       3.324  -0.511  -4.805  1.00  0.00     0.202 C 
BRANCH  78  79
ATOM     79  C   UNL     1       2.950  -1.706  -5.713  1.00  0.00     0.261 C 
BRANCH  79  80
ATOM     80  O   UNL     1       3.129  -3.005  -5.136  1.00  0.00    -0.463 OA
BRANCH  80  81
ATOM     81  C   UNL     1       3.999  -3.855  -5.747  1.00  0.00     0.312 C 
ATOM     82  O   UNL     1       4.526  -3.654  -6.841  1.00  0.00    -0.252 OA
BRANCH  81  83
ATOM     83  C   UNL     1       4.455  -4.927  -4.787  1.00  0.00     0.147 C 
ATOM     84  C   UNL     1       5.247  -6.075  -5.433  1.00  0.00     0.129 C 
ATOM     85  C   UNL     1       3.285  -5.656  -4.116  1.00  0.00     0.157 C 
ATOM     86  C   UNL     1       4.419  -7.292  -4.994  1.00  0.00     0.155 C 
ATOM     87  C   UNL     1       3.786  -6.487  -2.964  1.00  0.00     0.004 C 
ATOM     88  O   UNL     1       3.080  -6.725  -5.080  1.00  0.00    -0.365 OA
ATOM     89  C   UNL     1       4.476  -7.500  -3.508  1.00  0.00     0.004 C 
BRANCH  84  90
ATOM     90  C   UNL     1       6.735  -6.241  -5.104  1.00  0.00     0.231 C 
ATOM     91  O   UNL     1       7.335  -7.244  -5.502  1.00  0.00    -0.274 OA
ATOM     92  N   UNL     1       7.464  -5.166  -4.652  1.00  0.00    -0.326 N 
ATOM     93  H   UNL     1       8.033  -4.724  -5.323  1.00  0.00     0.169 HD
BRANCH  92  94
ATOM     94  C   UNL     1       7.506  -4.609  -3.351  1.00  0.00     0.044 A 
ATOM     95  C   UNL     1       6.937  -5.227  -2.232  1.00  0.00     0.029 A 
ATOM     96  C   UNL     1       8.172  -3.389  -3.180  1.00  0.00     0.068 A 
ATOM     97  C   UNL     1       6.957  -4.601  -0.977  1.00  0.00     0.044 A 
ATOM     98  C   UNL     1       8.191  -2.771  -1.928  1.00  0.00     0.160 A 
ATOM     99  C   UNL     1       7.574  -3.365  -0.836  1.00  0.00     0.158 A 
ATOM    100  F   UNL     1       8.780  -1.575  -1.794  1.00  0.00    -0.204 F 
ATOM    101  F   UNL     1       7.552  -2.749   0.353  1.00  0.00    -0.204 F 
ENDBRANCH  92  94
ENDBRANCH  84  90
ENDBRANCH  81  83
ENDBRANCH  80  81
ENDBRANCH  79  80
ENDBRANCH  78  79
ENDBRANCH  77  78
ENDBRANCH  76  77
ENDBRANCH  75  76
ENDBRANCH  74  75
ENDBRANCH   1  74
TORSDOF 25
