REMARK SMILES CC[C@@H](C(=O)OCCOCCOCCOCCOC(=O)c1ccc(-c2c3nc(c(-c4cccc(S(=O)(=O)[O-])c4F)c4ccc([nH]4)c(-c4cccc(S(=O)(=O)[O-])c4F)c4nc(c(-c5cccc(S(=O)(=O)[O-])c5F)c5ccc2[nH]5)C=C4)C=C3)cc1)N(C)C(=O)N(C)C[C@@H]1CCC[N@H+]1C
REMARK SMILES IDX 11 1 10 2 9 3 8 4 7 5 6 6 4 7 5 8 3 9 2 10 1 11 84 12 85 13
REMARK SMILES IDX 86 14 87 15 88 16 89 17 90 18 91 19 92 20 95 21 93 22 94 23
REMARK SMILES IDX 96 24 12 26 13 27 14 28 15 29 16 30 17 31 18 32 19 33 20 34
REMARK SMILES IDX 21 35 22 36 83 37 23 38 82 39 24 40 25 41 26 42 76 43 27 44
REMARK SMILES IDX 81 45 75 46 77 47 28 48 80 49 74 50 73 51 29 53 61 54 41 55
REMARK SMILES IDX 60 56 42 57 45 58 59 59 78 60 43 61 44 62 58 64 79 65 46 66
REMARK SMILES IDX 30 67 31 68 39 69 32 70 34 71 40 72 33 73 35 74 36 75 37 76
REMARK SMILES IDX 38 77 62 78 63 79 71 80 64 81 66 82 72 83 65 84 67 85 68 86
REMARK SMILES IDX 69 87 70 88 47 89 48 90 56 91 49 92 51 93 57 94 50 95 52 96
REMARK SMILES IDX 53 97 54 98 55 99
REMARK H PARENT 95 25 77 52 45 63
REMARK Flexibility Score: inf
ROOT
ATOM      1  C   UNL     1      -3.612   1.015   1.473  1.00  0.00     0.188 C 
ENDROOT
BRANCH   1   2
ATOM      2  C   UNL     1      -4.840   1.754   0.912  1.00  0.00     0.188 C 
BRANCH   2   3
ATOM      3  O   UNL     1      -6.088   1.413   1.477  1.00  0.00    -0.376 OA
BRANCH   3   4
ATOM      4  C   UNL     1      -6.968   0.612   0.716  1.00  0.00     0.202 C 
BRANCH   4   5
ATOM      5  C   UNL     1      -6.449  -0.703   0.119  1.00  0.00     0.261 C 
BRANCH   5   6
ATOM      6  O   UNL     1      -5.114  -0.680  -0.417  1.00  0.00    -0.462 OA
BRANCH   6   7
ATOM      7  C   UNL     1      -4.924  -0.172  -1.654  1.00  0.00     0.328 C 
ATOM      8  O   UNL     1      -5.845   0.248  -2.353  1.00  0.00    -0.250 OA
BRANCH   7   9
ATOM      9  C   UNL     1      -3.444  -0.208  -2.140  1.00  0.00     0.196 C 
BRANCH   9  10
ATOM     10  C   UNL     1      -2.257  -0.730  -1.286  1.00  0.00     0.034 C 
ATOM     11  C   UNL     1      -2.499  -1.961  -0.409  1.00  0.00     0.007 C 
ENDBRANCH   9  10
BRANCH   9  12
ATOM     12  N   UNL     1      -3.154   1.086  -2.888  1.00  0.00    -0.314 N 
ATOM     13  C   UNL     1      -3.469   1.007  -4.299  1.00  0.00     0.149 C 
BRANCH  12  14
ATOM     14  C   UNL     1      -2.844   2.244  -2.182  1.00  0.00     0.320 C 
ATOM     15  O   UNL     1      -2.620   2.158  -0.970  1.00  0.00    -0.248 OA
BRANCH  14  16
ATOM     16  N   UNL     1      -2.789   3.516  -2.751  1.00  0.00    -0.322 N 
ATOM     17  C   UNL     1      -2.884   3.951  -4.136  1.00  0.00     0.149 C 
BRANCH  16  18
ATOM     18  C   UNL     1      -2.459   4.647  -1.838  1.00  0.00     0.185 C 
BRANCH  18  19
ATOM     19  C   UNL     1      -3.602   5.407  -1.082  1.00  0.00     0.203 C 
ATOM     20  C   UNL     1      -4.897   4.642  -0.817  1.00  0.00     0.073 C 
ATOM     21  N   UNL     1      -4.082   6.700  -1.652  1.00  0.00    -0.333 N 
ATOM     22  C   UNL     1      -6.042   5.614  -1.039  1.00  0.00     0.068 C 
ATOM     23  C   UNL     1      -5.363   6.958  -0.966  1.00  0.00     0.262 C 
ATOM     24  C   UNL     1      -3.167   7.810  -1.390  1.00  0.00     0.333 C 
ATOM     25  H   UNL     1      -4.160   6.633  -2.667  1.00  0.00     0.348 HD
ENDBRANCH  18  19
ENDBRANCH  16  18
ENDBRANCH  14  16
ENDBRANCH  12  14
ENDBRANCH   9  12
ENDBRANCH   7   9
ENDBRANCH   6   7
ENDBRANCH   5   6
ENDBRANCH   4   5
ENDBRANCH   3   4
ENDBRANCH   2   3
ENDBRANCH   1   2
BRANCH   1  26
ATOM     26  O   UNL     1      -3.654   0.285   2.687  1.00  0.00    -0.377 OA
BRANCH  26  27
ATOM     27  C   UNL     1      -4.722   0.534   3.576  1.00  0.00     0.188 C 
BRANCH  27  28
ATOM     28  C   UNL     1      -4.918   1.992   4.047  1.00  0.00     0.188 C 
BRANCH  28  29
ATOM     29  O   UNL     1      -4.201   2.967   3.302  1.00  0.00    -0.376 OA
BRANCH  29  30
ATOM     30  C   UNL     1      -3.029   3.525   3.870  1.00  0.00     0.202 C 
BRANCH  30  31
ATOM     31  C   UNL     1      -1.839   2.600   4.176  1.00  0.00     0.261 C 
BRANCH  31  32
ATOM     32  O   UNL     1      -2.125   1.418   4.933  1.00  0.00    -0.460 OA
BRANCH  32  33
ATOM     33  C   UNL     1      -2.553   1.575   6.207  1.00  0.00     0.338 C 
ATOM     34  O   UNL     1      -2.699   2.615   6.806  1.00  0.00    -0.246 OA
BRANCH  33  35
ATOM     35  C   UNL     1      -3.026   0.247   6.666  1.00  0.00     0.060 A 
ATOM     36  C   UNL     1      -4.378   0.094   7.009  1.00  0.00     0.016 A 
ATOM     37  C   UNL     1      -2.163  -0.850   6.687  1.00  0.00     0.016 A 
ATOM     38  C   UNL     1      -4.874  -1.163   7.354  1.00  0.00     0.010 A 
ATOM     39  C   UNL     1      -2.651  -2.099   7.082  1.00  0.00     0.010 A 
ATOM     40  C   UNL     1      -4.004  -2.257   7.430  1.00  0.00    -0.014 A 
BRANCH  40  41
ATOM     41  C   UNL     1      -4.470  -3.516   8.054  1.00  0.00     0.031 A 
ATOM     42  C   UNL     1      -4.204  -3.719   9.518  1.00  0.00     0.074 A 
ATOM     43  C   UNL     1      -5.112  -4.458   7.341  1.00  0.00     0.049 A 
ATOM     44  N   UNL     1      -4.475  -4.748  10.275  1.00  0.00    -0.248 NA
ATOM     45  C   UNL     1      -3.543  -2.607  10.223  1.00  0.00     0.031 C 
ATOM     46  C   UNL     1      -5.445  -4.367   5.921  1.00  0.00     0.029 A 
ATOM     47  N   UNL     1      -5.575  -5.695   7.719  1.00  0.00    -0.354 N 
ATOM     48  C   UNL     1      -3.992  -4.423  11.537  1.00  0.00     0.074 A 
ATOM     49  C   UNL     1      -3.409  -3.102  11.443  1.00  0.00     0.031 C 
ATOM     50  C   UNL     1      -6.027  -5.517   5.537  1.00  0.00     0.029 A 
ATOM     51  C   UNL     1      -6.079  -6.434   6.675  1.00  0.00     0.049 A 
ATOM     52  H   UNL     1      -5.548  -6.021   8.648  1.00  0.00     0.167 HD
ATOM     53  C   UNL     1      -4.036  -5.155  12.673  1.00  0.00     0.034 A 
ATOM     54  C   UNL     1      -6.500  -7.715   6.639  1.00  0.00     0.034 A 
ATOM     55  C   UNL     1      -4.614  -6.468  12.762  1.00  0.00     0.049 A 
ATOM     56  C   UNL     1      -6.489  -8.530   7.909  1.00  0.00     0.074 A 
ATOM     57  C   UNL     1      -4.745  -7.275  13.878  1.00  0.00     0.029 A 
ATOM     58  N   UNL     1      -5.133  -7.178  11.691  1.00  0.00    -0.354 N 
ATOM     59  N   UNL     1      -6.138  -8.171   9.121  1.00  0.00    -0.248 NA
ATOM     60  C   UNL     1      -6.959  -9.921   7.811  1.00  0.00     0.031 C 
ATOM     61  C   UNL     1      -5.303  -8.491  13.473  1.00  0.00     0.029 A 
ATOM     62  C   UNL     1      -5.564  -8.424  12.114  1.00  0.00     0.049 A 
ATOM     63  H   UNL     1      -5.188  -6.845  10.766  1.00  0.00     0.167 HD
ATOM     64  C   UNL     1      -6.373  -9.277   9.932  1.00  0.00     0.074 A 
ATOM     65  C   UNL     1      -6.921 -10.310   9.078  1.00  0.00     0.031 C 
ATOM     66  C   UNL     1      -6.145  -9.430  11.261  1.00  0.00     0.034 A 
BRANCH  53  67
ATOM     67  C   UNL     1      -3.437  -4.551  13.915  1.00  0.00     0.023 A 
ATOM     68  C   UNL     1      -4.086  -3.477  14.558  1.00  0.00     0.012 A 
ATOM     69  C   UNL     1      -2.256  -5.079  14.471  1.00  0.00     0.148 A 
ATOM     70  C   UNL     1      -3.551  -2.917  15.718  1.00  0.00     0.002 A 
ATOM     71  C   UNL     1      -1.755  -4.548  15.653  1.00  0.00     0.091 A 
ATOM     72  F   UNL     1      -1.641  -6.083  13.830  1.00  0.00    -0.205 F 
ATOM     73  C   UNL     1      -2.394  -3.460  16.270  1.00  0.00     0.022 A 
BRANCH  71  74
ATOM     74  S   UNL     1      -0.318  -5.227  16.487  1.00  0.00     0.127 S 
ATOM     75  O   UNL     1       0.657  -4.150  16.318  1.00  0.00    -0.237 OA
ATOM     76  O   UNL     1      -0.809  -5.395  17.855  1.00  0.00    -0.237 OA
ATOM     77  O   UNL     1       0.001  -6.468  15.797  1.00  0.00    -0.744 OA
ENDBRANCH  71  74
ENDBRANCH  53  67
BRANCH  54  78
ATOM     78  C   UNL     1      -6.974  -8.313   5.358  1.00  0.00     0.023 A 
ATOM     79  C   UNL     1      -8.329  -8.668   5.211  1.00  0.00     0.012 A 
ATOM     80  C   UNL     1      -6.087  -8.532   4.285  1.00  0.00     0.148 A 
ATOM     81  C   UNL     1      -8.786  -9.260   4.033  1.00  0.00     0.002 A 
ATOM     82  C   UNL     1      -6.561  -9.068   3.093  1.00  0.00     0.091 A 
ATOM     83  F   UNL     1      -4.798  -8.206   4.450  1.00  0.00    -0.205 F 
ATOM     84  C   UNL     1      -7.905  -9.451   2.971  1.00  0.00     0.022 A 
BRANCH  82  85
ATOM     85  S   UNL     1      -5.530  -9.235   1.631  1.00  0.00     0.127 S 
ATOM     86  O   UNL     1      -5.446 -10.686   1.488  1.00  0.00    -0.237 OA
ATOM     87  O   UNL     1      -6.341  -8.561   0.617  1.00  0.00    -0.237 OA
ATOM     88  O   UNL     1      -4.279  -8.560   1.949  1.00  0.00    -0.744 OA
ENDBRANCH  82  85
ENDBRANCH  54  78
BRANCH  66  89
ATOM     89  C   UNL     1      -6.516 -10.750  11.891  1.00  0.00     0.023 A 
ATOM     90  C   UNL     1      -5.758 -11.903  11.608  1.00  0.00     0.012 A 
ATOM     91  C   UNL     1      -7.572 -10.829  12.822  1.00  0.00     0.148 A 
ATOM     92  C   UNL     1      -6.068 -13.122  12.211  1.00  0.00     0.002 A 
ATOM     93  C   UNL     1      -7.842 -12.035  13.459  1.00  0.00     0.091 A 
ATOM     94  F   UNL     1      -8.290  -9.724  13.069  1.00  0.00    -0.205 F 
ATOM     95  C   UNL     1      -7.101 -13.185  13.144  1.00  0.00     0.022 A 
BRANCH  93  96
ATOM     96  S   UNL     1      -9.087 -12.192  14.744  1.00  0.00     0.127 S 
ATOM     97  O   UNL     1     -10.098 -13.014  14.080  1.00  0.00    -0.237 OA
ATOM     98  O   UNL     1      -8.349 -12.874  15.807  1.00  0.00    -0.237 OA
ATOM     99  O   UNL     1      -9.505 -10.835  15.070  1.00  0.00    -0.744 OA
ENDBRANCH  93  96
ENDBRANCH  66  89
ENDBRANCH  40  41
ENDBRANCH  33  35
ENDBRANCH  32  33
ENDBRANCH  31  32
ENDBRANCH  30  31
ENDBRANCH  29  30
ENDBRANCH  28  29
ENDBRANCH  27  28
ENDBRANCH  26  27
ENDBRANCH   1  26
TORSDOF 29
