REMARK SMILES NS(=O)(=O)c1ccc(-n2nc(C(=O)OCCOCCOCCOCCOC(=O)c3ccc(-c4c5nc(c(-c6cccc(S(=O)(=O)[O-])c6F)c6ccc([nH]6)c(-c6cccc(S(=O)(=O)[O-])c6F)c6nc(c(-c7cccc(S(=O)(=O)[O-])c7F)c7ccc4[nH]7)C=C6)C=C5)cc3)cc2-c2ccc(Cl)s2)cc1
REMARK SMILES IDX 20 1 19 2 18 3 17 4 16 5 15 6 14 7 12 8 13 9 11 10 9 11
REMARK SMILES IDX 10 12 93 13 92 14 8 15 5 16 6 17 101 18 7 19 100 20 2 21
REMARK SMILES IDX 3 22 4 23 1 24 94 27 95 28 99 29 96 30 97 31 98 32 21 33
REMARK SMILES IDX 22 34 23 35 24 36 25 37 26 38 27 39 28 40 29 41 30 42 91 43
REMARK SMILES IDX 31 44 90 45 32 46 33 47 34 48 84 49 35 50 89 51 83 52 85 53
REMARK SMILES IDX 36 54 88 55 82 56 81 57 37 59 69 60 49 61 68 62 50 63 53 64
REMARK SMILES IDX 67 65 86 66 51 67 52 68 66 70 87 71 54 72 38 73 39 74 47 75
REMARK SMILES IDX 40 76 42 77 48 78 41 79 43 80 44 81 45 82 46 83 70 84 71 85
REMARK SMILES IDX 79 86 72 87 74 88 80 89 73 90 75 91 76 92 77 93 78 94 55 95
REMARK SMILES IDX 56 96 64 97 57 98 59 99 65 100 58 101 60 102 61 103 62 104
REMARK SMILES IDX 63 105
REMARK H PARENT 1 25 1 26 85 58 53 69
REMARK Flexibility Score: inf
ROOT
ATOM      1  O   UNL     1       1.215   9.391  -6.606  1.00  0.00    -0.377 OA
ENDROOT
BRANCH   1   2
ATOM      2  C   UNL     1       1.100   8.554  -5.470  1.00  0.00     0.188 C 
BRANCH   2   3
ATOM      3  C   UNL     1       2.258   8.711  -4.460  1.00  0.00     0.188 C 
BRANCH   3   4
ATOM      4  O   UNL     1       3.157   9.806  -4.531  1.00  0.00    -0.376 OA
BRANCH   4   5
ATOM      5  C   UNL     1       3.808  10.222  -5.717  1.00  0.00     0.202 C 
BRANCH   5   6
ATOM      6  C   UNL     1       4.238   9.297  -6.870  1.00  0.00     0.261 C 
BRANCH   6   7
ATOM      7  O   UNL     1       3.616   8.023  -6.964  1.00  0.00    -0.458 OA
BRANCH   7   8
ATOM      8  C   UNL     1       4.169   7.030  -6.216  1.00  0.00     0.358 C 
ATOM      9  O   UNL     1       5.219   7.126  -5.592  1.00  0.00    -0.244 OA
BRANCH   8  10
ATOM     10  C   UNL     1       3.281   5.862  -6.188  1.00  0.00     0.171 A 
ATOM     11  N   UNL     1       2.149   4.205  -5.441  1.00  0.00    -0.231 N 
ATOM     12  N   UNL     1       2.985   5.197  -5.053  1.00  0.00    -0.160 NA
ATOM     13  C   UNL     1       1.911   4.225  -6.804  1.00  0.00     0.085 A 
ATOM     14  C   UNL     1       2.551   5.346  -7.282  1.00  0.00     0.068 A 
BRANCH  11  15
ATOM     15  C   UNL     1       1.811   3.188  -4.523  1.00  0.00     0.065 A 
ATOM     16  C   UNL     1       1.021   1.129  -2.847  1.00  0.00     0.082 A 
ATOM     17  C   UNL     1       1.893   0.860  -3.907  1.00  0.00     0.024 A 
ATOM     18  C   UNL     1       0.554   2.429  -2.609  1.00  0.00     0.024 A 
ATOM     19  C   UNL     1       2.280   1.891  -4.756  1.00  0.00     0.030 A 
ATOM     20  C   UNL     1       0.974   3.475  -3.437  1.00  0.00     0.030 A 
BRANCH  16  21
ATOM     21  S   UNL     1       0.478  -0.213  -1.830  1.00  0.00     0.238 S 
ATOM     22  O   UNL     1       1.130  -1.428  -2.244  1.00  0.00    -0.207 OA
ATOM     23  O   UNL     1      -0.957  -0.120  -1.652  1.00  0.00    -0.207 OA
BRANCH  21  24
ATOM     24  N   UNL     1       1.155   0.161  -0.339  1.00  0.00    -0.225 NA
ATOM     25  H   UNL     1       0.902  -0.559   0.338  1.00  0.00     0.137 HD
ATOM     26  H   UNL     1       0.802   1.064  -0.023  1.00  0.00     0.137 HD
ENDBRANCH  21  24
ENDBRANCH  16  21
ENDBRANCH  11  15
BRANCH  13  27
ATOM     27  C   UNL     1       1.167   3.264  -7.562  1.00  0.00     0.054 A 
ATOM     28  C   UNL     1       1.605   2.666  -8.729  1.00  0.00     0.024 A 
ATOM     29  S   UNL     1      -0.408   2.740  -7.139  1.00  0.00    -0.122 S 
ATOM     30  C   UNL     1       0.658   1.739  -9.251  1.00  0.00     0.033 A 
ATOM     31  C   UNL     1      -0.466   1.694  -8.468  1.00  0.00     0.094 A 
ATOM     32  Cl  UNL     1      -1.845   0.705  -8.725  1.00  0.00    -0.072 Cl
ENDBRANCH  13  27
ENDBRANCH   8  10
ENDBRANCH   7   8
ENDBRANCH   6   7
ENDBRANCH   5   6
ENDBRANCH   4   5
ENDBRANCH   3   4
ENDBRANCH   2   3
ENDBRANCH   1   2
BRANCH   1  33
ATOM     33  C   UNL     1       0.555  10.655  -6.546  1.00  0.00     0.188 C 
BRANCH  33  34
ATOM     34  C   UNL     1       0.556  11.467  -5.225  1.00  0.00     0.188 C 
BRANCH  34  35
ATOM     35  O   UNL     1       0.493  10.695  -4.037  1.00  0.00    -0.376 OA
BRANCH  35  36
ATOM     36  C   UNL     1      -0.681  10.528  -3.267  1.00  0.00     0.202 C 
BRANCH  36  37
ATOM     37  C   UNL     1      -1.945   9.985  -3.918  1.00  0.00     0.261 C 
BRANCH  37  38
ATOM     38  O   UNL     1      -2.147  10.415  -5.246  1.00  0.00    -0.460 OA
BRANCH  38  39
ATOM     39  C   UNL     1      -2.555  11.694  -5.346  1.00  0.00     0.338 C 
ATOM     40  O   UNL     1      -2.432  12.577  -4.516  1.00  0.00    -0.246 OA
BRANCH  39  41
ATOM     41  C   UNL     1      -3.328  11.815  -6.576  1.00  0.00     0.060 A 
ATOM     42  C   UNL     1      -3.635  13.107  -6.996  1.00  0.00     0.016 A 
ATOM     43  C   UNL     1      -3.994  10.676  -7.059  1.00  0.00     0.016 A 
ATOM     44  C   UNL     1      -4.775  13.276  -7.741  1.00  0.00     0.010 A 
ATOM     45  C   UNL     1      -5.143  10.851  -7.782  1.00  0.00     0.010 A 
ATOM     46  C   UNL     1      -5.558  12.152  -8.037  1.00  0.00    -0.014 A 
BRANCH  46  47
ATOM     47  C   UNL     1      -6.765  12.358  -8.800  1.00  0.00     0.031 A 
ATOM     48  C   UNL     1      -6.434  12.684 -10.200  1.00  0.00     0.074 A 
ATOM     49  C   UNL     1      -7.993  12.194  -8.275  1.00  0.00     0.049 A 
ATOM     50  N   UNL     1      -6.489  13.852 -10.749  1.00  0.00    -0.248 NA
ATOM     51  C   UNL     1      -5.702  11.683 -10.996  1.00  0.00     0.031 C 
ATOM     52  C   UNL     1      -8.329  11.640  -6.959  1.00  0.00     0.029 A 
ATOM     53  N   UNL     1      -9.213  12.358  -8.857  1.00  0.00    -0.354 N 
ATOM     54  C   UNL     1      -6.119  13.627 -12.068  1.00  0.00     0.074 A 
ATOM     55  C   UNL     1      -5.379  12.397 -12.076  1.00  0.00     0.031 C 
ATOM     56  C   UNL     1      -9.631  11.277  -6.951  1.00  0.00     0.029 A 
ATOM     57  C   UNL     1     -10.242  11.677  -8.206  1.00  0.00     0.049 A 
ATOM     58  H   UNL     1      -9.356  12.907  -9.662  1.00  0.00     0.167 HD
ATOM     59  C   UNL     1      -6.816  14.237 -13.064  1.00  0.00     0.034 A 
ATOM     60  C   UNL     1     -11.468  11.388  -8.714  1.00  0.00     0.034 A 
ATOM     61  C   UNL     1      -7.554  15.370 -12.553  1.00  0.00     0.049 A 
ATOM     62  C   UNL     1     -11.709  12.329  -9.829  1.00  0.00     0.074 A 
ATOM     63  C   UNL     1      -7.246  16.524 -11.861  1.00  0.00     0.029 A 
ATOM     64  N   UNL     1      -8.900  15.163 -12.387  1.00  0.00    -0.354 N 
ATOM     65  N   UNL     1     -11.881  13.609  -9.663  1.00  0.00    -0.248 NA
ATOM     66  C   UNL     1     -11.347  11.915 -11.174  1.00  0.00     0.031 C 
ATOM     67  C   UNL     1      -8.357  16.755 -10.997  1.00  0.00     0.029 A 
ATOM     68  C   UNL     1      -9.328  15.785 -11.251  1.00  0.00     0.049 A 
ATOM     69  H   UNL     1      -9.472  14.643 -12.997  1.00  0.00     0.167 HD
ATOM     70  C   UNL     1     -11.159  14.177 -10.702  1.00  0.00     0.074 A 
ATOM     71  C   UNL     1     -10.997  13.101 -11.678  1.00  0.00     0.031 C 
ATOM     72  C   UNL     1     -10.500  15.359 -10.515  1.00  0.00     0.034 A 
BRANCH  59  73
ATOM     73  C   UNL     1      -7.251  13.528 -14.335  1.00  0.00     0.023 A 
ATOM     74  C   UNL     1      -7.908  14.317 -15.305  1.00  0.00     0.012 A 
ATOM     75  C   UNL     1      -7.334  12.123 -14.501  1.00  0.00     0.148 A 
ATOM     76  C   UNL     1      -8.655  13.740 -16.338  1.00  0.00     0.002 A 
ATOM     77  C   UNL     1      -8.003  11.555 -15.577  1.00  0.00     0.091 A 
ATOM     78  F   UNL     1      -6.893  11.299 -13.551  1.00  0.00    -0.205 F 
ATOM     79  C   UNL     1      -8.697  12.359 -16.480  1.00  0.00     0.022 A 
BRANCH  77  80
ATOM     80  S   UNL     1      -8.047   9.774 -15.825  1.00  0.00     0.127 S 
ATOM     81  O   UNL     1      -9.451   9.479 -15.556  1.00  0.00    -0.237 OA
ATOM     82  O   UNL     1      -7.643   9.664 -17.227  1.00  0.00    -0.237 OA
ATOM     83  O   UNL     1      -7.086   9.216 -14.882  1.00  0.00    -0.744 OA
ENDBRANCH  77  80
ENDBRANCH  59  73
BRANCH  60  84
ATOM     84  C   UNL     1     -12.336  10.199  -8.518  1.00  0.00     0.023 A 
ATOM     85  C   UNL     1     -13.678  10.240  -8.956  1.00  0.00     0.012 A 
ATOM     86  C   UNL     1     -11.784   8.940  -8.201  1.00  0.00     0.148 A 
ATOM     87  C   UNL     1     -14.423   9.066  -9.124  1.00  0.00     0.002 A 
ATOM     88  C   UNL     1     -12.530   7.776  -8.364  1.00  0.00     0.091 A 
ATOM     89  F   UNL     1     -10.498   8.871  -7.835  1.00  0.00    -0.205 F 
ATOM     90  C   UNL     1     -13.845   7.833  -8.839  1.00  0.00     0.022 A 
BRANCH  88  91
ATOM     91  S   UNL     1     -11.834   6.148  -8.048  1.00  0.00     0.127 S 
ATOM     92  O   UNL     1     -12.869   5.534  -7.215  1.00  0.00    -0.237 OA
ATOM     93  O   UNL     1     -11.727   5.599  -9.397  1.00  0.00    -0.237 OA
ATOM     94  O   UNL     1     -10.571   6.381  -7.359  1.00  0.00    -0.744 OA
ENDBRANCH  88  91
ENDBRANCH  60  84
BRANCH  72  95
ATOM     95  C   UNL     1     -10.907  16.205  -9.335  1.00  0.00     0.023 A 
ATOM     96  C   UNL     1     -10.795  15.784  -7.994  1.00  0.00     0.012 A 
ATOM     97  C   UNL     1     -11.333  17.517  -9.600  1.00  0.00     0.148 A 
ATOM     98  C   UNL     1     -11.139  16.642  -6.944  1.00  0.00     0.002 A 
ATOM     99  C   UNL     1     -11.627  18.382  -8.556  1.00  0.00     0.091 A 
ATOM    100  F   UNL     1     -11.438  17.903 -10.881  1.00  0.00    -0.205 F 
ATOM    101  C   UNL     1     -11.545  17.946  -7.225  1.00  0.00     0.022 A 
BRANCH  99 102
ATOM    102  S   UNL     1     -12.048  20.095  -8.869  1.00  0.00     0.127 S 
ATOM    103  O   UNL     1     -13.502  20.084  -8.726  1.00  0.00    -0.237 OA
ATOM    104  O   UNL     1     -11.332  20.798  -7.803  1.00  0.00    -0.237 OA
ATOM    105  O   UNL     1     -11.548  20.388 -10.207  1.00  0.00    -0.744 OA
ENDBRANCH  99 102
ENDBRANCH  72  95
ENDBRANCH  46  47
ENDBRANCH  39  41
ENDBRANCH  38  39
ENDBRANCH  37  38
ENDBRANCH  36  37
ENDBRANCH  35  36
ENDBRANCH  34  35
ENDBRANCH  33  34
ENDBRANCH   1  33
TORSDOF 27
