REMARK SMILES C[C@@H]1CC[C@@H](C(=O)OCCOCCOCCOCCOC(=O)c2ccc(-c3c4nc(c(-c5cccc(S(=O)(=O)[O-])c5F)c5ccc([nH]5)c(-c5cccc(S(=O)(=O)[O-])c5F)c5nc(c(-c6cccc(S(=O)(=O)[O-])c6F)c6ccc3[nH]6)C=C5)C=C4)cc2)[C@H](SCC[NH+](C)C)C1
REMARK SMILES IDX 13 1 12 2 11 3 10 4 9 5 8 6 6 7 7 8 5 9 1 10 2 11 3 12 93 13
REMARK SMILES IDX 4 14 86 15 87 16 88 17 89 18 90 19 91 20 92 21 14 23 15 24
REMARK SMILES IDX 16 25 17 26 18 27 19 28 20 29 21 30 22 31 23 32 24 33 85 34
REMARK SMILES IDX 25 35 84 36 26 37 27 38 28 39 78 40 29 41 83 42 77 43 79 44
REMARK SMILES IDX 30 45 82 46 76 47 75 48 31 50 63 51 43 52 62 53 44 54 47 55
REMARK SMILES IDX 61 56 80 57 45 58 46 59 60 61 81 62 48 63 32 64 33 65 41 66
REMARK SMILES IDX 34 67 36 68 42 69 35 70 37 71 38 72 39 73 40 74 64 75 65 76
REMARK SMILES IDX 73 77 66 78 68 79 74 80 67 81 69 82 70 83 71 84 72 85 49 86
REMARK SMILES IDX 50 87 58 88 51 89 53 90 59 91 52 92 54 93 55 94 56 95 57 96
REMARK H PARENT 90 22 79 49 47 60
REMARK Flexibility Score: inf
ROOT
ATOM      1  C   UNL     1      -1.698   2.415  -2.662  1.00  0.00     0.188 C 
ENDROOT
BRANCH   1   2
ATOM      2  C   UNL     1      -0.954   1.387  -3.542  1.00  0.00     0.188 C 
BRANCH   2   3
ATOM      3  O   UNL     1      -1.657   1.091  -4.739  1.00  0.00    -0.376 OA
BRANCH   3   4
ATOM      4  C   UNL     1      -2.275  -0.192  -4.809  1.00  0.00     0.202 C 
BRANCH   4   5
ATOM      5  C   UNL     1      -3.205  -0.731  -3.678  1.00  0.00     0.261 C 
BRANCH   5   6
ATOM      6  O   UNL     1      -2.762  -0.555  -2.306  1.00  0.00    -0.463 OA
BRANCH   6   7
ATOM      7  C   UNL     1      -2.408  -1.591  -1.469  1.00  0.00     0.310 C 
ATOM      8  O   UNL     1      -2.452  -2.769  -1.785  1.00  0.00    -0.252 OA
BRANCH   7   9
ATOM      9  C   UNL     1      -1.876  -1.031  -0.082  1.00  0.00     0.112 C 
ATOM     10  C   UNL     1       2.401  -1.638   0.221  1.00  0.00     0.007 C 
ATOM     11  C   UNL     1       1.048  -1.744  -0.489  1.00  0.00    -0.013 C 
ATOM     12  C   UNL     1       0.497  -0.401  -0.948  1.00  0.00     0.004 C 
ATOM     13  C   UNL     1       0.052  -2.673   0.213  1.00  0.00     0.018 C 
ATOM     14  C   UNL     1      -0.883   0.025  -0.463  1.00  0.00     0.017 C 
ATOM     15  C   UNL     1      -1.202  -2.046   0.870  1.00  0.00     0.061 C 
BRANCH  15  16
ATOM     16  S   UNL     1      -0.829  -1.949   2.784  1.00  0.00    -0.152 SA
BRANCH  16  17
ATOM     17  C   UNL     1      -0.808  -0.260   3.615  1.00  0.00     0.131 C 
BRANCH  17  18
ATOM     18  C   UNL     1       0.600   0.392   4.018  1.00  0.00     0.272 C 
BRANCH  18  19
ATOM     19  N   UNL     1       1.201   1.368   3.082  1.00  0.00    -0.339 N 
ATOM     20  C   UNL     1       2.656   1.450   3.082  1.00  0.00     0.332 C 
ATOM     21  C   UNL     1       0.766   1.040   1.766  1.00  0.00     0.332 C 
ATOM     22  H   UNL     1       0.887   2.284   3.403  1.00  0.00     0.347 HD
ENDBRANCH  18  19
ENDBRANCH  17  18
ENDBRANCH  16  17
ENDBRANCH  15  16
ENDBRANCH   7   9
ENDBRANCH   6   7
ENDBRANCH   5   6
ENDBRANCH   4   5
ENDBRANCH   3   4
ENDBRANCH   2   3
ENDBRANCH   1   2
BRANCH   1  23
ATOM     23  O   UNL     1      -3.003   2.661  -3.116  1.00  0.00    -0.377 OA
BRANCH  23  24
ATOM     24  C   UNL     1      -3.110   3.430  -4.305  1.00  0.00     0.188 C 
BRANCH  24  25
ATOM     25  C   UNL     1      -1.863   3.929  -5.103  1.00  0.00     0.188 C 
BRANCH  25  26
ATOM     26  O   UNL     1      -0.633   4.073  -4.403  1.00  0.00    -0.376 OA
BRANCH  26  27
ATOM     27  C   UNL     1      -0.245   5.339  -3.889  1.00  0.00     0.202 C 
BRANCH  27  28
ATOM     28  C   UNL     1      -1.143   6.039  -2.853  1.00  0.00     0.261 C 
BRANCH  28  29
ATOM     29  O   UNL     1      -2.526   6.162  -3.196  1.00  0.00    -0.460 OA
BRANCH  29  30
ATOM     30  C   UNL     1      -2.821   6.906  -4.294  1.00  0.00     0.338 C 
ATOM     31  O   UNL     1      -2.048   7.518  -4.984  1.00  0.00    -0.246 OA
BRANCH  30  32
ATOM     32  C   UNL     1      -4.237   6.621  -4.638  1.00  0.00     0.060 A 
ATOM     33  C   UNL     1      -4.510   6.036  -5.885  1.00  0.00     0.016 A 
ATOM     34  C   UNL     1      -5.263   6.828  -3.713  1.00  0.00     0.016 A 
ATOM     35  C   UNL     1      -5.809   5.667  -6.215  1.00  0.00     0.010 A 
ATOM     36  C   UNL     1      -6.577   6.513  -4.069  1.00  0.00     0.010 A 
ATOM     37  C   UNL     1      -6.854   5.964  -5.334  1.00  0.00    -0.014 A 
BRANCH  37  38
ATOM     38  C   UNL     1      -8.234   5.964  -5.863  1.00  0.00     0.031 A 
ATOM     39  C   UNL     1      -8.760   7.261  -6.410  1.00  0.00     0.074 A 
ATOM     40  C   UNL     1      -8.983   4.849  -5.899  1.00  0.00     0.049 A 
ATOM     41  N   UNL     1      -9.932   7.535  -6.915  1.00  0.00    -0.248 NA
ATOM     42  C   UNL     1      -7.832   8.407  -6.385  1.00  0.00     0.031 C 
ATOM     43  C   UNL     1      -8.566   3.530  -5.431  1.00  0.00     0.029 A 
ATOM     44  N   UNL     1     -10.270   4.664  -6.337  1.00  0.00    -0.354 N 
ATOM     45  C   UNL     1      -9.896   8.886  -7.234  1.00  0.00     0.074 A 
ATOM     46  C   UNL     1      -8.589   9.380  -6.866  1.00  0.00     0.031 C 
ATOM     47  C   UNL     1      -9.595   2.675  -5.572  1.00  0.00     0.029 A 
ATOM     48  C   UNL     1     -10.748   3.395  -6.112  1.00  0.00     0.049 A 
ATOM     49  H   UNL     1     -10.801   5.371  -6.770  1.00  0.00     0.167 HD
ATOM     50  C   UNL     1     -10.864   9.649  -7.789  1.00  0.00     0.034 A 
ATOM     51  C   UNL     1     -11.985   2.890  -6.293  1.00  0.00     0.034 A 
ATOM     52  C   UNL     1     -12.159   9.151  -8.158  1.00  0.00     0.049 A 
ATOM     53  C   UNL     1     -13.061   3.771  -6.875  1.00  0.00     0.074 A 
ATOM     54  C   UNL     1     -13.198   9.833  -8.764  1.00  0.00     0.029 A 
ATOM     55  N   UNL     1     -12.600   7.857  -7.936  1.00  0.00    -0.354 N 
ATOM     56  N   UNL     1     -12.986   5.021  -7.266  1.00  0.00    -0.248 NA
ATOM     57  C   UNL     1     -14.386   3.163  -7.071  1.00  0.00     0.031 C 
ATOM     58  C   UNL     1     -14.286   8.960  -8.867  1.00  0.00     0.029 A 
ATOM     59  C   UNL     1     -13.905   7.722  -8.375  1.00  0.00     0.049 A 
ATOM     60  H   UNL     1     -12.064   7.139  -7.527  1.00  0.00     0.167 HD
ATOM     61  C   UNL     1     -14.237   5.336  -7.787  1.00  0.00     0.074 A 
ATOM     62  C   UNL     1     -15.046   4.140  -7.678  1.00  0.00     0.031 C 
ATOM     63  C   UNL     1     -14.680   6.510  -8.302  1.00  0.00     0.034 A 
BRANCH  50  64
ATOM     64  C   UNL     1     -10.560  11.104  -8.018  1.00  0.00     0.023 A 
ATOM     65  C   UNL     1      -9.659  11.488  -9.032  1.00  0.00     0.012 A 
ATOM     66  C   UNL     1     -11.206  12.094  -7.253  1.00  0.00     0.148 A 
ATOM     67  C   UNL     1      -9.384  12.835  -9.262  1.00  0.00     0.002 A 
ATOM     68  C   UNL     1     -10.966  13.434  -7.522  1.00  0.00     0.091 A 
ATOM     69  F   UNL     1     -12.035  11.705  -6.275  1.00  0.00    -0.205 F 
ATOM     70  C   UNL     1     -10.046  13.807  -8.516  1.00  0.00     0.022 A 
BRANCH  68  71
ATOM     71  S   UNL     1     -11.829  14.760  -6.673  1.00  0.00     0.127 S 
ATOM     72  O   UNL     1     -10.746  15.372  -5.904  1.00  0.00    -0.237 OA
ATOM     73  O   UNL     1     -12.317  15.569  -7.789  1.00  0.00    -0.237 OA
ATOM     74  O   UNL     1     -12.870  14.122  -5.880  1.00  0.00    -0.744 OA
ENDBRANCH  68  71
ENDBRANCH  50  64
BRANCH  51  75
ATOM     75  C   UNL     1     -12.274   1.476  -5.920  1.00  0.00     0.023 A 
ATOM     76  C   UNL     1     -12.567   0.531  -6.923  1.00  0.00     0.012 A 
ATOM     77  C   UNL     1     -12.257   1.065  -4.573  1.00  0.00     0.148 A 
ATOM     78  C   UNL     1     -12.868  -0.790  -6.587  1.00  0.00     0.002 A 
ATOM     79  C   UNL     1     -12.502  -0.264  -4.250  1.00  0.00     0.091 A 
ATOM     80  F   UNL     1     -11.993   1.984  -3.633  1.00  0.00    -0.205 F 
ATOM     81  C   UNL     1     -12.826  -1.189  -5.254  1.00  0.00     0.022 A 
BRANCH  79  82
ATOM     82  S   UNL     1     -12.348  -0.894  -2.576  1.00  0.00     0.127 S 
ATOM     83  O   UNL     1     -13.730  -1.249  -2.262  1.00  0.00    -0.237 OA
ATOM     84  O   UNL     1     -11.447  -2.031  -2.768  1.00  0.00    -0.237 OA
ATOM     85  O   UNL     1     -11.784   0.196  -1.792  1.00  0.00    -0.744 OA
ENDBRANCH  79  82
ENDBRANCH  51  75
BRANCH  63  86
ATOM     86  C   UNL     1     -16.088   6.558  -8.839  1.00  0.00     0.023 A 
ATOM     87  C   UNL     1     -17.186   6.522  -7.957  1.00  0.00     0.012 A 
ATOM     88  C   UNL     1     -16.317   6.722 -10.220  1.00  0.00     0.148 A 
ATOM     89  C   UNL     1     -18.489   6.612  -8.444  1.00  0.00     0.002 A 
ATOM     90  C   UNL     1     -17.614   6.867 -10.693  1.00  0.00     0.091 A 
ATOM     91  F   UNL     1     -15.259   6.741 -11.045  1.00  0.00    -0.205 F 
ATOM     92  C   UNL     1     -18.703   6.797  -9.809  1.00  0.00     0.022 A 
BRANCH  90  93
ATOM     93  S   UNL     1     -17.980   7.211 -12.418  1.00  0.00     0.127 S 
ATOM     94  O   UNL     1     -18.593   5.955 -12.848  1.00  0.00    -0.237 OA
ATOM     95  O   UNL     1     -18.906   8.339 -12.318  1.00  0.00    -0.237 OA
ATOM     96  O   UNL     1     -16.705   7.528 -13.046  1.00  0.00    -0.744 OA
ENDBRANCH  90  93
ENDBRANCH  63  86
ENDBRANCH  37  38
ENDBRANCH  30  32
ENDBRANCH  29  30
ENDBRANCH  28  29
ENDBRANCH  27  28
ENDBRANCH  26  27
ENDBRANCH  25  26
ENDBRANCH  24  25
ENDBRANCH  23  24
ENDBRANCH   1  23
TORSDOF 27
