REMARK SMILES N#CCNC(=O)Cn1ccc(C(=O)OCCOCCOCCOCCOC(=O)c2ccc(-c3c4nc(c(-c5cccc(S(=O)(=O)[O-])c5F)c5ccc([nH]5)c(-c5cccc(S(=O)(=O)[O-])c5F)c5nc(c(-c6cccc(S(=O)(=O)[O-])c6F)c6ccc3[nH]6)C=C5)C=C4)cc2)c1
REMARK SMILES IDX 19 1 18 2 17 3 16 4 15 5 14 6 12 7 13 8 11 9 8 10 9 11 92 12
REMARK SMILES IDX 10 13 7 14 5 15 4 16 6 18 3 19 2 20 1 21 20 22 21 23 22 24
REMARK SMILES IDX 23 25 24 26 25 27 26 28 27 29 28 30 29 31 30 32 91 33 31 34
REMARK SMILES IDX 90 35 32 36 33 37 34 38 84 39 35 40 89 41 83 42 85 43 36 44
REMARK SMILES IDX 88 45 82 46 81 47 37 49 69 50 49 51 68 52 50 53 53 54 67 55
REMARK SMILES IDX 86 56 51 57 52 58 66 60 87 61 54 62 38 63 39 64 47 65 40 66
REMARK SMILES IDX 42 67 48 68 41 69 43 70 44 71 45 72 46 73 70 74 71 75 79 76
REMARK SMILES IDX 72 77 74 78 80 79 73 80 75 81 76 82 77 83 78 84 55 85 56 86
REMARK SMILES IDX 64 87 57 88 59 89 65 90 58 91 60 92 61 93 62 94 63 95
REMARK H PARENT 4 17 85 48 53 59
REMARK Flexibility Score: inf
ROOT
ATOM      1  C   UNL     1       0.184   2.918   2.830  1.00  0.00     0.188 C 
ENDROOT
BRANCH   1   2
ATOM      2  C   UNL     1      -0.225   2.058   4.048  1.00  0.00     0.188 C 
BRANCH   2   3
ATOM      3  O   UNL     1      -0.825   2.602   5.223  1.00  0.00    -0.376 OA
BRANCH   3   4
ATOM      4  C   UNL     1      -0.621   3.944   5.628  1.00  0.00     0.202 C 
BRANCH   4   5
ATOM      5  C   UNL     1       0.792   4.499   5.873  1.00  0.00     0.261 C 
BRANCH   5   6
ATOM      6  O   UNL     1       1.843   3.922   5.100  1.00  0.00    -0.460 OA
BRANCH   6   7
ATOM      7  C   UNL     1       2.386   2.794   5.617  1.00  0.00     0.339 C 
ATOM      8  O   UNL     1       2.137   2.341   6.738  1.00  0.00    -0.246 OA
BRANCH   7   9
ATOM      9  C   UNL     1       3.206   2.075   4.651  1.00  0.00     0.077 A 
ATOM     10  N   UNL     1       4.540   1.560   2.929  1.00  0.00    -0.344 N 
ATOM     11  C   UNL     1       4.175   0.374   3.512  1.00  0.00     0.087 A 
ATOM     12  C   UNL     1       3.937   2.599   3.594  1.00  0.00     0.101 A 
ATOM     13  C   UNL     1       3.346   0.660   4.570  1.00  0.00     0.035 A 
BRANCH  10  14
ATOM     14  C   UNL     1       5.538   1.690   1.877  1.00  0.00     0.221 C 
BRANCH  14  15
ATOM     15  C   UNL     1       5.000   2.207   0.564  1.00  0.00     0.240 C 
ATOM     16  N   UNL     1       4.240   1.416  -0.243  1.00  0.00    -0.341 N 
ATOM     17  H   UNL     1       4.006   1.814  -1.113  1.00  0.00     0.164 HD
ATOM     18  O   UNL     1       5.310   3.327   0.157  1.00  0.00    -0.273 OA
BRANCH  16  19
ATOM     19  C   UNL     1       3.721   0.077  -0.021  1.00  0.00     0.236 C 
BRANCH  19  20
ATOM     20  C   UNL     1       2.201   0.077  -0.021  1.00  0.00     0.084 C 
ATOM     21  N   UNL     1       0.941   0.077  -0.021  1.00  0.00    -0.196 NA
ENDBRANCH  19  20
ENDBRANCH  16  19
ENDBRANCH  14  15
ENDBRANCH  10  14
ENDBRANCH   7   9
ENDBRANCH   6   7
ENDBRANCH   5   6
ENDBRANCH   4   5
ENDBRANCH   3   4
ENDBRANCH   2   3
ENDBRANCH   1   2
BRANCH   1  22
ATOM     22  O   UNL     1      -0.042   4.310   2.989  1.00  0.00    -0.377 OA
BRANCH  22  23
ATOM     23  C   UNL     1      -1.220   4.807   2.357  1.00  0.00     0.188 C 
BRANCH  23  24
ATOM     24  C   UNL     1      -2.546   4.077   2.685  1.00  0.00     0.188 C 
BRANCH  24  25
ATOM     25  O   UNL     1      -2.471   2.656   2.621  1.00  0.00    -0.376 OA
BRANCH  25  26
ATOM     26  C   UNL     1      -3.024   1.937   1.530  1.00  0.00     0.202 C 
BRANCH  26  27
ATOM     27  C   UNL     1      -2.339   2.097   0.173  1.00  0.00     0.261 C 
BRANCH  27  28
ATOM     28  O   UNL     1      -2.101   3.444  -0.190  1.00  0.00    -0.460 OA
BRANCH  28  29
ATOM     29  C   UNL     1      -3.221   4.171  -0.310  1.00  0.00     0.338 C 
ATOM     30  O   UNL     1      -4.359   3.875   0.032  1.00  0.00    -0.246 OA
BRANCH  29  31
ATOM     31  C   UNL     1      -2.920   5.377  -1.051  1.00  0.00     0.060 A 
ATOM     32  C   UNL     1      -3.834   6.419  -0.884  1.00  0.00     0.016 A 
ATOM     33  C   UNL     1      -2.176   5.165  -2.214  1.00  0.00     0.016 A 
ATOM     34  C   UNL     1      -4.199   7.114  -2.006  1.00  0.00     0.010 A 
ATOM     35  C   UNL     1      -2.599   5.804  -3.344  1.00  0.00     0.010 A 
ATOM     36  C   UNL     1      -3.632   6.737  -3.231  1.00  0.00    -0.014 A 
BRANCH  36  37
ATOM     37  C   UNL     1      -4.020   7.499  -4.408  1.00  0.00     0.031 A 
ATOM     38  C   UNL     1      -3.125   8.757  -4.467  1.00  0.00     0.074 A 
ATOM     39  C   UNL     1      -5.092   6.984  -5.091  1.00  0.00     0.049 A 
ATOM     40  N   UNL     1      -3.417   9.967  -4.827  1.00  0.00    -0.248 NA
ATOM     41  C   UNL     1      -1.744   8.711  -3.885  1.00  0.00     0.031 C 
ATOM     42  C   UNL     1      -5.764   5.683  -4.818  1.00  0.00     0.029 A 
ATOM     43  N   UNL     1      -5.848   7.434  -6.147  1.00  0.00    -0.354 N 
ATOM     44  C   UNL     1      -2.214  10.713  -4.782  1.00  0.00     0.074 A 
ATOM     45  C   UNL     1      -1.282   9.954  -4.020  1.00  0.00     0.031 C 
ATOM     46  C   UNL     1      -6.856   5.516  -5.603  1.00  0.00     0.029 A 
ATOM     47  C   UNL     1      -6.995   6.663  -6.481  1.00  0.00     0.049 A 
ATOM     48  H   UNL     1      -5.607   8.248  -6.646  1.00  0.00     0.167 HD
ATOM     49  C   UNL     1      -2.009  11.827  -5.542  1.00  0.00     0.034 A 
ATOM     50  C   UNL     1      -7.997   6.977  -7.367  1.00  0.00     0.034 A 
ATOM     51  C   UNL     1      -3.179  12.072  -6.319  1.00  0.00     0.049 A 
ATOM     52  C   UNL     1      -7.526   8.210  -8.013  1.00  0.00     0.074 A 
ATOM     53  C   UNL     1      -4.421  12.535  -5.971  1.00  0.00     0.029 A 
ATOM     54  N   UNL     1      -3.249  11.378  -7.506  1.00  0.00    -0.354 N 
ATOM     55  N   UNL     1      -6.544   8.268  -8.863  1.00  0.00    -0.248 NA
ATOM     56  C   UNL     1      -8.076   9.491  -7.554  1.00  0.00     0.031 C 
ATOM     57  C   UNL     1      -5.278  11.691  -6.703  1.00  0.00     0.029 A 
ATOM     58  C   UNL     1      -4.549  10.971  -7.659  1.00  0.00     0.049 A 
ATOM     59  H   UNL     1      -2.506  11.208  -8.129  1.00  0.00     0.167 HD
ATOM     60  C   UNL     1      -6.138   9.572  -8.734  1.00  0.00     0.074 A 
ATOM     61  C   UNL     1      -7.277  10.309  -8.228  1.00  0.00     0.031 C 
ATOM     62  C   UNL     1      -4.824   9.861  -8.537  1.00  0.00     0.034 A 
BRANCH  49  63
ATOM     63  C   UNL     1      -0.787  12.628  -5.901  1.00  0.00     0.023 A 
ATOM     64  C   UNL     1      -1.054  13.908  -6.463  1.00  0.00     0.012 A 
ATOM     65  C   UNL     1       0.521  12.128  -6.018  1.00  0.00     0.148 A 
ATOM     66  C   UNL     1      -0.118  14.597  -7.227  1.00  0.00     0.002 A 
ATOM     67  C   UNL     1       1.474  12.850  -6.741  1.00  0.00     0.091 A 
ATOM     68  F   UNL     1       0.819  10.929  -5.508  1.00  0.00    -0.205 F 
ATOM     69  C   UNL     1       1.145  14.057  -7.380  1.00  0.00     0.022 A 
BRANCH  67  70
ATOM     70  S   UNL     1       3.173  12.302  -6.945  1.00  0.00     0.127 S 
ATOM     71  O   UNL     1       3.209  11.945  -8.361  1.00  0.00    -0.237 OA
ATOM     72  O   UNL     1       3.919  13.517  -6.608  1.00  0.00    -0.237 OA
ATOM     73  O   UNL     1       3.356  11.211  -5.999  1.00  0.00    -0.744 OA
ENDBRANCH  67  70
ENDBRANCH  49  63
BRANCH  50  74
ATOM     74  C   UNL     1      -9.399   6.519  -7.729  1.00  0.00     0.023 A 
ATOM     75  C   UNL     1      -9.960   5.288  -7.366  1.00  0.00     0.012 A 
ATOM     76  C   UNL     1     -10.281   7.417  -8.416  1.00  0.00     0.148 A 
ATOM     77  C   UNL     1     -11.333   5.019  -7.582  1.00  0.00     0.002 A 
ATOM     78  C   UNL     1     -11.653   7.210  -8.501  1.00  0.00     0.091 A 
ATOM     79  F   UNL     1      -9.784   8.486  -9.045  1.00  0.00    -0.205 F 
ATOM     80  C   UNL     1     -12.189   5.994  -8.097  1.00  0.00     0.022 A 
BRANCH  78  81
ATOM     81  S   UNL     1     -12.788   8.535  -8.973  1.00  0.00     0.127 S 
ATOM     82  O   UNL     1     -13.562   7.919 -10.048  1.00  0.00    -0.237 OA
ATOM     83  O   UNL     1     -13.526   8.744  -7.727  1.00  0.00    -0.237 OA
ATOM     84  O   UNL     1     -11.959   9.664  -9.377  1.00  0.00    -0.744 OA
ENDBRANCH  78  81
ENDBRANCH  50  74
BRANCH  62  85
ATOM     85  C   UNL     1      -3.837   8.810  -9.055  1.00  0.00     0.023 A 
ATOM     86  C   UNL     1      -3.889   8.532 -10.436  1.00  0.00     0.012 A 
ATOM     87  C   UNL     1      -2.951   8.020  -8.278  1.00  0.00     0.148 A 
ATOM     88  C   UNL     1      -3.119   7.522 -11.019  1.00  0.00     0.002 A 
ATOM     89  C   UNL     1      -2.193   6.992  -8.859  1.00  0.00     0.091 A 
ATOM     90  F   UNL     1      -2.839   8.274  -6.977  1.00  0.00    -0.205 F 
ATOM     91  C   UNL     1      -2.274   6.749 -10.233  1.00  0.00     0.022 A 
BRANCH  89  92
ATOM     92  S   UNL     1      -1.127   5.864  -7.929  1.00  0.00     0.127 S 
ATOM     93  O   UNL     1      -1.574   4.548  -8.392  1.00  0.00    -0.237 OA
ATOM     94  O   UNL     1       0.205   6.237  -8.397  1.00  0.00    -0.237 OA
ATOM     95  O   UNL     1      -1.391   6.117  -6.518  1.00  0.00    -0.744 OA
ENDBRANCH  89  92
ENDBRANCH  62  85
ENDBRANCH  36  37
ENDBRANCH  29  31
ENDBRANCH  28  29
ENDBRANCH  27  28
ENDBRANCH  26  27
ENDBRANCH  25  26
ENDBRANCH  24  25
ENDBRANCH  23  24
ENDBRANCH  22  23
ENDBRANCH   1  22
TORSDOF 27
