REMARK SMILES Cc1ccnc(C(=O)c2[nH]c3cc(F)ccc3c2CC(=O)OCCOCCOCCOCCOC(=O)c2ccc(-c3c4nc(c(-c5cccc(S(=O)(=O)[O-])c5F)c5ccc([nH]5)c(-c5cccc(S(=O)(=O)[O-])c5F)c5nc(c(-c6cccc(S(=O)(=O)[O-])c6F)c6ccc3[nH]6)C=C5)C=C4)cc2)c1
REMARK SMILES IDX 28 1 27 2 26 3 25 4 24 5 23 6 22 7 20 8 21 9 19 10 18 11
REMARK SMILES IDX 9 12 10 13 11 14 17 16 12 17 16 18 13 19 15 20 14 21 7 22
REMARK SMILES IDX 8 23 6 24 1 25 2 26 3 27 100 28 4 29 5 30 29 31 30 32 31 33
REMARK SMILES IDX 32 34 33 35 34 36 35 37 36 38 37 39 38 40 99 41 39 42 98 43
REMARK SMILES IDX 40 44 41 45 42 46 92 47 43 48 97 49 91 50 93 51 44 52 96 53
REMARK SMILES IDX 90 54 89 55 45 57 77 58 57 59 76 60 58 61 61 62 75 63 94 64
REMARK SMILES IDX 59 65 60 66 74 68 95 69 62 70 46 71 47 72 55 73 48 74 50 75
REMARK SMILES IDX 56 76 49 77 51 78 52 79 53 80 54 81 78 82 79 83 87 84 80 85
REMARK SMILES IDX 82 86 88 87 81 88 83 89 84 90 85 91 86 92 63 93 64 94 72 95
REMARK SMILES IDX 65 96 67 97 73 98 66 99 68 100 69 101 70 102 71 103
REMARK H PARENT 10 15 93 56 61 67
REMARK Flexibility Score: inf
ROOT
ATOM      1  O   UNL     1       3.996  -3.922  -0.456  1.00  0.00    -0.377 OA
ENDROOT
BRANCH   1   2
ATOM      2  C   UNL     1       4.144  -2.852   0.459  1.00  0.00     0.188 C 
BRANCH   2   3
ATOM      3  C   UNL     1       5.306  -2.886   1.449  1.00  0.00     0.188 C 
BRANCH   3   4
ATOM      4  O   UNL     1       6.490  -3.546   1.052  1.00  0.00    -0.376 OA
BRANCH   4   5
ATOM      5  C   UNL     1       6.402  -4.950   0.812  1.00  0.00     0.202 C 
BRANCH   5   6
ATOM      6  C   UNL     1       5.497  -5.839   1.692  1.00  0.00     0.261 C 
BRANCH   6   7
ATOM      7  O   UNL     1       4.068  -5.585   1.588  1.00  0.00    -0.463 OA
BRANCH   7   8
ATOM      8  C   UNL     1       3.393  -5.462   2.757  1.00  0.00     0.310 C 
ATOM      9  O   UNL     1       3.944  -5.556   3.857  1.00  0.00    -0.252 OA
BRANCH   8  10
ATOM     10  C   UNL     1       1.900  -5.189   2.702  1.00  0.00     0.161 C 
BRANCH  10  11
ATOM     11  C   UNL     1       1.140  -4.994   1.409  1.00  0.00     0.000 A 
ATOM     12  C   UNL     1       0.741  -3.785   0.809  1.00  0.00     0.093 A 
ATOM     13  N   UNL     1       0.130  -4.133  -0.380  1.00  0.00    -0.351 N 
ATOM     14  C   UNL     1      -0.274  -5.444  -0.335  1.00  0.00     0.049 A 
ATOM     15  H   UNL     1       0.003  -3.529  -1.147  1.00  0.00     0.167 HD
ATOM     16  C   UNL     1       0.379  -6.025   0.751  1.00  0.00     0.004 A 
ATOM     17  C   UNL     1      -1.170  -6.146  -1.151  1.00  0.00     0.066 A 
ATOM     18  C   UNL     1       0.118  -7.385   1.037  1.00  0.00     0.013 A 
ATOM     19  C   UNL     1      -1.444  -7.468  -0.804  1.00  0.00     0.125 A 
ATOM     20  C   UNL     1      -0.816  -8.088   0.266  1.00  0.00     0.040 A 
ATOM     21  F   UNL     1      -2.365  -8.143  -1.507  1.00  0.00    -0.207 F 
BRANCH  12  22
ATOM     22  C   UNL     1       0.914  -2.421   1.309  1.00  0.00     0.227 C 
ATOM     23  O   UNL     1       1.480  -2.169   2.375  1.00  0.00    -0.285 OA
BRANCH  22  24
ATOM     24  C   UNL     1       0.352  -1.242   0.585  1.00  0.00     0.113 A 
ATOM     25  C   UNL     1      -3.012   0.296  -0.203  1.00  0.00     0.044 C 
ATOM     26  C   UNL     1      -1.533   0.087  -0.064  1.00  0.00    -0.047 A 
ATOM     27  C   UNL     1      -0.658   1.164  -0.234  1.00  0.00     0.023 A 
ATOM     28  C   UNL     1      -1.016  -1.145   0.354  1.00  0.00     0.036 A 
ATOM     29  C   UNL     1       0.693   0.965  -0.010  1.00  0.00     0.112 A 
ATOM     30  N   UNL     1       1.217  -0.211   0.388  1.00  0.00    -0.253 NA
ENDBRANCH  22  24
ENDBRANCH  12  22
ENDBRANCH  10  11
ENDBRANCH   8  10
ENDBRANCH   7   8
ENDBRANCH   6   7
ENDBRANCH   5   6
ENDBRANCH   4   5
ENDBRANCH   3   4
ENDBRANCH   2   3
ENDBRANCH   1   2
BRANCH   1  31
ATOM     31  C   UNL     1       4.497  -3.804  -1.781  1.00  0.00     0.188 C 
BRANCH  31  32
ATOM     32  C   UNL     1       5.174  -2.492  -2.176  1.00  0.00     0.188 C 
BRANCH  32  33
ATOM     33  O   UNL     1       4.378  -1.304  -2.207  1.00  0.00    -0.376 OA
BRANCH  33  34
ATOM     34  C   UNL     1       2.972  -1.421  -2.405  1.00  0.00     0.202 C 
BRANCH  34  35
ATOM     35  C   UNL     1       2.535  -1.460  -3.866  1.00  0.00     0.261 C 
BRANCH  35  36
ATOM     36  O   UNL     1       2.862  -2.717  -4.471  1.00  0.00    -0.460 OA
BRANCH  36  37
ATOM     37  C   UNL     1       3.985  -2.716  -5.233  1.00  0.00     0.338 C 
ATOM     38  O   UNL     1       4.683  -1.767  -5.520  1.00  0.00    -0.246 OA
BRANCH  37  39
ATOM     39  C   UNL     1       4.346  -4.117  -5.521  1.00  0.00     0.060 A 
ATOM     40  C   UNL     1       5.670  -4.516  -5.295  1.00  0.00     0.016 A 
ATOM     41  C   UNL     1       3.402  -5.018  -6.017  1.00  0.00     0.016 A 
ATOM     42  C   UNL     1       6.059  -5.822  -5.576  1.00  0.00     0.010 A 
ATOM     43  C   UNL     1       3.798  -6.319  -6.319  1.00  0.00     0.010 A 
ATOM     44  C   UNL     1       5.131  -6.717  -6.120  1.00  0.00    -0.014 A 
BRANCH  44  45
ATOM     45  C   UNL     1       5.581  -8.030  -6.622  1.00  0.00     0.031 A 
ATOM     46  C   UNL     1       5.853  -8.176  -8.091  1.00  0.00     0.074 A 
ATOM     47  C   UNL     1       5.702  -9.073  -5.784  1.00  0.00     0.049 A 
ATOM     48  N   UNL     1       6.155  -9.248  -8.771  1.00  0.00    -0.248 NA
ATOM     49  C   UNL     1       5.768  -6.949  -8.902  1.00  0.00     0.031 C 
ATOM     50  C   UNL     1       5.481  -9.026  -4.339  1.00  0.00     0.029 A 
ATOM     51  N   UNL     1       6.006 -10.386  -6.038  1.00  0.00    -0.354 N 
ATOM     52  C   UNL     1       6.257  -8.836 -10.094  1.00  0.00     0.074 A 
ATOM     53  C   UNL     1       5.993  -7.415 -10.122  1.00  0.00     0.031 C 
ATOM     54  C   UNL     1       5.616 -10.267  -3.839  1.00  0.00     0.029 A 
ATOM     55  C   UNL     1       5.895 -11.194  -4.932  1.00  0.00     0.049 A 
ATOM     56  H   UNL     1       6.277 -10.716  -6.925  1.00  0.00     0.167 HD
ATOM     57  C   UNL     1       6.545  -9.582 -11.185  1.00  0.00     0.034 A 
ATOM     58  C   UNL     1       5.968 -12.536  -4.830  1.00  0.00     0.034 A 
ATOM     59  C   UNL     1       6.814 -10.992 -11.139  1.00  0.00     0.049 A 
ATOM     60  C   UNL     1       6.241 -13.344  -6.074  1.00  0.00     0.074 A 
ATOM     61  C   UNL     1       7.174 -11.832 -12.177  1.00  0.00     0.029 A 
ATOM     62  N   UNL     1       6.724 -11.777 -10.000  1.00  0.00    -0.354 N 
ATOM     63  N   UNL     1       6.462 -12.930  -7.299  1.00  0.00    -0.248 NA
ATOM     64  C   UNL     1       6.295 -14.805  -5.917  1.00  0.00     0.031 C 
ATOM     65  C   UNL     1       7.256 -13.133 -11.674  1.00  0.00     0.029 A 
ATOM     66  C   UNL     1       6.991 -13.097 -10.314  1.00  0.00     0.049 A 
ATOM     67  H   UNL     1       6.504 -11.443  -9.100  1.00  0.00     0.167 HD
ATOM     68  C   UNL     1       6.712 -14.073  -8.050  1.00  0.00     0.074 A 
ATOM     69  C   UNL     1       6.643 -15.195  -7.136  1.00  0.00     0.031 C 
ATOM     70  C   UNL     1       6.960 -14.192  -9.378  1.00  0.00     0.034 A 
BRANCH  57  71
ATOM     71  C   UNL     1       6.580  -8.894 -12.522  1.00  0.00     0.023 A 
ATOM     72  C   UNL     1       7.651  -8.038 -12.848  1.00  0.00     0.012 A 
ATOM     73  C   UNL     1       5.586  -9.159 -13.485  1.00  0.00     0.148 A 
ATOM     74  C   UNL     1       7.721  -7.440 -14.106  1.00  0.00     0.002 A 
ATOM     75  C   UNL     1       5.687  -8.596 -14.751  1.00  0.00     0.091 A 
ATOM     76  F   UNL     1       4.564  -9.956 -13.143  1.00  0.00    -0.205 F 
ATOM     77  C   UNL     1       6.748  -7.729 -15.060  1.00  0.00     0.022 A 
BRANCH  75  78
ATOM     78  S   UNL     1       4.528  -8.965 -16.072  1.00  0.00     0.127 S 
ATOM     79  O   UNL     1       3.888  -7.666 -16.274  1.00  0.00    -0.237 OA
ATOM     80  O   UNL     1       5.422  -9.380 -17.153  1.00  0.00    -0.237 OA
ATOM     81  O   UNL     1       3.655 -10.013 -15.563  1.00  0.00    -0.744 OA
ENDBRANCH  75  78
ENDBRANCH  57  71
BRANCH  58  82
ATOM     82  C   UNL     1       5.782 -13.206  -3.512  1.00  0.00     0.023 A 
ATOM     83  C   UNL     1       6.864 -13.887  -2.921  1.00  0.00     0.012 A 
ATOM     84  C   UNL     1       4.540 -13.185  -2.847  1.00  0.00     0.148 A 
ATOM     85  C   UNL     1       6.702 -14.569  -1.714  1.00  0.00     0.002 A 
ATOM     86  C   UNL     1       4.401 -13.818  -1.617  1.00  0.00     0.091 A 
ATOM     87  F   UNL     1       3.517 -12.547  -3.432  1.00  0.00    -0.205 F 
ATOM     88  C   UNL     1       5.474 -14.528  -1.059  1.00  0.00     0.022 A 
BRANCH  86  89
ATOM     89  S   UNL     1       2.894 -13.716  -0.644  1.00  0.00     0.127 S 
ATOM     90  O   UNL     1       2.388 -15.083  -0.732  1.00  0.00    -0.237 OA
ATOM     91  O   UNL     1       3.410 -13.331   0.670  1.00  0.00    -0.237 OA
ATOM     92  O   UNL     1       2.077 -12.697  -1.289  1.00  0.00    -0.744 OA
ENDBRANCH  86  89
ENDBRANCH  58  82
BRANCH  70  93
ATOM     93  C   UNL     1       7.205 -15.575  -9.923  1.00  0.00     0.023 A 
ATOM     94  C   UNL     1       6.135 -16.486 -10.029  1.00  0.00     0.012 A 
ATOM     95  C   UNL     1       8.477 -15.942 -10.403  1.00  0.00     0.148 A 
ATOM     96  C   UNL     1       6.337 -17.754 -10.573  1.00  0.00     0.002 A 
ATOM     97  C   UNL     1       8.658 -17.186 -10.994  1.00  0.00     0.091 A 
ATOM     98  F   UNL     1       9.484 -15.064 -10.282  1.00  0.00    -0.205 F 
ATOM     99  C   UNL     1       7.593 -18.099 -11.066  1.00  0.00     0.022 A 
BRANCH  97 100
ATOM    100  S   UNL     1      10.211 -17.683 -11.746  1.00  0.00     0.127 S 
ATOM    101  O   UNL     1      10.653 -18.745 -10.845  1.00  0.00    -0.237 OA
ATOM    102  O   UNL     1       9.780 -18.142 -13.067  1.00  0.00    -0.237 OA
ATOM    103  O   UNL     1      11.052 -16.493 -11.762  1.00  0.00    -0.744 OA
ENDBRANCH  97 100
ENDBRANCH  70  93
ENDBRANCH  44  45
ENDBRANCH  37  39
ENDBRANCH  36  37
ENDBRANCH  35  36
ENDBRANCH  34  35
ENDBRANCH  33  34
ENDBRANCH  32  33
ENDBRANCH  31  32
ENDBRANCH   1  31
TORSDOF 26
