REMARK SMILES CC(C)C(=O)Nc1ccc2c([C@@H](C(=O)OCCOCCOCCOCCOC(=O)c3ccc(-c4c5nc(c(-c6cccc(S(=O)(=O)[O-])c6F)c6ccc([nH]6)c(-c6cccc(S(=O)(=O)[O-])c6F)c6nc(c(-c7cccc(S(=O)(=O)[O-])c7F)c7ccc4[nH]7)C=C6)C=C5)cc3)[NH+]3CC[NH+](Cc4ccccc4)CC3)c[nH]c2c1
REMARK SMILES IDX 21 1 20 2 19 3 18 4 17 5 16 6 15 7 13 8 14 9 12 10 11 11
REMARK SMILES IDX 7 12 8 13 109 14 9 15 108 16 10 17 107 18 106 19 6 21 4 22
REMARK SMILES IDX 5 23 2 25 1 26 3 27 93 28 94 29 105 30 95 32 104 33 96 34
REMARK SMILES IDX 97 36 98 37 99 38 103 39 100 40 102 41 101 42 22 43 23 44
REMARK SMILES IDX 24 45 25 46 26 47 27 48 28 49 29 50 30 51 31 52 92 53 32 54
REMARK SMILES IDX 91 55 33 56 34 57 35 58 85 59 36 60 90 61 84 62 86 63 37 64
REMARK SMILES IDX 89 65 83 66 82 67 38 69 70 70 50 71 69 72 51 73 54 74 68 75
REMARK SMILES IDX 87 76 52 77 53 78 67 80 88 81 55 82 39 83 40 84 48 85 41 86
REMARK SMILES IDX 43 87 49 88 42 89 44 90 45 91 46 92 47 93 71 94 72 95 80 96
REMARK SMILES IDX 73 97 75 98 81 99 74 100 76 101 77 102 78 103 79 104 56 105
REMARK SMILES IDX 57 106 65 107 58 108 60 109 66 110 59 111 61 112 62 113
REMARK SMILES IDX 63 114 64 115
REMARK H PARENT 107 20 6 24 93 31 96 35 86 68 54 79
REMARK Flexibility Score: inf
ROOT
ATOM      1  O   UNL     1      -0.392  -6.821  -5.531  1.00  0.00    -0.377 OA
ENDROOT
BRANCH   1   2
ATOM      2  C   UNL     1       0.731  -6.353  -6.234  1.00  0.00     0.188 C 
BRANCH   2   3
ATOM      3  C   UNL     1       1.826  -7.388  -6.472  1.00  0.00     0.188 C 
BRANCH   3   4
ATOM      4  O   UNL     1       1.670  -8.682  -5.915  1.00  0.00    -0.376 OA
BRANCH   4   5
ATOM      5  C   UNL     1       1.119  -8.816  -4.604  1.00  0.00     0.202 C 
BRANCH   5   6
ATOM      6  C   UNL     1       1.667  -7.955  -3.442  1.00  0.00     0.261 C 
BRANCH   6   7
ATOM      7  O   UNL     1       1.375  -6.529  -3.471  1.00  0.00    -0.459 OA
BRANCH   7   8
ATOM      8  C   UNL     1       2.441  -5.688  -3.584  1.00  0.00     0.370 C 
ATOM      9  O   UNL     1       3.601  -6.109  -3.627  1.00  0.00    -0.245 OA
BRANCH   8  10
ATOM     10  C   UNL     1       2.131  -4.158  -3.651  1.00  0.00     0.328 C 
BRANCH  10  11
ATOM     11  C   UNL     1       0.711  -3.596  -3.762  1.00  0.00     0.046 A 
ATOM     12  C   UNL     1      -1.213  -0.751  -1.362  1.00  0.00     0.043 A 
ATOM     13  C   UNL     1      -0.324  -1.582  -0.694  1.00  0.00     0.027 A 
ATOM     14  C   UNL     1      -1.668  -1.080  -2.639  1.00  0.00     0.052 A 
ATOM     15  C   UNL     1       0.350  -2.602  -1.367  1.00  0.00     0.013 A 
ATOM     16  C   UNL     1      -0.994  -2.118  -3.292  1.00  0.00     0.048 A 
ATOM     17  C   UNL     1       0.069  -2.825  -2.724  1.00  0.00     0.009 A 
ATOM     18  N   UNL     1      -1.167  -2.622  -4.549  1.00  0.00    -0.361 N 
ATOM     19  C   UNL     1      -0.185  -3.538  -4.819  1.00  0.00     0.094 A 
ATOM     20  H   UNL     1      -1.889  -2.366  -5.168  1.00  0.00     0.166 HD
BRANCH  12  21
ATOM     21  N   UNL     1      -1.663   0.438  -0.786  1.00  0.00    -0.326 N 
ATOM     22  C   UNL     1      -0.927   1.471  -0.273  1.00  0.00     0.226 C 
ATOM     23  O   UNL     1      -1.544   2.410   0.247  1.00  0.00    -0.274 OA
ATOM     24  H   UNL     1      -2.640   0.547  -0.742  1.00  0.00     0.169 HD
BRANCH  22  25
ATOM     25  C   UNL     1       0.599   1.588  -0.445  1.00  0.00     0.072 C 
ATOM     26  C   UNL     1       1.448   0.662   0.416  1.00  0.00     0.018 C 
ATOM     27  C   UNL     1       1.040   1.586  -1.909  1.00  0.00     0.018 C 
ENDBRANCH  22  25
ENDBRANCH  12  21
ENDBRANCH  10  11
BRANCH  10  28
ATOM     28  N   UNL     1       3.090  -3.482  -4.574  1.00  0.00    -0.310 N 
ATOM     29  C   UNL     1       3.109  -3.787  -5.995  1.00  0.00     0.325 C 
ATOM     30  C   UNL     1       3.424  -2.084  -4.333  1.00  0.00     0.325 C 
ATOM     31  H   UNL     1       3.853  -4.049  -4.204  1.00  0.00     0.349 HD
ATOM     32  C   UNL     1       2.314  -2.815  -6.900  1.00  0.00     0.324 C 
ATOM     33  C   UNL     1       2.741  -1.054  -5.273  1.00  0.00     0.324 C 
ATOM     34  N   UNL     1       2.599  -1.393  -6.700  1.00  0.00    -0.322 N 
ATOM     35  H   UNL     1       1.767  -0.879  -6.991  1.00  0.00     0.348 HD
BRANCH  34  36
ATOM     36  C   UNL     1       3.588  -0.828  -7.624  1.00  0.00     0.299 C 
BRANCH  36  37
ATOM     37  C   UNL     1       4.908  -1.557  -7.717  1.00  0.00     0.006 A 
ATOM     38  C   UNL     1       5.977  -1.194  -6.892  1.00  0.00     0.009 A 
ATOM     39  C   UNL     1       5.048  -2.680  -8.553  1.00  0.00     0.009 A 
ATOM     40  C   UNL     1       7.119  -1.992  -6.830  1.00  0.00     0.001 A 
ATOM     41  C   UNL     1       6.172  -3.498  -8.462  1.00  0.00     0.001 A 
ATOM     42  C   UNL     1       7.201  -3.160  -7.588  1.00  0.00     0.000 A 
ENDBRANCH  36  37
ENDBRANCH  34  36
ENDBRANCH  10  28
ENDBRANCH   8  10
ENDBRANCH   7   8
ENDBRANCH   6   7
ENDBRANCH   5   6
ENDBRANCH   4   5
ENDBRANCH   3   4
ENDBRANCH   2   3
ENDBRANCH   1   2
BRANCH   1  43
ATOM     43  C   UNL     1      -1.578  -7.077  -6.247  1.00  0.00     0.188 C 
BRANCH  43  44
ATOM     44  C   UNL     1      -1.413  -7.576  -7.685  1.00  0.00     0.188 C 
BRANCH  44  45
ATOM     45  O   UNL     1      -0.653  -6.688  -8.493  1.00  0.00    -0.376 OA
BRANCH  45  46
ATOM     46  C   UNL     1      -1.289  -5.674  -9.251  1.00  0.00     0.202 C 
BRANCH  46  47
ATOM     47  C   UNL     1      -2.225  -4.624  -8.619  1.00  0.00     0.261 C 
BRANCH  47  48
ATOM     48  O   UNL     1      -3.217  -5.052  -7.679  1.00  0.00    -0.460 OA
BRANCH  48  49
ATOM     49  C   UNL     1      -4.168  -5.910  -8.097  1.00  0.00     0.338 C 
ATOM     50  O   UNL     1      -4.303  -6.349  -9.229  1.00  0.00    -0.246 OA
BRANCH  49  51
ATOM     51  C   UNL     1      -4.895  -6.399  -6.902  1.00  0.00     0.060 A 
ATOM     52  C   UNL     1      -4.886  -7.772  -6.623  1.00  0.00     0.016 A 
ATOM     53  C   UNL     1      -5.571  -5.515  -6.056  1.00  0.00     0.016 A 
ATOM     54  C   UNL     1      -5.586  -8.271  -5.525  1.00  0.00     0.010 A 
ATOM     55  C   UNL     1      -6.299  -6.020  -4.972  1.00  0.00     0.010 A 
ATOM     56  C   UNL     1      -6.343  -7.404  -4.729  1.00  0.00    -0.014 A 
BRANCH  56  57
ATOM     57  C   UNL     1      -7.354  -7.972  -3.804  1.00  0.00     0.031 A 
ATOM     58  C   UNL     1      -8.778  -8.062  -4.285  1.00  0.00     0.074 A 
ATOM     59  C   UNL     1      -7.021  -8.424  -2.583  1.00  0.00     0.049 A 
ATOM     60  N   UNL     1      -9.840  -8.498  -3.662  1.00  0.00    -0.248 NA
ATOM     61  C   UNL     1      -9.037  -7.593  -5.658  1.00  0.00     0.031 C 
ATOM     62  C   UNL     1      -5.676  -8.415  -2.013  1.00  0.00     0.029 A 
ATOM     63  N   UNL     1      -7.805  -8.962  -1.591  1.00  0.00    -0.354 N 
ATOM     64  C   UNL     1     -10.895  -8.329  -4.551  1.00  0.00     0.074 A 
ATOM     65  C   UNL     1     -10.349  -7.740  -5.753  1.00  0.00     0.031 C 
ATOM     66  C   UNL     1      -5.732  -8.896  -0.758  1.00  0.00     0.029 A 
ATOM     67  C   UNL     1      -7.119  -9.220  -0.428  1.00  0.00     0.049 A 
ATOM     68  H   UNL     1      -8.766  -9.145  -1.703  1.00  0.00     0.167 HD
ATOM     69  C   UNL     1     -12.201  -8.644  -4.387  1.00  0.00     0.034 A 
ATOM     70  C   UNL     1      -7.567  -9.643   0.771  1.00  0.00     0.034 A 
ATOM     71  C   UNL     1     -12.740  -9.237  -3.194  1.00  0.00     0.049 A 
ATOM     72  C   UNL     1      -9.035  -9.950   0.942  1.00  0.00     0.074 A 
ATOM     73  C   UNL     1     -14.043  -9.627  -2.941  1.00  0.00     0.029 A 
ATOM     74  N   UNL     1     -12.010  -9.508  -2.048  1.00  0.00    -0.354 N 
ATOM     75  N   UNL     1     -10.004  -9.878   0.061  1.00  0.00    -0.248 NA
ATOM     76  C   UNL     1      -9.464 -10.430   2.264  1.00  0.00     0.031 C 
ATOM     77  C   UNL     1     -14.109 -10.095  -1.626  1.00  0.00     0.029 A 
ATOM     78  C   UNL     1     -12.837 -10.047  -1.078  1.00  0.00     0.049 A 
ATOM     79  H   UNL     1     -11.046  -9.342  -1.939  1.00  0.00     0.167 HD
ATOM     80  C   UNL     1     -11.144 -10.346   0.707  1.00  0.00     0.074 A 
ATOM     81  C   UNL     1     -10.742 -10.713   2.049  1.00  0.00     0.031 C 
ATOM     82  C   UNL     1     -12.412 -10.457   0.236  1.00  0.00     0.034 A 
BRANCH  69  83
ATOM     83  C   UNL     1     -13.139  -8.354  -5.529  1.00  0.00     0.023 A 
ATOM     84  C   UNL     1     -13.074  -9.124  -6.708  1.00  0.00     0.012 A 
ATOM     85  C   UNL     1     -14.115  -7.345  -5.415  1.00  0.00     0.148 A 
ATOM     86  C   UNL     1     -13.944  -8.873  -7.769  1.00  0.00     0.002 A 
ATOM     87  C   UNL     1     -15.011  -7.134  -6.455  1.00  0.00     0.091 A 
ATOM     88  F   UNL     1     -14.144  -6.608  -4.296  1.00  0.00    -0.205 F 
ATOM     89  C   UNL     1     -14.919  -7.887  -7.638  1.00  0.00     0.022 A 
BRANCH  87  90
ATOM     90  S   UNL     1     -16.351  -5.944  -6.352  1.00  0.00     0.127 S 
ATOM     91  O   UNL     1     -15.936  -4.946  -7.338  1.00  0.00    -0.237 OA
ATOM     92  O   UNL     1     -17.506  -6.749  -6.749  1.00  0.00    -0.237 OA
ATOM     93  O   UNL     1     -16.376  -5.481  -4.972  1.00  0.00    -0.744 OA
ENDBRANCH  87  90
ENDBRANCH  69  83
BRANCH  70  94
ATOM     94  C   UNL     1      -6.619  -9.819   1.908  1.00  0.00     0.023 A 
ATOM     95  C   UNL     1      -6.357 -11.110   2.409  1.00  0.00     0.012 A 
ATOM     96  C   UNL     1      -5.982  -8.712   2.502  1.00  0.00     0.148 A 
ATOM     97  C   UNL     1      -5.510 -11.291   3.503  1.00  0.00     0.002 A 
ATOM     98  C   UNL     1      -5.095  -8.904   3.553  1.00  0.00     0.091 A 
ATOM     99  F   UNL     1      -6.257  -7.491   2.022  1.00  0.00    -0.205 F 
ATOM    100  C   UNL     1      -4.872 -10.190   4.069  1.00  0.00     0.022 A 
BRANCH  98 101
ATOM    101  S   UNL     1      -4.137  -7.563   4.266  1.00  0.00     0.127 S 
ATOM    102  O   UNL     1      -4.704  -7.470   5.609  1.00  0.00    -0.237 OA
ATOM    103  O   UNL     1      -2.778  -8.102   4.206  1.00  0.00    -0.237 OA
ATOM    104  O   UNL     1      -4.367  -6.412   3.404  1.00  0.00    -0.744 OA
ENDBRANCH  98 101
ENDBRANCH  70  94
BRANCH  82 105
ATOM    105  C   UNL     1     -13.452 -11.056   1.148  1.00  0.00     0.023 A 
ATOM    106  C   UNL     1     -13.914 -10.338   2.269  1.00  0.00     0.012 A 
ATOM    107  C   UNL     1     -14.024 -12.309   0.847  1.00  0.00     0.148 A 
ATOM    108  C   UNL     1     -14.899 -10.877   3.099  1.00  0.00     0.002 A 
ATOM    109  C   UNL     1     -15.043 -12.813   1.645  1.00  0.00     0.091 A 
ATOM    110  F   UNL     1     -13.561 -12.983  -0.216  1.00  0.00    -0.205 F 
ATOM    111  C   UNL     1     -15.470 -12.107   2.780  1.00  0.00     0.022 A 
BRANCH 109 112
ATOM    112  S   UNL     1     -15.908 -14.338   1.253  1.00  0.00     0.127 S 
ATOM    113  O   UNL     1     -15.421 -15.234   2.301  1.00  0.00    -0.237 OA
ATOM    114  O   UNL     1     -17.310 -13.942   1.391  1.00  0.00    -0.237 OA
ATOM    115  O   UNL     1     -15.510 -14.690  -0.103  1.00  0.00    -0.744 OA
ENDBRANCH 109 112
ENDBRANCH  82 105
ENDBRANCH  56  57
ENDBRANCH  49  51
ENDBRANCH  48  49
ENDBRANCH  47  48
ENDBRANCH  46  47
ENDBRANCH  45  46
ENDBRANCH  44  45
ENDBRANCH  43  44
ENDBRANCH   1  43
TORSDOF 29
