REMARK SMILES O=C1CN(S(=O)(=O)c2ccc(CC(=O)OCCOCCOCCOCCOC(=O)c3ccc(-c4c5nc(c(-c6cccc(S(=O)(=O)[O-])c6F)c6ccc([nH]6)c(-c6cccc(S(=O)(=O)[O-])c6F)c6nc(c(-c7cccc(S(=O)(=O)[O-])c7F)c7ccc4[nH]7)C=C6)C=C5)cc3)cc2)CCN1
REMARK SMILES IDX 21 1 20 2 19 3 18 4 17 5 16 6 15 7 13 8 14 9 12 10 11 11
REMARK SMILES IDX 8 12 9 13 94 14 10 15 93 16 5 17 6 18 7 19 4 20 1 21 2 22
REMARK SMILES IDX 3 23 97 24 96 25 95 27 22 28 23 29 24 30 25 31 26 32 27 33
REMARK SMILES IDX 28 34 29 35 30 36 31 37 92 38 32 39 91 40 33 41 34 42 35 43
REMARK SMILES IDX 85 44 36 45 90 46 84 47 86 48 37 49 89 50 83 51 82 52 38 54
REMARK SMILES IDX 70 55 50 56 69 57 51 58 54 59 68 60 87 61 52 62 53 63 67 65
REMARK SMILES IDX 88 66 55 67 39 68 40 69 48 70 41 71 43 72 49 73 42 74 44 75
REMARK SMILES IDX 45 76 46 77 47 78 71 79 72 80 80 81 73 82 75 83 81 84 74 85
REMARK SMILES IDX 76 86 77 87 78 88 79 89 56 90 57 91 65 92 58 93 60 94 66 95
REMARK SMILES IDX 59 96 61 97 62 98 63 99 64 100
REMARK H PARENT 97 26 86 53 54 64
REMARK Flexibility Score: inf
ROOT
ATOM      1  O   UNL     1      -0.835  -3.264   7.859  1.00  0.00    -0.377 OA
ENDROOT
BRANCH   1   2
ATOM      2  C   UNL     1      -1.291  -4.102   6.813  1.00  0.00     0.188 C 
BRANCH   2   3
ATOM      3  C   UNL     1      -1.583  -5.556   7.252  1.00  0.00     0.188 C 
BRANCH   3   4
ATOM      4  O   UNL     1      -0.942  -6.147   8.383  1.00  0.00    -0.376 OA
BRANCH   4   5
ATOM      5  C   UNL     1       0.152  -5.482   8.991  1.00  0.00     0.202 C 
BRANCH   5   6
ATOM      6  C   UNL     1       1.445  -5.370   8.161  1.00  0.00     0.261 C 
BRANCH   6   7
ATOM      7  O   UNL     1       1.275  -5.277   6.728  1.00  0.00    -0.463 OA
BRANCH   7   8
ATOM      8  C   UNL     1       1.284  -6.440   6.036  1.00  0.00     0.310 C 
ATOM      9  O   UNL     1       1.527  -7.534   6.544  1.00  0.00    -0.252 OA
BRANCH   8  10
ATOM     10  C   UNL     1       0.990  -6.327   4.546  1.00  0.00     0.158 C 
BRANCH  10  11
ATOM     11  C   UNL     1       0.391  -5.073   3.926  1.00  0.00    -0.037 A 
ATOM     12  C   UNL     1      -0.707  -2.767   2.699  1.00  0.00     0.082 A 
ATOM     13  C   UNL     1      -1.518  -3.877   2.948  1.00  0.00     0.022 A 
ATOM     14  C   UNL     1       0.642  -2.800   3.072  1.00  0.00     0.022 A 
ATOM     15  C   UNL     1      -0.968  -5.024   3.546  1.00  0.00     0.006 A 
ATOM     16  C   UNL     1       1.187  -3.947   3.668  1.00  0.00     0.006 A 
BRANCH  12  17
ATOM     17  S   UNL     1      -1.425  -1.232   2.137  1.00  0.00     0.243 S 
ATOM     18  O   UNL     1      -0.642  -0.155   2.699  1.00  0.00    -0.207 OA
ATOM     19  O   UNL     1      -2.852  -1.303   2.388  1.00  0.00    -0.207 OA
BRANCH  17  20
ATOM     20  N   UNL     1      -1.237  -1.196   0.434  1.00  0.00    -0.187 NA
ATOM     21  O   UNL     1       2.210  -0.040  -0.043  1.00  0.00    -0.274 OA
ATOM     22  C   UNL     1       0.982  -0.019  -0.018  1.00  0.00     0.235 C 
ATOM     23  C   UNL     1       0.157  -1.293  -0.080  1.00  0.00     0.202 C 
ATOM     24  N   UNL     1       0.306   1.172  -0.076  1.00  0.00    -0.354 N 
ATOM     25  C   UNL     1      -1.131   1.298   0.077  1.00  0.00     0.132 C 
ATOM     26  H   UNL     1       0.828   1.992  -0.231  1.00  0.00     0.163 HD
ATOM     27  C   UNL     1      -1.898  -0.003  -0.209  1.00  0.00     0.124 C 
ENDBRANCH  17  20
ENDBRANCH  12  17
ENDBRANCH  10  11
ENDBRANCH   8  10
ENDBRANCH   7   8
ENDBRANCH   6   7
ENDBRANCH   5   6
ENDBRANCH   4   5
ENDBRANCH   3   4
ENDBRANCH   2   3
ENDBRANCH   1   2
BRANCH   1  28
ATOM     28  C   UNL     1      -1.761  -2.290   8.296  1.00  0.00     0.188 C 
BRANCH  28  29
ATOM     29  C   UNL     1      -3.079  -2.872   8.824  1.00  0.00     0.188 C 
BRANCH  29  30
ATOM     30  O   UNL     1      -3.728  -3.700   7.865  1.00  0.00    -0.376 OA
BRANCH  30  31
ATOM     31  C   UNL     1      -4.842  -3.199   7.149  1.00  0.00     0.202 C 
BRANCH  31  32
ATOM     32  C   UNL     1      -4.628  -2.083   6.112  1.00  0.00     0.261 C 
BRANCH  32  33
ATOM     33  O   UNL     1      -3.808  -0.978   6.501  1.00  0.00    -0.460 OA
BRANCH  33  34
ATOM     34  C   UNL     1      -4.276  -0.163   7.476  1.00  0.00     0.338 C 
ATOM     35  O   UNL     1      -5.325  -0.266   8.066  1.00  0.00    -0.246 OA
BRANCH  34  36
ATOM     36  C   UNL     1      -3.170   0.756   7.847  1.00  0.00     0.060 A 
ATOM     37  C   UNL     1      -2.743   0.779   9.182  1.00  0.00     0.016 A 
ATOM     38  C   UNL     1      -2.542   1.558   6.890  1.00  0.00     0.016 A 
ATOM     39  C   UNL     1      -1.714   1.636   9.572  1.00  0.00     0.010 A 
ATOM     40  C   UNL     1      -1.534   2.441   7.289  1.00  0.00     0.010 A 
ATOM     41  C   UNL     1      -1.148   2.513   8.639  1.00  0.00    -0.014 A 
BRANCH  41  42
ATOM     42  C   UNL     1      -0.353   3.666   9.123  1.00  0.00     0.031 A 
ATOM     43  C   UNL     1      -1.072   4.973   9.324  1.00  0.00     0.074 A 
ATOM     44  C   UNL     1       0.960   3.563   9.393  1.00  0.00     0.049 A 
ATOM     45  N   UNL     1      -0.605   6.129   9.715  1.00  0.00    -0.248 NA
ATOM     46  C   UNL     1      -2.519   4.974   9.043  1.00  0.00     0.031 C 
ATOM     47  C   UNL     1       1.762   2.349   9.255  1.00  0.00     0.029 A 
ATOM     48  N   UNL     1       1.855   4.513   9.820  1.00  0.00    -0.354 N 
ATOM     49  C   UNL     1      -1.689   6.998   9.697  1.00  0.00     0.074 A 
ATOM     50  C   UNL     1      -2.836   6.242   9.248  1.00  0.00     0.031 C 
ATOM     51  C   UNL     1       3.040   2.636   9.560  1.00  0.00     0.029 A 
ATOM     52  C   UNL     1       3.150   4.056   9.890  1.00  0.00     0.049 A 
ATOM     53  H   UNL     1       1.594   5.433  10.053  1.00  0.00     0.167 HD
ATOM     54  C   UNL     1      -1.730   8.308  10.033  1.00  0.00     0.034 A 
ATOM     55  C   UNL     1       4.291   4.720  10.165  1.00  0.00     0.034 A 
ATOM     56  C   UNL     1      -0.589   9.055  10.483  1.00  0.00     0.049 A 
ATOM     57  C   UNL     1       4.225   6.188  10.505  1.00  0.00     0.074 A 
ATOM     58  C   UNL     1      -0.531  10.378  10.881  1.00  0.00     0.029 A 
ATOM     59  N   UNL     1       0.698   8.550  10.576  1.00  0.00    -0.354 N 
ATOM     60  N   UNL     1       3.177   6.974  10.584  1.00  0.00    -0.248 NA
ATOM     61  C   UNL     1       5.496   6.854  10.829  1.00  0.00     0.031 C 
ATOM     62  C   UNL     1       0.801  10.684  11.178  1.00  0.00     0.029 A 
ATOM     63  C   UNL     1       1.562   9.537  11.015  1.00  0.00     0.049 A 
ATOM     64  H   UNL     1       0.959   7.625  10.362  1.00  0.00     0.167 HD
ATOM     65  C   UNL     1       3.655   8.209  11.013  1.00  0.00     0.074 A 
ATOM     66  C   UNL     1       5.085   8.063  11.187  1.00  0.00     0.031 C 
ATOM     67  C   UNL     1       2.974   9.360  11.238  1.00  0.00     0.034 A 
BRANCH  54  68
ATOM     68  C   UNL     1      -3.056   9.014   9.925  1.00  0.00     0.023 A 
ATOM     69  C   UNL     1      -4.089   8.717  10.838  1.00  0.00     0.012 A 
ATOM     70  C   UNL     1      -3.265  10.000   8.942  1.00  0.00     0.148 A 
ATOM     71  C   UNL     1      -5.321   9.365  10.752  1.00  0.00     0.002 A 
ATOM     72  C   UNL     1      -4.477  10.677   8.893  1.00  0.00     0.091 A 
ATOM     73  F   UNL     1      -2.280  10.249   8.067  1.00  0.00    -0.205 F 
ATOM     74  C   UNL     1      -5.510  10.351   9.788  1.00  0.00     0.022 A 
BRANCH  72  75
ATOM     75  S   UNL     1      -4.791  12.018   7.742  1.00  0.00     0.127 S 
ATOM     76  O   UNL     1      -5.790  11.420   6.857  1.00  0.00    -0.237 OA
ATOM     77  O   UNL     1      -5.306  13.065   8.625  1.00  0.00    -0.237 OA
ATOM     78  O   UNL     1      -3.510  12.323   7.118  1.00  0.00    -0.744 OA
ENDBRANCH  72  75
ENDBRANCH  54  68
BRANCH  55  79
ATOM     79  C   UNL     1       5.598   4.001  10.155  1.00  0.00     0.023 A 
ATOM     80  C   UNL     1       6.302   3.814  11.361  1.00  0.00     0.012 A 
ATOM     81  C   UNL     1       6.147   3.506   8.956  1.00  0.00     0.148 A 
ATOM     82  C   UNL     1       7.546   3.182  11.367  1.00  0.00     0.002 A 
ATOM     83  C   UNL     1       7.360   2.828   8.978  1.00  0.00     0.091 A 
ATOM     84  F   UNL     1       5.469   3.708   7.817  1.00  0.00    -0.205 F 
ATOM     85  C   UNL     1       8.070   2.681  10.179  1.00  0.00     0.022 A 
BRANCH  83  86
ATOM     86  S   UNL     1       8.056   2.046   7.519  1.00  0.00     0.127 S 
ATOM     87  O   UNL     1       9.252   2.853   7.289  1.00  0.00    -0.237 OA
ATOM     88  O   UNL     1       8.312   0.688   8.001  1.00  0.00    -0.237 OA
ATOM     89  O   UNL     1       7.028   2.137   6.492  1.00  0.00    -0.744 OA
ENDBRANCH  83  86
ENDBRANCH  55  79
BRANCH  67  90
ATOM     90  C   UNL     1       3.744  10.544  11.766  1.00  0.00     0.023 A 
ATOM     91  C   UNL     1       4.648  11.234  10.934  1.00  0.00     0.012 A 
ATOM     92  C   UNL     1       3.507  11.018  13.072  1.00  0.00     0.148 A 
ATOM     93  C   UNL     1       5.332  12.354  11.408  1.00  0.00     0.002 A 
ATOM     94  C   UNL     1       4.149  12.166  13.518  1.00  0.00     0.091 A 
ATOM     95  F   UNL     1       2.655  10.338  13.854  1.00  0.00    -0.205 F 
ATOM     96  C   UNL     1       5.073  12.826  12.694  1.00  0.00     0.022 A 
BRANCH  94  97
ATOM     97  S   UNL     1       3.799  12.904  15.117  1.00  0.00     0.127 S 
ATOM     98  O   UNL     1       5.024  12.607  15.857  1.00  0.00    -0.237 OA
ATOM     99  O   UNL     1       3.621  14.316  14.774  1.00  0.00    -0.237 OA
ATOM    100  O   UNL     1       2.596  12.247  15.610  1.00  0.00    -0.744 OA
ENDBRANCH  94  97
ENDBRANCH  67  90
ENDBRANCH  41  42
ENDBRANCH  34  36
ENDBRANCH  33  34
ENDBRANCH  32  33
ENDBRANCH  31  32
ENDBRANCH  30  31
ENDBRANCH  29  30
ENDBRANCH  28  29
ENDBRANCH   1  28
TORSDOF 26
