REMARK SMILES O=C(OCCOCCOCCOCCOC(=O)[C@H]1CCCCN1c1ccnc2ccccc12)c1ccc(-c2c3nc(c(-c4cccc(S(=O)(=O)[O-])c4F)c4ccc([nH]4)c(-c4cccc(S(=O)(=O)[O-])c4F)c4nc(c(-c5cccc(S(=O)(=O)[O-])c5F)c5ccc2[nH]5)C=C4)C=C3)cc1
REMARK SMILES IDX 8 1 7 2 6 3 5 4 4 5 3 6 2 7 1 8 34 9 35 10 96 11 36 12 95 13
REMARK SMILES IDX 37 14 38 15 39 16 89 17 40 18 94 19 88 20 90 21 41 22 93 23
REMARK SMILES IDX 87 24 86 25 42 27 74 28 54 29 73 30 55 31 58 32 72 33 91 34
REMARK SMILES IDX 56 35 57 36 71 38 92 39 59 40 43 41 44 42 52 43 45 44 47 45
REMARK SMILES IDX 53 46 46 47 48 48 49 49 50 50 51 51 75 52 76 53 84 54 77 55
REMARK SMILES IDX 79 56 85 57 78 58 80 59 81 60 82 61 83 62 60 63 61 64 69 65
REMARK SMILES IDX 62 66 64 67 70 68 63 69 65 70 66 71 67 72 68 73 9 74 10 75
REMARK SMILES IDX 11 76 12 77 13 78 14 79 15 80 16 81 17 82 18 83 19 84 23 85
REMARK SMILES IDX 20 86 22 87 21 88 24 89 25 90 33 91 26 92 28 93 32 94 27 95
REMARK SMILES IDX 29 96 31 97 30 98
REMARK H PARENT 90 26 58 37
REMARK Flexibility Score: inf
ROOT
ATOM      1  C   UNL     1       8.329  -3.500   0.791  1.00  0.00     0.188 C 
ENDROOT
BRANCH   1   2
ATOM      2  C   UNL     1       7.662  -4.219   1.964  1.00  0.00     0.188 C 
BRANCH   2   3
ATOM      3  O   UNL     1       7.522  -5.626   1.738  1.00  0.00    -0.376 OA
BRANCH   3   4
ATOM      4  C   UNL     1       6.308  -6.255   2.165  1.00  0.00     0.202 C 
BRANCH   4   5
ATOM      5  C   UNL     1       6.077  -6.408   3.669  1.00  0.00     0.261 C 
BRANCH   5   6
ATOM      6  O   UNL     1       6.647  -5.360   4.455  1.00  0.00    -0.460 OA
BRANCH   6   7
ATOM      7  C   UNL     1       7.929  -5.245   4.884  1.00  0.00     0.338 C 
ATOM      8  O   UNL     1       8.187  -4.315   5.647  1.00  0.00    -0.246 OA
BRANCH   7   9
ATOM      9  C   UNL     1       9.073  -6.082   4.372  1.00  0.00     0.060 A 
ATOM     10  C   UNL     1       8.977  -7.127   3.447  1.00  0.00     0.016 A 
ATOM     11  C   UNL     1      10.362  -5.726   4.809  1.00  0.00     0.016 A 
ATOM     12  C   UNL     1      10.083  -7.740   2.895  1.00  0.00     0.010 A 
ATOM     13  C   UNL     1      11.486  -6.422   4.359  1.00  0.00     0.010 A 
ATOM     14  C   UNL     1      11.328  -7.445   3.419  1.00  0.00    -0.014 A 
BRANCH  14  15
ATOM     15  C   UNL     1      12.323  -8.505   3.262  1.00  0.00     0.031 A 
ATOM     16  C   UNL     1      12.334  -9.552   4.333  1.00  0.00     0.074 A 
ATOM     17  C   UNL     1      13.043  -8.602   2.137  1.00  0.00     0.049 A 
ATOM     18  N   UNL     1      13.158 -10.539   4.519  1.00  0.00    -0.248 NA
ATOM     19  C   UNL     1      11.243  -9.484   5.328  1.00  0.00     0.031 C 
ATOM     20  C   UNL     1      12.922  -7.719   0.976  1.00  0.00     0.029 A 
ATOM     21  N   UNL     1      14.023  -9.488   1.795  1.00  0.00    -0.354 N 
ATOM     22  C   UNL     1      12.736 -11.154   5.691  1.00  0.00     0.074 A 
ATOM     23  C   UNL     1      11.554 -10.470   6.149  1.00  0.00     0.031 C 
ATOM     24  C   UNL     1      13.845  -8.075   0.067  1.00  0.00     0.029 A 
ATOM     25  C   UNL     1      14.650  -9.158   0.619  1.00  0.00     0.049 A 
ATOM     26  H   UNL     1      14.255 -10.279   2.334  1.00  0.00     0.167 HD
ATOM     27  C   UNL     1      13.321 -12.181   6.341  1.00  0.00     0.034 A 
ATOM     28  C   UNL     1      15.796  -9.643   0.109  1.00  0.00     0.034 A 
ATOM     29  C   UNL     1      14.512 -12.805   5.847  1.00  0.00     0.049 A 
ATOM     30  C   UNL     1      16.491 -10.728   0.888  1.00  0.00     0.074 A 
ATOM     31  C   UNL     1      15.262 -13.813   6.412  1.00  0.00     0.029 A 
ATOM     32  N   UNL     1      15.136 -12.444   4.658  1.00  0.00    -0.354 N 
ATOM     33  N   UNL     1      16.125 -11.291   2.018  1.00  0.00    -0.248 NA
ATOM     34  C   UNL     1      17.738 -11.257   0.327  1.00  0.00     0.031 C 
ATOM     35  C   UNL     1      16.367 -14.032   5.582  1.00  0.00     0.029 A 
ATOM     36  C   UNL     1      16.271 -13.202   4.471  1.00  0.00     0.049 A 
ATOM     37  H   UNL     1      14.814 -11.749   4.040  1.00  0.00     0.167 HD
ATOM     38  C   UNL     1      17.072 -12.269   2.287  1.00  0.00     0.074 A 
ATOM     39  C   UNL     1      18.030 -12.218   1.196  1.00  0.00     0.031 C 
ATOM     40  C   UNL     1      17.154 -13.131   3.331  1.00  0.00     0.034 A 
BRANCH  27  41
ATOM     41  C   UNL     1      12.732 -12.575   7.667  1.00  0.00     0.023 A 
ATOM     42  C   UNL     1      11.465 -13.191   7.740  1.00  0.00     0.012 A 
ATOM     43  C   UNL     1      13.410 -12.252   8.858  1.00  0.00     0.148 A 
ATOM     44  C   UNL     1      10.860 -13.425   8.976  1.00  0.00     0.002 A 
ATOM     45  C   UNL     1      12.825 -12.536  10.085  1.00  0.00     0.091 A 
ATOM     46  F   UNL     1      14.594 -11.629   8.771  1.00  0.00    -0.205 F 
ATOM     47  C   UNL     1      11.543 -13.104  10.147  1.00  0.00     0.022 A 
BRANCH  45  48
ATOM     48  S   UNL     1      13.649 -12.220  11.648  1.00  0.00     0.127 S 
ATOM     49  O   UNL     1      12.845 -11.132  12.194  1.00  0.00    -0.237 OA
ATOM     50  O   UNL     1      13.500 -13.499  12.335  1.00  0.00    -0.237 OA
ATOM     51  O   UNL     1      15.028 -11.868  11.310  1.00  0.00    -0.744 OA
ENDBRANCH  45  48
ENDBRANCH  27  41
BRANCH  28  52
ATOM     52  C   UNL     1      16.348  -9.074  -1.151  1.00  0.00     0.023 A 
ATOM     53  C   UNL     1      16.378  -9.854  -2.321  1.00  0.00     0.012 A 
ATOM     54  C   UNL     1      16.785  -7.733  -1.210  1.00  0.00     0.148 A 
ATOM     55  C   UNL     1      16.847  -9.316  -3.522  1.00  0.00     0.002 A 
ATOM     56  C   UNL     1      17.202  -7.188  -2.418  1.00  0.00     0.091 A 
ATOM     57  F   UNL     1      16.759  -7.008  -0.083  1.00  0.00    -0.205 F 
ATOM     58  C   UNL     1      17.248  -7.983  -3.574  1.00  0.00     0.022 A 
BRANCH  56  59
ATOM     59  S   UNL     1      17.622  -5.451  -2.607  1.00  0.00     0.127 S 
ATOM     60  O   UNL     1      19.046  -5.520  -2.921  1.00  0.00    -0.237 OA
ATOM     61  O   UNL     1      16.763  -5.054  -3.722  1.00  0.00    -0.237 OA
ATOM     62  O   UNL     1      17.290  -4.822  -1.334  1.00  0.00    -0.744 OA
ENDBRANCH  56  59
ENDBRANCH  28  52
BRANCH  40  63
ATOM     63  C   UNL     1      18.264 -14.140   3.306  1.00  0.00     0.023 A 
ATOM     64  C   UNL     1      19.581 -13.755   3.618  1.00  0.00     0.012 A 
ATOM     65  C   UNL     1      17.954 -15.499   3.111  1.00  0.00     0.148 A 
ATOM     66  C   UNL     1      20.582 -14.718   3.722  1.00  0.00     0.002 A 
ATOM     67  C   UNL     1      18.943 -16.455   3.277  1.00  0.00     0.091 A 
ATOM     68  F   UNL     1      16.692 -15.828   2.799  1.00  0.00    -0.205 F 
ATOM     69  C   UNL     1      20.260 -16.066   3.570  1.00  0.00     0.022 A 
BRANCH  67  70
ATOM     70  S   UNL     1      18.589 -18.214   3.226  1.00  0.00     0.127 S 
ATOM     71  O   UNL     1      19.265 -18.616   1.994  1.00  0.00    -0.237 OA
ATOM     72  O   UNL     1      19.223 -18.690   4.456  1.00  0.00    -0.237 OA
ATOM     73  O   UNL     1      17.137 -18.335   3.207  1.00  0.00    -0.744 OA
ENDBRANCH  67  70
ENDBRANCH  40  63
ENDBRANCH  14  15
ENDBRANCH   7   9
ENDBRANCH   6   7
ENDBRANCH   5   6
ENDBRANCH   4   5
ENDBRANCH   3   4
ENDBRANCH   2   3
ENDBRANCH   1   2
BRANCH   1  74
ATOM     74  O   UNL     1       7.569  -3.446  -0.400  1.00  0.00    -0.377 OA
BRANCH  74  75
ATOM     75  C   UNL     1       6.912  -4.635  -0.779  1.00  0.00     0.188 C 
BRANCH  75  76
ATOM     76  C   UNL     1       7.671  -5.858  -1.312  1.00  0.00     0.188 C 
BRANCH  76  77
ATOM     77  O   UNL     1       8.575  -5.748  -2.396  1.00  0.00    -0.376 OA
BRANCH  77  78
ATOM     78  C   UNL     1       8.955  -4.446  -2.785  1.00  0.00     0.202 C 
BRANCH  78  79
ATOM     79  C   UNL     1       7.971  -3.783  -3.769  1.00  0.00     0.261 C 
BRANCH  79  80
ATOM     80  O   UNL     1       6.553  -3.823  -3.432  1.00  0.00    -0.462 OA
BRANCH  80  81
ATOM     81  C   UNL     1       5.863  -4.955  -3.770  1.00  0.00     0.328 C 
ATOM     82  O   UNL     1       6.367  -5.845  -4.452  1.00  0.00    -0.250 OA
BRANCH  81  83
ATOM     83  C   UNL     1       4.338  -4.958  -3.343  1.00  0.00     0.192 C 
ATOM     84  C   UNL     1       3.697  -6.189  -4.025  1.00  0.00     0.037 C 
ATOM     85  N   UNL     1       3.943  -4.942  -1.857  1.00  0.00    -0.358 N 
ATOM     86  C   UNL     1       4.031  -7.477  -3.276  1.00  0.00     0.005 C 
ATOM     87  C   UNL     1       3.937  -6.214  -1.100  1.00  0.00     0.117 C 
ATOM     88  C   UNL     1       3.416  -7.409  -1.890  1.00  0.00     0.022 C 
BRANCH  85  89
ATOM     89  C   UNL     1       3.006  -3.975  -1.392  1.00  0.00     0.048 A 
ATOM     90  C   UNL     1       1.879  -3.699  -2.166  1.00  0.00     0.046 A 
ATOM     91  C   UNL     1       3.105  -3.259  -0.133  1.00  0.00     0.024 A 
ATOM     92  C   UNL     1       0.976  -2.738  -1.744  1.00  0.00     0.114 A 
ATOM     93  C   UNL     1       2.159  -2.245   0.157  1.00  0.00     0.072 A 
ATOM     94  C   UNL     1       4.068  -3.468   0.875  1.00  0.00     0.012 A 
ATOM     95  N   UNL     1       1.112  -1.995  -0.633  1.00  0.00    -0.256 NA
ATOM     96  C   UNL     1       2.283  -1.462   1.308  1.00  0.00     0.029 A 
ATOM     97  C   UNL     1       4.159  -2.713   2.053  1.00  0.00     0.001 A 
ATOM     98  C   UNL     1       3.282  -1.672   2.252  1.00  0.00     0.002 A 
ENDBRANCH  85  89
ENDBRANCH  81  83
ENDBRANCH  80  81
ENDBRANCH  79  80
ENDBRANCH  78  79
ENDBRANCH  77  78
ENDBRANCH  76  77
ENDBRANCH  75  76
ENDBRANCH  74  75
ENDBRANCH   1  74
TORSDOF 24
