REMARK SMILES O=C(OCCOCCOCCOCCOC(=O)c1nnn(-c2ccc(C(F)(F)F)cc2)c1-c1cccc(Cl)c1)c1ccc(-c2c3nc(c(-c4cccc(S(=O)(=O)[O-])c4F)c4ccc([nH]4)c(-c4cccc(S(=O)(=O)[O-])c4F)c4nc(c(-c5cccc(S(=O)(=O)[O-])c5F)c5ccc2[nH]5)C=C4)C=C3)cc1
REMARK SMILES IDX 8 1 7 2 6 3 5 4 4 5 3 6 2 7 1 8 40 9 41 10 102 11 42 12
REMARK SMILES IDX 101 13 43 14 44 15 45 16 95 17 46 18 100 19 94 20 96 21
REMARK SMILES IDX 47 22 99 23 93 24 92 25 48 27 80 28 60 29 79 30 61 31 64 32
REMARK SMILES IDX 78 33 97 34 62 35 63 36 77 38 98 39 65 40 49 41 50 42 58 43
REMARK SMILES IDX 51 44 53 45 59 46 52 47 54 48 55 49 56 50 57 51 81 52 82 53
REMARK SMILES IDX 90 54 83 55 85 56 91 57 84 58 86 59 87 60 88 61 89 62 66 63
REMARK SMILES IDX 67 64 75 65 68 66 70 67 76 68 69 69 71 70 72 71 73 72 74 73
REMARK SMILES IDX 9 74 10 75 11 76 12 77 13 78 14 79 15 80 16 81 17 82 18 83
REMARK SMILES IDX 19 84 32 85 20 86 21 87 33 88 34 89 39 90 35 91 37 92 36 93
REMARK SMILES IDX 38 94 22 95 23 96 31 97 24 98 30 99 25 100 26 101 27 102
REMARK SMILES IDX 28 103 29 104
REMARK H PARENT 96 26 64 37
REMARK Flexibility Score: inf
ROOT
ATOM      1  C   UNL     1       2.234  -1.406   1.544  1.00  0.00     0.188 C 
ENDROOT
BRANCH   1   2
ATOM      2  C   UNL     1       2.946  -1.599   0.194  1.00  0.00     0.188 C 
BRANCH   2   3
ATOM      3  O   UNL     1       4.310  -1.280  -0.032  1.00  0.00    -0.376 OA
BRANCH   3   4
ATOM      4  C   UNL     1       5.047  -0.114   0.280  1.00  0.00     0.202 C 
BRANCH   4   5
ATOM      5  C   UNL     1       4.487   1.299   0.459  1.00  0.00     0.261 C 
BRANCH   5   6
ATOM      6  O   UNL     1       3.109   1.386   0.777  1.00  0.00    -0.460 OA
BRANCH   6   7
ATOM      7  C   UNL     1       2.061   1.407  -0.070  1.00  0.00     0.338 C 
ATOM      8  O   UNL     1       0.942   1.564   0.414  1.00  0.00    -0.246 OA
BRANCH   7   9
ATOM      9  C   UNL     1       2.173   1.161  -1.536  1.00  0.00     0.060 A 
ATOM     10  C   UNL     1       3.355   1.052  -2.277  1.00  0.00     0.016 A 
ATOM     11  C   UNL     1       0.945   1.013  -2.206  1.00  0.00     0.016 A 
ATOM     12  C   UNL     1       3.323   1.012  -3.651  1.00  0.00     0.010 A 
ATOM     13  C   UNL     1       0.900   0.932  -3.583  1.00  0.00     0.010 A 
ATOM     14  C   UNL     1       2.092   1.033  -4.286  1.00  0.00    -0.014 A 
BRANCH  14  15
ATOM     15  C   UNL     1       2.120   1.209  -5.719  1.00  0.00     0.031 A 
ATOM     16  C   UNL     1       2.698   0.072  -6.474  1.00  0.00     0.074 A 
ATOM     17  C   UNL     1       1.636   2.347  -6.249  1.00  0.00     0.049 A 
ATOM     18  N   UNL     1       3.743   0.072  -7.235  1.00  0.00    -0.248 NA
ATOM     19  C   UNL     1       2.130  -1.262  -6.228  1.00  0.00     0.031 C 
ATOM     20  C   UNL     1       0.863   3.392  -5.566  1.00  0.00     0.029 A 
ATOM     21  N   UNL     1       1.594   2.733  -7.549  1.00  0.00    -0.354 N 
ATOM     22  C   UNL     1       3.812  -1.217  -7.759  1.00  0.00     0.074 A 
ATOM     23  C   UNL     1       2.925  -2.031  -6.970  1.00  0.00     0.031 C 
ATOM     24  C   UNL     1       0.190   4.110  -6.489  1.00  0.00     0.029 A 
ATOM     25  C   UNL     1       0.595   3.663  -7.808  1.00  0.00     0.049 A 
ATOM     26  H   UNL     1       2.208   2.389  -8.238  1.00  0.00     0.167 HD
ATOM     27  C   UNL     1       4.378  -1.460  -8.972  1.00  0.00     0.034 A 
ATOM     28  C   UNL     1       0.059   3.942  -9.019  1.00  0.00     0.034 A 
ATOM     29  C   UNL     1       5.271  -0.407  -9.368  1.00  0.00     0.049 A 
ATOM     30  C   UNL     1       1.015   3.467 -10.046  1.00  0.00     0.074 A 
ATOM     31  C   UNL     1       6.415   0.150  -8.831  1.00  0.00     0.029 A 
ATOM     32  N   UNL     1       4.814   0.491 -10.301  1.00  0.00    -0.354 N 
ATOM     33  N   UNL     1       2.196   3.990 -10.226  1.00  0.00    -0.248 NA
ATOM     34  C   UNL     1       0.841   2.121 -10.571  1.00  0.00     0.031 C 
ATOM     35  C   UNL     1       6.312   1.542  -9.116  1.00  0.00     0.029 A 
ATOM     36  C   UNL     1       5.148   1.744  -9.861  1.00  0.00     0.049 A 
ATOM     37  H   UNL     1       4.335   0.273 -11.133  1.00  0.00     0.167 HD
ATOM     38  C   UNL     1       3.025   2.901 -10.464  1.00  0.00     0.074 A 
ATOM     39  C   UNL     1       2.120   1.796 -10.775  1.00  0.00     0.031 C 
ATOM     40  C   UNL     1       4.341   2.921 -10.096  1.00  0.00     0.034 A 
BRANCH  27  41
ATOM     41  C   UNL     1       3.831  -2.462  -9.959  1.00  0.00     0.023 A 
ATOM     42  C   UNL     1       4.607  -2.751 -11.102  1.00  0.00     0.012 A 
ATOM     43  C   UNL     1       2.491  -2.917  -9.961  1.00  0.00     0.148 A 
ATOM     44  C   UNL     1       4.064  -3.425 -12.203  1.00  0.00     0.002 A 
ATOM     45  C   UNL     1       1.984  -3.663 -11.017  1.00  0.00     0.091 A 
ATOM     46  F   UNL     1       1.645  -2.514  -9.009  1.00  0.00    -0.205 F 
ATOM     47  C   UNL     1       2.755  -3.893 -12.155  1.00  0.00     0.022 A 
BRANCH  45  48
ATOM     48  S   UNL     1       0.319  -4.336 -10.968  1.00  0.00     0.127 S 
ATOM     49  O   UNL     1      -0.386  -3.441 -11.880  1.00  0.00    -0.237 OA
ATOM     50  O   UNL     1       0.531  -5.694 -11.469  1.00  0.00    -0.237 OA
ATOM     51  O   UNL     1      -0.082  -4.277  -9.567  1.00  0.00    -0.744 OA
ENDBRANCH  45  48
ENDBRANCH  27  41
BRANCH  28  52
ATOM     52  C   UNL     1      -1.345   4.289  -9.338  1.00  0.00     0.023 A 
ATOM     53  C   UNL     1      -1.642   4.921 -10.559  1.00  0.00     0.012 A 
ATOM     54  C   UNL     1      -2.418   3.774  -8.574  1.00  0.00     0.148 A 
ATOM     55  C   UNL     1      -2.961   5.017 -11.017  1.00  0.00     0.002 A 
ATOM     56  C   UNL     1      -3.728   3.885  -9.025  1.00  0.00     0.091 A 
ATOM     57  F   UNL     1      -2.148   3.093  -7.452  1.00  0.00    -0.205 F 
ATOM     58  C   UNL     1      -4.003   4.496 -10.254  1.00  0.00     0.022 A 
BRANCH  56  59
ATOM     59  S   UNL     1      -5.119   3.221  -8.098  1.00  0.00     0.127 S 
ATOM     60  O   UNL     1      -6.059   4.343  -8.118  1.00  0.00    -0.237 OA
ATOM     61  O   UNL     1      -5.511   2.079  -8.918  1.00  0.00    -0.237 OA
ATOM     62  O   UNL     1      -4.599   2.903  -6.774  1.00  0.00    -0.744 OA
ENDBRANCH  56  59
ENDBRANCH  28  52
BRANCH  40  63
ATOM     63  C   UNL     1       4.932   4.233  -9.639  1.00  0.00     0.023 A 
ATOM     64  C   UNL     1       4.479   4.900  -8.480  1.00  0.00     0.012 A 
ATOM     65  C   UNL     1       6.088   4.704 -10.283  1.00  0.00     0.148 A 
ATOM     66  C   UNL     1       5.149   6.025  -7.992  1.00  0.00     0.002 A 
ATOM     67  C   UNL     1       6.779   5.794  -9.766  1.00  0.00     0.091 A 
ATOM     68  F   UNL     1       6.512   4.056 -11.378  1.00  0.00    -0.205 F 
ATOM     69  C   UNL     1       6.307   6.464  -8.627  1.00  0.00     0.022 A 
BRANCH  67  70
ATOM     70  S   UNL     1       8.347   6.321 -10.461  1.00  0.00     0.127 S 
ATOM     71  O   UNL     1       7.965   7.518 -11.205  1.00  0.00    -0.237 OA
ATOM     72  O   UNL     1       9.152   6.575  -9.264  1.00  0.00    -0.237 OA
ATOM     73  O   UNL     1       8.822   5.202 -11.267  1.00  0.00    -0.744 OA
ENDBRANCH  67  70
ENDBRANCH  40  63
ENDBRANCH  14  15
ENDBRANCH   7   9
ENDBRANCH   6   7
ENDBRANCH   5   6
ENDBRANCH   4   5
ENDBRANCH   3   4
ENDBRANCH   2   3
ENDBRANCH   1   2
BRANCH   1  74
ATOM     74  O   UNL     1       2.794  -2.094   2.651  1.00  0.00    -0.377 OA
BRANCH  74  75
ATOM     75  C   UNL     1       4.112  -1.697   2.955  1.00  0.00     0.188 C 
BRANCH  75  76
ATOM     76  C   UNL     1       5.213  -2.688   2.507  1.00  0.00     0.188 C 
BRANCH  76  77
ATOM     77  O   UNL     1       4.945  -3.986   1.983  1.00  0.00    -0.376 OA
BRANCH  77  78
ATOM     78  C   UNL     1       3.692  -4.622   2.144  1.00  0.00     0.202 C 
BRANCH  78  79
ATOM     79  C   UNL     1       3.311  -5.076   3.554  1.00  0.00     0.261 C 
BRANCH  79  80
ATOM     80  O   UNL     1       3.576  -4.113   4.575  1.00  0.00    -0.458 OA
BRANCH  80  81
ATOM     81  C   UNL     1       4.826  -4.135   5.116  1.00  0.00     0.361 C 
ATOM     82  O   UNL     1       5.686  -4.981   4.903  1.00  0.00    -0.244 OA
BRANCH  81  83
ATOM     83  C   UNL     1       5.008  -3.025   6.029  1.00  0.00     0.198 A 
ATOM     84  N   UNL     1       5.810  -1.931   5.809  1.00  0.00    -0.122 NA
ATOM     85  C   UNL     1       4.327  -2.866   7.216  1.00  0.00     0.109 A 
ATOM     86  N   UNL     1       5.612  -1.068   6.801  1.00  0.00    -0.061 NA
ATOM     87  N   UNL     1       4.836  -1.683   7.718  1.00  0.00    -0.212 N 
BRANCH  85  88
ATOM     88  C   UNL     1       3.353  -3.742   7.851  1.00  0.00     0.004 A 
ATOM     89  C   UNL     1       2.125  -3.258   8.319  1.00  0.00     0.010 A 
ATOM     90  C   UNL     1       3.643  -5.108   7.961  1.00  0.00     0.031 A 
ATOM     91  C   UNL     1       1.206  -4.133   8.901  1.00  0.00     0.002 A 
ATOM     92  C   UNL     1       2.719  -5.974   8.530  1.00  0.00     0.041 A 
ATOM     93  C   UNL     1       1.503  -5.492   9.005  1.00  0.00     0.020 A 
ATOM     94  Cl  UNL     1       3.091  -7.649   8.644  1.00  0.00    -0.084 Cl
ENDBRANCH  85  88
BRANCH  87  95
ATOM     95  C   UNL     1       4.794  -1.268   9.059  1.00  0.00     0.067 A 
ATOM     96  C   UNL     1       4.385   0.020   9.398  1.00  0.00     0.029 A 
ATOM     97  C   UNL     1       5.066  -2.229  10.039  1.00  0.00     0.029 A 
ATOM     98  C   UNL     1       4.129   0.298  10.745  1.00  0.00     0.015 A 
ATOM     99  C   UNL     1       4.839  -1.937  11.372  1.00  0.00     0.015 A 
ATOM    100  C   UNL     1       4.326  -0.686  11.737  1.00  0.00     0.056 A 
BRANCH 100 101
ATOM    101  C   UNL     1       3.951  -0.425  13.173  1.00  0.00     0.416 C 
ATOM    102  F   UNL     1       4.628   0.621  13.716  1.00  0.00    -0.166 F 
ATOM    103  F   UNL     1       2.627  -0.138  13.317  1.00  0.00    -0.166 F 
ATOM    104  F   UNL     1       4.186  -1.489  13.994  1.00  0.00    -0.166 F 
ENDBRANCH 100 101
ENDBRANCH  87  95
ENDBRANCH  81  83
ENDBRANCH  80  81
ENDBRANCH  79  80
ENDBRANCH  78  79
ENDBRANCH  77  78
ENDBRANCH  76  77
ENDBRANCH  75  76
ENDBRANCH  74  75
ENDBRANCH   1  74
TORSDOF 26
