REMARK SMILES Cc1nn(C)c(=O)c(C(=O)N2CCCC[C@H]2C(=O)OCCOCCOCCOCCOC(=O)c2ccc(-c3c4nc(c(-c5cccc(S(=O)(=O)[O-])c5F)c5ccc([nH]5)c(-c5cccc(S(=O)(=O)[O-])c5F)c5nc(c(-c6cccc(S(=O)(=O)[O-])c6F)c6ccc3[nH]6)C=C5)C=C4)cc2)c1C
REMARK SMILES IDX 26 1 25 2 24 3 23 4 22 5 21 6 20 7 19 8 17 9 18 10 16 11
REMARK SMILES IDX 11 12 12 13 13 14 15 15 14 16 9 17 10 18 8 19 1 20 2 21 3 22
REMARK SMILES IDX 97 23 4 24 98 25 5 26 6 27 7 28 27 29 28 30 29 31 30 32
REMARK SMILES IDX 31 33 32 34 33 35 34 36 35 37 96 38 36 39 95 40 37 41 38 42
REMARK SMILES IDX 39 43 89 44 40 45 94 46 88 47 90 48 41 49 93 50 87 51 86 52
REMARK SMILES IDX 42 54 74 55 54 56 73 57 55 58 58 59 72 60 91 61 56 62 57 63
REMARK SMILES IDX 71 65 92 66 59 67 43 68 44 69 52 70 45 71 47 72 53 73 46 74
REMARK SMILES IDX 48 75 49 76 50 77 51 78 75 79 76 80 84 81 77 82 79 83 85 84
REMARK SMILES IDX 78 85 80 86 81 87 82 88 83 89 60 90 61 91 69 92 62 93 64 94
REMARK SMILES IDX 70 95 63 96 65 97 66 98 67 99 68 100
REMARK H PARENT 90 53 58 64
REMARK Flexibility Score: inf
ROOT
ATOM      1  C   UNL     1      -4.778   4.037  -4.620  1.00  0.00     0.188 C 
ENDROOT
BRANCH   1   2
ATOM      2  O   UNL     1      -3.546   3.359  -4.496  1.00  0.00    -0.377 OA
BRANCH   2   3
ATOM      3  C   UNL     1      -3.641   2.009  -4.109  1.00  0.00     0.188 C 
BRANCH   3   4
ATOM      4  C   UNL     1      -3.338   1.777  -2.623  1.00  0.00     0.188 C 
BRANCH   4   5
ATOM      5  O   UNL     1      -2.375   2.558  -1.915  1.00  0.00    -0.376 OA
BRANCH   5   6
ATOM      6  C   UNL     1      -1.539   3.453  -2.631  1.00  0.00     0.202 C 
BRANCH   6   7
ATOM      7  C   UNL     1      -0.445   2.815  -3.505  1.00  0.00     0.261 C 
BRANCH   7   8
ATOM      8  O   UNL     1      -0.852   1.626  -4.221  1.00  0.00    -0.462 OA
BRANCH   8   9
ATOM      9  C   UNL     1      -0.225   0.459  -3.932  1.00  0.00     0.328 C 
ATOM     10  O   UNL     1       0.691   0.364  -3.120  1.00  0.00    -0.250 OA
BRANCH   9  11
ATOM     11  C   UNL     1      -0.825  -0.786  -4.658  1.00  0.00     0.195 C 
ATOM     12  N   UNL     1      -1.846  -1.625  -3.954  1.00  0.00    -0.325 N 
ATOM     13  C   UNL     1      -3.240  -1.531  -4.391  1.00  0.00     0.121 C 
ATOM     14  C   UNL     1      -3.421  -1.587  -5.893  1.00  0.00     0.022 C 
ATOM     15  C   UNL     1      -1.134  -0.543  -6.160  1.00  0.00     0.037 C 
ATOM     16  C   UNL     1      -2.600  -0.519  -6.589  1.00  0.00     0.005 C 
BRANCH  12  17
ATOM     17  C   UNL     1      -1.583  -2.610  -2.993  1.00  0.00     0.260 C 
ATOM     18  O   UNL     1      -2.395  -3.505  -2.741  1.00  0.00    -0.269 OA
BRANCH  17  19
ATOM     19  C   UNL     1      -0.383  -2.523  -2.120  1.00  0.00     0.111 A 
ATOM     20  C   UNL     1       1.344  -0.311   0.344  1.00  0.00     0.069 C 
ATOM     21  C   UNL     1       0.858  -1.597  -0.283  1.00  0.00     0.062 A 
ATOM     22  N   UNL     1       1.474  -2.692   0.025  1.00  0.00    -0.175 NA
ATOM     23  C   UNL     1      -0.310  -1.547  -1.195  1.00  0.00    -0.010 A 
ATOM     24  N   UNL     1       1.118  -3.810  -0.683  1.00  0.00    -0.232 N 
ATOM     25  C   UNL     1      -1.339  -0.510  -0.891  1.00  0.00     0.047 C 
ATOM     26  C   UNL     1       1.619  -5.067  -0.165  1.00  0.00     0.178 C 
ATOM     27  C   UNL     1       0.435  -3.755  -1.900  1.00  0.00     0.279 A 
ATOM     28  O   UNL     1       0.413  -4.682  -2.707  1.00  0.00    -0.267 OA
ENDBRANCH  17  19
ENDBRANCH  12  17
ENDBRANCH   9  11
ENDBRANCH   8   9
ENDBRANCH   7   8
ENDBRANCH   6   7
ENDBRANCH   5   6
ENDBRANCH   4   5
ENDBRANCH   3   4
ENDBRANCH   2   3
ENDBRANCH   1   2
BRANCH   1  29
ATOM     29  C   UNL     1      -5.733   3.902  -3.426  1.00  0.00     0.188 C 
BRANCH  29  30
ATOM     30  O   UNL     1      -6.191   2.559  -3.233  1.00  0.00    -0.376 OA
BRANCH  30  31
ATOM     31  C   UNL     1      -7.508   2.253  -3.676  1.00  0.00     0.202 C 
BRANCH  31  32
ATOM     32  C   UNL     1      -7.639   1.938  -5.174  1.00  0.00     0.261 C 
BRANCH  32  33
ATOM     33  O   UNL     1      -7.286   2.990  -6.084  1.00  0.00    -0.460 OA
BRANCH  33  34
ATOM     34  C   UNL     1      -7.888   4.196  -5.936  1.00  0.00     0.338 C 
ATOM     35  O   UNL     1      -8.762   4.484  -5.153  1.00  0.00    -0.246 OA
BRANCH  34  36
ATOM     36  C   UNL     1      -7.118   5.172  -6.745  1.00  0.00     0.060 A 
ATOM     37  C   UNL     1      -6.630   6.325  -6.114  1.00  0.00     0.016 A 
ATOM     38  C   UNL     1      -6.832   4.925  -8.089  1.00  0.00     0.016 A 
ATOM     39  C   UNL     1      -5.868   7.246  -6.834  1.00  0.00     0.010 A 
ATOM     40  C   UNL     1      -6.104   5.865  -8.819  1.00  0.00     0.010 A 
ATOM     41  C   UNL     1      -5.649   7.043  -8.202  1.00  0.00    -0.014 A 
BRANCH  41  42
ATOM     42  C   UNL     1      -5.181   8.165  -9.047  1.00  0.00     0.031 A 
ATOM     43  C   UNL     1      -6.229   9.056  -9.653  1.00  0.00     0.074 A 
ATOM     44  C   UNL     1      -3.877   8.379  -9.289  1.00  0.00     0.049 A 
ATOM     45  N   UNL     1      -6.091  10.054 -10.483  1.00  0.00    -0.248 NA
ATOM     46  C   UNL     1      -7.624   8.779  -9.267  1.00  0.00     0.031 C 
ATOM     47  C   UNL     1      -2.773   7.606  -8.726  1.00  0.00     0.029 A 
ATOM     48  N   UNL     1      -3.267   9.307 -10.094  1.00  0.00    -0.354 N 
ATOM     49  C   UNL     1      -7.378  10.519 -10.725  1.00  0.00     0.074 A 
ATOM     50  C   UNL     1      -8.285   9.681  -9.974  1.00  0.00     0.031 C 
ATOM     51  C   UNL     1      -1.616   8.080  -9.220  1.00  0.00     0.029 A 
ATOM     52  C   UNL     1      -1.901   9.168 -10.156  1.00  0.00     0.049 A 
ATOM     53  H   UNL     1      -3.760  10.007 -10.580  1.00  0.00     0.167 HD
ATOM     54  C   UNL     1      -7.772  11.562 -11.491  1.00  0.00     0.034 A 
ATOM     55  C   UNL     1      -0.992   9.834 -10.898  1.00  0.00     0.034 A 
ATOM     56  C   UNL     1      -6.869  12.378 -12.254  1.00  0.00     0.049 A 
ATOM     57  C   UNL     1      -1.459  10.941 -11.811  1.00  0.00     0.074 A 
ATOM     58  C   UNL     1      -7.164  13.446 -13.080  1.00  0.00     0.029 A 
ATOM     59  N   UNL     1      -5.493  12.207 -12.293  1.00  0.00    -0.354 N 
ATOM     60  N   UNL     1      -2.671  11.412 -11.986  1.00  0.00    -0.248 NA
ATOM     61  C   UNL     1      -0.430  11.623 -12.611  1.00  0.00     0.031 C 
ATOM     62  C   UNL     1      -5.967  13.909 -13.636  1.00  0.00     0.029 A 
ATOM     63  C   UNL     1      -4.923  13.148 -13.132  1.00  0.00     0.049 A 
ATOM     64  H   UNL     1      -4.995  11.517 -11.797  1.00  0.00     0.167 HD
ATOM     65  C   UNL     1      -2.547  12.468 -12.885  1.00  0.00     0.074 A 
ATOM     66  C   UNL     1      -1.138  12.575 -13.207  1.00  0.00     0.031 C 
ATOM     67  C   UNL     1      -3.512  13.268 -13.406  1.00  0.00     0.034 A 
BRANCH  54  68
ATOM     68  C   UNL     1      -9.242  11.884 -11.513  1.00  0.00     0.023 A 
ATOM     69  C   UNL     1      -9.845  12.444 -10.367  1.00  0.00     0.012 A 
ATOM     70  C   UNL     1     -10.023  11.656 -12.662  1.00  0.00     0.148 A 
ATOM     71  C   UNL     1     -11.207  12.740 -10.352  1.00  0.00     0.002 A 
ATOM     72  C   UNL     1     -11.370  11.999 -12.656  1.00  0.00     0.091 A 
ATOM     73  F   UNL     1      -9.441  11.093 -13.730  1.00  0.00    -0.205 F 
ATOM     74  C   UNL     1     -11.966  12.529 -11.499  1.00  0.00     0.022 A 
BRANCH  72  75
ATOM     75  S   UNL     1     -12.416  11.836 -14.107  1.00  0.00     0.127 S 
ATOM     76  O   UNL     1     -13.269  10.710 -13.730  1.00  0.00    -0.237 OA
ATOM     77  O   UNL     1     -13.097  13.131 -14.142  1.00  0.00    -0.237 OA
ATOM     78  O   UNL     1     -11.515  11.593 -15.224  1.00  0.00    -0.744 OA
ENDBRANCH  72  75
ENDBRANCH  54  68
BRANCH  55  79
ATOM     79  C   UNL     1       0.457   9.509 -10.756  1.00  0.00     0.023 A 
ATOM     80  C   UNL     1       1.311  10.441 -10.135  1.00  0.00     0.012 A 
ATOM     81  C   UNL     1       0.981   8.268 -11.171  1.00  0.00     0.148 A 
ATOM     82  C   UNL     1       2.661  10.148  -9.937  1.00  0.00     0.002 A 
ATOM     83  C   UNL     1       2.313   7.960 -10.918  1.00  0.00     0.091 A 
ATOM     84  F   UNL     1       0.155   7.402 -11.774  1.00  0.00    -0.205 F 
ATOM     85  C   UNL     1       3.159   8.904 -10.315  1.00  0.00     0.022 A 
BRANCH  83  86
ATOM     86  S   UNL     1       3.013   6.337 -11.242  1.00  0.00     0.127 S 
ATOM     87  O   UNL     1       4.051   6.647 -12.222  1.00  0.00    -0.237 OA
ATOM     88  O   UNL     1       3.505   5.958  -9.918  1.00  0.00    -0.237 OA
ATOM     89  O   UNL     1       1.912   5.521 -11.736  1.00  0.00    -0.744 OA
ENDBRANCH  83  86
ENDBRANCH  55  79
BRANCH  67  90
ATOM     90  C   UNL     1      -3.088  14.354 -14.364  1.00  0.00     0.023 A 
ATOM     91  C   UNL     1      -2.671  14.016 -15.666  1.00  0.00     0.012 A 
ATOM     92  C   UNL     1      -3.203  15.713 -14.007  1.00  0.00     0.148 A 
ATOM     93  C   UNL     1      -2.346  15.011 -16.588  1.00  0.00     0.002 A 
ATOM     94  C   UNL     1      -2.928  16.700 -14.947  1.00  0.00     0.091 A 
ATOM     95  F   UNL     1      -3.587  16.017 -12.758  1.00  0.00    -0.205 F 
ATOM     96  C   UNL     1      -2.488  16.351 -16.234  1.00  0.00     0.022 A 
BRANCH  94  97
ATOM     97  S   UNL     1      -3.187  18.446 -14.613  1.00  0.00     0.127 S 
ATOM     98  O   UNL     1      -1.815  18.928 -14.464  1.00  0.00    -0.237 OA
ATOM     99  O   UNL     1      -3.865  18.899 -15.828  1.00  0.00    -0.237 OA
ATOM    100  O   UNL     1      -4.006  18.506 -13.409  1.00  0.00    -0.744 OA
ENDBRANCH  94  97
ENDBRANCH  67  90
ENDBRANCH  41  42
ENDBRANCH  34  36
ENDBRANCH  33  34
ENDBRANCH  32  33
ENDBRANCH  31  32
ENDBRANCH  30  31
ENDBRANCH  29  30
ENDBRANCH   1  29
TORSDOF 25
