REMARK SMILES COCc1cc(N2CCCC[C@H]2C(=O)OCCOCCOCCOCCOC(=O)c2ccc(-c3c4nc(c(-c5cccc(S(=O)(=O)[O-])c5F)c5ccc([nH]5)c(-c5cccc(S(=O)(=O)[O-])c5F)c5nc(c(-c6cccc(S(=O)(=O)[O-])c6F)c6ccc3[nH]6)C=C5)C=C4)cc2)nc(-c2ccc(Cl)cc2)n1
REMARK SMILES IDX 21 1 20 2 19 3 18 4 17 5 16 6 15 7 13 8 14 9 12 10 7 11 8 12
REMARK SMILES IDX 9 13 11 14 10 15 6 16 4 17 5 18 102 19 94 20 93 21 3 22 2 23
REMARK SMILES IDX 1 24 95 25 96 26 101 27 97 28 100 29 98 30 99 31 22 32 23 33
REMARK SMILES IDX 24 34 25 35 26 36 27 37 28 38 29 39 30 40 31 41 92 42 32 43
REMARK SMILES IDX 91 44 33 45 34 46 35 47 85 48 36 49 90 50 84 51 86 52 37 53
REMARK SMILES IDX 89 54 83 55 82 56 38 58 70 59 50 60 69 61 51 62 54 63 68 64
REMARK SMILES IDX 87 65 52 66 53 67 67 69 88 70 55 71 39 72 40 73 48 74 41 75
REMARK SMILES IDX 43 76 49 77 42 78 44 79 45 80 46 81 47 82 71 83 72 84 80 85
REMARK SMILES IDX 73 86 75 87 81 88 74 89 76 90 77 91 78 92 79 93 56 94 57 95
REMARK SMILES IDX 65 96 58 97 60 98 66 99 59 100 61 101 62 102 63 103 64 104
REMARK H PARENT 86 57 54 68
REMARK Flexibility Score: inf
ROOT
ATOM      1  O   UNL     1      -1.889  -3.467   4.959  1.00  0.00    -0.377 OA
ENDROOT
BRANCH   1   2
ATOM      2  C   UNL     1      -2.651  -2.620   4.124  1.00  0.00     0.188 C 
BRANCH   2   3
ATOM      3  C   UNL     1      -2.536  -2.853   2.618  1.00  0.00     0.188 C 
BRANCH   3   4
ATOM      4  O   UNL     1      -2.299  -4.176   2.178  1.00  0.00    -0.376 OA
BRANCH   4   5
ATOM      5  C   UNL     1      -1.118  -4.822   2.660  1.00  0.00     0.202 C 
BRANCH   5   6
ATOM      6  C   UNL     1       0.208  -4.032   2.699  1.00  0.00     0.261 C 
BRANCH   6   7
ATOM      7  O   UNL     1       0.244  -2.923   3.643  1.00  0.00    -0.462 OA
BRANCH   7   8
ATOM      8  C   UNL     1       0.540  -1.697   3.139  1.00  0.00     0.328 C 
ATOM      9  O   UNL     1       0.816  -1.532   1.951  1.00  0.00    -0.250 OA
BRANCH   8  10
ATOM     10  C   UNL     1       0.515  -0.511   4.154  1.00  0.00     0.193 C 
ATOM     11  N   UNL     1      -0.554   0.505   3.897  1.00  0.00    -0.343 N 
ATOM     12  C   UNL     1      -1.648   0.790   4.820  1.00  0.00     0.119 C 
ATOM     13  C   UNL     1      -1.287   0.589   6.277  1.00  0.00     0.022 C 
ATOM     14  C   UNL     1       0.709  -0.831   5.641  1.00  0.00     0.037 C 
ATOM     15  C   UNL     1      -0.514  -0.691   6.535  1.00  0.00     0.005 C 
BRANCH  11  16
ATOM     16  C   UNL     1      -0.204   1.578   3.078  1.00  0.00     0.133 A 
ATOM     17  C   UNL     1       0.482   2.439   0.982  1.00  0.00     0.072 A 
ATOM     18  C   UNL     1       0.045   1.374   1.740  1.00  0.00     0.073 A 
ATOM     19  N   UNL     1       0.553   3.685   1.497  1.00  0.00    -0.230 NA
ATOM     20  C   UNL     1       0.222   3.810   2.796  1.00  0.00     0.161 A 
ATOM     21  N   UNL     1      -0.119   2.803   3.615  1.00  0.00    -0.211 NA
BRANCH  17  22
ATOM     22  C   UNL     1       0.982   2.236  -0.434  1.00  0.00     0.216 C 
BRANCH  22  23
ATOM     23  O   UNL     1       0.618   0.976  -1.010  1.00  0.00    -0.378 OA
ATOM     24  C   UNL     1       1.608  -0.032  -0.812  1.00  0.00     0.195 C 
ENDBRANCH  22  23
ENDBRANCH  17  22
BRANCH  20  25
ATOM     25  C   UNL     1       0.208   5.157   3.369  1.00  0.00     0.019 A 
ATOM     26  C   UNL     1      -0.509   6.196   2.749  1.00  0.00     0.013 A 
ATOM     27  C   UNL     1       0.892   5.444   4.563  1.00  0.00     0.013 A 
ATOM     28  C   UNL     1      -0.534   7.481   3.298  1.00  0.00     0.021 A 
ATOM     29  C   UNL     1       0.884   6.733   5.106  1.00  0.00     0.021 A 
ATOM     30  C   UNL     1       0.171   7.745   4.469  1.00  0.00     0.041 A 
ATOM     31  Cl  UNL     1       0.162   9.333   5.132  1.00  0.00    -0.084 Cl
ENDBRANCH  20  25
ENDBRANCH  11  16
ENDBRANCH   8  10
ENDBRANCH   7   8
ENDBRANCH   6   7
ENDBRANCH   5   6
ENDBRANCH   4   5
ENDBRANCH   3   4
ENDBRANCH   2   3
ENDBRANCH   1   2
BRANCH   1  32
ATOM     32  C   UNL     1      -2.533  -4.362   5.851  1.00  0.00     0.188 C 
BRANCH  32  33
ATOM     33  C   UNL     1      -4.053  -4.481   5.752  1.00  0.00     0.188 C 
BRANCH  33  34
ATOM     34  O   UNL     1      -4.846  -3.356   6.155  1.00  0.00    -0.376 OA
BRANCH  34  35
ATOM     35  C   UNL     1      -4.301  -2.404   7.066  1.00  0.00     0.202 C 
BRANCH  35  36
ATOM     36  C   UNL     1      -4.469  -2.751   8.543  1.00  0.00     0.261 C 
BRANCH  36  37
ATOM     37  O   UNL     1      -3.589  -3.815   8.927  1.00  0.00    -0.460 OA
BRANCH  37  38
ATOM     38  C   UNL     1      -4.144  -5.045   8.906  1.00  0.00     0.338 C 
ATOM     39  O   UNL     1      -5.313  -5.327   8.673  1.00  0.00    -0.246 OA
BRANCH  38  40
ATOM     40  C   UNL     1      -3.087  -6.058   9.048  1.00  0.00     0.060 A 
ATOM     41  C   UNL     1      -3.128  -7.175   8.203  1.00  0.00     0.016 A 
ATOM     42  C   UNL     1      -2.126  -5.954  10.056  1.00  0.00     0.016 A 
ATOM     43  C   UNL     1      -2.265  -8.239   8.424  1.00  0.00     0.010 A 
ATOM     44  C   UNL     1      -1.269  -7.027  10.286  1.00  0.00     0.010 A 
ATOM     45  C   UNL     1      -1.389  -8.195   9.514  1.00  0.00    -0.014 A 
BRANCH  45  46
ATOM     46  C   UNL     1      -0.821  -9.463  10.014  1.00  0.00     0.031 A 
ATOM     47  C   UNL     1      -1.516 -10.137  11.165  1.00  0.00     0.074 A 
ATOM     48  C   UNL     1       0.259 -10.012   9.438  1.00  0.00     0.049 A 
ATOM     49  N   UNL     1      -1.209 -11.241  11.791  1.00  0.00    -0.248 NA
ATOM     50  C   UNL     1      -2.723  -9.468  11.685  1.00  0.00     0.031 C 
ATOM     51  C   UNL     1       0.982  -9.456   8.296  1.00  0.00     0.029 A 
ATOM     52  N   UNL     1       0.939 -11.158   9.749  1.00  0.00    -0.354 N 
ATOM     53  C   UNL     1      -2.160 -11.381  12.795  1.00  0.00     0.074 A 
ATOM     54  C   UNL     1      -3.039 -10.237  12.714  1.00  0.00     0.031 C 
ATOM     55  C   UNL     1       2.021 -10.260   8.010  1.00  0.00     0.029 A 
ATOM     56  C   UNL     1       2.047 -11.365   8.965  1.00  0.00     0.049 A 
ATOM     57  H   UNL     1       0.661 -11.773  10.466  1.00  0.00     0.167 HD
ATOM     58  C   UNL     1      -2.301 -12.383  13.694  1.00  0.00     0.034 A 
ATOM     59  C   UNL     1       2.978 -12.335   9.029  1.00  0.00     0.034 A 
ATOM     60  C   UNL     1      -1.420 -13.516  13.760  1.00  0.00     0.049 A 
ATOM     61  C   UNL     1       2.832 -13.414  10.070  1.00  0.00     0.074 A 
ATOM     62  C   UNL     1      -1.471 -14.602  14.614  1.00  0.00     0.029 A 
ATOM     63  N   UNL     1      -0.313 -13.699  12.943  1.00  0.00    -0.354 N 
ATOM     64  N   UNL     1       1.887 -13.579  10.966  1.00  0.00    -0.248 NA
ATOM     65  C   UNL     1       3.862 -14.461  10.084  1.00  0.00     0.031 C 
ATOM     66  C   UNL     1      -0.372 -15.422  14.338  1.00  0.00     0.029 A 
ATOM     67  C   UNL     1       0.334 -14.874  13.277  1.00  0.00     0.049 A 
ATOM     68  H   UNL     1      -0.030 -13.082  12.230  1.00  0.00     0.167 HD
ATOM     69  C   UNL     1       2.178 -14.775  11.613  1.00  0.00     0.074 A 
ATOM     70  C   UNL     1       3.386 -15.293  11.001  1.00  0.00     0.031 C 
ATOM     71  C   UNL     1       1.509 -15.392  12.620  1.00  0.00     0.034 A 
BRANCH  58  72
ATOM     72  C   UNL     1      -3.445 -12.279  14.671  1.00  0.00     0.023 A 
ATOM     73  C   UNL     1      -4.776 -12.388  14.214  1.00  0.00     0.012 A 
ATOM     74  C   UNL     1      -3.205 -12.063  16.041  1.00  0.00     0.148 A 
ATOM     75  C   UNL     1      -5.847 -12.226  15.093  1.00  0.00     0.002 A 
ATOM     76  C   UNL     1      -4.277 -11.958  16.921  1.00  0.00     0.091 A 
ATOM     77  F   UNL     1      -1.938 -11.936  16.457  1.00  0.00    -0.205 F 
ATOM     78  C   UNL     1      -5.597 -12.020  16.446  1.00  0.00     0.022 A 
BRANCH  76  79
ATOM     79  S   UNL     1      -4.056 -11.773  18.693  1.00  0.00     0.127 S 
ATOM     80  O   UNL     1      -4.457 -10.381  18.897  1.00  0.00    -0.237 OA
ATOM     81  O   UNL     1      -4.995 -12.761  19.224  1.00  0.00    -0.237 OA
ATOM     82  O   UNL     1      -2.655 -12.066  18.955  1.00  0.00    -0.744 OA
ENDBRANCH  76  79
ENDBRANCH  58  72
BRANCH  59  83
ATOM     83  C   UNL     1       4.091 -12.360   8.041  1.00  0.00     0.023 A 
ATOM     84  C   UNL     1       4.123 -13.373   7.063  1.00  0.00     0.012 A 
ATOM     85  C   UNL     1       5.096 -11.373   8.044  1.00  0.00     0.148 A 
ATOM     86  C   UNL     1       5.151 -13.419   6.122  1.00  0.00     0.002 A 
ATOM     87  C   UNL     1       6.087 -11.394   7.071  1.00  0.00     0.091 A 
ATOM     88  F   UNL     1       5.047 -10.422   8.987  1.00  0.00    -0.205 F 
ATOM     89  C   UNL     1       6.127 -12.426   6.120  1.00  0.00     0.022 A 
BRANCH  87  90
ATOM     90  S   UNL     1       7.316 -10.094   6.912  1.00  0.00     0.127 S 
ATOM     91  O   UNL     1       8.555 -10.817   7.187  1.00  0.00    -0.237 OA
ATOM     92  O   UNL     1       7.136  -9.684   5.519  1.00  0.00    -0.237 OA
ATOM     93  O   UNL     1       6.951  -9.080   7.892  1.00  0.00    -0.744 OA
ENDBRANCH  87  90
ENDBRANCH  59  83
BRANCH  71  94
ATOM     94  C   UNL     1       2.023 -16.732  13.079  1.00  0.00     0.023 A 
ATOM     95  C   UNL     1       3.229 -16.826  13.801  1.00  0.00     0.012 A 
ATOM     96  C   UNL     1       1.264 -17.897  12.846  1.00  0.00     0.148 A 
ATOM     97  C   UNL     1       3.693 -18.064  14.246  1.00  0.00     0.002 A 
ATOM     98  C   UNL     1       1.703 -19.117  13.342  1.00  0.00     0.091 A 
ATOM     99  F   UNL     1       0.128 -17.790  12.142  1.00  0.00    -0.205 F 
ATOM    100  C   UNL     1       2.925 -19.206  14.028  1.00  0.00     0.022 A 
BRANCH  98 101
ATOM    101  S   UNL     1       0.727 -20.618  13.201  1.00  0.00     0.127 S 
ATOM    102  O   UNL     1       1.488 -21.375  12.209  1.00  0.00    -0.237 OA
ATOM    103  O   UNL     1       0.791 -21.157  14.560  1.00  0.00    -0.237 OA
ATOM    104  O   UNL     1      -0.602 -20.196  12.781  1.00  0.00    -0.744 OA
ENDBRANCH  98 101
ENDBRANCH  71  94
ENDBRANCH  45  46
ENDBRANCH  38  40
ENDBRANCH  37  38
ENDBRANCH  36  37
ENDBRANCH  35  36
ENDBRANCH  34  35
ENDBRANCH  33  34
ENDBRANCH  32  33
ENDBRANCH   1  32
TORSDOF 27
