REMARK SMILES O=C(OCCOCCOCCOCCOC(=O)c1ccc2c(c1)[C@@H](C1CCOCC1)C(=O)N2)c1ccc(-c2c3nc(c(-c4cccc(S(=O)(=O)[O-])c4F)c4ccc([nH]4)c(-c4cccc(S(=O)(=O)[O-])c4F)c4nc(c(-c5cccc(S(=O)(=O)[O-])c5F)c5ccc2[nH]5)C=C4)C=C3)cc1
REMARK SMILES IDX 8 1 7 2 6 3 5 4 4 5 3 6 2 7 1 8 34 9 35 10 96 11 36 12 95 13
REMARK SMILES IDX 37 14 38 15 39 16 89 17 40 18 94 19 88 20 90 21 41 22 93 23
REMARK SMILES IDX 87 24 86 25 42 27 74 28 54 29 73 30 55 31 58 32 72 33 91 34
REMARK SMILES IDX 56 35 57 36 71 38 92 39 59 40 43 41 44 42 52 43 45 44 47 45
REMARK SMILES IDX 53 46 46 47 48 48 49 49 50 50 51 51 75 52 76 53 84 54 77 55
REMARK SMILES IDX 79 56 85 57 78 58 80 59 81 60 82 61 83 62 60 63 61 64 69 65
REMARK SMILES IDX 62 66 64 67 70 68 63 69 65 70 66 71 67 72 68 73 9 74 10 75
REMARK SMILES IDX 11 76 12 77 13 78 14 79 15 80 16 81 17 82 18 83 19 84 23 85
REMARK SMILES IDX 20 86 22 87 21 88 24 89 33 90 31 91 32 93 25 94 26 95 30 96
REMARK SMILES IDX 27 97 29 98 28 99
REMARK H PARENT 90 26 58 37 33 92
REMARK Flexibility Score: inf
ROOT
ATOM      1  C   UNL     1       1.817   2.686   0.046  1.00  0.00     0.188 C 
ENDROOT
BRANCH   1   2
ATOM      2  C   UNL     1       2.275   1.405  -0.652  1.00  0.00     0.188 C 
BRANCH   2   3
ATOM      3  O   UNL     1       3.595   1.081  -0.234  1.00  0.00    -0.376 OA
BRANCH   3   4
ATOM      4  C   UNL     1       4.444   0.345  -1.099  1.00  0.00     0.202 C 
BRANCH   4   5
ATOM      5  C   UNL     1       3.974  -1.049  -1.516  1.00  0.00     0.261 C 
BRANCH   5   6
ATOM      6  O   UNL     1       2.582  -1.312  -1.268  1.00  0.00    -0.460 OA
BRANCH   6   7
ATOM      7  C   UNL     1       2.018  -1.858  -0.158  1.00  0.00     0.338 C 
ATOM      8  O   UNL     1       0.828  -2.162  -0.179  1.00  0.00    -0.246 OA
BRANCH   7   9
ATOM      9  C   UNL     1       2.799  -2.124   1.078  1.00  0.00     0.060 A 
ATOM     10  C   UNL     1       3.786  -1.274   1.559  1.00  0.00     0.016 A 
ATOM     11  C   UNL     1       2.472  -3.244   1.849  1.00  0.00     0.016 A 
ATOM     12  C   UNL     1       4.595  -1.618   2.619  1.00  0.00     0.010 A 
ATOM     13  C   UNL     1       3.197  -3.537   3.010  1.00  0.00     0.010 A 
ATOM     14  C   UNL     1       4.310  -2.756   3.357  1.00  0.00    -0.014 A 
BRANCH  14  15
ATOM     15  C   UNL     1       5.291  -3.156   4.383  1.00  0.00     0.031 A 
ATOM     16  C   UNL     1       6.058  -4.425   4.161  1.00  0.00     0.074 A 
ATOM     17  C   UNL     1       5.594  -2.312   5.388  1.00  0.00     0.049 A 
ATOM     18  N   UNL     1       6.924  -5.011   4.938  1.00  0.00    -0.248 NA
ATOM     19  C   UNL     1       5.822  -5.130   2.886  1.00  0.00     0.031 C 
ATOM     20  C   UNL     1       4.975  -0.999   5.609  1.00  0.00     0.029 A 
ATOM     21  N   UNL     1       6.519  -2.410   6.393  1.00  0.00    -0.354 N 
ATOM     22  C   UNL     1       7.282  -6.181   4.281  1.00  0.00     0.074 A 
ATOM     23  C   UNL     1       6.548  -6.225   3.039  1.00  0.00     0.031 C 
ATOM     24  C   UNL     1       5.556  -0.407   6.663  1.00  0.00     0.029 A 
ATOM     25  C   UNL     1       6.514  -1.333   7.250  1.00  0.00     0.049 A 
ATOM     26  H   UNL     1       7.129  -3.177   6.492  1.00  0.00     0.167 HD
ATOM     27  C   UNL     1       8.154  -7.131   4.685  1.00  0.00     0.034 A 
ATOM     28  C   UNL     1       7.172  -1.148   8.409  1.00  0.00     0.034 A 
ATOM     29  C   UNL     1       8.890  -7.040   5.912  1.00  0.00     0.049 A 
ATOM     30  C   UNL     1       8.095  -2.246   8.861  1.00  0.00     0.074 A 
ATOM     31  C   UNL     1       9.751  -7.959   6.476  1.00  0.00     0.029 A 
ATOM     32  N   UNL     1       8.850  -5.944   6.765  1.00  0.00    -0.354 N 
ATOM     33  N   UNL     1       8.401  -3.368   8.251  1.00  0.00    -0.248 NA
ATOM     34  C   UNL     1       8.772  -2.055  10.148  1.00  0.00     0.031 C 
ATOM     35  C   UNL     1      10.220  -7.425   7.682  1.00  0.00     0.029 A 
ATOM     36  C   UNL     1       9.676  -6.159   7.850  1.00  0.00     0.049 A 
ATOM     37  H   UNL     1       8.312  -5.132   6.617  1.00  0.00     0.167 HD
ATOM     38  C   UNL     1       9.317  -4.011   9.071  1.00  0.00     0.074 A 
ATOM     39  C   UNL     1       9.544  -3.131  10.202  1.00  0.00     0.031 C 
ATOM     40  C   UNL     1       9.901  -5.226   8.926  1.00  0.00     0.034 A 
BRANCH  27  41
ATOM     41  C   UNL     1       8.314  -8.336   3.800  1.00  0.00     0.023 A 
ATOM     42  C   UNL     1       9.004  -8.230   2.575  1.00  0.00     0.012 A 
ATOM     43  C   UNL     1       7.750  -9.572   4.171  1.00  0.00     0.148 A 
ATOM     44  C   UNL     1       9.096  -9.325   1.716  1.00  0.00     0.002 A 
ATOM     45  C   UNL     1       7.883 -10.670   3.330  1.00  0.00     0.091 A 
ATOM     46  F   UNL     1       7.072  -9.643   5.325  1.00  0.00    -0.205 F 
ATOM     47  C   UNL     1       8.543 -10.545   2.096  1.00  0.00     0.022 A 
BRANCH  45  48
ATOM     48  S   UNL     1       7.252 -12.298   3.750  1.00  0.00     0.127 S 
ATOM     49  O   UNL     1       6.226 -12.490   2.725  1.00  0.00    -0.237 OA
ATOM     50  O   UNL     1       8.441 -13.134   3.587  1.00  0.00    -0.237 OA
ATOM     51  O   UNL     1       6.754 -12.199   5.114  1.00  0.00    -0.744 OA
ENDBRANCH  45  48
ENDBRANCH  27  41
BRANCH  28  52
ATOM     52  C   UNL     1       6.949   0.081   9.226  1.00  0.00     0.023 A 
ATOM     53  C   UNL     1       8.008   0.978   9.461  1.00  0.00     0.012 A 
ATOM     54  C   UNL     1       5.680   0.369   9.770  1.00  0.00     0.148 A 
ATOM     55  C   UNL     1       7.816   2.115  10.251  1.00  0.00     0.002 A 
ATOM     56  C   UNL     1       5.480   1.534  10.501  1.00  0.00     0.091 A 
ATOM     57  F   UNL     1       4.684  -0.505   9.563  1.00  0.00    -0.205 F 
ATOM     58  C   UNL     1       6.552   2.399  10.761  1.00  0.00     0.022 A 
BRANCH  56  59
ATOM     59  S   UNL     1       3.851   2.037  11.068  1.00  0.00     0.127 S 
ATOM     60  O   UNL     1       3.920   1.726  12.492  1.00  0.00    -0.237 OA
ATOM     61  O   UNL     1       3.842   3.465  10.748  1.00  0.00    -0.237 OA
ATOM     62  O   UNL     1       2.908   1.248  10.286  1.00  0.00    -0.744 OA
ENDBRANCH  56  59
ENDBRANCH  28  52
BRANCH  40  63
ATOM     63  C   UNL     1      10.864  -5.646   9.999  1.00  0.00     0.023 A 
ATOM     64  C   UNL     1      10.381  -6.030  11.264  1.00  0.00     0.012 A 
ATOM     65  C   UNL     1      12.242  -5.724   9.723  1.00  0.00     0.148 A 
ATOM     66  C   UNL     1      11.264  -6.453  12.255  1.00  0.00     0.002 A 
ATOM     67  C   UNL     1      13.108  -6.199  10.696  1.00  0.00     0.091 A 
ATOM     68  F   UNL     1      12.677  -5.331   8.517  1.00  0.00    -0.205 F 
ATOM     69  C   UNL     1      12.624  -6.550  11.967  1.00  0.00     0.022 A 
BRANCH  67  70
ATOM     70  S   UNL     1      14.854  -6.459  10.372  1.00  0.00     0.127 S 
ATOM     71  O   UNL     1      15.459  -5.339  11.090  1.00  0.00    -0.237 OA
ATOM     72  O   UNL     1      15.089  -7.771  10.976  1.00  0.00    -0.237 OA
ATOM     73  O   UNL     1      15.000  -6.428   8.923  1.00  0.00    -0.744 OA
ENDBRANCH  67  70
ENDBRANCH  40  63
ENDBRANCH  14  15
ENDBRANCH   7   9
ENDBRANCH   6   7
ENDBRANCH   5   6
ENDBRANCH   4   5
ENDBRANCH   3   4
ENDBRANCH   2   3
ENDBRANCH   1   2
BRANCH   1  74
ATOM     74  O   UNL     1       2.523   3.857  -0.360  1.00  0.00    -0.377 OA
BRANCH  74  75
ATOM     75  C   UNL     1       3.941   3.736  -0.413  1.00  0.00     0.188 C 
BRANCH  75  76
ATOM     76  C   UNL     1       4.717   3.417   0.887  1.00  0.00     0.188 C 
BRANCH  76  77
ATOM     77  O   UNL     1       3.876   3.113   1.985  1.00  0.00    -0.376 OA
BRANCH  77  78
ATOM     78  C   UNL     1       3.822   4.091   3.016  1.00  0.00     0.202 C 
BRANCH  78  79
ATOM     79  C   UNL     1       3.250   5.474   2.652  1.00  0.00     0.261 C 
BRANCH  79  80
ATOM     80  O   UNL     1       3.695   6.059   1.411  1.00  0.00    -0.460 OA
BRANCH  80  81
ATOM     81  C   UNL     1       4.929   6.603   1.323  1.00  0.00     0.338 C 
ATOM     82  O   UNL     1       5.765   6.694   2.204  1.00  0.00    -0.246 OA
BRANCH  81  83
ATOM     83  C   UNL     1       5.160   6.917  -0.115  1.00  0.00     0.060 A 
ATOM     84  C   UNL     1       4.282   7.811  -0.761  1.00  0.00     0.018 A 
ATOM     85  C   UNL     1       6.150   6.213  -0.847  1.00  0.00     0.022 A 
ATOM     86  C   UNL     1       4.417   8.064  -2.126  1.00  0.00     0.027 A 
ATOM     87  C   UNL     1       6.196   6.386  -2.226  1.00  0.00    -0.011 A 
ATOM     88  C   UNL     1       5.386   7.361  -2.813  1.00  0.00     0.045 A 
ATOM     89  C   UNL     1       7.055   5.745  -3.307  1.00  0.00     0.114 C 
ATOM     90  N   UNL     1       5.769   7.559  -4.127  1.00  0.00    -0.325 N 
ATOM     91  C   UNL     1       6.846   6.755  -4.465  1.00  0.00     0.232 C 
ATOM     92  H   UNL     1       5.331   8.190  -4.743  1.00  0.00     0.169 HD
ATOM     93  O   UNL     1       7.483   6.842  -5.502  1.00  0.00    -0.274 OA
BRANCH  89  94
ATOM     94  C   UNL     1       6.648   4.299  -3.767  1.00  0.00     0.010 C 
ATOM     95  C   UNL     1       7.614   3.766  -4.854  1.00  0.00     0.033 C 
ATOM     96  C   UNL     1       5.193   4.172  -4.277  1.00  0.00     0.033 C 
ATOM     97  C   UNL     1       7.170   2.441  -5.465  1.00  0.00     0.160 C 
ATOM     98  C   UNL     1       4.912   2.803  -4.894  1.00  0.00     0.160 C 
ATOM     99  O   UNL     1       5.831   2.528  -5.946  1.00  0.00    -0.381 OA
ENDBRANCH  89  94
ENDBRANCH  81  83
ENDBRANCH  80  81
ENDBRANCH  79  80
ENDBRANCH  78  79
ENDBRANCH  77  78
ENDBRANCH  76  77
ENDBRANCH  75  76
ENDBRANCH  74  75
ENDBRANCH   1  74
TORSDOF 24
