REMARK SMILES CN1C(=O)C[C@@H](C(=O)OCCOCCOCCOCCOC(=O)c2ccc(-c3c4nc(c(-c5cccc(S(=O)(=O)[O-])c5F)c5ccc([nH]5)c(-c5cccc(S(=O)(=O)[O-])c5F)c5nc(c(-c6cccc(S(=O)(=O)[O-])c6F)c6ccc3[nH]6)C=C5)C=C4)cc2)C12CCN(C(=O)c1ccccc1-n1cccn1)CC2
REMARK SMILES IDX 16 1 15 2 14 3 13 4 12 5 11 6 10 7 9 8 7 9 8 10 6 11 1 12
REMARK SMILES IDX 2 13 3 14 87 15 4 16 5 17 88 18 105 19 89 20 104 21 90 22
REMARK SMILES IDX 91 23 92 24 93 25 94 26 98 27 95 28 97 29 96 30 99 31 100 32
REMARK SMILES IDX 103 33 101 34 102 35 17 36 18 37 19 38 20 39 21 40 22 41
REMARK SMILES IDX 23 42 24 43 25 44 86 45 26 46 85 47 27 48 28 49 29 50 79 51
REMARK SMILES IDX 30 52 84 53 78 54 80 55 31 56 83 57 77 58 76 59 32 61 64 62
REMARK SMILES IDX 44 63 63 64 45 65 48 66 62 67 81 68 46 69 47 70 61 72 82 73
REMARK SMILES IDX 49 74 33 75 34 76 42 77 35 78 37 79 43 80 36 81 38 82 39 83
REMARK SMILES IDX 40 84 41 85 65 86 66 87 74 88 67 89 69 90 75 91 68 92 70 93
REMARK SMILES IDX 71 94 72 95 73 96 50 97 51 98 59 99 52 100 54 101 60 102
REMARK SMILES IDX 53 103 55 104 56 105 57 106 58 107
REMARK H PARENT 80 60 48 71
REMARK Flexibility Score: inf
ROOT
ATOM      1  C   UNL     1       3.069  -2.070  -5.660  1.00  0.00     0.188 C 
ENDROOT
BRANCH   1   2
ATOM      2  O   UNL     1       2.034  -2.758  -4.964  1.00  0.00    -0.377 OA
BRANCH   2   3
ATOM      3  C   UNL     1       1.802  -4.138  -5.152  1.00  0.00     0.188 C 
BRANCH   3   4
ATOM      4  C   UNL     1       0.654  -4.510  -6.084  1.00  0.00     0.188 C 
BRANCH   4   5
ATOM      5  O   UNL     1       0.277  -3.590  -7.085  1.00  0.00    -0.376 OA
BRANCH   5   6
ATOM      6  C   UNL     1      -0.127  -2.273  -6.710  1.00  0.00     0.202 C 
BRANCH   6   7
ATOM      7  C   UNL     1      -1.001  -2.009  -5.462  1.00  0.00     0.261 C 
BRANCH   7   8
ATOM      8  O   UNL     1      -0.354  -2.083  -4.156  1.00  0.00    -0.463 OA
BRANCH   8   9
ATOM      9  C   UNL     1      -0.732  -3.111  -3.370  1.00  0.00     0.311 C 
ATOM     10  O   UNL     1      -1.489  -4.008  -3.753  1.00  0.00    -0.252 OA
BRANCH   9  11
ATOM     11  C   UNL     1      -0.305  -3.119  -1.906  1.00  0.00     0.134 C 
ATOM     12  C   UNL     1       0.742   0.040  -0.130  1.00  0.00     0.147 C 
ATOM     13  N   UNL     1       0.127  -1.099  -0.793  1.00  0.00    -0.339 N 
ATOM     14  C   UNL     1      -1.248  -1.269  -0.714  1.00  0.00     0.223 C 
ATOM     15  C   UNL     1       0.833  -2.339  -1.180  1.00  0.00     0.060 C 
ATOM     16  O   UNL     1      -2.059  -0.481  -0.255  1.00  0.00    -0.275 OA
ATOM     17  C   UNL     1      -1.581  -2.658  -1.169  1.00  0.00     0.118 C 
ATOM     18  C   UNL     1       2.137  -2.051  -1.944  1.00  0.00     0.051 C 
ATOM     19  C   UNL     1       1.224  -3.101   0.134  1.00  0.00     0.051 C 
ATOM     20  C   UNL     1       3.135  -3.208  -2.056  1.00  0.00     0.122 C 
ATOM     21  C   UNL     1       2.178  -4.276  -0.071  1.00  0.00     0.122 C 
ATOM     22  N   UNL     1       3.382  -3.889  -0.793  1.00  0.00    -0.338 N 
ATOM     23  C   UNL     1       4.597  -4.468  -0.400  1.00  0.00     0.256 C 
ATOM     24  O   UNL     1       4.680  -5.252   0.547  1.00  0.00    -0.269 OA
BRANCH  23  25
ATOM     25  C   UNL     1       5.871  -4.207  -1.121  1.00  0.00     0.065 A 
ATOM     26  C   UNL     1       6.507  -5.340  -1.667  1.00  0.00     0.016 A 
ATOM     27  C   UNL     1       6.500  -2.959  -1.247  1.00  0.00     0.077 A 
ATOM     28  C   UNL     1       7.744  -5.237  -2.313  1.00  0.00     0.001 A 
ATOM     29  C   UNL     1       7.742  -2.861  -1.906  1.00  0.00     0.029 A 
ATOM     30  C   UNL     1       8.373  -4.000  -2.410  1.00  0.00     0.002 A 
BRANCH  27  31
ATOM     31  N   UNL     1       5.928  -1.762  -0.768  1.00  0.00    -0.240 N 
ATOM     32  C   UNL     1       5.207  -1.547   0.381  1.00  0.00     0.115 A 
ATOM     33  N   UNL     1       6.016  -0.634  -1.520  1.00  0.00    -0.177 NA
ATOM     34  C   UNL     1       4.728  -0.260   0.315  1.00  0.00     0.042 A 
ATOM     35  C   UNL     1       5.226   0.242  -0.898  1.00  0.00     0.135 A 
ENDBRANCH  27  31
ENDBRANCH  23  25
ENDBRANCH   9  11
ENDBRANCH   8   9
ENDBRANCH   7   8
ENDBRANCH   6   7
ENDBRANCH   5   6
ENDBRANCH   4   5
ENDBRANCH   3   4
ENDBRANCH   2   3
ENDBRANCH   1   2
BRANCH   1  36
ATOM     36  C   UNL     1       3.787  -2.782  -6.808  1.00  0.00     0.188 C 
BRANCH  36  37
ATOM     37  O   UNL     1       4.488  -3.983  -6.470  1.00  0.00    -0.376 OA
BRANCH  37  38
ATOM     38  C   UNL     1       5.227  -3.976  -5.248  1.00  0.00     0.202 C 
BRANCH  38  39
ATOM     39  C   UNL     1       6.483  -3.131  -5.307  1.00  0.00     0.261 C 
BRANCH  39  40
ATOM     40  O   UNL     1       6.149  -1.742  -5.231  1.00  0.00    -0.460 OA
BRANCH  40  41
ATOM     41  C   UNL     1       6.848  -0.959  -6.064  1.00  0.00     0.338 C 
ATOM     42  O   UNL     1       7.775  -1.293  -6.807  1.00  0.00    -0.246 OA
BRANCH  41  43
ATOM     43  C   UNL     1       6.224   0.358  -6.115  1.00  0.00     0.060 A 
ATOM     44  C   UNL     1       5.612   0.726  -7.316  1.00  0.00     0.016 A 
ATOM     45  C   UNL     1       6.346   1.256  -5.051  1.00  0.00     0.016 A 
ATOM     46  C   UNL     1       5.198   2.036  -7.496  1.00  0.00     0.010 A 
ATOM     47  C   UNL     1       5.932   2.576  -5.236  1.00  0.00     0.010 A 
ATOM     48  C   UNL     1       5.416   2.978  -6.481  1.00  0.00    -0.014 A 
BRANCH  48  49
ATOM     49  C   UNL     1       5.291   4.409  -6.828  1.00  0.00     0.031 A 
ATOM     50  C   UNL     1       6.538   5.173  -7.181  1.00  0.00     0.074 A 
ATOM     51  C   UNL     1       4.080   4.982  -6.908  1.00  0.00     0.049 A 
ATOM     52  N   UNL     1       6.663   6.407  -7.587  1.00  0.00    -0.248 NA
ATOM     53  C   UNL     1       7.815   4.445  -7.069  1.00  0.00     0.031 C 
ATOM     54  C   UNL     1       2.812   4.318  -6.608  1.00  0.00     0.029 A 
ATOM     55  N   UNL     1       3.721   6.255  -7.264  1.00  0.00    -0.354 N 
ATOM     56  C   UNL     1       8.027   6.613  -7.758  1.00  0.00     0.074 A 
ATOM     57  C   UNL     1       8.692   5.381  -7.398  1.00  0.00     0.031 C 
ATOM     58  C   UNL     1       1.811   5.198  -6.776  1.00  0.00     0.029 A 
ATOM     59  C   UNL     1       2.370   6.487  -7.173  1.00  0.00     0.049 A 
ATOM     60  H   UNL     1       4.368   6.937  -7.556  1.00  0.00     0.167 HD
ATOM     61  C   UNL     1       8.665   7.724  -8.192  1.00  0.00     0.034 A 
ATOM     62  C   UNL     1       1.673   7.622  -7.373  1.00  0.00     0.034 A 
ATOM     63  C   UNL     1       7.988   8.937  -8.560  1.00  0.00     0.049 A 
ATOM     64  C   UNL     1       2.411   8.855  -7.823  1.00  0.00     0.074 A 
ATOM     65  C   UNL     1       8.531  10.112  -9.047  1.00  0.00     0.029 A 
ATOM     66  N   UNL     1       6.619   9.135  -8.466  1.00  0.00    -0.354 N 
ATOM     67  N   UNL     1       3.688   9.004  -8.084  1.00  0.00    -0.248 NA
ATOM     68  C   UNL     1       1.609  10.067  -8.038  1.00  0.00     0.031 C 
ATOM     69  C   UNL     1       7.491  11.034  -9.212  1.00  0.00     0.029 A 
ATOM     70  C   UNL     1       6.297  10.420  -8.865  1.00  0.00     0.049 A 
ATOM     71  H   UNL     1       5.971   8.460  -8.159  1.00  0.00     0.167 HD
ATOM     72  C   UNL     1       3.839  10.314  -8.522  1.00  0.00     0.074 A 
ATOM     73  C   UNL     1       2.517  10.908  -8.514  1.00  0.00     0.031 C 
ATOM     74  C   UNL     1       4.967  10.973  -8.886  1.00  0.00     0.034 A 
BRANCH  61  75
ATOM     75  C   UNL     1      10.166   7.674  -8.298  1.00  0.00     0.023 A 
ATOM     76  C   UNL     1      10.775   6.917  -9.321  1.00  0.00     0.012 A 
ATOM     77  C   UNL     1      10.975   8.410  -7.410  1.00  0.00     0.148 A 
ATOM     78  C   UNL     1      12.164   6.868  -9.438  1.00  0.00     0.002 A 
ATOM     79  C   UNL     1      12.356   8.392  -7.560  1.00  0.00     0.091 A 
ATOM     80  F   UNL     1      10.379   9.102  -6.429  1.00  0.00    -0.205 F 
ATOM     81  C   UNL     1      12.953   7.613  -8.565  1.00  0.00     0.022 A 
BRANCH  79  82
ATOM     82  S   UNL     1      13.455   9.375  -6.534  1.00  0.00     0.127 S 
ATOM     83  O   UNL     1      14.128   8.341  -5.748  1.00  0.00    -0.237 OA
ATOM     84  O   UNL     1      14.301  10.030  -7.531  1.00  0.00    -0.237 OA
ATOM     85  O   UNL     1      12.599  10.275  -5.775  1.00  0.00    -0.744 OA
ENDBRANCH  79  82
ENDBRANCH  61  75
BRANCH  62  86
ATOM     86  C   UNL     1       0.199   7.634  -7.167  1.00  0.00     0.023 A 
ATOM     87  C   UNL     1      -0.665   7.794  -8.267  1.00  0.00     0.012 A 
ATOM     88  C   UNL     1      -0.350   7.462  -5.881  1.00  0.00     0.148 A 
ATOM     89  C   UNL     1      -2.049   7.809  -8.086  1.00  0.00     0.002 A 
ATOM     90  C   UNL     1      -1.729   7.422  -5.716  1.00  0.00     0.091 A 
ATOM     91  F   UNL     1       0.490   7.329  -4.845  1.00  0.00    -0.205 F 
ATOM     92  C   UNL     1      -2.581   7.613  -6.814  1.00  0.00     0.022 A 
BRANCH  90  93
ATOM     93  S   UNL     1      -2.495   7.043  -4.137  1.00  0.00     0.127 S 
ATOM     94  O   UNL     1      -3.078   8.331  -3.771  1.00  0.00    -0.237 OA
ATOM     95  O   UNL     1      -3.462   6.011  -4.514  1.00  0.00    -0.237 OA
ATOM     96  O   UNL     1      -1.416   6.569  -3.281  1.00  0.00    -0.744 OA
ENDBRANCH  90  93
ENDBRANCH  62  86
BRANCH  74  97
ATOM     97  C   UNL     1       4.821  12.404  -9.334  1.00  0.00     0.023 A 
ATOM     98  C   UNL     1       4.532  13.408  -8.389  1.00  0.00     0.012 A 
ATOM     99  C   UNL     1       5.044  12.760 -10.678  1.00  0.00     0.148 A 
ATOM    100  C   UNL     1       4.431  14.742  -8.783  1.00  0.00     0.002 A 
ATOM    101  C   UNL     1       4.995  14.097 -11.053  1.00  0.00     0.091 A 
ATOM    102  F   UNL     1       5.302  11.787 -11.564  1.00  0.00    -0.205 F 
ATOM    103  C   UNL     1       4.675  15.087 -10.110  1.00  0.00     0.022 A 
BRANCH 101 104
ATOM    104  S   UNL     1       5.393  14.645 -12.716  1.00  0.00     0.127 S 
ATOM    105  O   UNL     1       4.079  15.032 -13.225  1.00  0.00    -0.237 OA
ATOM    106  O   UNL     1       6.304  15.762 -12.464  1.00  0.00    -0.237 OA
ATOM    107  O   UNL     1       6.007  13.502 -13.380  1.00  0.00    -0.744 OA
ENDBRANCH 101 104
ENDBRANCH  74  97
ENDBRANCH  48  49
ENDBRANCH  41  43
ENDBRANCH  40  41
ENDBRANCH  39  40
ENDBRANCH  38  39
ENDBRANCH  37  38
ENDBRANCH  36  37
ENDBRANCH   1  36
TORSDOF 25
