REMARK SMILES O=C(OCCOCCOCCOCCOC(=O)[C@H]1[C@H]2CC[C@H](CC2)[C@@H]1C(=O)Nc1ccc(Cc2ccncc2)cc1)c1ccc(-c2c3nc(c(-c4cccc(S(=O)(=O)[O-])c4F)c4ccc([nH]4)c(-c4cccc(S(=O)(=O)[O-])c4F)c4nc(c(-c5cccc(S(=O)(=O)[O-])c5F)c5ccc2[nH]5)C=C4)C=C3)cc1
REMARK SMILES IDX 10 1 9 2 8 3 7 4 6 5 5 6 4 7 3 8 2 9 1 10 42 11 43 12 104 13
REMARK SMILES IDX 44 14 103 15 45 16 46 17 47 18 97 19 48 20 102 21 96 22
REMARK SMILES IDX 98 23 49 24 101 25 95 26 94 27 50 29 82 30 62 31 81 32 63 33
REMARK SMILES IDX 66 34 80 35 99 36 64 37 65 38 79 40 100 41 67 42 51 43 52 44
REMARK SMILES IDX 60 45 53 46 55 47 61 48 54 49 56 50 57 51 58 52 59 53 83 54
REMARK SMILES IDX 84 55 92 56 85 57 87 58 93 59 86 60 88 61 89 62 90 63 91 64
REMARK SMILES IDX 68 65 69 66 77 67 70 68 72 69 78 70 71 71 73 72 74 73 75 74
REMARK SMILES IDX 76 75 11 76 12 77 13 78 14 79 15 80 16 81 17 82 18 83 19 84
REMARK SMILES IDX 25 85 24 86 20 87 22 88 23 89 21 90 26 91 27 92 28 93 29 95
REMARK SMILES IDX 30 96 41 97 31 98 40 99 32 100 33 101 34 102 35 103 39 104
REMARK SMILES IDX 36 105 38 106 37 107
REMARK H PARENT 98 28 66 39 28 94
REMARK Flexibility Score: inf
ROOT
ATOM      1  C   UNL     1       4.412  -3.362   0.555  1.00  0.00     0.188 C 
ENDROOT
BRANCH   1   2
ATOM      2  O   UNL     1       3.017  -3.564   0.728  1.00  0.00    -0.377 OA
BRANCH   2   3
ATOM      3  C   UNL     1       2.105  -2.573   0.293  1.00  0.00     0.188 C 
BRANCH   3   4
ATOM      4  C   UNL     1       2.462  -1.167   0.731  1.00  0.00     0.188 C 
BRANCH   4   5
ATOM      5  O   UNL     1       3.743  -0.843   0.225  1.00  0.00    -0.376 OA
BRANCH   5   6
ATOM      6  C   UNL     1       4.663  -0.111   1.020  1.00  0.00     0.202 C 
BRANCH   6   7
ATOM      7  C   UNL     1       4.194   1.245   1.502  1.00  0.00     0.261 C 
BRANCH   7   8
ATOM      8  O   UNL     1       2.839   1.602   1.185  1.00  0.00    -0.460 OA
BRANCH   8   9
ATOM      9  C   UNL     1       2.212   1.879   0.021  1.00  0.00     0.338 C 
ATOM     10  O   UNL     1       1.003   2.108   0.067  1.00  0.00    -0.246 OA
BRANCH   9  11
ATOM     11  C   UNL     1       2.871   1.946  -1.312  1.00  0.00     0.060 A 
ATOM     12  C   UNL     1       3.906   1.129  -1.753  1.00  0.00     0.016 A 
ATOM     13  C   UNL     1       2.310   2.831  -2.243  1.00  0.00     0.016 A 
ATOM     14  C   UNL     1       4.447   1.220  -3.012  1.00  0.00     0.010 A 
ATOM     15  C   UNL     1       2.821   2.920  -3.539  1.00  0.00     0.010 A 
ATOM     16  C   UNL     1       3.918   2.130  -3.900  1.00  0.00    -0.014 A 
BRANCH  16  17
ATOM     17  C   UNL     1       4.717   2.375  -5.096  1.00  0.00     0.031 A 
ATOM     18  C   UNL     1       5.537   3.619  -5.103  1.00  0.00     0.074 A 
ATOM     19  C   UNL     1       4.828   1.418  -6.030  1.00  0.00     0.049 A 
ATOM     20  N   UNL     1       6.226   4.144  -6.069  1.00  0.00    -0.248 NA
ATOM     21  C   UNL     1       5.593   4.374  -3.835  1.00  0.00     0.031 C 
ATOM     22  C   UNL     1       4.203   0.092  -5.963  1.00  0.00     0.029 A 
ATOM     23  N   UNL     1       5.509   1.410  -7.212  1.00  0.00    -0.354 N 
ATOM     24  C   UNL     1       6.713   5.339  -5.561  1.00  0.00     0.074 A 
ATOM     25  C   UNL     1       6.285   5.443  -4.188  1.00  0.00     0.031 C 
ATOM     26  C   UNL     1       4.498  -0.586  -7.081  1.00  0.00     0.029 A 
ATOM     27  C   UNL     1       5.246   0.294  -7.968  1.00  0.00     0.049 A 
ATOM     28  H   UNL     1       6.123   2.127  -7.493  1.00  0.00     0.167 HD
ATOM     29  C   UNL     1       7.429   6.274  -6.218  1.00  0.00     0.034 A 
ATOM     30  C   UNL     1       5.508   0.070  -9.267  1.00  0.00     0.034 A 
ATOM     31  C   UNL     1       7.823   6.102  -7.586  1.00  0.00     0.049 A 
ATOM     32  C   UNL     1       6.236   1.155 -10.009  1.00  0.00     0.074 A 
ATOM     33  C   UNL     1       8.511   6.970  -8.406  1.00  0.00     0.029 A 
ATOM     34  N   UNL     1       7.535   4.968  -8.339  1.00  0.00    -0.354 N 
ATOM     35  N   UNL     1       6.673   2.308  -9.555  1.00  0.00    -0.248 NA
ATOM     36  C   UNL     1       6.517   0.918 -11.427  1.00  0.00     0.031 C 
ATOM     37  C   UNL     1       8.598   6.378  -9.670  1.00  0.00     0.029 A 
ATOM     38  C   UNL     1       8.013   5.117  -9.623  1.00  0.00     0.049 A 
ATOM     39  H   UNL     1       7.058   4.175  -8.003  1.00  0.00     0.167 HD
ATOM     40  C   UNL     1       7.306   2.927 -10.621  1.00  0.00     0.074 A 
ATOM     41  C   UNL     1       7.204   2.009 -11.743  1.00  0.00     0.031 C 
ATOM     42  C   UNL     1       7.911   4.140 -10.681  1.00  0.00     0.034 A 
BRANCH  29  43
ATOM     43  C   UNL     1       7.702   7.558  -5.488  1.00  0.00     0.023 A 
ATOM     44  C   UNL     1       8.588   7.593  -4.392  1.00  0.00     0.012 A 
ATOM     45  C   UNL     1       7.001   8.725  -5.848  1.00  0.00     0.148 A 
ATOM     46  C   UNL     1       8.728   8.756  -3.632  1.00  0.00     0.002 A 
ATOM     47  C   UNL     1       7.186   9.892  -5.119  1.00  0.00     0.091 A 
ATOM     48  F   UNL     1       6.130   8.660  -6.865  1.00  0.00    -0.205 F 
ATOM     49  C   UNL     1       8.033   9.905  -3.999  1.00  0.00     0.022 A 
BRANCH  47  50
ATOM     50  S   UNL     1       6.385  11.438  -5.552  1.00  0.00     0.127 S 
ATOM     51  O   UNL     1       5.443  11.605  -4.449  1.00  0.00    -0.237 OA
ATOM     52  O   UNL     1       7.506  12.373  -5.549  1.00  0.00    -0.237 OA
ATOM     53  O   UNL     1       5.777  11.222  -6.864  1.00  0.00    -0.744 OA
ENDBRANCH  47  50
ENDBRANCH  29  43
BRANCH  30  54
ATOM     54  C   UNL     1       5.021  -1.177  -9.918  1.00  0.00     0.023 A 
ATOM     55  C   UNL     1       5.937  -2.147 -10.361  1.00  0.00     0.012 A 
ATOM     56  C   UNL     1       3.637  -1.435 -10.037  1.00  0.00     0.148 A 
ATOM     57  C   UNL     1       5.487  -3.342 -10.927  1.00  0.00     0.002 A 
ATOM     58  C   UNL     1       3.196  -2.649 -10.549  1.00  0.00     0.091 A 
ATOM     59  F   UNL     1       2.778  -0.496  -9.618  1.00  0.00    -0.205 F 
ATOM     60  C   UNL     1       4.120  -3.598 -11.011  1.00  0.00     0.022 A 
BRANCH  58  61
ATOM     61  S   UNL     1       1.462  -3.121 -10.573  1.00  0.00     0.127 S 
ATOM     62  O   UNL     1       1.182  -3.163 -12.002  1.00  0.00    -0.237 OA
ATOM     63  O   UNL     1       1.496  -4.423  -9.908  1.00  0.00    -0.237 OA
ATOM     64  O   UNL     1       0.759  -2.083  -9.822  1.00  0.00    -0.744 OA
ENDBRANCH  58  61
ENDBRANCH  30  54
BRANCH  42  65
ATOM     65  C   UNL     1       8.552   4.517 -11.984  1.00  0.00     0.023 A 
ATOM     66  C   UNL     1       7.756   4.920 -13.072  1.00  0.00     0.012 A 
ATOM     67  C   UNL     1       9.955   4.595 -12.069  1.00  0.00     0.148 A 
ATOM     68  C   UNL     1       8.354   5.384 -14.241  1.00  0.00     0.002 A 
ATOM     69  C   UNL     1      10.540   5.115 -13.212  1.00  0.00     0.091 A 
ATOM     70  F   UNL     1      10.683   4.187 -11.020  1.00  0.00    -0.205 F 
ATOM     71  C   UNL     1       9.743   5.498 -14.304  1.00  0.00     0.022 A 
BRANCH  69  72
ATOM     72  S   UNL     1      12.305   5.414 -13.332  1.00  0.00     0.127 S 
ATOM     73  O   UNL     1      12.706   4.426 -14.332  1.00  0.00    -0.237 OA
ATOM     74  O   UNL     1      12.351   6.802 -13.789  1.00  0.00    -0.237 OA
ATOM     75  O   UNL     1      12.844   5.198 -11.995  1.00  0.00    -0.744 OA
ENDBRANCH  69  72
ENDBRANCH  42  65
ENDBRANCH  16  17
ENDBRANCH   9  11
ENDBRANCH   8   9
ENDBRANCH   7   8
ENDBRANCH   6   7
ENDBRANCH   5   6
ENDBRANCH   4   5
ENDBRANCH   3   4
ENDBRANCH   2   3
ENDBRANCH   1   2
BRANCH   1  76
ATOM     76  C   UNL     1       5.032  -3.444  -0.847  1.00  0.00     0.188 C 
BRANCH  76  77
ATOM     77  O   UNL     1       4.230  -2.968  -1.900  1.00  0.00    -0.376 OA
BRANCH  77  78
ATOM     78  C   UNL     1       3.349  -3.836  -2.604  1.00  0.00     0.202 C 
BRANCH  78  79
ATOM     79  C   UNL     1       2.973  -5.277  -2.187  1.00  0.00     0.261 C 
BRANCH  79  80
ATOM     80  O   UNL     1       3.077  -5.614  -0.793  1.00  0.00    -0.463 OA
BRANCH  80  81
ATOM     81  C   UNL     1       4.109  -6.425  -0.473  1.00  0.00     0.310 C 
ATOM     82  O   UNL     1       4.851  -6.931  -1.314  1.00  0.00    -0.252 OA
BRANCH  81  83
ATOM     83  C   UNL     1       4.427  -6.551   1.020  1.00  0.00     0.115 C 
ATOM     84  C   UNL     1       3.422  -6.146   2.128  1.00  0.00     0.004 C 
ATOM     85  C   UNL     1       4.877  -7.999   1.265  1.00  0.00     0.096 C 
ATOM     86  C   UNL     1       2.168  -7.008   2.068  1.00  0.00     0.005 C 
ATOM     87  C   UNL     1       4.105  -6.349   3.500  1.00  0.00     0.005 C 
ATOM     88  C   UNL     1       4.083  -8.615   2.440  1.00  0.00     0.002 C 
ATOM     89  C   UNL     1       2.576  -8.481   2.098  1.00  0.00     0.005 C 
ATOM     90  C   UNL     1       4.356  -7.838   3.736  1.00  0.00     0.005 C 
BRANCH  85  91
ATOM     91  C   UNL     1       6.405  -8.019   1.467  1.00  0.00     0.228 C 
ATOM     92  O   UNL     1       6.993  -7.167   2.139  1.00  0.00    -0.274 OA
ATOM     93  N   UNL     1       7.135  -9.071   0.988  1.00  0.00    -0.326 N 
ATOM     94  H   UNL     1       8.106  -9.063   1.150  1.00  0.00     0.169 HD
BRANCH  93  95
ATOM     95  C   UNL     1       6.609 -10.151   0.288  1.00  0.00     0.041 A 
ATOM     96  C   UNL     1       6.619 -11.384   0.919  1.00  0.00     0.026 A 
ATOM     97  C   UNL     1       5.973  -9.979  -0.943  1.00  0.00     0.026 A 
ATOM     98  C   UNL     1       5.857 -12.414   0.385  1.00  0.00     0.006 A 
ATOM     99  C   UNL     1       5.234 -11.020  -1.493  1.00  0.00     0.006 A 
ATOM    100  C   UNL     1       5.147 -12.240  -0.816  1.00  0.00    -0.043 A 
BRANCH 100 101
ATOM    101  C   UNL     1       4.340 -13.377  -1.393  1.00  0.00     0.071 C 
BRANCH 101 102
ATOM    102  C   UNL     1       5.195 -14.361  -2.150  1.00  0.00    -0.041 A 
ATOM    103  C   UNL     1       6.109 -15.182  -1.480  1.00  0.00     0.024 A 
ATOM    104  C   UNL     1       5.132 -14.443  -3.542  1.00  0.00     0.024 A 
ATOM    105  C   UNL     1       6.923 -16.022  -2.220  1.00  0.00     0.111 A 
ATOM    106  C   UNL     1       5.976 -15.331  -4.192  1.00  0.00     0.111 A 
ATOM    107  N   UNL     1       6.870 -16.124  -3.562  1.00  0.00    -0.265 NA
ENDBRANCH 101 102
ENDBRANCH 100 101
ENDBRANCH  93  95
ENDBRANCH  85  91
ENDBRANCH  81  83
ENDBRANCH  80  81
ENDBRANCH  79  80
ENDBRANCH  78  79
ENDBRANCH  77  78
ENDBRANCH  76  77
ENDBRANCH   1  76
TORSDOF 27
