REMARK SMILES COc1ccc([C@H]2CC(c3ccc(S(C)(=O)=O)cc3)=NN2c2ccc(C(=O)OCCOCCOCCOCCOC(=O)c3ccc(-c4c5nc(c(-c6cccc(S(=O)(=O)[O-])c6F)c6ccc([nH]6)c(-c6cccc(S(=O)(=O)[O-])c6F)c6nc(c(-c7cccc(S(=O)(=O)[O-])c7F)c7ccc4[nH]7)C=C6)C=C5)cc3)cc2)cc1
REMARK SMILES IDX 34 1 33 2 32 3 31 4 30 5 29 6 28 7 26 8 27 9 25 10 22 11
REMARK SMILES IDX 23 12 107 13 24 14 106 15 21 16 7 17 8 18 9 19 20 20 6 21
REMARK SMILES IDX 3 22 4 23 109 24 5 25 108 26 2 27 1 28 10 29 11 30 19 31
REMARK SMILES IDX 12 32 18 33 13 34 14 35 15 36 16 37 17 38 35 39 36 40 37 41
REMARK SMILES IDX 38 42 39 43 40 44 41 45 42 46 43 47 44 48 105 49 45 50
REMARK SMILES IDX 104 51 46 52 47 53 48 54 98 55 49 56 103 57 97 58 99 59
REMARK SMILES IDX 50 60 102 61 96 62 95 63 51 65 83 66 63 67 82 68 64 69 67 70
REMARK SMILES IDX 81 71 100 72 65 73 66 74 80 76 101 77 68 78 52 79 53 80
REMARK SMILES IDX 61 81 54 82 56 83 62 84 55 85 57 86 58 87 59 88 60 89 84 90
REMARK SMILES IDX 85 91 93 92 86 93 88 94 94 95 87 96 89 97 90 98 91 99 92 100
REMARK SMILES IDX 69 101 70 102 78 103 71 104 73 105 79 106 72 107 74 108
REMARK SMILES IDX 75 109 76 110 77 111
REMARK H PARENT 99 64 67 75
REMARK Flexibility Score: inf
ROOT
ATOM      1  O   UNL     1       2.897  -1.124 -11.968  1.00  0.00    -0.377 OA
ENDROOT
BRANCH   1   2
ATOM      2  C   UNL     1       3.833  -1.308 -10.918  1.00  0.00     0.188 C 
BRANCH   2   3
ATOM      3  C   UNL     1       4.013  -2.708 -10.294  1.00  0.00     0.188 C 
BRANCH   3   4
ATOM      4  O   UNL     1       3.370  -3.751 -11.003  1.00  0.00    -0.376 OA
BRANCH   4   5
ATOM      5  C   UNL     1       2.189  -4.332 -10.482  1.00  0.00     0.202 C 
BRANCH   5   6
ATOM      6  C   UNL     1       0.979  -3.449 -10.142  1.00  0.00     0.261 C 
BRANCH   6   7
ATOM      7  O   UNL     1       1.264  -2.197  -9.514  1.00  0.00    -0.460 OA
BRANCH   7   8
ATOM      8  C   UNL     1       1.638  -2.231  -8.218  1.00  0.00     0.338 C 
ATOM      9  O   UNL     1       1.771  -3.221  -7.520  1.00  0.00    -0.246 OA
BRANCH   8  10
ATOM     10  C   UNL     1       2.072  -0.867  -7.836  1.00  0.00     0.060 A 
ATOM     11  C   UNL     1       2.895   1.679  -6.990  1.00  0.00     0.060 A 
ATOM     12  C   UNL     1       3.685   0.556  -6.721  1.00  0.00     0.029 A 
ATOM     13  C   UNL     1       1.750   1.520  -7.788  1.00  0.00     0.029 A 
ATOM     14  C   UNL     1       3.259  -0.717  -7.109  1.00  0.00     0.018 A 
ATOM     15  C   UNL     1       1.344   0.259  -8.225  1.00  0.00     0.018 A 
BRANCH  11  16
ATOM     16  N   UNL     1       3.142   2.895  -6.359  1.00  0.00    -0.257 N 
ATOM     17  C   UNL     1       2.163   3.453  -5.422  1.00  0.00     0.144 C 
ATOM     18  C   UNL     1       2.905   4.658  -4.845  1.00  0.00     0.091 C 
ATOM     19  C   UNL     1       4.242   4.495  -5.515  1.00  0.00     0.071 C 
ATOM     20  N   UNL     1       4.366   3.486  -6.321  1.00  0.00    -0.176 NA
BRANCH  17  21
ATOM     21  C   UNL     1       1.738   2.454  -4.350  1.00  0.00    -0.023 A 
ATOM     22  C   UNL     1       0.899   0.619  -2.382  1.00  0.00     0.118 A 
ATOM     23  C   UNL     1      -0.013   1.120  -3.308  1.00  0.00     0.047 A 
ATOM     24  C   UNL     1       2.242   0.981  -2.470  1.00  0.00     0.047 A 
ATOM     25  C   UNL     1       0.400   2.036  -4.279  1.00  0.00     0.010 A 
ATOM     26  C   UNL     1       2.658   1.890  -3.448  1.00  0.00     0.010 A 
BRANCH  22  27
ATOM     27  O   UNL     1       0.408  -0.274  -1.468  1.00  0.00    -0.497 OA
ATOM     28  C   UNL     1       0.883  -0.058  -0.143  1.00  0.00     0.278 C 
ENDBRANCH  22  27
ENDBRANCH  17  21
BRANCH  19  29
ATOM     29  C   UNL     1       5.296   5.490  -5.283  1.00  0.00    -0.002 A 
ATOM     30  C   UNL     1       5.778   6.229  -6.369  1.00  0.00     0.011 A 
ATOM     31  C   UNL     1       5.755   5.740  -3.987  1.00  0.00     0.011 A 
ATOM     32  C   UNL     1       6.718   7.240  -6.157  1.00  0.00     0.021 A 
ATOM     33  C   UNL     1       6.714   6.733  -3.776  1.00  0.00     0.021 A 
ATOM     34  C   UNL     1       7.190   7.478  -4.861  1.00  0.00     0.067 A 
BRANCH  34  35
ATOM     35  S   UNL     1       8.381   8.771  -4.590  1.00  0.00     0.175 S 
ATOM     36  C   UNL     1       9.789   8.284  -5.550  1.00  0.00     0.163 C 
ATOM     37  O   UNL     1       7.828   9.982  -5.165  1.00  0.00    -0.224 OA
ATOM     38  O   UNL     1       8.772   8.723  -3.193  1.00  0.00    -0.224 OA
ENDBRANCH  34  35
ENDBRANCH  19  29
ENDBRANCH  11  16
ENDBRANCH   8  10
ENDBRANCH   7   8
ENDBRANCH   6   7
ENDBRANCH   5   6
ENDBRANCH   4   5
ENDBRANCH   3   4
ENDBRANCH   2   3
ENDBRANCH   1   2
BRANCH   1  39
ATOM     39  C   UNL     1       2.840  -2.040 -13.056  1.00  0.00     0.188 C 
BRANCH  39  40
ATOM     40  C   UNL     1       4.076  -2.865 -13.488  1.00  0.00     0.188 C 
BRANCH  40  41
ATOM     41  O   UNL     1       5.282  -2.526 -12.823  1.00  0.00    -0.376 OA
BRANCH  41  42
ATOM     42  C   UNL     1       6.256  -1.804 -13.551  1.00  0.00     0.202 C 
BRANCH  42  43
ATOM     43  C   UNL     1       5.867  -0.411 -14.065  1.00  0.00     0.261 C 
BRANCH  43  44
ATOM     44  O   UNL     1       4.663  -0.331 -14.840  1.00  0.00    -0.460 OA
BRANCH  44  45
ATOM     45  C   UNL     1       4.648  -0.953 -16.037  1.00  0.00     0.338 C 
ATOM     46  O   UNL     1       5.558  -1.592 -16.547  1.00  0.00    -0.246 OA
BRANCH  45  47
ATOM     47  C   UNL     1       3.265  -0.893 -16.551  1.00  0.00     0.060 A 
ATOM     48  C   UNL     1       2.560  -2.084 -16.768  1.00  0.00     0.016 A 
ATOM     49  C   UNL     1       2.661   0.343 -16.792  1.00  0.00     0.016 A 
ATOM     50  C   UNL     1       1.254  -2.041 -17.260  1.00  0.00     0.010 A 
ATOM     51  C   UNL     1       1.363   0.383 -17.304  1.00  0.00     0.010 A 
ATOM     52  C   UNL     1       0.666  -0.809 -17.572  1.00  0.00    -0.014 A 
BRANCH  52  53
ATOM     53  C   UNL     1      -0.592  -0.766 -18.355  1.00  0.00     0.031 A 
ATOM     54  C   UNL     1      -0.499  -0.518 -19.836  1.00  0.00     0.074 A 
ATOM     55  C   UNL     1      -1.791  -0.931 -17.769  1.00  0.00     0.049 A 
ATOM     56  N   UNL     1      -1.455  -0.379 -20.716  1.00  0.00    -0.248 NA
ATOM     57  C   UNL     1       0.858  -0.406 -20.399  1.00  0.00     0.031 C 
ATOM     58  C   UNL     1      -2.010  -1.188 -16.347  1.00  0.00     0.029 A 
ATOM     59  N   UNL     1      -3.056  -0.875 -18.302  1.00  0.00    -0.354 N 
ATOM     60  C   UNL     1      -0.820  -0.130 -21.927  1.00  0.00     0.074 A 
ATOM     61  C   UNL     1       0.603  -0.128 -21.668  1.00  0.00     0.031 C 
ATOM     62  C   UNL     1      -3.334  -1.235 -16.113  1.00  0.00     0.029 A 
ATOM     63  C   UNL     1      -4.053  -0.981 -17.361  1.00  0.00     0.049 A 
ATOM     64  H   UNL     1      -3.231  -0.770 -19.265  1.00  0.00     0.167 HD
ATOM     65  C   UNL     1      -1.370   0.069 -23.147  1.00  0.00     0.034 A 
ATOM     66  C   UNL     1      -5.389  -0.856 -17.490  1.00  0.00     0.034 A 
ATOM     67  C   UNL     1      -2.784   0.056 -23.403  1.00  0.00     0.049 A 
ATOM     68  C   UNL     1      -5.977  -0.597 -18.855  1.00  0.00     0.074 A 
ATOM     69  C   UNL     1      -3.439   0.202 -24.613  1.00  0.00     0.029 A 
ATOM     70  N   UNL     1      -3.763  -0.090 -22.432  1.00  0.00    -0.354 N 
ATOM     71  N   UNL     1      -5.368  -0.475 -20.009  1.00  0.00    -0.248 NA
ATOM     72  C   UNL     1      -7.442  -0.490 -18.939  1.00  0.00     0.031 C 
ATOM     73  C   UNL     1      -4.816   0.186 -24.367  1.00  0.00     0.029 A 
ATOM     74  C   UNL     1      -5.018  -0.021 -23.012  1.00  0.00     0.049 A 
ATOM     75  H   UNL     1      -3.591  -0.225 -21.472  1.00  0.00     0.167 HD
ATOM     76  C   UNL     1      -6.373  -0.319 -20.959  1.00  0.00     0.074 A 
ATOM     77  C   UNL     1      -7.632  -0.380 -20.247  1.00  0.00     0.031 C 
ATOM     78  C   UNL     1      -6.264  -0.134 -22.299  1.00  0.00     0.034 A 
BRANCH  65  79
ATOM     79  C   UNL     1      -0.437   0.313 -24.304  1.00  0.00     0.023 A 
ATOM     80  C   UNL     1       0.354  -0.740 -24.805  1.00  0.00     0.012 A 
ATOM     81  C   UNL     1      -0.385   1.575 -24.927  1.00  0.00     0.148 A 
ATOM     82  C   UNL     1       1.208  -0.533 -25.888  1.00  0.00     0.002 A 
ATOM     83  C   UNL     1       0.431   1.761 -26.036  1.00  0.00     0.091 A 
ATOM     84  F   UNL     1      -1.128   2.569 -24.421  1.00  0.00    -0.205 F 
ATOM     85  C   UNL     1       1.237   0.713 -26.510  1.00  0.00     0.022 A 
BRANCH  83  86
ATOM     86  S   UNL     1       0.478   3.302 -26.957  1.00  0.00     0.127 S 
ATOM     87  O   UNL     1       1.829   3.779 -26.663  1.00  0.00    -0.237 OA
ATOM     88  O   UNL     1       0.279   2.843 -28.331  1.00  0.00    -0.237 OA
ATOM     89  O   UNL     1      -0.600   4.123 -26.426  1.00  0.00    -0.744 OA
ENDBRANCH  83  86
ENDBRANCH  65  79
BRANCH  66  90
ATOM     90  C   UNL     1      -6.274  -0.985 -16.296  1.00  0.00     0.023 A 
ATOM     91  C   UNL     1      -7.152  -2.082 -16.193  1.00  0.00     0.012 A 
ATOM     92  C   UNL     1      -6.252  -0.025 -15.266  1.00  0.00     0.148 A 
ATOM     93  C   UNL     1      -8.019  -2.200 -15.105  1.00  0.00     0.002 A 
ATOM     94  C   UNL     1      -7.076  -0.179 -14.157  1.00  0.00     0.091 A 
ATOM     95  F   UNL     1      -5.421   1.020 -15.389  1.00  0.00    -0.205 F 
ATOM     96  C   UNL     1      -7.974  -1.254 -14.084  1.00  0.00     0.022 A 
BRANCH  94  97
ATOM     97  S   UNL     1      -7.000   0.919 -12.738  1.00  0.00     0.127 S 
ATOM     98  O   UNL     1      -8.297   1.588 -12.807  1.00  0.00    -0.237 OA
ATOM     99  O   UNL     1      -6.853  -0.029 -11.633  1.00  0.00    -0.237 OA
ATOM    100  O   UNL     1      -5.840   1.772 -12.957  1.00  0.00    -0.744 OA
ENDBRANCH  94  97
ENDBRANCH  66  90
BRANCH  78 101
ATOM    101  C   UNL     1      -7.536  -0.038 -23.103  1.00  0.00     0.023 A 
ATOM    102  C   UNL     1      -8.355   1.104 -23.003  1.00  0.00     0.012 A 
ATOM    103  C   UNL     1      -7.876  -1.052 -24.022  1.00  0.00     0.148 A 
ATOM    104  C   UNL     1      -9.511   1.217 -23.775  1.00  0.00     0.002 A 
ATOM    105  C   UNL     1      -8.998  -0.908 -24.827  1.00  0.00     0.091 A 
ATOM    106  F   UNL     1      -7.092  -2.138 -24.094  1.00  0.00    -0.205 F 
ATOM    107  C   UNL     1      -9.826   0.219 -24.695  1.00  0.00     0.022 A 
BRANCH 105 108
ATOM    108  S   UNL     1      -9.427  -2.091 -26.109  1.00  0.00     0.127 S 
ATOM    109  O   UNL     1     -10.636  -2.701 -25.559  1.00  0.00    -0.237 OA
ATOM    110  O   UNL     1      -9.652  -1.225 -27.266  1.00  0.00    -0.237 OA
ATOM    111  O   UNL     1      -8.282  -2.983 -26.234  1.00  0.00    -0.744 OA
ENDBRANCH 105 108
ENDBRANCH  78 101
ENDBRANCH  52  53
ENDBRANCH  45  47
ENDBRANCH  44  45
ENDBRANCH  43  44
ENDBRANCH  42  43
ENDBRANCH  41  42
ENDBRANCH  40  41
ENDBRANCH  39  40
ENDBRANCH   1  39
TORSDOF 28
