REMARK SMILES COc1ccc(NC(=O)N[C@@H]2C=C[C@H](C(=O)OCCOCCOCCOCCOC(=O)c3ccc(-c4c5nc(c(-c6cccc(S(=O)(=O)[O-])c6F)c6ccc([nH]6)c(-c6cccc(S(=O)(=O)[O-])c6F)c6nc(c(-c7cccc(S(=O)(=O)[O-])c7F)c7ccc4[nH]7)C=C6)C=C5)cc3)C2)c(C)c1
REMARK SMILES IDX 23 1 22 2 21 3 20 4 19 5 18 6 17 7 15 8 16 9 14 10 11 11
REMARK SMILES IDX 12 12 95 13 13 14 10 15 7 16 8 17 9 19 6 21 3 22 4 23 98 24
REMARK SMILES IDX 5 25 96 26 97 27 2 28 1 29 24 30 25 31 26 32 27 33 28 34
REMARK SMILES IDX 29 35 30 36 31 37 32 38 33 39 94 40 34 41 93 42 35 43 36 44
REMARK SMILES IDX 37 45 87 46 38 47 92 48 86 49 88 50 39 51 91 52 85 53 84 54
REMARK SMILES IDX 40 56 72 57 52 58 71 59 53 60 56 61 70 62 89 63 54 64 55 65
REMARK SMILES IDX 69 67 90 68 57 69 41 70 42 71 50 72 43 73 45 74 51 75 44 76
REMARK SMILES IDX 46 77 47 78 48 79 49 80 73 81 74 82 82 83 75 84 77 85 83 86
REMARK SMILES IDX 76 87 78 88 79 89 80 90 81 91 58 92 59 93 67 94 60 95 62 96
REMARK SMILES IDX 68 97 61 98 63 99 64 100 65 101 66 102
REMARK H PARENT 7 18 10 20 88 55 56 66
REMARK Flexibility Score: inf
ROOT
ATOM      1  O   UNL     1       5.687  -3.040   1.659  1.00  0.00    -0.377 OA
ENDROOT
BRANCH   1   2
ATOM      2  C   UNL     1       4.668  -2.061   1.571  1.00  0.00     0.188 C 
BRANCH   2   3
ATOM      3  C   UNL     1       4.435  -1.231   0.230  1.00  0.00     0.188 C 
BRANCH   3   4
ATOM      4  O   UNL     1       5.252  -0.021  -0.215  1.00  0.00    -0.376 OA
BRANCH   4   5
ATOM      5  C   UNL     1       4.845   1.484  -0.619  1.00  0.00     0.202 C 
BRANCH   5   6
ATOM      6  C   UNL     1       3.876   2.889   0.065  1.00  0.00     0.261 C 
BRANCH   6   7
ATOM      7  O   UNL     1       2.391   2.983   1.136  1.00  0.00    -0.463 OA
BRANCH   7   8
ATOM      8  C   UNL     1       1.370   2.346   2.039  1.00  0.00     0.312 C 
ATOM      9  O   UNL     1       0.174   2.643   1.866  1.00  0.00    -0.252 OA
BRANCH   8  10
ATOM     10  C   UNL     1       1.593   1.181   3.376  1.00  0.00     0.124 C 
ATOM     11  C   UNL     1       2.534  -0.698   4.906  1.00  0.00     0.107 C 
ATOM     12  C   UNL     1       1.471  -1.154   3.946  1.00  0.00    -0.006 C 
ATOM     13  C   UNL     1       2.769   0.707   4.365  1.00  0.00     0.048 C 
ATOM     14  C   UNL     1       0.973  -0.182   3.156  1.00  0.00    -0.014 C 
BRANCH  11  15
ATOM     15  N   UNL     1       3.708  -1.628   4.833  1.00  0.00    -0.332 N 
ATOM     16  N   UNL     1       5.592  -0.742   6.044  1.00  0.00    -0.308 N 
ATOM     17  C   UNL     1       5.019  -1.638   5.207  1.00  0.00     0.319 C 
ATOM     18  H   UNL     1       6.533  -0.524   5.854  1.00  0.00     0.171 HD
ATOM     19  O   UNL     1       5.758  -2.506   4.732  1.00  0.00    -0.248 OA
ATOM     20  H   UNL     1       3.462  -2.471   4.389  1.00  0.00     0.165 HD
BRANCH  16  21
ATOM     21  C   UNL     1       5.032  -0.086   7.137  1.00  0.00     0.046 A 
ATOM     22  C   UNL     1       3.376   1.497   8.650  1.00  0.00     0.119 A 
ATOM     23  C   UNL     1       3.041   0.167   8.445  1.00  0.00     0.048 A 
ATOM     24  C   UNL     1       4.672   1.933   8.364  1.00  0.00     0.052 A 
ATOM     25  C   UNL     1       3.887  -0.630   7.704  1.00  0.00     0.030 A 
ATOM     26  C   UNL     1       5.554   1.113   7.640  1.00  0.00    -0.024 A 
ATOM     27  C   UNL     1       6.997   1.523   7.518  1.00  0.00     0.047 C 
BRANCH  22  28
ATOM     28  O   UNL     1       2.484   2.415   9.133  1.00  0.00    -0.497 OA
ATOM     29  C   UNL     1       1.150   2.180   8.663  1.00  0.00     0.278 C 
ENDBRANCH  22  28
ENDBRANCH  16  21
ENDBRANCH  11  15
ENDBRANCH   8  10
ENDBRANCH   7   8
ENDBRANCH   6   7
ENDBRANCH   5   6
ENDBRANCH   4   5
ENDBRANCH   3   4
ENDBRANCH   2   3
ENDBRANCH   1   2
BRANCH   1  30
ATOM     30  C   UNL     1       6.234  -3.376   0.402  1.00  0.00     0.188 C 
BRANCH  30  31
ATOM     31  C   UNL     1       5.337  -4.333  -0.388  1.00  0.00     0.188 C 
BRANCH  31  32
ATOM     32  O   UNL     1       3.985  -3.881  -0.383  1.00  0.00    -0.376 OA
BRANCH  32  33
ATOM     33  C   UNL     1       2.971  -4.823  -0.110  1.00  0.00     0.202 C 
BRANCH  33  34
ATOM     34  C   UNL     1       2.676  -5.659  -1.352  1.00  0.00     0.261 C 
BRANCH  34  35
ATOM     35  O   UNL     1       2.028  -4.853  -2.363  1.00  0.00    -0.460 OA
BRANCH  35  36
ATOM     36  C   UNL     1       2.842  -3.986  -3.032  1.00  0.00     0.338 C 
ATOM     37  O   UNL     1       3.817  -4.334  -3.689  1.00  0.00    -0.246 OA
BRANCH  36  38
ATOM     38  C   UNL     1       2.455  -2.579  -2.684  1.00  0.00     0.060 A 
ATOM     39  C   UNL     1       3.294  -1.517  -2.991  1.00  0.00     0.016 A 
ATOM     40  C   UNL     1       1.392  -2.340  -1.803  1.00  0.00     0.016 A 
ATOM     41  C   UNL     1       3.174  -0.315  -2.260  1.00  0.00     0.010 A 
ATOM     42  C   UNL     1       1.402  -1.218  -0.959  1.00  0.00     0.010 A 
ATOM     43  C   UNL     1       2.394  -0.236  -1.071  1.00  0.00    -0.014 A 
BRANCH  43  44
ATOM     44  C   UNL     1       2.530   0.864   0.172  1.00  0.00     0.031 A 
ATOM     45  C   UNL     1       1.399   1.984  -0.650  1.00  0.00     0.074 A 
ATOM     46  C   UNL     1       3.571   1.092   1.465  1.00  0.00     0.049 A 
ATOM     47  N   UNL     1       1.625   3.247  -0.937  1.00  0.00    -0.248 NA
ATOM     48  C   UNL     1       0.116   1.612  -1.294  1.00  0.00     0.031 C 
ATOM     49  C   UNL     1       3.774   2.312   2.647  1.00  0.00     0.029 A 
ATOM     50  N   UNL     1       4.968   0.654   1.854  1.00  0.00    -0.354 N 
ATOM     51  C   UNL     1       0.422   3.871  -1.094  1.00  0.00     0.074 A 
ATOM     52  C   UNL     1      -0.408   2.810  -1.615  1.00  0.00     0.031 C 
ATOM     53  C   UNL     1       4.934   2.358   3.296  1.00  0.00     0.029 A 
ATOM     54  C   UNL     1       5.803   1.606   2.502  1.00  0.00     0.049 A 
ATOM     55  H   UNL     1       5.287  -0.258   1.666  1.00  0.00     0.167 HD
ATOM     56  C   UNL     1       0.139   5.078  -0.497  1.00  0.00     0.034 A 
ATOM     57  C   UNL     1       6.988   2.153   2.085  1.00  0.00     0.034 A 
ATOM     58  C   UNL     1       1.185   5.548   0.488  1.00  0.00     0.049 A 
ATOM     59  C   UNL     1       6.848   3.701   1.936  1.00  0.00     0.074 A 
ATOM     60  C   UNL     1       1.186   5.579   1.883  1.00  0.00     0.029 A 
ATOM     61  N   UNL     1       2.515   5.856   0.142  1.00  0.00    -0.354 N 
ATOM     62  N   UNL     1       5.695   4.337   1.960  1.00  0.00    -0.248 NA
ATOM     63  C   UNL     1       7.940   4.656   1.800  1.00  0.00     0.031 C 
ATOM     64  C   UNL     1       2.508   5.814   2.363  1.00  0.00     0.029 A 
ATOM     65  C   UNL     1       3.355   5.980   1.278  1.00  0.00     0.049 A 
ATOM     66  H   UNL     1       2.827   5.972  -0.784  1.00  0.00     0.167 HD
ATOM     67  C   UNL     1       5.818   5.647   1.605  1.00  0.00     0.074 A 
ATOM     68  C   UNL     1       7.267   5.823   1.689  1.00  0.00     0.031 C 
ATOM     69  C   UNL     1       4.765   6.446   1.193  1.00  0.00     0.034 A 
BRANCH  56  70
ATOM     70  C   UNL     1      -1.327   5.556  -0.474  1.00  0.00     0.023 A 
ATOM     71  C   UNL     1      -1.846   6.188   0.676  1.00  0.00     0.012 A 
ATOM     72  C   UNL     1      -2.251   5.362  -1.534  1.00  0.00     0.148 A 
ATOM     73  C   UNL     1      -3.210   6.480   0.832  1.00  0.00     0.002 A 
ATOM     74  C   UNL     1      -3.625   5.591  -1.357  1.00  0.00     0.091 A 
ATOM     75  F   UNL     1      -1.792   4.992  -2.739  1.00  0.00    -0.205 F 
ATOM     76  C   UNL     1      -4.108   6.141  -0.168  1.00  0.00     0.022 A 
BRANCH  74  77
ATOM     77  S   UNL     1      -4.854   5.070  -2.571  1.00  0.00     0.127 S 
ATOM     78  O   UNL     1      -5.923   4.522  -1.732  1.00  0.00    -0.237 OA
ATOM     79  O   UNL     1      -5.196   6.323  -3.239  1.00  0.00    -0.237 OA
ATOM     80  O   UNL     1      -4.186   4.068  -3.395  1.00  0.00    -0.744 OA
ENDBRANCH  74  77
ENDBRANCH  56  70
BRANCH  57  81
ATOM     81  C   UNL     1       7.910   1.223   1.356  1.00  0.00     0.023 A 
ATOM     82  C   UNL     1       8.280   0.035   2.039  1.00  0.00     0.012 A 
ATOM     83  C   UNL     1       8.146   1.283  -0.027  1.00  0.00     0.148 A 
ATOM     84  C   UNL     1       8.757  -1.087   1.357  1.00  0.00     0.002 A 
ATOM     85  C   UNL     1       8.504   0.120  -0.717  1.00  0.00     0.091 A 
ATOM     86  F   UNL     1       7.921   2.440  -0.664  1.00  0.00    -0.205 F 
ATOM     87  C   UNL     1       8.828  -1.058  -0.028  1.00  0.00     0.022 A 
BRANCH  85  88
ATOM     88  S   UNL     1       8.278  -0.043  -2.500  1.00  0.00     0.127 S 
ATOM     89  O   UNL     1       9.658  -0.177  -2.959  1.00  0.00    -0.237 OA
ATOM     90  O   UNL     1       7.480  -1.267  -2.603  1.00  0.00    -0.237 OA
ATOM     91  O   UNL     1       7.589   1.171  -2.915  1.00  0.00    -0.744 OA
ENDBRANCH  85  88
ENDBRANCH  57  81
BRANCH  69  92
ATOM     92  C   UNL     1       4.979   7.852   0.669  1.00  0.00     0.023 A 
ATOM     93  C   UNL     1       6.168   8.220   0.016  1.00  0.00     0.012 A 
ATOM     94  C   UNL     1       3.936   8.814   0.699  1.00  0.00     0.148 A 
ATOM     95  C   UNL     1       6.359   9.502  -0.499  1.00  0.00     0.002 A 
ATOM     96  C   UNL     1       4.083  10.042   0.065  1.00  0.00     0.091 A 
ATOM     97  F   UNL     1       2.802   8.559   1.367  1.00  0.00    -0.205 F 
ATOM     98  C   UNL     1       5.308  10.406  -0.498  1.00  0.00     0.022 A 
BRANCH  96  99
ATOM     99  S   UNL     1       2.677  11.130  -0.202  1.00  0.00     0.127 S 
ATOM    100  O   UNL     1       2.800  12.063   0.915  1.00  0.00    -0.237 OA
ATOM    101  O   UNL     1       2.977  11.707  -1.514  1.00  0.00    -0.237 OA
ATOM    102  O   UNL     1       1.510  10.259  -0.187  1.00  0.00    -0.744 OA
ENDBRANCH  96  99
ENDBRANCH  69  92
ENDBRANCH  43  44
ENDBRANCH  36  38
ENDBRANCH  35  36
ENDBRANCH  34  35
ENDBRANCH  33  34
ENDBRANCH  32  33
ENDBRANCH  31  32
ENDBRANCH  30  31
ENDBRANCH   1  30
TORSDOF 26
