REMARK SMILES C[C@@H]1CN([C@@H](CCS(C)(=O)=O)C(=O)OCCOCCOCCOCCOC(=O)c2ccc(-c3c4nc(c(-c5cccc(S(=O)(=O)[O-])c5F)c5ccc([nH]5)c(-c5cccc(S(=O)(=O)[O-])c5F)c5nc(c(-c6cccc(S(=O)(=O)[O-])c6F)c6ccc3[nH]6)C=C5)C=C4)cc2)S(=O)(=O)C1
REMARK SMILES IDX 20 1 19 2 18 3 17 4 16 5 15 6 14 7 12 8 13 9 5 10 4 11 1 12
REMARK SMILES IDX 2 13 3 14 95 15 92 16 93 17 94 18 6 19 7 20 8 21 9 22 10 23
REMARK SMILES IDX 11 24 21 25 22 26 23 27 24 28 25 29 26 30 27 31 28 32 29 33
REMARK SMILES IDX 30 34 91 35 31 36 90 37 32 38 33 39 34 40 84 41 35 42 89 43
REMARK SMILES IDX 83 44 85 45 36 46 88 47 82 48 81 49 37 51 69 52 49 53 68 54
REMARK SMILES IDX 50 55 53 56 67 57 86 58 51 59 52 60 66 62 87 63 54 64 38 65
REMARK SMILES IDX 39 66 47 67 40 68 42 69 48 70 41 71 43 72 44 73 45 74 46 75
REMARK SMILES IDX 70 76 71 77 79 78 72 79 74 80 80 81 73 82 75 83 76 84 77 85
REMARK SMILES IDX 78 86 55 87 56 88 64 89 57 90 59 91 65 92 58 93 60 94 61 95
REMARK SMILES IDX 62 96 63 97
REMARK H PARENT 85 50 53 61
REMARK Flexibility Score: inf
ROOT
ATOM      1  O   UNL     1      -2.283   5.530  -1.238  1.00  0.00    -0.377 OA
ENDROOT
BRANCH   1   2
ATOM      2  C   UNL     1      -1.128   6.104  -0.685  1.00  0.00     0.188 C 
BRANCH   2   3
ATOM      3  C   UNL     1      -0.652   7.361  -1.429  1.00  0.00     0.188 C 
BRANCH   3   4
ATOM      4  O   UNL     1      -1.562   8.148  -2.184  1.00  0.00    -0.376 OA
BRANCH   4   5
ATOM      5  C   UNL     1      -2.347   7.581  -3.228  1.00  0.00     0.202 C 
BRANCH   5   6
ATOM      6  C   UNL     1      -1.827   6.469  -4.146  1.00  0.00     0.261 C 
BRANCH   6   7
ATOM      7  O   UNL     1      -1.421   5.252  -3.498  1.00  0.00    -0.462 OA
BRANCH   7   8
ATOM      8  C   UNL     1      -0.115   4.961  -3.512  1.00  0.00     0.324 C 
ATOM      9  O   UNL     1       0.731   5.710  -4.011  1.00  0.00    -0.250 OA
BRANCH   8  10
ATOM     10  C   UNL     1       0.302   3.607  -2.987  1.00  0.00     0.183 C 
BRANCH  10  11
ATOM     11  N   UNL     1      -0.144   2.846  -1.790  1.00  0.00    -0.187 NA
ATOM     12  C   UNL     1       1.321  -0.054   0.142  1.00  0.00     0.010 C 
ATOM     13  C   UNL     1       0.535   0.716  -0.907  1.00  0.00     0.017 C 
ATOM     14  C   UNL     1       0.901   2.201  -0.955  1.00  0.00     0.107 C 
ATOM     15  C   UNL     1      -0.964   0.688  -0.643  1.00  0.00     0.159 C 
ATOM     16  S   UNL     1      -1.633   2.047  -1.592  1.00  0.00     0.215 S 
ATOM     17  O   UNL     1      -2.477   2.785  -0.691  1.00  0.00    -0.212 OA
ATOM     18  O   UNL     1      -2.060   1.493  -2.852  1.00  0.00    -0.212 OA
ENDBRANCH  10  11
BRANCH  10  19
ATOM     19  C   UNL     1       0.779   2.754  -4.180  1.00  0.00     0.048 C 
BRANCH  19  20
ATOM     20  C   UNL     1      -0.181   1.945  -5.042  1.00  0.00     0.139 C 
BRANCH  20  21
ATOM     21  S   UNL     1      -1.572   2.732  -5.850  1.00  0.00     0.147 S 
ATOM     22  C   UNL     1      -0.913   4.112  -6.745  1.00  0.00     0.158 C 
ATOM     23  O   UNL     1      -2.046   1.811  -6.864  1.00  0.00    -0.229 OA
ATOM     24  O   UNL     1      -2.479   3.290  -4.874  1.00  0.00    -0.229 OA
ENDBRANCH  20  21
ENDBRANCH  19  20
ENDBRANCH  10  19
ENDBRANCH   8  10
ENDBRANCH   7   8
ENDBRANCH   6   7
ENDBRANCH   5   6
ENDBRANCH   4   5
ENDBRANCH   3   4
ENDBRANCH   2   3
ENDBRANCH   1   2
BRANCH   1  25
ATOM     25  C   UNL     1      -3.568   5.849  -0.737  1.00  0.00     0.188 C 
BRANCH  25  26
ATOM     26  C   UNL     1      -3.793   7.224  -0.086  1.00  0.00     0.188 C 
BRANCH  26  27
ATOM     27  O   UNL     1      -2.748   7.642   0.779  1.00  0.00    -0.376 OA
BRANCH  27  28
ATOM     28  C   UNL     1      -2.867   7.362   2.164  1.00  0.00     0.202 C 
BRANCH  28  29
ATOM     29  C   UNL     1      -3.016   5.902   2.626  1.00  0.00     0.261 C 
BRANCH  29  30
ATOM     30  O   UNL     1      -4.126   5.154   2.111  1.00  0.00    -0.460 OA
BRANCH  30  31
ATOM     31  C   UNL     1      -5.370   5.639   2.292  1.00  0.00     0.338 C 
ATOM     32  O   UNL     1      -5.683   6.644   2.903  1.00  0.00    -0.246 OA
BRANCH  31  33
ATOM     33  C   UNL     1      -6.297   4.826   1.476  1.00  0.00     0.060 A 
ATOM     34  C   UNL     1      -7.008   5.433   0.432  1.00  0.00     0.016 A 
ATOM     35  C   UNL     1      -6.484   3.474   1.767  1.00  0.00     0.016 A 
ATOM     36  C   UNL     1      -7.954   4.702  -0.286  1.00  0.00     0.010 A 
ATOM     37  C   UNL     1      -7.445   2.748   1.058  1.00  0.00     0.010 A 
ATOM     38  C   UNL     1      -8.216   3.371   0.060  1.00  0.00    -0.014 A 
BRANCH  38  39
ATOM     39  C   UNL     1      -9.422   2.690  -0.469  1.00  0.00     0.031 A 
ATOM     40  C   UNL     1     -10.633   2.593   0.420  1.00  0.00     0.074 A 
ATOM     41  C   UNL     1      -9.442   2.155  -1.702  1.00  0.00     0.049 A 
ATOM     42  N   UNL     1     -11.771   1.984   0.213  1.00  0.00    -0.248 NA
ATOM     43  C   UNL     1     -10.543   3.271   1.724  1.00  0.00     0.031 C 
ATOM     44  C   UNL     1      -8.341   2.199  -2.661  1.00  0.00     0.029 A 
ATOM     45  N   UNL     1     -10.423   1.441  -2.343  1.00  0.00    -0.354 N 
ATOM     46  C   UNL     1     -12.515   2.169   1.372  1.00  0.00     0.074 A 
ATOM     47  C   UNL     1     -11.697   2.938   2.283  1.00  0.00     0.031 C 
ATOM     48  C   UNL     1      -8.695   1.511  -3.761  1.00  0.00     0.029 A 
ATOM     49  C   UNL     1     -10.032   0.952  -3.567  1.00  0.00     0.049 A 
ATOM     50  H   UNL     1     -11.320   1.293  -1.964  1.00  0.00     0.167 HD
ATOM     51  C   UNL     1     -13.770   1.744   1.652  1.00  0.00     0.034 A 
ATOM     52  C   UNL     1     -10.670   0.122  -4.417  1.00  0.00     0.034 A 
ATOM     53  C   UNL     1     -14.581   0.985   0.740  1.00  0.00     0.049 A 
ATOM     54  C   UNL     1     -12.051  -0.373  -4.067  1.00  0.00     0.074 A 
ATOM     55  C   UNL     1     -15.881   0.543   0.909  1.00  0.00     0.029 A 
ATOM     56  N   UNL     1     -14.164   0.536  -0.503  1.00  0.00    -0.354 N 
ATOM     57  N   UNL     1     -12.783  -0.111  -3.011  1.00  0.00    -0.248 NA
ATOM     58  C   UNL     1     -12.706  -1.257  -5.043  1.00  0.00     0.031 C 
ATOM     59  C   UNL     1     -16.232  -0.216  -0.212  1.00  0.00     0.029 A 
ATOM     60  C   UNL     1     -15.173  -0.197  -1.105  1.00  0.00     0.049 A 
ATOM     61  H   UNL     1     -13.280   0.712  -0.900  1.00  0.00     0.167 HD
ATOM     62  C   UNL     1     -13.997  -0.759  -3.215  1.00  0.00     0.074 A 
ATOM     63  C   UNL     1     -13.906  -1.417  -4.502  1.00  0.00     0.031 C 
ATOM     64  C   UNL     1     -15.087  -0.808  -2.408  1.00  0.00     0.034 A 
BRANCH  51  65
ATOM     65  C   UNL     1     -14.337   2.088   3.006  1.00  0.00     0.023 A 
ATOM     66  C   UNL     1     -14.661   3.425   3.318  1.00  0.00     0.012 A 
ATOM     67  C   UNL     1     -14.579   1.080   3.960  1.00  0.00     0.148 A 
ATOM     68  C   UNL     1     -15.172   3.758   4.573  1.00  0.00     0.002 A 
ATOM     69  C   UNL     1     -15.138   1.413   5.188  1.00  0.00     0.091 A 
ATOM     70  F   UNL     1     -14.247  -0.182   3.655  1.00  0.00    -0.205 F 
ATOM     71  C   UNL     1     -15.419   2.752   5.502  1.00  0.00     0.022 A 
BRANCH  69  72
ATOM     72  S   UNL     1     -15.571   0.180   6.421  1.00  0.00     0.127 S 
ATOM     73  O   UNL     1     -14.589   0.454   7.470  1.00  0.00    -0.237 OA
ATOM     74  O   UNL     1     -16.944   0.556   6.760  1.00  0.00    -0.237 OA
ATOM     75  O   UNL     1     -15.438  -1.112   5.764  1.00  0.00    -0.744 OA
ENDBRANCH  69  72
ENDBRANCH  51  65
BRANCH  52  76
ATOM     76  C   UNL     1     -10.020  -0.277  -5.697  1.00  0.00     0.023 A 
ATOM     77  C   UNL     1     -10.541   0.197  -6.917  1.00  0.00     0.012 A 
ATOM     78  C   UNL     1      -8.890  -1.118  -5.712  1.00  0.00     0.148 A 
ATOM     79  C   UNL     1      -9.964  -0.180  -8.130  1.00  0.00     0.002 A 
ATOM     80  C   UNL     1      -8.292  -1.452  -6.921  1.00  0.00     0.091 A 
ATOM     81  F   UNL     1      -8.422  -1.571  -4.540  1.00  0.00    -0.205 F 
ATOM     82  C   UNL     1      -8.835  -0.995  -8.132  1.00  0.00     0.022 A 
BRANCH  80  83
ATOM     83  S   UNL     1      -6.790  -2.431  -7.024  1.00  0.00     0.127 S 
ATOM     84  O   UNL     1      -7.272  -3.650  -7.670  1.00  0.00    -0.237 OA
ATOM     85  O   UNL     1      -5.939  -1.589  -7.864  1.00  0.00    -0.237 OA
ATOM     86  O   UNL     1      -6.326  -2.595  -5.652  1.00  0.00    -0.744 OA
ENDBRANCH  80  83
ENDBRANCH  52  76
BRANCH  64  87
ATOM     87  C   UNL     1     -16.302  -1.549  -2.907  1.00  0.00     0.023 A 
ATOM     88  C   UNL     1     -16.293  -2.955  -2.998  1.00  0.00     0.012 A 
ATOM     89  C   UNL     1     -17.487  -0.847  -3.211  1.00  0.00     0.148 A 
ATOM     90  C   UNL     1     -17.430  -3.647  -3.417  1.00  0.00     0.002 A 
ATOM     91  C   UNL     1     -18.632  -1.546  -3.573  1.00  0.00     0.091 A 
ATOM     92  F   UNL     1     -17.474   0.492  -3.132  1.00  0.00    -0.205 F 
ATOM     93  C   UNL     1     -18.601  -2.944  -3.692  1.00  0.00     0.022 A 
BRANCH  91  94
ATOM     94  S   UNL     1     -20.212  -0.736  -3.846  1.00  0.00     0.127 S 
ATOM     95  O   UNL     1     -20.392  -0.912  -5.287  1.00  0.00    -0.237 OA
ATOM     96  O   UNL     1     -21.115  -1.535  -3.017  1.00  0.00    -0.237 OA
ATOM     97  O   UNL     1     -20.043   0.642  -3.405  1.00  0.00    -0.744 OA
ENDBRANCH  91  94
ENDBRANCH  64  87
ENDBRANCH  38  39
ENDBRANCH  31  33
ENDBRANCH  30  31
ENDBRANCH  29  30
ENDBRANCH  28  29
ENDBRANCH  27  28
ENDBRANCH  26  27
ENDBRANCH  25  26
ENDBRANCH   1  25
TORSDOF 27
