REMARK SMILES CCOc1c(CNC(=O)[C@H]2CCCC[C@@H]2C(=O)OCCOCCOCCOCCOC(=O)c2ccc(-c3c4nc(c(-c5cccc(S(=O)(=O)[O-])c5F)c5ccc([nH]5)c(-c5cccc(S(=O)(=O)[O-])c5F)c5nc(c(-c6cccc(S(=O)(=O)[O-])c6F)c6ccc3[nH]6)C=C5)C=C4)cc2)cccc1OC
REMARK SMILES IDX 23 1 22 2 21 3 20 4 19 5 18 6 16 7 17 8 15 9 10 10 11 11
REMARK SMILES IDX 12 12 14 13 13 14 8 15 7 16 9 18 6 19 5 20 4 21 99 22 96 23
REMARK SMILES IDX 98 24 97 25 3 26 2 27 1 28 100 29 101 30 24 31 25 32 26 33
REMARK SMILES IDX 27 34 28 35 29 36 30 37 31 38 32 39 33 40 34 41 95 42 35 43
REMARK SMILES IDX 94 44 36 45 37 46 38 47 88 48 39 49 93 50 87 51 89 52 40 53
REMARK SMILES IDX 92 54 86 55 85 56 41 58 73 59 53 60 72 61 54 62 57 63 71 64
REMARK SMILES IDX 90 65 55 66 56 67 70 69 91 70 58 71 42 72 43 73 51 74 44 75
REMARK SMILES IDX 46 76 52 77 45 78 47 79 48 80 49 81 50 82 74 83 75 84 83 85
REMARK SMILES IDX 76 86 78 87 84 88 77 89 79 90 80 91 81 92 82 93 59 94 60 95
REMARK SMILES IDX 68 96 61 97 63 98 69 99 62 100 64 101 65 102 66 103 67 104
REMARK H PARENT 7 17 89 57 57 68
REMARK Flexibility Score: inf
ROOT
ATOM      1  C   UNL     1       1.592   7.089   4.090  1.00  0.00     0.188 C 
ENDROOT
BRANCH   1   2
ATOM      2  C   UNL     1       2.303   8.439   4.338  1.00  0.00     0.188 C 
BRANCH   2   3
ATOM      3  O   UNL     1       1.659   9.519   4.996  1.00  0.00    -0.376 OA
BRANCH   3   4
ATOM      4  C   UNL     1       0.246   9.569   5.053  1.00  0.00     0.202 C 
BRANCH   4   5
ATOM      5  C   UNL     1      -0.581   9.528   3.752  1.00  0.00     0.261 C 
BRANCH   5   6
ATOM      6  O   UNL     1       0.004   8.898   2.595  1.00  0.00    -0.463 OA
BRANCH   6   7
ATOM      7  C   UNL     1       0.878   9.655   1.882  1.00  0.00     0.309 C 
ATOM      8  O   UNL     1       1.196  10.792   2.202  1.00  0.00    -0.252 OA
BRANCH   7   9
ATOM      9  C   UNL     1       1.411   8.904   0.641  1.00  0.00     0.111 C 
ATOM     10  C   UNL     1       2.793   8.214   0.824  1.00  0.00     0.092 C 
ATOM     11  C   UNL     1       3.905   9.278   0.985  1.00  0.00     0.014 C 
ATOM     12  C   UNL     1       3.909  10.373  -0.085  1.00  0.00     0.001 C 
ATOM     13  C   UNL     1       1.431   9.909  -0.521  1.00  0.00     0.016 C 
ATOM     14  C   UNL     1       2.537  10.959  -0.395  1.00  0.00     0.001 C 
BRANCH  10  15
ATOM     15  C   UNL     1       3.175   7.264  -0.332  1.00  0.00     0.224 C 
ATOM     16  N   UNL     1       3.197   5.907  -0.226  1.00  0.00    -0.352 N 
ATOM     17  H   UNL     1       3.638   5.479  -0.995  1.00  0.00     0.163 HD
ATOM     18  O   UNL     1       3.526   7.711  -1.429  1.00  0.00    -0.275 OA
BRANCH  16  19
ATOM     19  C   UNL     1       2.722   4.929   0.760  1.00  0.00     0.155 C 
BRANCH  19  20
ATOM     20  C   UNL     1       1.477   4.207   0.269  1.00  0.00     0.017 A 
ATOM     21  C   UNL     1       1.211   2.812   0.409  1.00  0.00     0.166 A 
ATOM     22  C   UNL     1      -0.083   2.323   0.111  1.00  0.00     0.161 A 
ATOM     23  C   UNL     1       0.457   5.034  -0.250  1.00  0.00     0.010 A 
ATOM     24  C   UNL     1      -1.056   3.196  -0.397  1.00  0.00     0.050 A 
ATOM     25  C   UNL     1      -0.789   4.539  -0.593  1.00  0.00     0.004 A 
BRANCH  21  26
ATOM     26  O   UNL     1       2.132   1.960   0.969  1.00  0.00    -0.490 OA
BRANCH  26  27
ATOM     27  C   UNL     1       3.261   1.662   0.133  1.00  0.00     0.226 C 
ATOM     28  C   UNL     1       3.422   0.157  -0.051  1.00  0.00     0.049 C 
ENDBRANCH  26  27
ENDBRANCH  21  26
BRANCH  22  29
ATOM     29  O   UNL     1      -0.634   1.087   0.303  1.00  0.00    -0.493 OA
ATOM     30  C   UNL     1       0.166  -0.054   0.501  1.00  0.00     0.278 C 
ENDBRANCH  22  29
ENDBRANCH  19  20
ENDBRANCH  16  19
ENDBRANCH  10  15
ENDBRANCH   7   9
ENDBRANCH   6   7
ENDBRANCH   5   6
ENDBRANCH   4   5
ENDBRANCH   3   4
ENDBRANCH   2   3
ENDBRANCH   1   2
BRANCH   1  31
ATOM     31  O   UNL     1       0.514   6.846   4.974  1.00  0.00    -0.377 OA
BRANCH  31  32
ATOM     32  C   UNL     1       0.837   6.007   6.071  1.00  0.00     0.188 C 
BRANCH  32  33
ATOM     33  C   UNL     1       2.024   6.490   6.920  1.00  0.00     0.188 C 
BRANCH  33  34
ATOM     34  O   UNL     1       3.227   6.533   6.156  1.00  0.00    -0.376 OA
BRANCH  34  35
ATOM     35  C   UNL     1       4.232   5.562   6.366  1.00  0.00     0.202 C 
BRANCH  35  36
ATOM     36  C   UNL     1       3.965   4.155   5.816  1.00  0.00     0.261 C 
BRANCH  36  37
ATOM     37  O   UNL     1       2.711   3.565   6.160  1.00  0.00    -0.460 OA
BRANCH  37  38
ATOM     38  C   UNL     1       2.456   3.333   7.473  1.00  0.00     0.338 C 
ATOM     39  O   UNL     1       3.203   3.529   8.402  1.00  0.00    -0.246 OA
BRANCH  38  40
ATOM     40  C   UNL     1       1.006   3.033   7.570  1.00  0.00     0.060 A 
ATOM     41  C   UNL     1       0.222   3.780   8.461  1.00  0.00     0.016 A 
ATOM     42  C   UNL     1       0.410   2.096   6.720  1.00  0.00     0.016 A 
ATOM     43  C   UNL     1      -1.160   3.590   8.503  1.00  0.00     0.010 A 
ATOM     44  C   UNL     1      -0.967   1.880   6.788  1.00  0.00     0.010 A 
ATOM     45  C   UNL     1      -1.752   2.610   7.697  1.00  0.00    -0.014 A 
BRANCH  45  46
ATOM     46  C   UNL     1      -3.138   2.170   7.974  1.00  0.00     0.031 A 
ATOM     47  C   UNL     1      -3.319   1.027   8.934  1.00  0.00     0.074 A 
ATOM     48  C   UNL     1      -4.199   2.744   7.382  1.00  0.00     0.049 A 
ATOM     49  N   UNL     1      -4.413   0.422   9.308  1.00  0.00    -0.248 NA
ATOM     50  C   UNL     1      -2.092   0.494   9.553  1.00  0.00     0.031 C 
ATOM     51  C   UNL     1      -4.148   3.867   6.449  1.00  0.00     0.029 A 
ATOM     52  N   UNL     1      -5.534   2.434   7.466  1.00  0.00    -0.354 N 
ATOM     53  C   UNL     1      -4.008  -0.573  10.189  1.00  0.00     0.074 A 
ATOM     54  C   UNL     1      -2.567  -0.501  10.283  1.00  0.00     0.031 C 
ATOM     55  C   UNL     1      -5.396   4.136   6.024  1.00  0.00     0.029 A 
ATOM     56  C   UNL     1      -6.327   3.188   6.633  1.00  0.00     0.049 A 
ATOM     57  H   UNL     1      -5.889   1.738   8.065  1.00  0.00     0.167 HD
ATOM     58  C   UNL     1      -4.766  -1.460  10.871  1.00  0.00     0.034 A 
ATOM     59  C   UNL     1      -7.649   3.100   6.381  1.00  0.00     0.034 A 
ATOM     60  C   UNL     1      -6.196  -1.535  10.768  1.00  0.00     0.049 A 
ATOM     61  C   UNL     1      -8.467   2.058   7.106  1.00  0.00     0.074 A 
ATOM     62  C   UNL     1      -7.063  -2.382  11.432  1.00  0.00     0.029 A 
ATOM     63  N   UNL     1      -6.967  -0.745   9.930  1.00  0.00    -0.354 N 
ATOM     64  N   UNL     1      -8.088   1.197   8.021  1.00  0.00    -0.248 NA
ATOM     65  C   UNL     1      -9.900   1.991   6.780  1.00  0.00     0.031 C 
ATOM     66  C   UNL     1      -8.358  -2.123  10.973  1.00  0.00     0.029 A 
ATOM     67  C   UNL     1      -8.300  -1.093  10.047  1.00  0.00     0.049 A 
ATOM     68  H   UNL     1      -6.617  -0.039   9.339  1.00  0.00     0.167 HD
ATOM     69  C   UNL     1      -9.239   0.518   8.409  1.00  0.00     0.074 A 
ATOM     70  C   UNL     1     -10.331   1.077   7.639  1.00  0.00     0.031 C 
ATOM     71  C   UNL     1      -9.380  -0.486   9.312  1.00  0.00     0.034 A 
BRANCH  58  72
ATOM     72  C   UNL     1      -4.052  -2.410  11.794  1.00  0.00     0.023 A 
ATOM     73  C   UNL     1      -3.490  -1.925  12.994  1.00  0.00     0.012 A 
ATOM     74  C   UNL     1      -3.947  -3.778  11.484  1.00  0.00     0.148 A 
ATOM     75  C   UNL     1      -2.803  -2.781  13.852  1.00  0.00     0.002 A 
ATOM     76  C   UNL     1      -3.300  -4.634  12.367  1.00  0.00     0.091 A 
ATOM     77  F   UNL     1      -4.459  -4.213  10.325  1.00  0.00    -0.205 F 
ATOM     78  C   UNL     1      -2.716  -4.136  13.544  1.00  0.00     0.022 A 
BRANCH  76  79
ATOM     79  S   UNL     1      -3.198  -6.406  12.093  1.00  0.00     0.127 S 
ATOM     80  O   UNL     1      -1.786  -6.570  11.749  1.00  0.00    -0.237 OA
ATOM     81  O   UNL     1      -3.572  -6.941  13.402  1.00  0.00    -0.237 OA
ATOM     82  O   UNL     1      -4.142  -6.701  11.025  1.00  0.00    -0.744 OA
ENDBRANCH  76  79
ENDBRANCH  58  72
BRANCH  59  83
ATOM     83  C   UNL     1      -8.299   4.045   5.427  1.00  0.00     0.023 A 
ATOM     84  C   UNL     1      -9.209   5.003   5.914  1.00  0.00     0.012 A 
ATOM     85  C   UNL     1      -8.022   4.003   4.046  1.00  0.00     0.148 A 
ATOM     86  C   UNL     1      -9.855   5.881   5.043  1.00  0.00     0.002 A 
ATOM     87  C   UNL     1      -8.629   4.915   3.189  1.00  0.00     0.091 A 
ATOM     88  F   UNL     1      -7.168   3.072   3.598  1.00  0.00    -0.205 F 
ATOM     89  C   UNL     1      -9.559   5.843   3.683  1.00  0.00     0.022 A 
BRANCH  87  90
ATOM     90  S   UNL     1      -8.227   5.019   1.441  1.00  0.00     0.127 S 
ATOM     91  O   UNL     1      -9.472   4.574   0.820  1.00  0.00    -0.237 OA
ATOM     92  O   UNL     1      -7.935   6.444   1.285  1.00  0.00    -0.237 OA
ATOM     93  O   UNL     1      -7.079   4.144   1.247  1.00  0.00    -0.744 OA
ENDBRANCH  87  90
ENDBRANCH  59  83
BRANCH  71  94
ATOM     94  C   UNL     1     -10.767  -1.024   9.556  1.00  0.00     0.023 A 
ATOM     95  C   UNL     1     -11.388  -1.834   8.586  1.00  0.00     0.012 A 
ATOM     96  C   UNL     1     -11.412  -0.804  10.790  1.00  0.00     0.148 A 
ATOM     97  C   UNL     1     -12.642  -2.393   8.828  1.00  0.00     0.002 A 
ATOM     98  C   UNL     1     -12.639  -1.406  11.044  1.00  0.00     0.091 A 
ATOM     99  F   UNL     1     -10.810  -0.018  11.695  1.00  0.00    -0.205 F 
ATOM    100  C   UNL     1     -13.261  -2.191  10.059  1.00  0.00     0.022 A 
BRANCH  98 101
ATOM    101  S   UNL     1     -13.462  -1.285  12.636  1.00  0.00     0.127 S 
ATOM    102  O   UNL     1     -14.605  -0.431  12.316  1.00  0.00    -0.237 OA
ATOM    103  O   UNL     1     -13.803  -2.680  12.915  1.00  0.00    -0.237 OA
ATOM    104  O   UNL     1     -12.488  -0.706  13.551  1.00  0.00    -0.744 OA
ENDBRANCH  98 101
ENDBRANCH  71  94
ENDBRANCH  45  46
ENDBRANCH  38  40
ENDBRANCH  37  38
ENDBRANCH  36  37
ENDBRANCH  35  36
ENDBRANCH  34  35
ENDBRANCH  33  34
ENDBRANCH  32  33
ENDBRANCH  31  32
ENDBRANCH   1  31
TORSDOF 29
