REMARK SMILES CC(C)C[C@@H](CNC(=O)[C@@H]1CCOC1)C(=O)OCCOCCOCCOCCOC(=O)c1ccc(-c2c3nc(c(-c4cccc(S(=O)(=O)[O-])c4F)c4ccc([nH]4)c(-c4cccc(S(=O)(=O)[O-])c4F)c4nc(c(-c5cccc(S(=O)(=O)[O-])c5F)c5ccc2[nH]5)C=C4)C=C3)cc1
REMARK SMILES IDX 23 1 22 2 21 3 20 4 19 5 18 6 17 7 15 8 16 9 5 10 4 11 2 12
REMARK SMILES IDX 1 13 3 14 6 15 7 16 8 17 9 19 10 20 11 21 14 22 12 23 13 24
REMARK SMILES IDX 24 25 25 26 26 27 27 28 28 29 29 30 30 31 31 32 32 33 33 34
REMARK SMILES IDX 94 35 34 36 93 37 35 38 36 39 37 40 87 41 38 42 92 43 86 44
REMARK SMILES IDX 88 45 39 46 91 47 85 48 84 49 40 51 72 52 52 53 71 54 53 55
REMARK SMILES IDX 56 56 70 57 89 58 54 59 55 60 69 62 90 63 57 64 41 65 42 66
REMARK SMILES IDX 50 67 43 68 45 69 51 70 44 71 46 72 47 73 48 74 49 75 73 76
REMARK SMILES IDX 74 77 82 78 75 79 77 80 83 81 76 82 78 83 79 84 80 85 81 86
REMARK SMILES IDX 58 87 59 88 67 89 60 90 62 91 68 92 61 93 63 94 64 95 65 96
REMARK SMILES IDX 66 97
REMARK H PARENT 7 18 88 50 56 61
REMARK Flexibility Score: inf
ROOT
ATOM      1  O   UNL     1      -3.920   1.285   1.096  1.00  0.00    -0.377 OA
ENDROOT
BRANCH   1   2
ATOM      2  C   UNL     1      -3.509   0.832  -0.176  1.00  0.00     0.188 C 
BRANCH   2   3
ATOM      3  C   UNL     1      -4.315  -0.338  -0.755  1.00  0.00     0.188 C 
BRANCH   3   4
ATOM      4  O   UNL     1      -5.578  -0.705  -0.230  1.00  0.00    -0.376 OA
BRANCH   4   5
ATOM      5  C   UNL     1      -5.808  -0.809   1.167  1.00  0.00     0.202 C 
BRANCH   5   6
ATOM      6  C   UNL     1      -4.832  -1.507   2.123  1.00  0.00     0.261 C 
BRANCH   6   7
ATOM      7  O   UNL     1      -3.471  -1.036   2.161  1.00  0.00    -0.463 OA
BRANCH   7   8
ATOM      8  C   UNL     1      -2.565  -1.807   1.525  1.00  0.00     0.310 C 
ATOM      9  O   UNL     1      -2.849  -2.818   0.885  1.00  0.00    -0.252 OA
BRANCH   8  10
ATOM     10  C   UNL     1      -1.112  -1.415   1.728  1.00  0.00     0.118 C 
BRANCH  10  11
ATOM     11  C   UNL     1      -0.722   0.058   1.996  1.00  0.00     0.020 C 
BRANCH  11  12
ATOM     12  C   UNL     1       0.775   0.372   1.719  1.00  0.00    -0.017 C 
ATOM     13  C   UNL     1       1.231  -0.019   0.307  1.00  0.00     0.007 C 
ATOM     14  C   UNL     1       1.064   1.863   1.922  1.00  0.00     0.007 C 
ENDBRANCH  11  12
ENDBRANCH  10  11
BRANCH  10  15
ATOM     15  C   UNL     1      -0.519  -2.382   2.762  1.00  0.00     0.131 C 
BRANCH  15  16
ATOM     16  N   UNL     1      -0.901  -2.038   4.120  1.00  0.00    -0.355 N 
ATOM     17  C   UNL     1      -1.997  -2.417   4.837  1.00  0.00     0.225 C 
ATOM     18  H   UNL     1      -0.275  -1.444   4.594  1.00  0.00     0.163 HD
ATOM     19  O   UNL     1      -2.246  -1.796   5.867  1.00  0.00    -0.275 OA
BRANCH  17  20
ATOM     20  C   UNL     1      -2.827  -3.604   4.374  1.00  0.00     0.106 C 
ATOM     21  C   UNL     1      -4.249  -3.557   4.890  1.00  0.00     0.044 C 
ATOM     22  C   UNL     1      -2.280  -4.882   4.981  1.00  0.00     0.173 C 
ATOM     23  C   UNL     1      -4.144  -4.259   6.222  1.00  0.00     0.161 C 
ATOM     24  O   UNL     1      -3.166  -5.291   6.035  1.00  0.00    -0.381 OA
ENDBRANCH  17  20
ENDBRANCH  15  16
ENDBRANCH  10  15
ENDBRANCH   8  10
ENDBRANCH   7   8
ENDBRANCH   6   7
ENDBRANCH   5   6
ENDBRANCH   4   5
ENDBRANCH   3   4
ENDBRANCH   2   3
ENDBRANCH   1   2
BRANCH   1  25
ATOM     25  C   UNL     1      -4.859   2.354   1.166  1.00  0.00     0.188 C 
BRANCH  25  26
ATOM     26  C   UNL     1      -5.832   2.555  -0.011  1.00  0.00     0.188 C 
BRANCH  26  27
ATOM     27  O   UNL     1      -5.203   2.585  -1.286  1.00  0.00    -0.376 OA
BRANCH  27  28
ATOM     28  C   UNL     1      -4.796   3.840  -1.814  1.00  0.00     0.202 C 
BRANCH  28  29
ATOM     29  C   UNL     1      -3.772   4.663  -1.012  1.00  0.00     0.261 C 
BRANCH  29  30
ATOM     30  O   UNL     1      -4.198   5.134   0.278  1.00  0.00    -0.460 OA
BRANCH  30  31
ATOM     31  C   UNL     1      -5.354   5.827   0.350  1.00  0.00     0.338 C 
ATOM     32  O   UNL     1      -6.040   6.202  -0.579  1.00  0.00    -0.246 OA
BRANCH  31  33
ATOM     33  C   UNL     1      -5.772   5.879   1.768  1.00  0.00     0.060 A 
ATOM     34  C   UNL     1      -7.032   5.372   2.106  1.00  0.00     0.016 A 
ATOM     35  C   UNL     1      -4.953   6.451   2.744  1.00  0.00     0.016 A 
ATOM     36  C   UNL     1      -7.505   5.494   3.410  1.00  0.00     0.010 A 
ATOM     37  C   UNL     1      -5.437   6.590   4.049  1.00  0.00     0.010 A 
ATOM     38  C   UNL     1      -6.735   6.156   4.374  1.00  0.00    -0.014 A 
BRANCH  38  39
ATOM     39  C   UNL     1      -7.383   6.565   5.644  1.00  0.00     0.031 A 
ATOM     40  C   UNL     1      -7.875   7.982   5.778  1.00  0.00     0.074 A 
ATOM     41  C   UNL     1      -7.591   5.681   6.636  1.00  0.00     0.049 A 
ATOM     42  N   UNL     1      -8.508   8.550   6.771  1.00  0.00    -0.248 NA
ATOM     43  C   UNL     1      -7.624   8.878   4.636  1.00  0.00     0.031 C 
ATOM     44  C   UNL     1      -7.167   4.282   6.625  1.00  0.00     0.029 A 
ATOM     45  N   UNL     1      -8.203   5.839   7.854  1.00  0.00    -0.354 N 
ATOM     46  C   UNL     1      -8.720   9.868   6.382  1.00  0.00     0.074 A 
ATOM     47  C   UNL     1      -8.124  10.024   5.074  1.00  0.00     0.031 C 
ATOM     48  C   UNL     1      -7.508   3.715   7.796  1.00  0.00     0.029 A 
ATOM     49  C   UNL     1      -8.158   4.714   8.643  1.00  0.00     0.049 A 
ATOM     50  H   UNL     1      -8.634   6.678   8.136  1.00  0.00     0.167 HD
ATOM     51  C   UNL     1      -9.375  10.854   7.039  1.00  0.00     0.034 A 
ATOM     52  C   UNL     1      -8.576   4.522   9.910  1.00  0.00     0.034 A 
ATOM     53  C   UNL     1      -9.971  10.699   8.338  1.00  0.00     0.049 A 
ATOM     54  C   UNL     1      -9.270   5.647  10.635  1.00  0.00     0.074 A 
ATOM     55  C   UNL     1     -10.669  11.633   9.082  1.00  0.00     0.029 A 
ATOM     56  N   UNL     1      -9.932   9.537   9.092  1.00  0.00    -0.354 N 
ATOM     57  N   UNL     1      -9.553   6.856  10.213  1.00  0.00    -0.248 NA
ATOM     58  C   UNL     1      -9.738   5.366  12.001  1.00  0.00     0.031 C 
ATOM     59  C   UNL     1     -11.028  11.044  10.299  1.00  0.00     0.029 A 
ATOM     60  C   UNL     1     -10.589   9.730  10.296  1.00  0.00     0.049 A 
ATOM     61  H   UNL     1      -9.501   8.697   8.813  1.00  0.00     0.167 HD
ATOM     62  C   UNL     1     -10.262   7.465  11.243  1.00  0.00     0.074 A 
ATOM     63  C   UNL     1     -10.390   6.482  12.298  1.00  0.00     0.031 C 
ATOM     64  C   UNL     1     -10.751   8.728  11.317  1.00  0.00     0.034 A 
BRANCH  51  65
ATOM     65  C   UNL     1      -9.504  12.187   6.347  1.00  0.00     0.023 A 
ATOM     66  C   UNL     1     -10.366  12.315   5.238  1.00  0.00     0.012 A 
ATOM     67  C   UNL     1      -8.817  13.321   6.823  1.00  0.00     0.148 A 
ATOM     68  C   UNL     1     -10.518  13.542   4.594  1.00  0.00     0.002 A 
ATOM     69  C   UNL     1      -9.010  14.550   6.205  1.00  0.00     0.091 A 
ATOM     70  F   UNL     1      -7.987  13.174   7.865  1.00  0.00    -0.205 F 
ATOM     71  C   UNL     1      -9.849  14.661   5.083  1.00  0.00     0.022 A 
BRANCH  69  72
ATOM     72  S   UNL     1      -8.257  16.067   6.803  1.00  0.00     0.127 S 
ATOM     73  O   UNL     1      -7.329  16.384   5.717  1.00  0.00    -0.237 OA
ATOM     74  O   UNL     1      -9.409  16.963   6.900  1.00  0.00    -0.237 OA
ATOM     75  O   UNL     1      -7.633  15.734   8.075  1.00  0.00    -0.744 OA
ENDBRANCH  69  72
ENDBRANCH  51  65
BRANCH  52  76
ATOM     76  C   UNL     1      -8.358   3.208  10.580  1.00  0.00     0.023 A 
ATOM     77  C   UNL     1      -9.458   2.395  10.916  1.00  0.00     0.012 A 
ATOM     78  C   UNL     1      -7.058   2.772  10.900  1.00  0.00     0.148 A 
ATOM     79  C   UNL     1      -9.269   1.190  11.596  1.00  0.00     0.002 A 
ATOM     80  C   UNL     1      -6.874   1.545  11.525  1.00  0.00     0.091 A 
ATOM     81  F   UNL     1      -6.027   3.569  10.590  1.00  0.00    -0.205 F 
ATOM     82  C   UNL     1      -7.978   0.761  11.891  1.00  0.00     0.022 A 
BRANCH  80  83
ATOM     83  S   UNL     1      -5.243   0.860  11.833  1.00  0.00     0.127 S 
ATOM     84  O   UNL     1      -5.147   0.963  13.287  1.00  0.00    -0.237 OA
ATOM     85  O   UNL     1      -5.389  -0.502  11.319  1.00  0.00    -0.237 OA
ATOM     86  O   UNL     1      -4.319   1.695  11.077  1.00  0.00    -0.744 OA
ENDBRANCH  80  83
ENDBRANCH  52  76
BRANCH  64  87
ATOM     87  C   UNL     1     -11.514   9.109  12.562  1.00  0.00     0.023 A 
ATOM     88  C   UNL     1     -10.836   9.258  13.789  1.00  0.00     0.012 A 
ATOM     89  C   UNL     1     -12.898   9.365  12.504  1.00  0.00     0.148 A 
ATOM     90  C   UNL     1     -11.532   9.607  14.946  1.00  0.00     0.002 A 
ATOM     91  C   UNL     1     -13.575   9.766  13.649  1.00  0.00     0.091 A 
ATOM     92  F   UNL     1     -13.530   9.205  11.332  1.00  0.00    -0.205 F 
ATOM     93  C   UNL     1     -12.898   9.871  14.874  1.00  0.00     0.022 A 
BRANCH  91  94
ATOM     94  S   UNL     1     -15.312  10.223  13.631  1.00  0.00     0.127 S 
ATOM     95  O   UNL     1     -15.926   9.086  14.315  1.00  0.00    -0.237 OA
ATOM     96  O   UNL     1     -15.314  11.469  14.398  1.00  0.00    -0.237 OA
ATOM     97  O   UNL     1     -15.672  10.377  12.228  1.00  0.00    -0.744 OA
ENDBRANCH  91  94
ENDBRANCH  64  87
ENDBRANCH  38  39
ENDBRANCH  31  33
ENDBRANCH  30  31
ENDBRANCH  29  30
ENDBRANCH  28  29
ENDBRANCH  27  28
ENDBRANCH  26  27
ENDBRANCH  25  26
ENDBRANCH   1  25
TORSDOF 28
