REMARK SMILES Cc1c(CC(=O)OCCOCCOCCOCCOC(=O)c2ccc(-c3c4nc(c(-c5cccc(S(=O)(=O)[O-])c5F)c5ccc([nH]5)c(-c5cccc(S(=O)(=O)[O-])c5F)c5nc(c(-c6cccc(S(=O)(=O)[O-])c6F)c6ccc3[nH]6)C=C5)C=C4)cc2)cc(-c2ccc(S(C)(=O)=O)cc2)n1-c1cccc(F)c1
REMARK SMILES IDX 13 1 12 2 11 3 10 4 9 5 8 6 7 7 5 8 6 9 4 10 3 11 1 12 2 13
REMARK SMILES IDX 97 14 85 15 86 16 98 17 99 18 104 19 100 20 102 21 101 22
REMARK SMILES IDX 103 23 87 24 88 25 96 26 89 27 95 28 90 29 91 30 92 31 93 32
REMARK SMILES IDX 94 33 14 34 15 35 16 36 17 37 18 38 19 39 20 40 21 41 22 42
REMARK SMILES IDX 23 43 84 44 24 45 83 46 25 47 26 48 27 49 77 50 28 51 82 52
REMARK SMILES IDX 76 53 78 54 29 55 81 56 75 57 74 58 30 60 62 61 42 62 61 63
REMARK SMILES IDX 43 64 46 65 60 66 79 67 44 68 45 69 59 71 80 72 47 73 31 74
REMARK SMILES IDX 32 75 40 76 33 77 35 78 41 79 34 80 36 81 37 82 38 83 39 84
REMARK SMILES IDX 63 85 64 86 72 87 65 88 67 89 73 90 66 91 68 92 69 93 70 94
REMARK SMILES IDX 71 95 48 96 49 97 57 98 50 99 52 100 58 101 51 102 53 103
REMARK SMILES IDX 54 104 55 105 56 106
REMARK H PARENT 78 59 46 70
REMARK Flexibility Score: inf
ROOT
ATOM      1  O   UNL     1       3.420   0.746  -1.884  1.00  0.00    -0.377 OA
ENDROOT
BRANCH   1   2
ATOM      2  C   UNL     1       3.024  -0.195  -0.922  1.00  0.00     0.188 C 
BRANCH   2   3
ATOM      3  C   UNL     1       3.294   0.055   0.569  1.00  0.00     0.188 C 
BRANCH   3   4
ATOM      4  O   UNL     1       4.488  -0.368   1.213  1.00  0.00    -0.376 OA
BRANCH   4   5
ATOM      5  C   UNL     1       5.317  -1.347   0.629  1.00  0.00     0.202 C 
BRANCH   5   6
ATOM      6  C   UNL     1       4.789  -2.768   0.358  1.00  0.00     0.261 C 
BRANCH   6   7
ATOM      7  O   UNL     1       3.405  -2.878  -0.030  1.00  0.00    -0.463 OA
BRANCH   7   8
ATOM      8  C   UNL     1       2.528  -3.259   0.928  1.00  0.00     0.310 C 
ATOM      9  O   UNL     1       2.869  -3.574   2.067  1.00  0.00    -0.252 OA
BRANCH   8  10
ATOM     10  C   UNL     1       1.081  -3.384   0.478  1.00  0.00     0.160 C 
BRANCH  10  11
ATOM     11  C   UNL     1       0.547  -2.587  -0.693  1.00  0.00    -0.015 A 
ATOM     12  C   UNL     1      -0.510  -0.503   0.490  1.00  0.00     0.065 C 
ATOM     13  C   UNL     1      -0.151  -1.374  -0.670  1.00  0.00     0.024 A 
ATOM     14  N   UNL     1      -0.483  -1.039  -1.980  1.00  0.00    -0.313 N 
ATOM     15  C   UNL     1       0.465  -3.053  -2.043  1.00  0.00     0.033 A 
ATOM     16  C   UNL     1      -0.249  -2.134  -2.795  1.00  0.00     0.053 A 
BRANCH  14  17
ATOM     17  C   UNL     1      -0.986   0.202  -2.443  1.00  0.00     0.049 A 
ATOM     18  C   UNL     1      -2.365   0.426  -2.498  1.00  0.00     0.027 A 
ATOM     19  C   UNL     1      -0.088   1.113  -3.006  1.00  0.00     0.065 A 
ATOM     20  C   UNL     1      -2.844   1.588  -3.115  1.00  0.00     0.005 A 
ATOM     21  C   UNL     1      -0.584   2.259  -3.614  1.00  0.00     0.125 A 
ATOM     22  C   UNL     1      -1.951   2.505  -3.676  1.00  0.00     0.039 A 
ATOM     23  F   UNL     1       0.269   3.125  -4.172  1.00  0.00    -0.207 F 
ENDBRANCH  14  17
BRANCH  16  24
ATOM     24  C   UNL     1      -0.809  -2.258  -4.146  1.00  0.00    -0.001 A 
ATOM     25  C   UNL     1      -0.277  -1.557  -5.236  1.00  0.00     0.011 A 
ATOM     26  C   UNL     1      -1.956  -3.043  -4.332  1.00  0.00     0.011 A 
ATOM     27  C   UNL     1      -0.885  -1.633  -6.495  1.00  0.00     0.021 A 
ATOM     28  C   UNL     1      -2.569  -3.124  -5.585  1.00  0.00     0.021 A 
ATOM     29  C   UNL     1      -2.030  -2.414  -6.662  1.00  0.00     0.067 A 
BRANCH  29  30
ATOM     30  S   UNL     1      -2.782  -2.579  -8.267  1.00  0.00     0.175 S 
ATOM     31  C   UNL     1      -3.294  -0.939  -8.710  1.00  0.00     0.163 C 
ATOM     32  O   UNL     1      -1.701  -2.992  -9.176  1.00  0.00    -0.224 OA
ATOM     33  O   UNL     1      -3.953  -3.386  -8.122  1.00  0.00    -0.224 OA
ENDBRANCH  29  30
ENDBRANCH  16  24
ENDBRANCH  10  11
ENDBRANCH   8  10
ENDBRANCH   7   8
ENDBRANCH   6   7
ENDBRANCH   5   6
ENDBRANCH   4   5
ENDBRANCH   3   4
ENDBRANCH   2   3
ENDBRANCH   1   2
BRANCH   1  34
ATOM     34  C   UNL     1       4.781   0.913  -2.192  1.00  0.00     0.188 C 
BRANCH  34  35
ATOM     35  C   UNL     1       5.319   2.243  -1.667  1.00  0.00     0.188 C 
BRANCH  35  36
ATOM     36  O   UNL     1       4.363   3.216  -1.271  1.00  0.00    -0.376 OA
BRANCH  36  37
ATOM     37  C   UNL     1       3.264   3.469  -2.146  1.00  0.00     0.202 C 
BRANCH  37  38
ATOM     38  C   UNL     1       3.492   4.106  -3.560  1.00  0.00     0.261 C 
BRANCH  38  39
ATOM     39  O   UNL     1       4.131   3.433  -4.728  1.00  0.00    -0.460 OA
BRANCH  39  40
ATOM     40  C   UNL     1       5.303   3.976  -5.271  1.00  0.00     0.338 C 
ATOM     41  O   UNL     1       6.139   4.512  -4.552  1.00  0.00    -0.246 OA
BRANCH  40  42
ATOM     42  C   UNL     1       5.530   3.906  -6.835  1.00  0.00     0.060 A 
ATOM     43  C   UNL     1       6.745   3.887  -7.602  1.00  0.00     0.016 A 
ATOM     44  C   UNL     1       4.479   3.932  -7.682  1.00  0.00     0.016 A 
ATOM     45  C   UNL     1       6.897   3.842  -9.194  1.00  0.00     0.010 A 
ATOM     46  C   UNL     1       4.710   3.882  -9.143  1.00  0.00     0.010 A 
ATOM     47  C   UNL     1       5.831   3.871 -10.123  1.00  0.00    -0.014 A 
BRANCH  47  48
ATOM     48  C   UNL     1       5.668   3.186 -11.851  1.00  0.00     0.031 A 
ATOM     49  C   UNL     1       5.212   1.809 -11.478  1.00  0.00     0.074 A 
ATOM     50  C   UNL     1       5.336   3.417 -13.338  1.00  0.00     0.049 A 
ATOM     51  N   UNL     1       4.484   1.771 -10.389  1.00  0.00    -0.248 NA
ATOM     52  C   UNL     1       4.792   0.754 -12.370  1.00  0.00     0.031 C 
ATOM     53  C   UNL     1       5.111   4.693 -14.056  1.00  0.00     0.029 A 
ATOM     54  N   UNL     1       4.932   2.490 -14.626  1.00  0.00    -0.354 N 
ATOM     55  C   UNL     1       3.244   1.799 -10.967  1.00  0.00     0.074 A 
ATOM     56  C   UNL     1       3.518   0.690 -11.930  1.00  0.00     0.031 C 
ATOM     57  C   UNL     1       4.476   4.593 -15.272  1.00  0.00     0.029 A 
ATOM     58  C   UNL     1       4.191   3.208 -15.783  1.00  0.00     0.049 A 
ATOM     59  H   UNL     1       5.147   1.531 -14.663  1.00  0.00     0.167 HD
ATOM     60  C   UNL     1       2.362   2.908 -11.060  1.00  0.00     0.034 A 
ATOM     61  C   UNL     1       3.456   3.041 -17.078  1.00  0.00     0.034 A 
ATOM     62  C   UNL     1       1.143   2.636 -11.789  1.00  0.00     0.049 A 
ATOM     63  C   UNL     1       2.095   3.472 -16.596  1.00  0.00     0.074 A 
ATOM     64  C   UNL     1       1.008   1.770 -12.844  1.00  0.00     0.029 A 
ATOM     65  N   UNL     1       0.442   3.735 -12.316  1.00  0.00    -0.354 N 
ATOM     66  N   UNL     1       1.575   4.658 -16.576  1.00  0.00    -0.248 NA
ATOM     67  C   UNL     1       1.155   2.362 -16.213  1.00  0.00     0.031 C 
ATOM     68  C   UNL     1       1.705   2.673 -13.675  1.00  0.00     0.029 A 
ATOM     69  C   UNL     1       1.036   3.904 -13.545  1.00  0.00     0.049 A 
ATOM     70  H   UNL     1      -0.289   4.253 -11.908  1.00  0.00     0.167 HD
ATOM     71  C   UNL     1       0.493   4.457 -15.722  1.00  0.00     0.074 A 
ATOM     72  C   UNL     1       0.078   3.071 -15.877  1.00  0.00     0.031 C 
ATOM     73  C   UNL     1       0.707   4.965 -14.468  1.00  0.00     0.034 A 
BRANCH  60  74
ATOM     74  C   UNL     1       2.517   4.534 -10.718  1.00  0.00     0.023 A 
ATOM     75  C   UNL     1       3.551   5.425 -11.124  1.00  0.00     0.012 A 
ATOM     76  C   UNL     1       1.531   5.167  -9.953  1.00  0.00     0.148 A 
ATOM     77  C   UNL     1       3.730   6.745 -10.645  1.00  0.00     0.002 A 
ATOM     78  C   UNL     1       1.623   6.524  -9.586  1.00  0.00     0.091 A 
ATOM     79  F   UNL     1       0.467   4.437  -9.590  1.00  0.00    -0.205 F 
ATOM     80  C   UNL     1       2.751   7.300  -9.860  1.00  0.00     0.022 A 
BRANCH  78  81
ATOM     81  S   UNL     1       0.207   7.325  -8.850  1.00  0.00     0.127 S 
ATOM     82  O   UNL     1       0.402   7.035  -7.431  1.00  0.00    -0.237 OA
ATOM     83  O   UNL     1       0.367   8.731  -9.216  1.00  0.00    -0.237 OA
ATOM     84  O   UNL     1      -0.933   6.670  -9.486  1.00  0.00    -0.744 OA
ENDBRANCH  78  81
ENDBRANCH  60  74
BRANCH  61  85
ATOM     85  C   UNL     1       2.846   2.302 -18.553  1.00  0.00     0.023 A 
ATOM     86  C   UNL     1       3.518   2.463 -19.782  1.00  0.00     0.012 A 
ATOM     87  C   UNL     1       1.431   1.930 -18.878  1.00  0.00     0.148 A 
ATOM     88  C   UNL     1       2.916   2.125 -21.069  1.00  0.00     0.002 A 
ATOM     89  C   UNL     1       0.922   1.361 -20.062  1.00  0.00     0.091 A 
ATOM     90  F   UNL     1       0.429   2.590 -18.289  1.00  0.00    -0.205 F 
ATOM     91  C   UNL     1       1.657   1.519 -21.206  1.00  0.00     0.022 A 
BRANCH  89  92
ATOM     92  S   UNL     1      -0.780   0.683 -20.157  1.00  0.00     0.127 S 
ATOM     93  O   UNL     1      -1.332   1.310 -21.358  1.00  0.00    -0.237 OA
ATOM     94  O   UNL     1      -0.509  -0.749 -20.293  1.00  0.00    -0.237 OA
ATOM     95  O   UNL     1      -1.447   1.047 -18.913  1.00  0.00    -0.744 OA
ENDBRANCH  89  92
ENDBRANCH  61  85
BRANCH  73  96
ATOM     96  C   UNL     1       1.047   6.434 -14.558  1.00  0.00     0.023 A 
ATOM     97  C   UNL     1       0.123   7.219 -15.290  1.00  0.00     0.012 A 
ATOM     98  C   UNL     1       2.272   7.040 -14.233  1.00  0.00     0.148 A 
ATOM     99  C   UNL     1       0.430   8.503 -15.739  1.00  0.00     0.002 A 
ATOM    100  C   UNL     1       2.598   8.320 -14.702  1.00  0.00     0.091 A 
ATOM    101  F   UNL     1       3.146   6.361 -13.500  1.00  0.00    -0.205 F 
ATOM    102  C   UNL     1       1.675   9.048 -15.459  1.00  0.00     0.022 A 
BRANCH 100 103
ATOM    103  S   UNL     1       4.253   9.032 -14.534  1.00  0.00     0.127 S 
ATOM    104  O   UNL     1       4.423   9.769 -15.790  1.00  0.00    -0.237 OA
ATOM    105  O   UNL     1       4.127   9.880 -13.353  1.00  0.00    -0.237 OA
ATOM    106  O   UNL     1       5.168   7.904 -14.402  1.00  0.00    -0.744 OA
ENDBRANCH 100 103
ENDBRANCH  73  96
ENDBRANCH  47  48
ENDBRANCH  40  42
ENDBRANCH  39  40
ENDBRANCH  38  39
ENDBRANCH  37  38
ENDBRANCH  36  37
ENDBRANCH  35  36
ENDBRANCH  34  35
ENDBRANCH   1  34
TORSDOF 27
