REMARK SMILES CCCCCCNC(=O)Oc1cccc(-c2ccc([C@H](C)C(=O)OCCOCCOCCOCCOC(=O)c3ccc(-c4c5nc(c(-c6cccc(S(=O)(=O)[O-])c6F)c6ccc([nH]6)c(-c6cccc(S(=O)(=O)[O-])c6F)c6nc(c(-c7cccc(S(=O)(=O)[O-])c7F)c7ccc4[nH]7)C=C6)C=C5)cc3)cc2F)c1
REMARK SMILES IDX 27 1 26 2 25 3 24 4 22 5 23 6 20 7 21 8 19 9 16 10 17 11
REMARK SMILES IDX 103 12 18 13 102 14 104 15 15 16 11 17 12 18 105 19 13 20
REMARK SMILES IDX 14 21 10 22 8 23 7 24 9 26 6 27 5 28 4 29 3 30 2 31 1 32
REMARK SMILES IDX 28 33 29 34 30 35 31 36 32 37 33 38 34 39 35 40 36 41 37 42
REMARK SMILES IDX 38 43 39 44 40 45 101 46 41 47 100 48 42 49 43 50 44 51
REMARK SMILES IDX 94 52 45 53 99 54 93 55 95 56 46 57 98 58 92 59 91 60 47 62
REMARK SMILES IDX 79 63 59 64 78 65 60 66 63 67 77 68 96 69 61 70 62 71 76 73
REMARK SMILES IDX 97 74 64 75 48 76 49 77 57 78 50 79 52 80 58 81 51 82 53 83
REMARK SMILES IDX 54 84 55 85 56 86 80 87 81 88 89 89 82 90 84 91 90 92 83 93
REMARK SMILES IDX 85 94 86 95 87 96 88 97 65 98 66 99 74 100 67 101 69 102
REMARK SMILES IDX 75 103 68 104 70 105 71 106 72 107 73 108
REMARK H PARENT 7 25 95 61 63 72
REMARK Flexibility Score: inf
ROOT
ATOM      1  O   UNL     1      -0.661  13.643   6.227  1.00  0.00    -0.376 OA
ENDROOT
BRANCH   1   2
ATOM      2  C   UNL     1      -1.297  13.900   7.471  1.00  0.00     0.202 C 
BRANCH   2   3
ATOM      3  C   UNL     1      -2.771  14.301   7.606  1.00  0.00     0.261 C 
BRANCH   3   4
ATOM      4  O   UNL     1      -3.721  13.424   6.992  1.00  0.00    -0.463 OA
BRANCH   4   5
ATOM      5  C   UNL     1      -4.226  13.831   5.804  1.00  0.00     0.313 C 
ATOM      6  O   UNL     1      -3.906  14.872   5.236  1.00  0.00    -0.252 OA
BRANCH   5   7
ATOM      7  C   UNL     1      -5.347  12.929   5.276  1.00  0.00     0.126 C 
ATOM      8  C   UNL     1      -5.423  11.452   5.670  1.00  0.00     0.025 C 
BRANCH   7   9
ATOM      9  C   UNL     1      -6.641  13.578   5.679  1.00  0.00    -0.031 A 
ATOM     10  C   UNL     1      -8.955  14.894   6.461  1.00  0.00     0.018 A 
ATOM     11  C   UNL     1      -8.033  14.479   7.427  1.00  0.00     0.012 A 
ATOM     12  C   UNL     1      -8.721  14.607   5.110  1.00  0.00     0.131 A 
ATOM     13  C   UNL     1      -6.889  13.813   7.040  1.00  0.00     0.005 A 
ATOM     14  C   UNL     1      -7.567  13.959   4.710  1.00  0.00     0.044 A 
ATOM     15  F   UNL     1      -9.614  14.954   4.171  1.00  0.00    -0.206 F 
BRANCH  10  16
ATOM     16  C   UNL     1     -10.167  15.555   6.901  1.00  0.00    -0.012 A 
ATOM     17  C   UNL     1     -12.532  15.462   7.295  1.00  0.00     0.133 A 
ATOM     18  C   UNL     1     -12.499  16.717   7.899  1.00  0.00     0.047 A 
ATOM     19  C   UNL     1     -11.384  14.891   6.769  1.00  0.00     0.056 A 
ATOM     20  C   UNL     1     -11.286  17.392   8.017  1.00  0.00     0.004 A 
ATOM     21  C   UNL     1     -10.121  16.809   7.525  1.00  0.00     0.009 A 
BRANCH  17  22
ATOM     22  O   UNL     1     -13.780  14.851   7.140  1.00  0.00    -0.410 OA
BRANCH  22  23
ATOM     23  C   UNL     1     -13.880  13.481   7.313  1.00  0.00     0.412 C 
ATOM     24  N   UNL     1     -15.040  12.974   6.813  1.00  0.00    -0.321 N 
ATOM     25  H   UNL     1     -15.217  12.017   6.963  1.00  0.00     0.167 HD
ATOM     26  O   UNL     1     -13.046  12.743   7.840  1.00  0.00    -0.224 OA
BRANCH  24  27
ATOM     27  C   UNL     1     -16.035  13.725   6.080  1.00  0.00     0.119 C 
BRANCH  27  28
ATOM     28  C   UNL     1     -16.332  13.087   4.726  1.00  0.00     0.021 C 
BRANCH  28  29
ATOM     29  C   UNL     1     -16.965  11.694   4.813  1.00  0.00     0.002 C 
BRANCH  29  30
ATOM     30  C   UNL     1     -18.261  11.622   5.627  1.00  0.00    -0.000 C 
BRANCH  30  31
ATOM     31  C   UNL     1     -19.379  12.552   5.148  1.00  0.00    -0.003 C 
ATOM     32  C   UNL     1     -19.850  12.237   3.737  1.00  0.00     0.004 C 
ENDBRANCH  30  31
ENDBRANCH  29  30
ENDBRANCH  28  29
ENDBRANCH  27  28
ENDBRANCH  24  27
ENDBRANCH  22  23
ENDBRANCH  17  22
ENDBRANCH  10  16
ENDBRANCH   7   9
ENDBRANCH   5   7
ENDBRANCH   4   5
ENDBRANCH   3   4
ENDBRANCH   2   3
ENDBRANCH   1   2
BRANCH   1  33
ATOM     33  C   UNL     1      -1.290  12.946   5.167  1.00  0.00     0.188 C 
BRANCH  33  34
ATOM     34  C   UNL     1      -2.019  11.611   5.384  1.00  0.00     0.188 C 
BRANCH  34  35
ATOM     35  O   UNL     1      -2.352  11.292   6.717  1.00  0.00    -0.377 OA
BRANCH  35  36
ATOM     36  C   UNL     1      -1.399  10.594   7.511  1.00  0.00     0.188 C 
BRANCH  36  37
ATOM     37  C   UNL     1       0.088  10.655   7.114  1.00  0.00     0.188 C 
BRANCH  37  38
ATOM     38  O   UNL     1       0.336  10.473   5.727  1.00  0.00    -0.376 OA
BRANCH  38  39
ATOM     39  C   UNL     1       0.597   9.168   5.235  1.00  0.00     0.202 C 
BRANCH  39  40
ATOM     40  C   UNL     1      -0.462   8.072   5.449  1.00  0.00     0.261 C 
BRANCH  40  41
ATOM     41  O   UNL     1      -0.790   7.749   6.809  1.00  0.00    -0.460 OA
BRANCH  41  42
ATOM     42  C   UNL     1       0.219   7.420   7.642  1.00  0.00     0.338 C 
ATOM     43  O   UNL     1       1.391   7.278   7.353  1.00  0.00    -0.246 OA
BRANCH  42  44
ATOM     44  C   UNL     1      -0.301   7.465   9.025  1.00  0.00     0.060 A 
ATOM     45  C   UNL     1       0.316   8.322   9.944  1.00  0.00     0.016 A 
ATOM     46  C   UNL     1      -1.363   6.648   9.419  1.00  0.00     0.016 A 
ATOM     47  C   UNL     1      -0.084   8.318  11.278  1.00  0.00     0.010 A 
ATOM     48  C   UNL     1      -1.749   6.628  10.762  1.00  0.00     0.010 A 
ATOM     49  C   UNL     1      -1.074   7.425  11.704  1.00  0.00    -0.014 A 
BRANCH  49  50
ATOM     50  C   UNL     1      -1.225   7.167  13.156  1.00  0.00     0.031 A 
ATOM     51  C   UNL     1      -0.552   5.952  13.738  1.00  0.00     0.074 A 
ATOM     52  C   UNL     1      -1.900   8.014  13.952  1.00  0.00     0.049 A 
ATOM     53  N   UNL     1      -0.524   5.530  14.974  1.00  0.00    -0.248 NA
ATOM     54  C   UNL     1       0.191   5.096  12.795  1.00  0.00     0.031 C 
ATOM     55  C   UNL     1      -2.577   9.232  13.511  1.00  0.00     0.029 A 
ATOM     56  N   UNL     1      -2.136   7.965  15.303  1.00  0.00    -0.354 N 
ATOM     57  C   UNL     1       0.210   4.350  14.955  1.00  0.00     0.074 A 
ATOM     58  C   UNL     1       0.596   4.112  13.582  1.00  0.00     0.031 C 
ATOM     59  C   UNL     1      -3.173   9.805  14.572  1.00  0.00     0.029 A 
ATOM     60  C   UNL     1      -2.940   8.983  15.758  1.00  0.00     0.049 A 
ATOM     61  H   UNL     1      -1.764   7.268  15.890  1.00  0.00     0.167 HD
ATOM     62  C   UNL     1       0.548   3.544  15.988  1.00  0.00     0.034 A 
ATOM     63  C   UNL     1      -3.444   9.209  16.987  1.00  0.00     0.034 A 
ATOM     64  C   UNL     1       0.174   3.788  17.354  1.00  0.00     0.049 A 
ATOM     65  C   UNL     1      -3.084   8.275  18.114  1.00  0.00     0.074 A 
ATOM     66  C   UNL     1       0.500   3.053  18.479  1.00  0.00     0.029 A 
ATOM     67  N   UNL     1      -0.624   4.838  17.779  1.00  0.00    -0.354 N 
ATOM     68  N   UNL     1      -2.300   7.224  18.101  1.00  0.00    -0.248 NA
ATOM     69  C   UNL     1      -3.652   8.580  19.436  1.00  0.00     0.031 C 
ATOM     70  C   UNL     1      -0.137   3.635  19.580  1.00  0.00     0.029 A 
ATOM     71  C   UNL     1      -0.818   4.762  19.147  1.00  0.00     0.049 A 
ATOM     72  H   UNL     1      -0.999   5.536  17.194  1.00  0.00     0.167 HD
ATOM     73  C   UNL     1      -2.248   6.768  19.415  1.00  0.00     0.074 A 
ATOM     74  C   UNL     1      -3.063   7.671  20.200  1.00  0.00     0.031 C 
ATOM     75  C   UNL     1      -1.595   5.693  19.924  1.00  0.00     0.034 A 
BRANCH  62  76
ATOM     76  C   UNL     1       1.370   2.320  15.678  1.00  0.00     0.023 A 
ATOM     77  C   UNL     1       2.722   2.455  15.301  1.00  0.00     0.012 A 
ATOM     78  C   UNL     1       0.814   1.032  15.803  1.00  0.00     0.148 A 
ATOM     79  C   UNL     1       3.497   1.330  15.018  1.00  0.00     0.002 A 
ATOM     80  C   UNL     1       1.605  -0.086  15.568  1.00  0.00     0.091 A 
ATOM     81  F   UNL     1      -0.480   0.925  16.139  1.00  0.00    -0.205 F 
ATOM     82  C   UNL     1       2.942   0.061  15.162  1.00  0.00     0.022 A 
BRANCH  80  83
ATOM     83  S   UNL     1       1.008  -1.763  15.804  1.00  0.00     0.127 S 
ATOM     84  O   UNL     1       0.980  -2.262  14.430  1.00  0.00    -0.237 OA
ATOM     85  O   UNL     1       2.056  -2.345  16.642  1.00  0.00    -0.237 OA
ATOM     86  O   UNL     1      -0.292  -1.641  16.449  1.00  0.00    -0.744 OA
ENDBRANCH  80  83
ENDBRANCH  62  76
BRANCH  63  87
ATOM     87  C   UNL     1      -4.332  10.382  17.228  1.00  0.00     0.023 A 
ATOM     88  C   UNL     1      -3.890  11.438  18.049  1.00  0.00     0.012 A 
ATOM     89  C   UNL     1      -5.614  10.452  16.650  1.00  0.00     0.148 A 
ATOM     90  C   UNL     1      -4.724  12.525  18.320  1.00  0.00     0.002 A 
ATOM     91  C   UNL     1      -6.416  11.564  16.876  1.00  0.00     0.091 A 
ATOM     92  F   UNL     1      -6.021   9.430  15.885  1.00  0.00    -0.205 F 
ATOM     93  C   UNL     1      -5.981  12.592  17.726  1.00  0.00     0.022 A 
BRANCH  91  94
ATOM     94  S   UNL     1      -7.996  11.796  16.056  1.00  0.00     0.127 S 
ATOM     95  O   UNL     1      -8.930  11.703  17.175  1.00  0.00    -0.237 OA
ATOM     96  O   UNL     1      -7.842  13.136  15.489  1.00  0.00    -0.237 OA
ATOM     97  O   UNL     1      -8.088  10.730  15.068  1.00  0.00    -0.744 OA
ENDBRANCH  91  94
ENDBRANCH  63  87
BRANCH  75  98
ATOM     98  C   UNL     1      -1.689   5.457  21.411  1.00  0.00     0.023 A 
ATOM     99  C   UNL     1      -2.904   5.031  21.986  1.00  0.00     0.012 A 
ATOM    100  C   UNL     1      -0.551   5.599  22.231  1.00  0.00     0.148 A 
ATOM    101  C   UNL     1      -2.995   4.796  23.358  1.00  0.00     0.002 A 
ATOM    102  C   UNL     1      -0.636   5.309  23.587  1.00  0.00     0.091 A 
ATOM    103  F   UNL     1       0.593   6.018  21.670  1.00  0.00    -0.205 F 
ATOM    104  C   UNL     1      -1.861   4.924  24.155  1.00  0.00     0.022 A 
BRANCH 102 105
ATOM    105  S   UNL     1       0.795   5.348  24.672  1.00  0.00     0.127 S 
ATOM    106  O   UNL     1       0.520   6.531  25.485  1.00  0.00    -0.237 OA
ATOM    107  O   UNL     1       0.676   4.076  25.386  1.00  0.00    -0.237 OA
ATOM    108  O   UNL     1       1.958   5.446  23.801  1.00  0.00    -0.744 OA
ENDBRANCH 102 105
ENDBRANCH  75  98
ENDBRANCH  49  50
ENDBRANCH  42  44
ENDBRANCH  41  42
ENDBRANCH  40  41
ENDBRANCH  39  40
ENDBRANCH  38  39
ENDBRANCH  37  38
ENDBRANCH  36  37
ENDBRANCH  35  36
ENDBRANCH  34  35
ENDBRANCH  33  34
ENDBRANCH   1  33
TORSDOF 32
