REMARK SMILES CC(C)C[C@@H](NC(=O)Cn1nc(O)ccc1=O)C(=O)OCCOCCOCCOCCOC(=O)c1ccc(-c2c3nc(c(-c4cccc(S(=O)(=O)[O-])c4F)c4ccc([nH]4)c(-c4cccc(S(=O)(=O)[O-])c4F)c4nc(c(-c5cccc(S(=O)(=O)[O-])c5F)c5ccc2[nH]5)C=C4)C=C3)cc1
REMARK SMILES IDX 25 1 24 2 23 3 22 4 21 5 20 6 18 7 19 8 5 9 4 10 2 11 1 12
REMARK SMILES IDX 3 13 6 14 7 15 8 17 9 18 10 19 11 20 16 21 12 22 15 23 17 24
REMARK SMILES IDX 14 25 13 26 26 28 27 29 28 30 29 31 30 32 31 33 32 34 33 35
REMARK SMILES IDX 34 36 35 37 36 38 97 39 37 40 96 41 38 42 39 43 40 44 90 45
REMARK SMILES IDX 41 46 95 47 89 48 91 49 42 50 94 51 88 52 87 53 43 55 75 56
REMARK SMILES IDX 55 57 74 58 56 59 59 60 73 61 92 62 57 63 58 64 72 66 93 67
REMARK SMILES IDX 60 68 44 69 45 70 53 71 46 72 48 73 54 74 47 75 49 76 50 77
REMARK SMILES IDX 51 78 52 79 76 80 77 81 85 82 78 83 80 84 86 85 79 86 81 87
REMARK SMILES IDX 82 88 83 89 84 90 61 91 62 92 70 93 63 94 65 95 71 96 64 97
REMARK SMILES IDX 66 98 67 99 68 100 69 101
REMARK H PARENT 6 16 13 27 91 54 59 65
REMARK Flexibility Score: inf
ROOT
ATOM      1  C   UNL     1      -3.621   1.469  -0.861  1.00  0.00     0.188 C 
ENDROOT
BRANCH   1   2
ATOM      2  C   UNL     1      -4.101   0.015  -0.995  1.00  0.00     0.188 C 
BRANCH   2   3
ATOM      3  O   UNL     1      -5.440  -0.336  -0.694  1.00  0.00    -0.376 OA
BRANCH   3   4
ATOM      4  C   UNL     1      -5.848  -0.559   0.653  1.00  0.00     0.202 C 
BRANCH   4   5
ATOM      5  C   UNL     1      -5.001  -1.475   1.525  1.00  0.00     0.261 C 
BRANCH   5   6
ATOM      6  O   UNL     1      -3.685  -0.927   1.704  1.00  0.00    -0.462 OA
BRANCH   6   7
ATOM      7  C   UNL     1      -2.687  -1.832   1.844  1.00  0.00     0.328 C 
ATOM      8  O   UNL     1      -2.846  -3.048   1.792  1.00  0.00    -0.250 OA
BRANCH   7   9
ATOM      9  C   UNL     1      -1.325  -1.189   2.161  1.00  0.00     0.192 C 
BRANCH   9  10
ATOM     10  C   UNL     1      -1.018   0.199   1.571  1.00  0.00     0.040 C 
BRANCH  10  11
ATOM     11  C   UNL     1       0.488   0.529   1.394  1.00  0.00    -0.015 C 
ATOM     12  C   UNL     1       1.127  -0.264   0.247  1.00  0.00     0.007 C 
ATOM     13  C   UNL     1       0.683   2.024   1.107  1.00  0.00     0.007 C 
ENDBRANCH  10  11
ENDBRANCH   9  10
BRANCH   9  14
ATOM     14  N   UNL     1      -0.867  -1.380   3.538  1.00  0.00    -0.341 N 
ATOM     15  C   UNL     1      -1.365  -1.039   4.759  1.00  0.00     0.242 C 
ATOM     16  H   UNL     1      -0.010  -1.862   3.593  1.00  0.00     0.164 HD
ATOM     17  O   UNL     1      -0.577  -1.162   5.703  1.00  0.00    -0.273 OA
BRANCH  15  18
ATOM     18  C   UNL     1      -2.819  -0.625   4.997  1.00  0.00     0.248 C 
BRANCH  18  19
ATOM     19  N   UNL     1      -3.132   0.780   4.762  1.00  0.00    -0.217 N 
ATOM     20  N   UNL     1      -3.608   1.087   3.507  1.00  0.00    -0.131 NA
ATOM     21  C   UNL     1      -3.138   1.697   5.818  1.00  0.00     0.267 A 
ATOM     22  C   UNL     1      -3.986   2.298   3.340  1.00  0.00     0.229 A 
ATOM     23  C   UNL     1      -3.528   3.094   5.478  1.00  0.00     0.079 A 
ATOM     24  O   UNL     1      -2.853   1.431   6.980  1.00  0.00    -0.268 OA
ATOM     25  C   UNL     1      -3.935   3.414   4.251  1.00  0.00     0.075 A 
BRANCH  22  26
ATOM     26  O   UNL     1      -4.531   2.677   2.196  1.00  0.00    -0.492 OA
ATOM     27  H   UNL     1      -4.634   2.060   1.499  1.00  0.00     0.295 HD
ENDBRANCH  22  26
ENDBRANCH  18  19
ENDBRANCH  15  18
ENDBRANCH   9  14
ENDBRANCH   7   9
ENDBRANCH   6   7
ENDBRANCH   5   6
ENDBRANCH   4   5
ENDBRANCH   3   4
ENDBRANCH   2   3
ENDBRANCH   1   2
BRANCH   1  28
ATOM     28  O   UNL     1      -4.404   2.473  -0.263  1.00  0.00    -0.377 OA
BRANCH  28  29
ATOM     29  C   UNL     1      -5.792   2.597  -0.506  1.00  0.00     0.188 C 
BRANCH  29  30
ATOM     30  C   UNL     1      -6.340   2.483  -1.921  1.00  0.00     0.188 C 
BRANCH  30  31
ATOM     31  O   UNL     1      -5.365   2.048  -2.850  1.00  0.00    -0.376 OA
BRANCH  31  32
ATOM     32  C   UNL     1      -4.884   3.055  -3.728  1.00  0.00     0.202 C 
BRANCH  32  33
ATOM     33  C   UNL     1      -4.058   4.222  -3.147  1.00  0.00     0.261 C 
BRANCH  33  34
ATOM     34  O   UNL     1      -4.525   4.867  -1.950  1.00  0.00    -0.460 OA
BRANCH  34  35
ATOM     35  C   UNL     1      -5.604   5.675  -2.026  1.00  0.00     0.338 C 
ATOM     36  O   UNL     1      -6.289   5.869  -3.019  1.00  0.00    -0.246 OA
BRANCH  35  37
ATOM     37  C   UNL     1      -5.921   6.163  -0.657  1.00  0.00     0.060 A 
ATOM     38  C   UNL     1      -4.963   6.838   0.105  1.00  0.00     0.016 A 
ATOM     39  C   UNL     1      -7.197   5.931  -0.122  1.00  0.00     0.016 A 
ATOM     40  C   UNL     1      -5.298   7.313   1.382  1.00  0.00     0.010 A 
ATOM     41  C   UNL     1      -7.522   6.386   1.164  1.00  0.00     0.010 A 
ATOM     42  C   UNL     1      -6.590   7.118   1.913  1.00  0.00    -0.014 A 
BRANCH  42  43
ATOM     43  C   UNL     1      -7.033   7.930   3.082  1.00  0.00     0.031 A 
ATOM     44  C   UNL     1      -7.206   7.383   4.469  1.00  0.00     0.074 A 
ATOM     45  C   UNL     1      -7.317   9.228   2.844  1.00  0.00     0.049 A 
ATOM     46  N   UNL     1      -7.458   8.040   5.575  1.00  0.00    -0.248 NA
ATOM     47  C   UNL     1      -7.096   5.929   4.651  1.00  0.00     0.031 C 
ATOM     48  C   UNL     1      -7.284   9.856   1.520  1.00  0.00     0.029 A 
ATOM     49  N   UNL     1      -7.687  10.246   3.686  1.00  0.00    -0.354 N 
ATOM     50  C   UNL     1      -7.532   7.090   6.586  1.00  0.00     0.074 A 
ATOM     51  C   UNL     1      -7.316   5.801   5.957  1.00  0.00     0.031 C 
ATOM     52  C   UNL     1      -7.595  11.153   1.641  1.00  0.00     0.029 A 
ATOM     53  C   UNL     1      -7.862  11.450   3.045  1.00  0.00     0.049 A 
ATOM     54  H   UNL     1      -7.815  10.126   4.654  1.00  0.00     0.167 HD
ATOM     55  C   UNL     1      -7.739   7.284   7.912  1.00  0.00     0.034 A 
ATOM     56  C   UNL     1      -8.190  12.667   3.521  1.00  0.00     0.034 A 
ATOM     57  C   UNL     1      -7.957   8.569   8.528  1.00  0.00     0.049 A 
ATOM     58  C   UNL     1      -8.383  12.858   4.995  1.00  0.00     0.074 A 
ATOM     59  C   UNL     1      -8.095   8.858   9.877  1.00  0.00     0.029 A 
ATOM     60  N   UNL     1      -8.093   9.770   7.851  1.00  0.00    -0.354 N 
ATOM     61  N   UNL     1      -8.271  11.973   5.953  1.00  0.00    -0.248 NA
ATOM     62  C   UNL     1      -8.719  14.212   5.460  1.00  0.00     0.031 C 
ATOM     63  C   UNL     1      -8.334  10.228  10.012  1.00  0.00     0.029 A 
ATOM     64  C   UNL     1      -8.325  10.797   8.751  1.00  0.00     0.049 A 
ATOM     65  H   UNL     1      -8.033   9.877   6.874  1.00  0.00     0.167 HD
ATOM     66  C   UNL     1      -8.509  12.662   7.135  1.00  0.00     0.074 A 
ATOM     67  C   UNL     1      -8.756  14.043   6.777  1.00  0.00     0.031 C 
ATOM     68  C   UNL     1      -8.533  12.178   8.399  1.00  0.00     0.034 A 
BRANCH  55  69
ATOM     69  C   UNL     1      -7.661   6.098   8.839  1.00  0.00     0.023 A 
ATOM     70  C   UNL     1      -6.390   5.614   9.207  1.00  0.00     0.012 A 
ATOM     71  C   UNL     1      -8.808   5.587   9.480  1.00  0.00     0.148 A 
ATOM     72  C   UNL     1      -6.259   4.638  10.194  1.00  0.00     0.002 A 
ATOM     73  C   UNL     1      -8.669   4.630  10.481  1.00  0.00     0.091 A 
ATOM     74  F   UNL     1     -10.006   6.070   9.122  1.00  0.00    -0.205 F 
ATOM     75  C   UNL     1      -7.396   4.155  10.838  1.00  0.00     0.022 A 
BRANCH  73  76
ATOM     76  S   UNL     1     -10.061   3.974  11.410  1.00  0.00     0.127 S 
ATOM     77  O   UNL     1     -10.033   2.563  11.025  1.00  0.00    -0.237 OA
ATOM     78  O   UNL     1      -9.662   4.237  12.792  1.00  0.00    -0.237 OA
ATOM     79  O   UNL     1     -11.233   4.711  10.958  1.00  0.00    -0.744 OA
ENDBRANCH  73  76
ENDBRANCH  55  69
BRANCH  56  80
ATOM     80  C   UNL     1      -8.280  13.805   2.570  1.00  0.00     0.023 A 
ATOM     81  C   UNL     1      -7.231  14.740   2.507  1.00  0.00     0.012 A 
ATOM     82  C   UNL     1      -9.350  13.898   1.659  1.00  0.00     0.148 A 
ATOM     83  C   UNL     1      -7.247  15.755   1.550  1.00  0.00     0.002 A 
ATOM     84  C   UNL     1      -9.340  14.887   0.684  1.00  0.00     0.091 A 
ATOM     85  F   UNL     1     -10.330  12.987   1.740  1.00  0.00    -0.205 F 
ATOM     86  C   UNL     1      -8.293  15.822   0.633  1.00  0.00     0.022 A 
BRANCH  84  87
ATOM     87  S   UNL     1     -10.589  14.991  -0.601  1.00  0.00     0.127 S 
ATOM     88  O   UNL     1     -11.207  16.283  -0.310  1.00  0.00    -0.237 OA
ATOM     89  O   UNL     1      -9.772  14.958  -1.814  1.00  0.00    -0.237 OA
ATOM     90  O   UNL     1     -11.449  13.831  -0.416  1.00  0.00    -0.744 OA
ENDBRANCH  84  87
ENDBRANCH  56  80
BRANCH  68  91
ATOM     91  C   UNL     1      -8.838  13.127   9.526  1.00  0.00     0.023 A 
ATOM     92  C   UNL     1     -10.178  13.467   9.793  1.00  0.00     0.012 A 
ATOM     93  C   UNL     1      -7.824  13.536  10.415  1.00  0.00     0.148 A 
ATOM     94  C   UNL     1     -10.507  14.193  10.937  1.00  0.00     0.002 A 
ATOM     95  C   UNL     1      -8.163  14.233  11.568  1.00  0.00     0.091 A 
ATOM     96  F   UNL     1      -6.557  13.198  10.133  1.00  0.00    -0.205 F 
ATOM     97  C   UNL     1      -9.503  14.562  11.830  1.00  0.00     0.022 A 
BRANCH  95  98
ATOM     98  S   UNL     1      -6.955  14.699  12.813  1.00  0.00     0.127 S 
ATOM     99  O   UNL     1      -7.079  16.156  12.819  1.00  0.00    -0.237 OA
ATOM    100  O   UNL     1      -7.475  14.036  14.008  1.00  0.00    -0.237 OA
ATOM    101  O   UNL     1      -5.671  14.197  12.341  1.00  0.00    -0.744 OA
ENDBRANCH  95  98
ENDBRANCH  68  91
ENDBRANCH  42  43
ENDBRANCH  35  37
ENDBRANCH  34  35
ENDBRANCH  33  34
ENDBRANCH  32  33
ENDBRANCH  31  32
ENDBRANCH  30  31
ENDBRANCH  29  30
ENDBRANCH  28  29
ENDBRANCH   1  28
TORSDOF 29
