REMARK SMILES O=C(OCCOCCOCCOCCOC(=O)c1ccccc1Nc1cccc(S(F)(F)(F)(F)F)c1)c1ccc(-c2c3nc(c(-c4cccc(S(=O)(=O)[O-])c4F)c4ccc([nH]4)c(-c4cccc(S(=O)(=O)[O-])c4F)c4nc(c(-c5cccc(S(=O)(=O)[O-])c5F)c5ccc2[nH]5)C=C4)C=C3)cc1
REMARK SMILES IDX 9 1 8 2 7 3 6 4 5 5 4 6 3 7 2 8 1 9 37 10 38 11 99 12 39 13
REMARK SMILES IDX 98 14 40 15 41 16 42 17 92 18 43 19 97 20 91 21 93 22 44 23
REMARK SMILES IDX 96 24 90 25 89 26 45 28 77 29 57 30 76 31 58 32 61 33 75 34
REMARK SMILES IDX 94 35 59 36 60 37 74 39 95 40 62 41 46 42 47 43 55 44 48 45
REMARK SMILES IDX 50 46 56 47 49 48 51 49 52 50 53 51 54 52 78 53 79 54 87 55
REMARK SMILES IDX 80 56 82 57 88 58 81 59 83 60 84 61 85 62 86 63 63 64 64 65
REMARK SMILES IDX 72 66 65 67 67 68 73 69 66 70 68 71 69 72 70 73 71 74 10 75
REMARK SMILES IDX 11 76 12 77 13 78 14 79 15 80 16 81 17 82 18 83 19 84 23 85
REMARK SMILES IDX 20 86 22 87 21 88 24 89 25 91 26 92 36 93 27 94 29 95 28 96
REMARK SMILES IDX 30 97 31 98 32 99 33 100 34 101 35 102
REMARK H PARENT 93 27 61 38 24 90
REMARK Flexibility Score: inf
ROOT
ATOM      1  O   UNL     1       2.934   2.648  -1.069  1.00  0.00    -0.377 OA
ENDROOT
BRANCH   1   2
ATOM      2  C   UNL     1       2.461   2.536   0.265  1.00  0.00     0.188 C 
BRANCH   2   3
ATOM      3  C   UNL     1       2.968   1.239   0.874  1.00  0.00     0.188 C 
BRANCH   3   4
ATOM      4  O   UNL     1       4.388   1.239   0.874  1.00  0.00    -0.376 OA
BRANCH   4   5
ATOM      5  C   UNL     1       4.861   1.351  -0.460  1.00  0.00     0.202 C 
BRANCH   5   6
ATOM      6  C   UNL     1       4.354   0.174  -1.278  1.00  0.00     0.261 C 
BRANCH   6   7
ATOM      7  O   UNL     1       2.934   0.174  -1.278  1.00  0.00    -0.460 OA
BRANCH   7   8
ATOM      8  C   UNL     1       2.224   0.071  -0.052  1.00  0.00     0.338 C 
ATOM      9  O   UNL     1       0.954   0.071  -0.052  1.00  0.00    -0.246 OA
BRANCH   8  10
ATOM     10  C   UNL     1       2.984  -0.039   1.259  1.00  0.00     0.060 A 
ATOM     11  C   UNL     1       4.067   0.794   1.489  1.00  0.00     0.016 A 
ATOM     12  C   UNL     1       2.602  -0.936   2.161  1.00  0.00     0.016 A 
ATOM     13  C   UNL     1       4.866   0.404   2.590  1.00  0.00     0.010 A 
ATOM     14  C   UNL     1       3.361  -1.169   3.281  1.00  0.00     0.010 A 
ATOM     15  C   UNL     1       4.477  -0.424   3.542  1.00  0.00    -0.014 A 
BRANCH  15  16
ATOM     16  C   UNL     1       5.229  -0.541   4.858  1.00  0.00     0.031 A 
ATOM     17  C   UNL     1       5.763  -1.785   5.200  1.00  0.00     0.074 A 
ATOM     18  C   UNL     1       5.349   0.594   5.641  1.00  0.00     0.049 A 
ATOM     19  N   UNL     1       6.485  -2.092   6.279  1.00  0.00    -0.248 NA
ATOM     20  C   UNL     1       5.607  -3.000   4.386  1.00  0.00     0.031 C 
ATOM     21  C   UNL     1       4.822   1.855   5.299  1.00  0.00     0.029 A 
ATOM     22  N   UNL     1       5.980   0.718   6.859  1.00  0.00    -0.354 N 
ATOM     23  C   UNL     1       6.833  -3.380   6.249  1.00  0.00     0.074 A 
ATOM     24  C   UNL     1       6.269  -3.984   5.035  1.00  0.00     0.031 C 
ATOM     25  C   UNL     1       5.119   2.722   6.301  1.00  0.00     0.029 A 
ATOM     26  C   UNL     1       5.838   2.020   7.287  1.00  0.00     0.049 A 
ATOM     27  H   UNL     1       6.450  -0.000   7.341  1.00  0.00     0.167 HD
ATOM     28  C   UNL     1       7.601  -4.074   7.186  1.00  0.00     0.034 A 
ATOM     29  C   UNL     1       6.302   2.581   8.466  1.00  0.00     0.034 A 
ATOM     30  C   UNL     1       8.101  -3.501   8.345  1.00  0.00     0.049 A 
ATOM     31  C   UNL     1       7.020   1.872   9.432  1.00  0.00     0.074 A 
ATOM     32  C   UNL     1       8.884  -4.184   9.296  1.00  0.00     0.029 A 
ATOM     33  N   UNL     1       7.939  -2.206   8.784  1.00  0.00    -0.354 N 
ATOM     34  N   UNL     1       7.402   0.595   9.383  1.00  0.00    -0.248 NA
ATOM     35  C   UNL     1       7.488   2.448  10.700  1.00  0.00     0.031 C 
ATOM     36  C   UNL     1       9.181  -3.316  10.299  1.00  0.00     0.029 A 
ATOM     37  C   UNL     1       8.589  -2.076   9.991  1.00  0.00     0.049 A 
ATOM     38  H   UNL     1       7.444  -1.495   8.315  1.00  0.00     0.167 HD
ATOM     39  C   UNL     1       8.089   0.278  10.482  1.00  0.00     0.074 A 
ATOM     40  C   UNL     1       8.148   1.463  11.349  1.00  0.00     0.031 C 
ATOM     41  C   UNL     1       8.672  -0.951  10.796  1.00  0.00     0.034 A 
BRANCH  28  42
ATOM     42  C   UNL     1       7.906  -5.539   6.920  1.00  0.00     0.023 A 
ATOM     43  C   UNL     1       8.609  -5.855   5.769  1.00  0.00     0.012 A 
ATOM     44  C   UNL     1       7.516  -6.482   7.770  1.00  0.00     0.148 A 
ATOM     45  C   UNL     1       8.603  -7.234   5.454  1.00  0.00     0.002 A 
ATOM     46  C   UNL     1       7.664  -7.811   7.455  1.00  0.00     0.091 A 
ATOM     47  F   UNL     1       6.977  -6.137   8.935  1.00  0.00    -0.205 F 
ATOM     48  C   UNL     1       8.297  -8.196   6.306  1.00  0.00     0.022 A 
BRANCH  46  49
ATOM     49  S   UNL     1       7.012  -9.072   8.579  1.00  0.00     0.127 S 
ATOM     50  O   UNL     1       5.973  -9.922   7.843  1.00  0.00    -0.237 OA
ATOM     51  O   UNL     1       8.156  -9.967   9.060  1.00  0.00    -0.237 OA
ATOM     52  O   UNL     1       6.278  -8.312   9.923  1.00  0.00    -0.744 OA
ENDBRANCH  46  49
ENDBRANCH  28  42
BRANCH  29  53
ATOM     53  C   UNL     1       6.011   4.050   8.723  1.00  0.00     0.023 A 
ATOM     54  C   UNL     1       7.072   4.918   8.923  1.00  0.00     0.012 A 
ATOM     55  C   UNL     1       4.754   4.474   8.785  1.00  0.00     0.148 A 
ATOM     56  C   UNL     1       6.696   6.167   9.472  1.00  0.00     0.002 A 
ATOM     57  C   UNL     1       4.466   5.752   9.200  1.00  0.00     0.091 A 
ATOM     58  F   UNL     1       3.765   3.654   8.441  1.00  0.00    -0.205 F 
ATOM     59  C   UNL     1       5.465   6.645   9.472  1.00  0.00     0.022 A 
BRANCH  57  60
ATOM     60  S   UNL     1       2.739   6.260   9.390  1.00  0.00     0.127 S 
ATOM     61  O   UNL     1       2.487   6.677  10.840  1.00  0.00    -0.237 OA
ATOM     62  O   UNL     1       2.450   7.442   8.461  1.00  0.00    -0.237 OA
ATOM     63  O   UNL     1       1.713   4.953   8.985  1.00  0.00    -0.744 OA
ENDBRANCH  57  60
ENDBRANCH  29  53
BRANCH  41  64
ATOM     64  C   UNL     1       9.445  -1.062  12.100  1.00  0.00     0.023 A 
ATOM     65  C   UNL     1       8.795  -0.816  13.298  1.00  0.00     0.012 A 
ATOM     66  C   UNL     1      10.732  -1.387  12.069  1.00  0.00     0.148 A 
ATOM     67  C   UNL     1       9.667  -0.655  14.401  1.00  0.00     0.002 A 
ATOM     68  C   UNL     1      11.494  -1.338  13.212  1.00  0.00     0.091 A 
ATOM     69  F   UNL     1      11.289  -1.762  10.921  1.00  0.00    -0.205 F 
ATOM     70  C   UNL     1      10.928  -1.044  14.422  1.00  0.00     0.022 A 
BRANCH  68  71
ATOM     71  S   UNL     1      13.271  -1.668  13.114  1.00  0.00     0.127 S 
ATOM     72  O   UNL     1      14.045  -0.442  13.604  1.00  0.00    -0.237 OA
ATOM     73  O   UNL     1      13.615  -2.873  13.993  1.00  0.00    -0.237 OA
ATOM     74  O   UNL     1      13.700  -2.004  11.493  1.00  0.00    -0.744 OA
ENDBRANCH  68  71
ENDBRANCH  41  64
ENDBRANCH  15  16
ENDBRANCH   8  10
ENDBRANCH   7   8
ENDBRANCH   6   7
ENDBRANCH   5   6
ENDBRANCH   4   5
ENDBRANCH   3   4
ENDBRANCH   2   3
ENDBRANCH   1   2
BRANCH   1  75
ATOM     75  C   UNL     1       4.354   2.648  -1.069  1.00  0.00     0.188 C 
BRANCH  75  76
ATOM     76  C   UNL     1       4.861   3.825  -0.251  1.00  0.00     0.188 C 
BRANCH  76  77
ATOM     77  O   UNL     1       4.388   3.712   1.083  1.00  0.00    -0.376 OA
BRANCH  77  78
ATOM     78  C   UNL     1       2.968   3.712   1.083  1.00  0.00     0.202 C 
BRANCH  78  79
ATOM     79  C   UNL     1       2.461   5.009   0.473  1.00  0.00     0.261 C 
BRANCH  79  80
ATOM     80  O   UNL     1       2.934   5.121  -0.861  1.00  0.00    -0.460 OA
BRANCH  80  81
ATOM     81  C   UNL     1       4.330   5.143  -1.120  1.00  0.00     0.340 C 
ATOM     82  O   UNL     1       5.156   5.062  -0.157  1.00  0.00    -0.246 OA
BRANCH  81  83
ATOM     83  C   UNL     1       4.837   5.263  -2.548  1.00  0.00     0.083 A 
ATOM     84  C   UNL     1       5.861   4.435  -2.978  1.00  0.00     0.018 A 
ATOM     85  C   UNL     1       4.282   6.153  -3.362  1.00  0.00     0.053 A 
ATOM     86  C   UNL     1       6.431   4.824  -4.214  1.00  0.00     0.001 A 
ATOM     87  C   UNL     1       4.811   6.385  -4.609  1.00  0.00     0.027 A 
ATOM     88  C   UNL     1       5.860   5.645  -5.077  1.00  0.00     0.002 A 
BRANCH  85  89
ATOM     89  N   UNL     1       3.092   6.897  -2.926  1.00  0.00    -0.355 N 
ATOM     90  H   UNL     1       2.710   6.735  -2.033  1.00  0.00     0.167 HD
BRANCH  89  91
ATOM     91  C   UNL     1       2.472   7.884  -3.822  1.00  0.00     0.040 A 
ATOM     92  C   UNL     1       2.550   9.194  -3.378  1.00  0.00     0.026 A 
ATOM     93  C   UNL     1       1.982   7.591  -5.020  1.00  0.00     0.050 A 
ATOM     94  C   UNL     1       1.811  10.110  -4.163  1.00  0.00     0.004 A 
ATOM     95  C   UNL     1       1.394   8.564  -5.793  1.00  0.00     0.109 A 
ATOM     96  C   UNL     1       1.382   9.870  -5.389  1.00  0.00     0.024 A 
BRANCH  95  97
ATOM     97  S   UNL     1       0.626   8.110  -7.368  1.00  0.00     0.310 S 
ATOM     98  F   UNL     1      -0.828   7.915  -6.765  1.00  0.00    -0.094 F 
ATOM     99  F   UNL     1       0.899   6.598  -7.016  1.00  0.00    -0.094 F 
ATOM    100  F   UNL     1       0.039   7.711  -8.751  1.00  0.00    -0.094 F 
ATOM    101  F   UNL     1       0.232   9.614  -7.643  1.00  0.00    -0.094 F 
ATOM    102  F   UNL     1       1.115   8.518  -5.921  1.00  0.00    -0.094 F 
ENDBRANCH  95  97
ENDBRANCH  89  91
ENDBRANCH  85  89
ENDBRANCH  81  83
ENDBRANCH  80  81
ENDBRANCH  79  80
ENDBRANCH  78  79
ENDBRANCH  77  78
ENDBRANCH  76  77
ENDBRANCH  75  76
ENDBRANCH   1  75
TORSDOF 26
