REMARK SMILES COc1ccc2c(c1)c(CC(=O)OCCOCCOCCOCCOC(=O)c1ccc(-c3c4nc(c(-c5cccc(S(=O)(=O)[O-])c5F)c5ccc([nH]5)c(-c5cccc(S(=O)(=O)[O-])c5F)c5nc(c(-c6cccc(S(=O)(=O)[O-])c6F)c6ccc3[nH]6)C=C5)C=C4)cc1)c(C(F)(F)F)n2C(=O)c1ccc(Cl)cc1
REMARK SMILES IDX 19 1 18 2 17 3 16 4 15 5 14 6 13 7 11 8 12 9 10 10 9 11 3 12
REMARK SMILES IDX 4 13 8 14 5 15 7 16 6 17 96 18 91 19 2 20 1 21 97 22 98 23
REMARK SMILES IDX 99 24 100 25 105 26 101 27 104 28 102 29 103 30 92 31 93 32
REMARK SMILES IDX 94 33 95 34 20 35 21 36 22 37 23 38 24 39 25 40 26 41 27 42
REMARK SMILES IDX 28 43 29 44 90 45 30 46 89 47 31 48 32 49 33 50 83 51 34 52
REMARK SMILES IDX 88 53 82 54 84 55 35 56 87 57 81 58 80 59 36 61 68 62 48 63
REMARK SMILES IDX 67 64 49 65 52 66 66 67 85 68 50 69 51 70 65 72 86 73 53 74
REMARK SMILES IDX 37 75 38 76 46 77 39 78 41 79 47 80 40 81 42 82 43 83 44 84
REMARK SMILES IDX 45 85 69 86 70 87 78 88 71 89 73 90 79 91 72 92 74 93 75 94
REMARK SMILES IDX 76 95 77 96 54 97 55 98 63 99 56 100 58 101 64 102 57 103
REMARK SMILES IDX 59 104 60 105 61 106 62 107
REMARK H PARENT 84 60 52 71
REMARK Flexibility Score: inf
ROOT
ATOM      1  O   UNL     1      -0.040  -0.075  -4.730  1.00  0.00    -0.377 OA
ENDROOT
BRANCH   1   2
ATOM      2  C   UNL     1      -1.200   0.567  -4.271  1.00  0.00     0.188 C 
BRANCH   2   3
ATOM      3  C   UNL     1      -2.614   0.016  -4.408  1.00  0.00     0.188 C 
BRANCH   3   4
ATOM      4  O   UNL     1      -2.836  -0.736  -5.574  1.00  0.00    -0.376 OA
BRANCH   4   5
ATOM      5  C   UNL     1      -3.317  -0.134  -6.760  1.00  0.00     0.202 C 
BRANCH   5   6
ATOM      6  C   UNL     1      -2.744   1.171  -7.365  1.00  0.00     0.261 C 
BRANCH   6   7
ATOM      7  O   UNL     1      -2.072   2.124  -6.512  1.00  0.00    -0.463 OA
BRANCH   7   8
ATOM      8  C   UNL     1      -2.833   3.051  -5.885  1.00  0.00     0.310 C 
ATOM      9  O   UNL     1      -4.059   3.078  -5.978  1.00  0.00    -0.252 OA
BRANCH   8  10
ATOM     10  C   UNL     1      -2.102   4.041  -4.968  1.00  0.00     0.161 C 
BRANCH  10  11
ATOM     11  C   UNL     1      -0.589   3.997  -4.713  1.00  0.00     0.002 A 
ATOM     12  C   UNL     1       0.466   2.245  -1.448  1.00  0.00     0.119 A 
ATOM     13  C   UNL     1       1.824   2.330  -1.665  1.00  0.00     0.048 A 
ATOM     14  C   UNL     1      -0.409   2.897  -2.332  1.00  0.00     0.057 A 
ATOM     15  C   UNL     1       2.318   3.018  -2.775  1.00  0.00     0.031 A 
ATOM     16  C   UNL     1       0.062   3.492  -3.536  1.00  0.00     0.008 A 
ATOM     17  C   UNL     1       1.442   3.579  -3.734  1.00  0.00     0.057 A 
ATOM     18  N   UNL     1       1.673   4.288  -4.933  1.00  0.00    -0.271 N 
ATOM     19  C   UNL     1       0.416   4.578  -5.499  1.00  0.00     0.135 A 
BRANCH  12  20
ATOM     20  O   UNL     1      -0.132   1.522  -0.451  1.00  0.00    -0.497 OA
ATOM     21  C   UNL     1       0.688   0.609   0.279  1.00  0.00     0.278 C 
ENDBRANCH  12  20
BRANCH  18  22
ATOM     22  C   UNL     1       2.969   4.662  -5.408  1.00  0.00     0.262 C 
ATOM     23  O   UNL     1       3.070   5.397  -6.382  1.00  0.00    -0.268 OA
BRANCH  22  24
ATOM     24  C   UNL     1       4.260   4.290  -4.798  1.00  0.00     0.040 A 
ATOM     25  C   UNL     1       4.799   3.014  -5.004  1.00  0.00     0.015 A 
ATOM     26  C   UNL     1       4.930   5.229  -4.003  1.00  0.00     0.015 A 
ATOM     27  C   UNL     1       5.979   2.654  -4.345  1.00  0.00     0.021 A 
ATOM     28  C   UNL     1       6.112   4.865  -3.353  1.00  0.00     0.021 A 
ATOM     29  C   UNL     1       6.623   3.575  -3.515  1.00  0.00     0.041 A 
ATOM     30  Cl  UNL     1       8.046   3.112  -2.665  1.00  0.00    -0.084 Cl
ENDBRANCH  22  24
ENDBRANCH  18  22
BRANCH  19  31
ATOM     31  C   UNL     1       0.148   5.381  -6.739  1.00  0.00     0.432 C 
ATOM     32  F   UNL     1      -0.382   4.591  -7.705  1.00  0.00    -0.165 F 
ATOM     33  F   UNL     1      -0.805   6.317  -6.455  1.00  0.00    -0.165 F 
ATOM     34  F   UNL     1       1.154   6.075  -7.296  1.00  0.00    -0.165 F 
ENDBRANCH  19  31
ENDBRANCH  10  11
ENDBRANCH   8  10
ENDBRANCH   7   8
ENDBRANCH   6   7
ENDBRANCH   5   6
ENDBRANCH   4   5
ENDBRANCH   3   4
ENDBRANCH   2   3
ENDBRANCH   1   2
BRANCH   1  35
ATOM     35  C   UNL     1      -0.209  -1.176  -5.577  1.00  0.00     0.188 C 
BRANCH  35  36
ATOM     36  C   UNL     1      -0.532  -2.480  -4.841  1.00  0.00     0.188 C 
BRANCH  36  37
ATOM     37  O   UNL     1      -0.316  -2.603  -3.438  1.00  0.00    -0.376 OA
BRANCH  37  38
ATOM     38  C   UNL     1       0.723  -1.882  -2.797  1.00  0.00     0.202 C 
BRANCH  38  39
ATOM     39  C   UNL     1       2.182  -1.910  -3.305  1.00  0.00     0.261 C 
BRANCH  39  40
ATOM     40  O   UNL     1       2.345  -2.017  -4.721  1.00  0.00    -0.460 OA
BRANCH  40  41
ATOM     41  C   UNL     1       2.942  -3.139  -5.220  1.00  0.00     0.338 C 
ATOM     42  O   UNL     1       3.595  -3.947  -4.618  1.00  0.00    -0.246 OA
BRANCH  41  43
ATOM     43  C   UNL     1       2.357  -3.326  -6.580  1.00  0.00     0.060 A 
ATOM     44  C   UNL     1       2.317  -2.273  -7.497  1.00  0.00     0.016 A 
ATOM     45  C   UNL     1       1.531  -4.448  -6.746  1.00  0.00     0.016 A 
ATOM     46  C   UNL     1       1.313  -2.271  -8.465  1.00  0.00     0.010 A 
ATOM     47  C   UNL     1       0.521  -4.435  -7.712  1.00  0.00     0.010 A 
ATOM     48  C   UNL     1       0.371  -3.321  -8.537  1.00  0.00    -0.014 A 
BRANCH  48  49
ATOM     49  C   UNL     1      -0.540  -3.330  -9.694  1.00  0.00     0.031 A 
ATOM     50  C   UNL     1       0.243  -3.338 -10.959  1.00  0.00     0.074 A 
ATOM     51  C   UNL     1      -1.883  -3.476  -9.754  1.00  0.00     0.049 A 
ATOM     52  N   UNL     1       0.341  -2.396 -11.839  1.00  0.00    -0.248 NA
ATOM     53  C   UNL     1       1.185  -4.454 -11.143  1.00  0.00     0.031 C 
ATOM     54  C   UNL     1      -2.820  -3.792  -8.677  1.00  0.00     0.029 A 
ATOM     55  N   UNL     1      -2.689  -3.482 -10.867  1.00  0.00    -0.354 N 
ATOM     56  C   UNL     1       1.211  -2.898 -12.800  1.00  0.00     0.074 A 
ATOM     57  C   UNL     1       1.840  -4.063 -12.233  1.00  0.00     0.031 C 
ATOM     58  C   UNL     1      -4.001  -4.188  -9.214  1.00  0.00     0.029 A 
ATOM     59  C   UNL     1      -3.948  -4.048 -10.660  1.00  0.00     0.049 A 
ATOM     60  H   UNL     1      -2.403  -3.117 -11.736  1.00  0.00     0.167 HD
ATOM     61  C   UNL     1       1.184  -2.482 -14.091  1.00  0.00     0.034 A 
ATOM     62  C   UNL     1      -4.830  -4.440 -11.620  1.00  0.00     0.034 A 
ATOM     63  C   UNL     1       0.453  -1.262 -14.269  1.00  0.00     0.049 A 
ATOM     64  C   UNL     1      -4.471  -3.720 -12.863  1.00  0.00     0.074 A 
ATOM     65  C   UNL     1       0.558   0.029 -13.798  1.00  0.00     0.029 A 
ATOM     66  N   UNL     1      -0.807  -1.378 -14.797  1.00  0.00    -0.354 N 
ATOM     67  N   UNL     1      -4.617  -2.439 -13.038  1.00  0.00    -0.248 NA
ATOM     68  C   UNL     1      -3.635  -4.400 -13.838  1.00  0.00     0.031 C 
ATOM     69  C   UNL     1      -0.785   0.486 -13.666  1.00  0.00     0.029 A 
ATOM     70  C   UNL     1      -1.626  -0.544 -14.089  1.00  0.00     0.049 A 
ATOM     71  H   UNL     1      -1.073  -1.956 -15.549  1.00  0.00     0.167 HD
ATOM     72  C   UNL     1      -3.560  -2.085 -13.861  1.00  0.00     0.074 A 
ATOM     73  C   UNL     1      -3.069  -3.340 -14.417  1.00  0.00     0.031 C 
ATOM     74  C   UNL     1      -3.007  -0.843 -13.787  1.00  0.00     0.034 A 
BRANCH  61  75
ATOM     75  C   UNL     1       1.494  -3.396 -15.243  1.00  0.00     0.023 A 
ATOM     76  C   UNL     1       1.774  -2.817 -16.495  1.00  0.00     0.012 A 
ATOM     77  C   UNL     1       1.258  -4.790 -15.205  1.00  0.00     0.148 A 
ATOM     78  C   UNL     1       1.815  -3.593 -17.657  1.00  0.00     0.002 A 
ATOM     79  C   UNL     1       1.385  -5.568 -16.345  1.00  0.00     0.091 A 
ATOM     80  F   UNL     1       0.770  -5.351 -14.092  1.00  0.00    -0.205 F 
ATOM     81  C   UNL     1       1.640  -4.972 -17.581  1.00  0.00     0.022 A 
BRANCH  79  82
ATOM     82  S   UNL     1       1.209  -7.353 -16.277  1.00  0.00     0.127 S 
ATOM     83  O   UNL     1      -0.124  -7.535 -16.843  1.00  0.00    -0.237 OA
ATOM     84  O   UNL     1       2.314  -7.795 -17.128  1.00  0.00    -0.237 OA
ATOM     85  O   UNL     1       1.367  -7.699 -14.870  1.00  0.00    -0.744 OA
ENDBRANCH  79  82
ENDBRANCH  61  75
BRANCH  62  86
ATOM     86  C   UNL     1      -5.822  -5.554 -11.671  1.00  0.00     0.023 A 
ATOM     87  C   UNL     1      -6.739  -5.613 -12.750  1.00  0.00     0.012 A 
ATOM     88  C   UNL     1      -5.676  -6.712 -10.880  1.00  0.00     0.148 A 
ATOM     89  C   UNL     1      -7.417  -6.796 -13.074  1.00  0.00     0.002 A 
ATOM     90  C   UNL     1      -6.363  -7.884 -11.198  1.00  0.00     0.091 A 
ATOM     91  F   UNL     1      -4.790  -6.703  -9.877  1.00  0.00    -0.205 F 
ATOM     92  C   UNL     1      -7.217  -7.937 -12.306  1.00  0.00     0.022 A 
BRANCH  90  93
ATOM     93  S   UNL     1      -6.143  -9.396 -10.249  1.00  0.00     0.127 S 
ATOM     94  O   UNL     1      -7.514  -9.900 -10.150  1.00  0.00    -0.237 OA
ATOM     95  O   UNL     1      -5.266 -10.175 -11.117  1.00  0.00    -0.237 OA
ATOM     96  O   UNL     1      -5.571  -8.977  -8.975  1.00  0.00    -0.744 OA
ENDBRANCH  90  93
ENDBRANCH  62  86
BRANCH  74  97
ATOM     97  C   UNL     1      -3.780   0.241 -13.090  1.00  0.00     0.023 A 
ATOM     98  C   UNL     1      -4.029   0.223 -11.703  1.00  0.00     0.012 A 
ATOM     99  C   UNL     1      -4.092   1.391 -13.833  1.00  0.00     0.148 A 
ATOM    100  C   UNL     1      -4.583   1.340 -11.072  1.00  0.00     0.002 A 
ATOM    101  C   UNL     1      -4.597   2.513 -13.194  1.00  0.00     0.091 A 
ATOM    102  F   UNL     1      -3.842   1.376 -15.152  1.00  0.00    -0.205 F 
ATOM    103  C   UNL     1      -4.847   2.491 -11.813  1.00  0.00     0.022 A 
BRANCH 101 104
ATOM    104  S   UNL     1      -4.864   4.057 -14.065  1.00  0.00     0.127 S 
ATOM    105  O   UNL     1      -6.313   4.221 -13.959  1.00  0.00    -0.237 OA
ATOM    106  O   UNL     1      -4.080   4.999 -13.266  1.00  0.00    -0.237 OA
ATOM    107  O   UNL     1      -4.364   3.854 -15.419  1.00  0.00    -0.744 OA
ENDBRANCH 101 104
ENDBRANCH  74  97
ENDBRANCH  48  49
ENDBRANCH  41  43
ENDBRANCH  40  41
ENDBRANCH  39  40
ENDBRANCH  38  39
ENDBRANCH  37  38
ENDBRANCH  36  37
ENDBRANCH  35  36
ENDBRANCH   1  35
TORSDOF 28
