REMARK SMILES NC(=O)c1cc(NC(=O)/C=C\C(=O)OCCOCCOCCOCCOC(=O)c2ccc(-c3c4nc(c(-c5cccc(S(=O)(=O)[O-])c5F)c5ccc([nH]5)c(-c5cccc(S(=O)(=O)[O-])c5F)c5nc(c(-c6cccc(S(=O)(=O)[O-])c6F)c6ccc3[nH]6)C=C5)C=C4)cc2)ccc1N1CCOCC1
REMARK SMILES IDX 20 1 19 2 18 3 17 4 16 5 15 6 14 7 12 8 13 9 11 10 10 11
REMARK SMILES IDX 8 12 7 13 9 15 6 16 4 17 5 18 94 19 93 20 92 21 2 22 1 23
REMARK SMILES IDX 3 26 95 27 96 28 100 29 97 30 99 31 98 32 21 33 22 34 23 35
REMARK SMILES IDX 24 36 25 37 26 38 27 39 28 40 29 41 30 42 91 43 31 44 90 45
REMARK SMILES IDX 32 46 33 47 34 48 84 49 35 50 89 51 83 52 85 53 36 54 88 55
REMARK SMILES IDX 82 56 81 57 37 59 69 60 49 61 68 62 50 63 53 64 67 65 86 66
REMARK SMILES IDX 51 67 52 68 66 70 87 71 54 72 38 73 39 74 47 75 40 76 42 77
REMARK SMILES IDX 48 78 41 79 43 80 44 81 45 82 46 83 70 84 71 85 79 86 72 87
REMARK SMILES IDX 74 88 80 89 73 90 75 91 76 92 77 93 78 94 55 95 56 96 64 97
REMARK SMILES IDX 57 98 59 99 65 100 58 101 60 102 61 103 62 104 63 105
REMARK H PARENT 7 14 1 24 1 25 85 58 53 69
REMARK Flexibility Score: inf
ROOT
ATOM      1  O   UNL     1       3.240  -3.389   3.991  1.00  0.00    -0.377 OA
ENDROOT
BRANCH   1   2
ATOM      2  C   UNL     1       2.856  -2.986   2.688  1.00  0.00     0.188 C 
BRANCH   2   3
ATOM      3  C   UNL     1       3.324  -1.600   2.231  1.00  0.00     0.188 C 
BRANCH   3   4
ATOM      4  O   UNL     1       3.894  -0.792   3.257  1.00  0.00    -0.376 OA
BRANCH   4   5
ATOM      5  C   UNL     1       2.997  -0.035   4.059  1.00  0.00     0.202 C 
BRANCH   5   6
ATOM      6  C   UNL     1       2.338  -0.699   5.275  1.00  0.00     0.261 C 
BRANCH   6   7
ATOM      7  O   UNL     1       1.055  -1.350   5.158  1.00  0.00    -0.460 OA
BRANCH   7   8
ATOM      8  C   UNL     1       0.325  -1.374   4.036  1.00  0.00     0.331 C 
ATOM      9  O   UNL     1       0.647  -1.068   2.902  1.00  0.00    -0.247 OA
BRANCH   8  10
ATOM     10  C   UNL     1      -1.038  -1.823   4.308  1.00  0.00     0.099 C 
ATOM     11  C   UNL     1      -1.847  -1.253   5.210  1.00  0.00     0.079 C 
BRANCH  11  12
ATOM     12  C   UNL     1      -1.515  -0.200   6.198  1.00  0.00     0.248 C 
ATOM     13  N   UNL     1      -0.868   0.966   5.903  1.00  0.00    -0.322 N 
ATOM     14  H   UNL     1      -0.620   1.483   6.704  1.00  0.00     0.170 HD
ATOM     15  O   UNL     1      -1.838  -0.421   7.365  1.00  0.00    -0.270 OA
BRANCH  13  16
ATOM     16  C   UNL     1      -0.481   1.587   4.703  1.00  0.00     0.042 A 
ATOM     17  C   UNL     1      -0.394   1.694   2.282  1.00  0.00     0.064 A 
ATOM     18  C   UNL     1      -1.065   1.333   3.470  1.00  0.00     0.042 A 
ATOM     19  C   UNL     1       0.845   2.380   2.312  1.00  0.00     0.050 A 
ATOM     20  C   UNL     1       1.284   2.821   3.570  1.00  0.00     0.029 A 
ATOM     21  C   UNL     1       0.629   2.434   4.751  1.00  0.00     0.028 A 
BRANCH  17  22
ATOM     22  C   UNL     1      -0.978   1.109   1.045  1.00  0.00     0.250 C 
ATOM     23  N   UNL     1      -0.121   0.413   0.242  1.00  0.00    -0.366 N 
ATOM     24  H   UNL     1      -0.451   0.004  -0.591  1.00  0.00     0.159 HD
ATOM     25  H   UNL     1       0.826   0.321   0.495  1.00  0.00     0.159 HD
ATOM     26  O   UNL     1      -2.175   1.183   0.798  1.00  0.00    -0.269 OA
ENDBRANCH  17  22
BRANCH  19  27
ATOM     27  N   UNL     1       1.639   2.544   1.186  1.00  0.00    -0.366 N 
ATOM     28  C   UNL     1       1.204   3.487   0.149  1.00  0.00     0.145 C 
ATOM     29  C   UNL     1       3.090   2.294   1.196  1.00  0.00     0.145 C 
ATOM     30  C   UNL     1       1.744   3.028  -1.217  1.00  0.00     0.181 C 
ATOM     31  C   UNL     1       3.535   1.860  -0.212  1.00  0.00     0.181 C 
ATOM     32  O   UNL     1       3.171   2.839  -1.201  1.00  0.00    -0.378 OA
ENDBRANCH  19  27
ENDBRANCH  13  16
ENDBRANCH  11  12
ENDBRANCH   8  10
ENDBRANCH   7   8
ENDBRANCH   6   7
ENDBRANCH   5   6
ENDBRANCH   4   5
ENDBRANCH   3   4
ENDBRANCH   2   3
ENDBRANCH   1   2
BRANCH   1  33
ATOM     33  C   UNL     1       4.584  -3.168   4.409  1.00  0.00     0.188 C 
BRANCH  33  34
ATOM     34  C   UNL     1       5.716  -3.196   3.370  1.00  0.00     0.188 C 
BRANCH  34  35
ATOM     35  O   UNL     1       5.426  -3.967   2.214  1.00  0.00    -0.376 OA
BRANCH  35  36
ATOM     36  C   UNL     1       5.883  -5.313   2.230  1.00  0.00     0.202 C 
BRANCH  36  37
ATOM     37  C   UNL     1       5.191  -6.246   3.235  1.00  0.00     0.261 C 
BRANCH  37  38
ATOM     38  O   UNL     1       5.420  -5.997   4.635  1.00  0.00    -0.460 OA
BRANCH  38  39
ATOM     39  C   UNL     1       6.675  -5.781   5.088  1.00  0.00     0.338 C 
ATOM     40  O   UNL     1       7.711  -5.886   4.460  1.00  0.00    -0.246 OA
BRANCH  39  41
ATOM     41  C   UNL     1       6.569  -5.151   6.429  1.00  0.00     0.060 A 
ATOM     42  C   UNL     1       7.245  -3.943   6.665  1.00  0.00     0.016 A 
ATOM     43  C   UNL     1       5.770  -5.715   7.427  1.00  0.00     0.016 A 
ATOM     44  C   UNL     1       7.178  -3.335   7.921  1.00  0.00     0.010 A 
ATOM     45  C   UNL     1       5.727  -5.122   8.692  1.00  0.00     0.010 A 
ATOM     46  C   UNL     1       6.474  -3.961   8.959  1.00  0.00    -0.014 A 
BRANCH  46  47
ATOM     47  C   UNL     1       6.796  -3.620  10.367  1.00  0.00     0.031 A 
ATOM     48  C   UNL     1       7.927  -4.384  11.009  1.00  0.00     0.074 A 
ATOM     49  C   UNL     1       6.112  -2.703  11.074  1.00  0.00     0.049 A 
ATOM     50  N   UNL     1       8.376  -4.335  12.234  1.00  0.00    -0.248 NA
ATOM     51  C   UNL     1       8.644  -5.340  10.144  1.00  0.00     0.031 C 
ATOM     52  C   UNL     1       5.007  -1.890  10.574  1.00  0.00     0.029 A 
ATOM     53  N   UNL     1       6.241  -2.327  12.390  1.00  0.00    -0.354 N 
ATOM     54  C   UNL     1       9.405  -5.267  12.293  1.00  0.00     0.074 A 
ATOM     55  C   UNL     1       9.512  -5.874  10.986  1.00  0.00     0.031 C 
ATOM     56  C   UNL     1       4.534  -1.133  11.582  1.00  0.00     0.029 A 
ATOM     57  C   UNL     1       5.287  -1.425  12.802  1.00  0.00     0.049 A 
ATOM     58  H   UNL     1       6.949  -2.670  12.981  1.00  0.00     0.167 HD
ATOM     59  C   UNL     1      10.204  -5.588  13.335  1.00  0.00     0.034 A 
ATOM     60  C   UNL     1       5.043  -0.917  14.028  1.00  0.00     0.034 A 
ATOM     61  C   UNL     1      10.107  -4.992  14.635  1.00  0.00     0.049 A 
ATOM     62  C   UNL     1       5.923  -1.322  15.188  1.00  0.00     0.074 A 
ATOM     63  C   UNL     1      10.890  -5.228  15.750  1.00  0.00     0.029 A 
ATOM     64  N   UNL     1       9.157  -4.052  15.000  1.00  0.00    -0.354 N 
ATOM     65  N   UNL     1       6.970  -2.111  15.199  1.00  0.00    -0.248 NA
ATOM     66  C   UNL     1       5.601  -0.742  16.503  1.00  0.00     0.031 C 
ATOM     67  C   UNL     1      10.399  -4.444  16.799  1.00  0.00     0.029 A 
ATOM     68  C   UNL     1       9.326  -3.703  16.327  1.00  0.00     0.049 A 
ATOM     69  H   UNL     1       8.464  -3.687  14.403  1.00  0.00     0.167 HD
ATOM     70  C   UNL     1       7.454  -2.091  16.505  1.00  0.00     0.074 A 
ATOM     71  C   UNL     1       6.595  -1.198  17.254  1.00  0.00     0.031 C 
ATOM     72  C   UNL     1       8.503  -2.761  17.041  1.00  0.00     0.034 A 
BRANCH  59  73
ATOM     73  C   UNL     1      11.267  -6.624  13.094  1.00  0.00     0.023 A 
ATOM     74  C   UNL     1      12.404  -6.288  12.332  1.00  0.00     0.012 A 
ATOM     75  C   UNL     1      11.152  -7.917  13.638  1.00  0.00     0.148 A 
ATOM     76  C   UNL     1      13.399  -7.233  12.089  1.00  0.00     0.002 A 
ATOM     77  C   UNL     1      12.168  -8.841  13.427  1.00  0.00     0.091 A 
ATOM     78  F   UNL     1      10.046  -8.224  14.330  1.00  0.00    -0.205 F 
ATOM     79  C   UNL     1      13.286  -8.505  12.645  1.00  0.00     0.022 A 
BRANCH  77  80
ATOM     80  S   UNL     1      12.148 -10.480  14.158  1.00  0.00     0.127 S 
ATOM     81  O   UNL     1      11.890 -11.321  12.990  1.00  0.00    -0.237 OA
ATOM     82  O   UNL     1      13.501 -10.591  14.703  1.00  0.00    -0.237 OA
ATOM     83  O   UNL     1      11.091 -10.460  15.160  1.00  0.00    -0.744 OA
ENDBRANCH  77  80
ENDBRANCH  59  73
BRANCH  60  84
ATOM     84  C   UNL     1       3.931   0.056  14.234  1.00  0.00     0.023 A 
ATOM     85  C   UNL     1       4.233   1.394  14.557  1.00  0.00     0.012 A 
ATOM     86  C   UNL     1       2.583  -0.335  14.127  1.00  0.00     0.148 A 
ATOM     87  C   UNL     1       3.214   2.316  14.802  1.00  0.00     0.002 A 
ATOM     88  C   UNL     1       1.572   0.601  14.321  1.00  0.00     0.091 A 
ATOM     89  F   UNL     1       2.315  -1.617  13.841  1.00  0.00    -0.205 F 
ATOM     90  C   UNL     1       1.885   1.922  14.675  1.00  0.00     0.022 A 
BRANCH  88  91
ATOM     91  S   UNL     1      -0.164   0.217  14.068  1.00  0.00     0.127 S 
ATOM     92  O   UNL     1      -0.686   0.282  15.430  1.00  0.00    -0.237 OA
ATOM     93  O   UNL     1      -0.585   1.312  13.193  1.00  0.00    -0.237 OA
ATOM     94  O   UNL     1      -0.187  -1.099  13.444  1.00  0.00    -0.744 OA
ENDBRANCH  88  91
ENDBRANCH  60  84
BRANCH  72  95
ATOM     95  C   UNL     1       8.824  -2.532  18.496  1.00  0.00     0.023 A 
ATOM     96  C   UNL     1       8.000  -3.091  19.492  1.00  0.00     0.012 A 
ATOM     97  C   UNL     1       9.998  -1.848  18.872  1.00  0.00     0.148 A 
ATOM     98  C   UNL     1       8.325  -2.949  20.841  1.00  0.00     0.002 A 
ATOM     99  C   UNL     1      10.340  -1.752  20.215  1.00  0.00     0.091 A 
ATOM    100  F   UNL     1      10.761  -1.310  17.909  1.00  0.00    -0.205 F 
ATOM    101  C   UNL     1       9.500  -2.293  21.202  1.00  0.00     0.022 A 
BRANCH  99 102
ATOM    102  S   UNL     1      11.883  -1.012  20.763  1.00  0.00     0.127 S 
ATOM    103  O   UNL     1      11.425   0.264  21.309  1.00  0.00    -0.237 OA
ATOM    104  O   UNL     1      12.351  -1.971  21.765  1.00  0.00    -0.237 OA
ATOM    105  O   UNL     1      12.725  -0.921  19.578  1.00  0.00    -0.744 OA
ENDBRANCH  99 102
ENDBRANCH  72  95
ENDBRANCH  46  47
ENDBRANCH  39  41
ENDBRANCH  38  39
ENDBRANCH  37  38
ENDBRANCH  36  37
ENDBRANCH  35  36
ENDBRANCH  34  35
ENDBRANCH  33  34
ENDBRANCH   1  33
TORSDOF 27
