REMARK SMILES COc1cc(OC)cc(-c2cc3nc(C)c(CCC(=O)OCCOCCOCCOCCOC(=O)c4ccc(-c5c6nc(c(-c7cccc(S(=O)(=O)[O-])c7F)c7ccc([nH]7)c(-c7cccc(S(=O)(=O)[O-])c7F)c7nc(c(-c8cccc(S(=O)(=O)[O-])c8F)c8ccc5[nH]8)C=C7)C=C6)cc4)c(C)n3n2)c1
REMARK SMILES IDX 26 1 25 2 24 3 23 4 22 5 21 6 19 7 20 8 18 9 17 10 16 11
REMARK SMILES IDX 10 12 11 13 102 14 12 15 101 16 13 17 99 18 14 19 100 20
REMARK SMILES IDX 15 21 9 22 3 23 4 24 103 25 5 26 8 27 2 28 1 29 6 30 7 31
REMARK SMILES IDX 27 32 28 33 29 34 30 35 31 36 32 37 33 38 34 39 35 40 36 41
REMARK SMILES IDX 37 42 98 43 38 44 97 45 39 46 40 47 41 48 91 49 42 50 96 51
REMARK SMILES IDX 90 52 92 53 43 54 95 55 89 56 88 57 44 59 76 60 56 61 75 62
REMARK SMILES IDX 57 63 60 64 74 65 93 66 58 67 59 68 73 70 94 71 61 72 45 73
REMARK SMILES IDX 46 74 54 75 47 76 49 77 55 78 48 79 50 80 51 81 52 82 53 83
REMARK SMILES IDX 77 84 78 85 86 86 79 87 81 88 87 89 80 90 82 91 83 92 84 93
REMARK SMILES IDX 85 94 62 95 63 96 71 97 64 98 66 99 72 100 65 101 67 102
REMARK SMILES IDX 68 103 69 104 70 105
REMARK H PARENT 92 58 60 69
REMARK Flexibility Score: inf
ROOT
ATOM      1  C   UNL     1       9.981   3.950   3.139  1.00  0.00     0.188 C 
ENDROOT
BRANCH   1   2
ATOM      2  C   UNL     1      10.267   4.353   1.696  1.00  0.00     0.188 C 
BRANCH   2   3
ATOM      3  O   UNL     1       9.178   4.433   0.786  1.00  0.00    -0.376 OA
BRANCH   3   4
ATOM      4  C   UNL     1       8.377   3.297   0.481  1.00  0.00     0.202 C 
BRANCH   4   5
ATOM      5  C   UNL     1       9.074   1.953   0.244  1.00  0.00     0.261 C 
BRANCH   5   6
ATOM      6  O   UNL     1       9.058   1.131   1.436  1.00  0.00    -0.463 OA
BRANCH   6   7
ATOM      7  C   UNL     1      10.228   0.661   1.926  1.00  0.00     0.306 C 
ATOM      8  O   UNL     1      11.329   0.929   1.461  1.00  0.00    -0.252 OA
BRANCH   7   9
ATOM      9  C   UNL     1      10.018  -0.304   3.084  1.00  0.00     0.127 C 
BRANCH   9  10
ATOM     10  C   UNL     1       9.533   0.281   4.427  1.00  0.00     0.051 C 
BRANCH  10  11
ATOM     11  C   UNL     1       8.085   0.009   4.808  1.00  0.00    -0.005 A 
ATOM     12  C   UNL     1       3.595   0.041   4.642  1.00  0.00     0.095 A 
ATOM     13  C   UNL     1       4.087  -0.770   5.695  1.00  0.00     0.080 A 
ATOM     14  N   UNL     1       4.600   0.547   3.931  1.00  0.00    -0.166 NA
ATOM     15  C   UNL     1       5.467  -0.725   5.589  1.00  0.00     0.156 A 
ATOM     16  N   UNL     1       5.718   0.168   4.570  1.00  0.00    -0.219 N 
ATOM     17  N   UNL     1       6.493  -1.268   6.305  1.00  0.00    -0.234 NA
ATOM     18  C   UNL     1       7.002   0.584   4.240  1.00  0.00     0.046 A 
ATOM     19  C   UNL     1       7.707  -0.904   5.982  1.00  0.00     0.045 A 
ATOM     20  C   UNL     1       6.982   1.712   3.273  1.00  0.00     0.067 C 
ATOM     21  C   UNL     1       8.805  -1.394   6.906  1.00  0.00     0.067 C 
BRANCH  12  22
ATOM     22  C   UNL     1       2.252   0.417   4.224  1.00  0.00     0.009 A 
ATOM     23  C   UNL     1       0.736   0.827   2.365  1.00  0.00     0.123 A 
ATOM     24  C   UNL     1      -0.119   1.489   3.243  1.00  0.00     0.092 A 
ATOM     25  C   UNL     1       1.926   0.303   2.858  1.00  0.00     0.057 A 
ATOM     26  C   UNL     1       0.199   1.624   4.601  1.00  0.00     0.123 A 
ATOM     27  C   UNL     1       1.379   1.067   5.099  1.00  0.00     0.057 A 
BRANCH  23  28
ATOM     28  O   UNL     1       0.334   0.799   1.056  1.00  0.00    -0.497 OA
ATOM     29  C   UNL     1       1.035  -0.096   0.200  1.00  0.00     0.278 C 
ENDBRANCH  23  28
BRANCH  26  30
ATOM     30  O   UNL     1      -0.718   2.327   5.333  1.00  0.00    -0.497 OA
ATOM     31  C   UNL     1      -0.245   2.899   6.550  1.00  0.00     0.278 C 
ENDBRANCH  26  30
ENDBRANCH  12  22
ENDBRANCH  10  11
ENDBRANCH   9  10
ENDBRANCH   7   9
ENDBRANCH   6   7
ENDBRANCH   5   6
ENDBRANCH   4   5
ENDBRANCH   3   4
ENDBRANCH   2   3
ENDBRANCH   1   2
BRANCH   1  32
ATOM     32  O   UNL     1       9.153   4.750   3.962  1.00  0.00    -0.377 OA
BRANCH  32  33
ATOM     33  C   UNL     1       7.915   5.232   3.462  1.00  0.00     0.188 C 
BRANCH  33  34
ATOM     34  C   UNL     1       8.008   6.594   2.756  1.00  0.00     0.188 C 
BRANCH  34  35
ATOM     35  O   UNL     1       8.623   7.699   3.416  1.00  0.00    -0.376 OA
BRANCH  35  36
ATOM     36  C   UNL     1       9.806   7.472   4.167  1.00  0.00     0.202 C 
BRANCH  36  37
ATOM     37  C   UNL     1       9.559   7.402   5.676  1.00  0.00     0.261 C 
BRANCH  37  38
ATOM     38  O   UNL     1       8.373   6.702   6.035  1.00  0.00    -0.460 OA
BRANCH  38  39
ATOM     39  C   UNL     1       7.242   7.440   5.927  1.00  0.00     0.338 C 
ATOM     40  O   UNL     1       7.122   8.552   5.444  1.00  0.00    -0.246 OA
BRANCH  39  41
ATOM     41  C   UNL     1       6.158   6.786   6.673  1.00  0.00     0.060 A 
ATOM     42  C   UNL     1       4.941   7.471   6.688  1.00  0.00     0.016 A 
ATOM     43  C   UNL     1       6.446   5.763   7.589  1.00  0.00     0.016 A 
ATOM     44  C   UNL     1       4.126   7.323   7.785  1.00  0.00     0.010 A 
ATOM     45  C   UNL     1       5.630   5.618   8.689  1.00  0.00     0.010 A 
ATOM     46  C   UNL     1       4.544   6.481   8.820  1.00  0.00    -0.014 A 
BRANCH  46  47
ATOM     47  C   UNL     1       3.838   6.606  10.078  1.00  0.00     0.031 A 
ATOM     48  C   UNL     1       2.527   5.941  10.117  1.00  0.00     0.074 A 
ATOM     49  C   UNL     1       4.369   7.250  11.134  1.00  0.00     0.049 A 
ATOM     50  N   UNL     1       1.361   6.487  10.214  1.00  0.00    -0.248 NA
ATOM     51  C   UNL     1       2.512   4.491   9.891  1.00  0.00     0.031 C 
ATOM     52  C   UNL     1       5.770   7.655  11.301  1.00  0.00     0.029 A 
ATOM     53  N   UNL     1       3.802   7.551  12.337  1.00  0.00    -0.354 N 
ATOM     54  C   UNL     1       0.477   5.418  10.308  1.00  0.00     0.074 A 
ATOM     55  C   UNL     1       1.204   4.246   9.898  1.00  0.00     0.031 C 
ATOM     56  C   UNL     1       5.993   7.919  12.607  1.00  0.00     0.029 A 
ATOM     57  C   UNL     1       4.732   7.832  13.325  1.00  0.00     0.049 A 
ATOM     58  H   UNL     1       2.829   7.568  12.488  1.00  0.00     0.167 HD
ATOM     59  C   UNL     1      -0.686   5.533  11.000  1.00  0.00     0.034 A 
ATOM     60  C   UNL     1       4.503   7.908  14.655  1.00  0.00     0.034 A 
ATOM     61  C   UNL     1      -1.044   6.911  11.222  1.00  0.00     0.049 A 
ATOM     62  C   UNL     1       3.056   8.132  14.871  1.00  0.00     0.074 A 
ATOM     63  C   UNL     1      -1.435   7.980  10.447  1.00  0.00     0.029 A 
ATOM     64  N   UNL     1      -0.712   7.406  12.456  1.00  0.00    -0.354 N 
ATOM     65  N   UNL     1       2.430   9.234  14.561  1.00  0.00    -0.248 NA
ATOM     66  C   UNL     1       2.198   7.002  15.204  1.00  0.00     0.031 C 
ATOM     67  C   UNL     1      -1.095   9.149  11.187  1.00  0.00     0.029 A 
ATOM     68  C   UNL     1      -0.489   8.754  12.381  1.00  0.00     0.049 A 
ATOM     69  H   UNL     1      -0.644   6.869  13.279  1.00  0.00     0.167 HD
ATOM     70  C   UNL     1       1.142   8.826  14.255  1.00  0.00     0.074 A 
ATOM     71  C   UNL     1       1.013   7.504  14.848  1.00  0.00     0.031 C 
ATOM     72  C   UNL     1       0.419   9.448  13.277  1.00  0.00     0.034 A 
BRANCH  59  73
ATOM     73  C   UNL     1      -1.284   4.433  11.857  1.00  0.00     0.023 A 
ATOM     74  C   UNL     1      -2.539   4.702  12.451  1.00  0.00     0.012 A 
ATOM     75  C   UNL     1      -0.581   3.308  12.347  1.00  0.00     0.148 A 
ATOM     76  C   UNL     1      -3.029   3.941  13.517  1.00  0.00     0.002 A 
ATOM     77  C   UNL     1      -1.109   2.507  13.354  1.00  0.00     0.091 A 
ATOM     78  F   UNL     1       0.672   3.064  11.955  1.00  0.00    -0.205 F 
ATOM     79  C   UNL     1      -2.316   2.838  13.967  1.00  0.00     0.022 A 
BRANCH  77  80
ATOM     80  S   UNL     1      -0.230   1.046  13.924  1.00  0.00     0.127 S 
ATOM     81  O   UNL     1       0.440   1.554  15.116  1.00  0.00    -0.237 OA
ATOM     82  O   UNL     1      -1.326   0.110  14.178  1.00  0.00    -0.237 OA
ATOM     83  O   UNL     1       0.629   0.662  12.809  1.00  0.00    -0.744 OA
ENDBRANCH  77  80
ENDBRANCH  59  73
BRANCH  60  84
ATOM     84  C   UNL     1       5.438   7.640  15.768  1.00  0.00     0.023 A 
ATOM     85  C   UNL     1       5.231   8.252  17.018  1.00  0.00     0.012 A 
ATOM     86  C   UNL     1       6.408   6.615  15.675  1.00  0.00     0.148 A 
ATOM     87  C   UNL     1       5.956   7.847  18.144  1.00  0.00     0.002 A 
ATOM     88  C   UNL     1       7.141   6.231  16.792  1.00  0.00     0.091 A 
ATOM     89  F   UNL     1       6.550   5.964  14.513  1.00  0.00    -0.205 F 
ATOM     90  C   UNL     1       6.909   6.837  18.032  1.00  0.00     0.022 A 
BRANCH  88  91
ATOM     91  S   UNL     1       8.395   4.944  16.719  1.00  0.00     0.127 S 
ATOM     92  O   UNL     1       9.508   5.562  17.441  1.00  0.00    -0.237 OA
ATOM     93  O   UNL     1       7.743   3.845  17.425  1.00  0.00    -0.237 OA
ATOM     94  O   UNL     1       8.654   4.723  15.301  1.00  0.00    -0.744 OA
ENDBRANCH  88  91
ENDBRANCH  60  84
BRANCH  72  95
ATOM     95  C   UNL     1       0.800  10.857  12.908  1.00  0.00     0.023 A 
ATOM     96  C   UNL     1       2.050  11.164  12.336  1.00  0.00     0.012 A 
ATOM     97  C   UNL     1      -0.167  11.873  13.016  1.00  0.00     0.148 A 
ATOM     98  C   UNL     1       2.342  12.462  11.911  1.00  0.00     0.002 A 
ATOM     99  C   UNL     1       0.110  13.153  12.548  1.00  0.00     0.091 A 
ATOM    100  F   UNL     1      -1.355  11.569  13.561  1.00  0.00    -0.205 F 
ATOM    101  C   UNL     1       1.368  13.454  12.005  1.00  0.00     0.022 A 
BRANCH  99 102
ATOM    102  S   UNL     1      -1.151  14.432  12.523  1.00  0.00     0.127 S 
ATOM    103  O   UNL     1      -0.856  15.182  13.742  1.00  0.00    -0.237 OA
ATOM    104  O   UNL     1      -0.858  15.148  11.280  1.00  0.00    -0.237 OA
ATOM    105  O   UNL     1      -2.425  13.722  12.508  1.00  0.00    -0.744 OA
ENDBRANCH  99 102
ENDBRANCH  72  95
ENDBRANCH  46  47
ENDBRANCH  39  41
ENDBRANCH  38  39
ENDBRANCH  37  38
ENDBRANCH  36  37
ENDBRANCH  35  36
ENDBRANCH  34  35
ENDBRANCH  33  34
ENDBRANCH  32  33
ENDBRANCH   1  32
TORSDOF 28
