REMARK SMILES CC(C)[C@@H]1C(=O)Nc2ccccc2N1C(=O)N[C@H](Cc1ccccc1)C(=O)OCCOCCOCCOCCOC(=O)c1ccc(-c2c3nc(c(-c4cccc(S(=O)(=O)[O-])c4F)c4ccc([nH]4)c(-c4cccc(S(=O)(=O)[O-])c4F)c4nc(c(-c5cccc(S(=O)(=O)[O-])c5F)c5ccc2[nH]5)C=C4)C=C3)cc1
REMARK SMILES IDX 34 1 33 2 32 3 31 4 30 5 29 6 28 7 26 8 27 9 18 10 17 11
REMARK SMILES IDX 15 12 16 13 14 15 4 16 5 17 6 18 7 19 13 20 8 21 12 23 9 24
REMARK SMILES IDX 11 25 10 26 2 27 1 28 3 29 19 30 20 31 21 32 25 33 22 34
REMARK SMILES IDX 24 35 23 36 35 37 36 38 37 39 38 40 39 41 40 42 41 43 42 44
REMARK SMILES IDX 43 45 44 46 105 47 45 48 104 49 46 50 47 51 48 52 98 53
REMARK SMILES IDX 49 54 103 55 97 56 99 57 50 58 102 59 96 60 95 61 51 63
REMARK SMILES IDX 83 64 63 65 82 66 64 67 67 68 81 69 100 70 65 71 66 72 80 74
REMARK SMILES IDX 101 75 68 76 52 77 53 78 61 79 54 80 56 81 62 82 55 83 57 84
REMARK SMILES IDX 58 85 59 86 60 87 84 88 85 89 93 90 86 91 88 92 94 93 87 94
REMARK SMILES IDX 89 95 90 96 91 97 92 98 69 99 70 100 78 101 71 102 73 103
REMARK SMILES IDX 79 104 72 105 74 106 75 107 76 108 77 109
REMARK H PARENT 17 14 7 22 99 62 67 73
REMARK Flexibility Score: inf
ROOT
ATOM      1  O   UNL     1      -0.117   5.747   1.627  1.00  0.00    -0.377 OA
ENDROOT
BRANCH   1   2
ATOM      2  C   UNL     1      -0.406   4.650   2.500  1.00  0.00     0.188 C 
BRANCH   2   3
ATOM      3  C   UNL     1       0.721   3.639   2.473  1.00  0.00     0.188 C 
BRANCH   3   4
ATOM      4  O   UNL     1       1.724   3.907   3.449  1.00  0.00    -0.376 OA
BRANCH   4   5
ATOM      5  C   UNL     1       3.071   3.798   2.975  1.00  0.00     0.202 C 
BRANCH   5   6
ATOM      6  C   UNL     1       3.460   2.502   2.251  1.00  0.00     0.261 C 
BRANCH   6   7
ATOM      7  O   UNL     1       3.034   2.461   0.868  1.00  0.00    -0.462 OA
BRANCH   7   8
ATOM      8  C   UNL     1       2.022   1.617   0.510  1.00  0.00     0.329 C 
ATOM      9  O   UNL     1       1.266   1.063   1.299  1.00  0.00    -0.250 OA
BRANCH   8  10
ATOM     10  C   UNL     1       1.987   1.356  -0.997  1.00  0.00     0.198 C 
BRANCH  10  11
ATOM     11  N   UNL     1       3.307   1.579  -1.671  1.00  0.00    -0.324 N 
ATOM     12  C   UNL     1       4.331   2.383  -1.961  1.00  0.00     0.323 C 
ATOM     13  O   UNL     1       5.141   1.734  -2.648  1.00  0.00    -0.248 OA
ATOM     14  H   UNL     1       3.519   0.724  -2.110  1.00  0.00     0.166 HD
BRANCH  12  15
ATOM     15  N   UNL     1       4.583   3.677  -1.577  1.00  0.00    -0.280 N 
ATOM     16  C   UNL     1       3.633   4.827  -1.311  1.00  0.00     0.184 C 
ATOM     17  C   UNL     1       4.117   6.242  -1.755  1.00  0.00     0.247 C 
ATOM     18  O   UNL     1       3.387   7.234  -1.810  1.00  0.00    -0.272 OA
ATOM     19  N   UNL     1       5.436   6.421  -1.972  1.00  0.00    -0.322 N 
ATOM     20  C   UNL     1       5.996   4.091  -1.556  1.00  0.00     0.070 A 
ATOM     21  C   UNL     1       6.373   5.417  -1.815  1.00  0.00     0.065 A 
ATOM     22  H   UNL     1       5.746   7.310  -2.258  1.00  0.00     0.170 HD
ATOM     23  C   UNL     1       7.042   3.179  -1.324  1.00  0.00     0.028 A 
ATOM     24  C   UNL     1       7.713   5.795  -1.954  1.00  0.00     0.028 A 
ATOM     25  C   UNL     1       8.388   3.561  -1.423  1.00  0.00     0.002 A 
ATOM     26  C   UNL     1       8.723   4.865  -1.760  1.00  0.00     0.002 A 
BRANCH  16  27
ATOM     27  C   UNL     1       2.237   4.656  -1.921  1.00  0.00     0.015 C 
ATOM     28  C   UNL     1       1.180   5.649  -1.415  1.00  0.00     0.010 C 
ATOM     29  C   UNL     1       2.295   4.567  -3.458  1.00  0.00     0.010 C 
ENDBRANCH  16  27
ENDBRANCH  12  15
ENDBRANCH  10  11
BRANCH  10  30
ATOM     30  C   UNL     1       0.786   1.618  -1.953  1.00  0.00     0.072 C 
BRANCH  30  31
ATOM     31  C   UNL     1      -0.707   1.696  -1.684  1.00  0.00    -0.045 A 
ATOM     32  C   UNL     1      -1.381   2.916  -1.904  1.00  0.00     0.004 A 
ATOM     33  C   UNL     1      -1.487   0.536  -1.606  1.00  0.00     0.004 A 
ATOM     34  C   UNL     1      -2.764   2.973  -2.108  1.00  0.00     0.000 A 
ATOM     35  C   UNL     1      -2.874   0.590  -1.829  1.00  0.00     0.000 A 
ATOM     36  C   UNL     1      -3.509   1.802  -2.099  1.00  0.00     0.000 A 
ENDBRANCH  30  31
ENDBRANCH  10  30
ENDBRANCH   8  10
ENDBRANCH   7   8
ENDBRANCH   6   7
ENDBRANCH   5   6
ENDBRANCH   4   5
ENDBRANCH   3   4
ENDBRANCH   2   3
ENDBRANCH   1   2
BRANCH   1  37
ATOM     37  C   UNL     1       0.880   6.655   2.094  1.00  0.00     0.188 C 
BRANCH  37  38
ATOM     38  C   UNL     1       0.523   7.365   3.400  1.00  0.00     0.188 C 
BRANCH  38  39
ATOM     39  O   UNL     1      -0.621   8.217   3.426  1.00  0.00    -0.376 OA
BRANCH  39  40
ATOM     40  C   UNL     1      -1.738   7.896   2.609  1.00  0.00     0.202 C 
BRANCH  40  41
ATOM     41  C   UNL     1      -1.775   8.630   1.256  1.00  0.00     0.261 C 
BRANCH  41  42
ATOM     42  O   UNL     1      -0.497   9.008   0.734  1.00  0.00    -0.460 OA
BRANCH  42  43
ATOM     43  C   UNL     1       0.061  10.084   1.340  1.00  0.00     0.338 C 
ATOM     44  O   UNL     1      -0.417  10.776   2.219  1.00  0.00    -0.246 OA
BRANCH  43  45
ATOM     45  C   UNL     1       1.406  10.311   0.787  1.00  0.00     0.060 A 
ATOM     46  C   UNL     1       2.499  10.367   1.660  1.00  0.00     0.016 A 
ATOM     47  C   UNL     1       1.548  10.634  -0.564  1.00  0.00     0.016 A 
ATOM     48  C   UNL     1       3.727  10.839   1.198  1.00  0.00     0.010 A 
ATOM     49  C   UNL     1       2.773  11.114  -1.022  1.00  0.00     0.010 A 
ATOM     50  C   UNL     1       3.845  11.278  -0.128  1.00  0.00    -0.014 A 
BRANCH  50  51
ATOM     51  C   UNL     1       4.991  12.127  -0.527  1.00  0.00     0.031 A 
ATOM     52  C   UNL     1       4.802  13.621  -0.533  1.00  0.00     0.074 A 
ATOM     53  C   UNL     1       6.165  11.585  -0.892  1.00  0.00     0.049 A 
ATOM     54  N   UNL     1       5.630  14.561  -0.905  1.00  0.00    -0.248 NA
ATOM     55  C   UNL     1       3.502  14.122  -0.052  1.00  0.00     0.031 C 
ATOM     56  C   UNL     1       6.471  10.156  -0.895  1.00  0.00     0.029 A 
ATOM     57  N   UNL     1       7.311  12.181  -1.354  1.00  0.00    -0.354 N 
ATOM     58  C   UNL     1       4.946  15.759  -0.727  1.00  0.00     0.074 A 
ATOM     59  C   UNL     1       3.630  15.428  -0.229  1.00  0.00     0.031 C 
ATOM     60  C   UNL     1       7.716   9.983  -1.371  1.00  0.00     0.029 A 
ATOM     61  C   UNL     1       8.277  11.283  -1.737  1.00  0.00     0.049 A 
ATOM     62  H   UNL     1       7.429  13.156  -1.407  1.00  0.00     0.167 HD
ATOM     63  C   UNL     1       5.380  17.022  -0.943  1.00  0.00     0.034 A 
ATOM     64  C   UNL     1       9.465  11.488  -2.337  1.00  0.00     0.034 A 
ATOM     65  C   UNL     1       6.694  17.344  -1.428  1.00  0.00     0.049 A 
ATOM     66  C   UNL     1       9.907  12.900  -2.621  1.00  0.00     0.074 A 
ATOM     67  C   UNL     1       7.250  18.591  -1.650  1.00  0.00     0.029 A 
ATOM     68  N   UNL     1       7.655  16.408  -1.778  1.00  0.00    -0.354 N 
ATOM     69  N   UNL     1       9.292  14.027  -2.353  1.00  0.00    -0.248 NA
ATOM     70  C   UNL     1      11.222  13.072  -3.256  1.00  0.00     0.031 C 
ATOM     71  C   UNL     1       8.540  18.407  -2.159  1.00  0.00     0.029 A 
ATOM     72  C   UNL     1       8.798  17.047  -2.224  1.00  0.00     0.049 A 
ATOM     73  H   UNL     1       7.541  15.432  -1.718  1.00  0.00     0.167 HD
ATOM     74  C   UNL     1      10.163  15.040  -2.738  1.00  0.00     0.074 A 
ATOM     75  C   UNL     1      11.352  14.392  -3.254  1.00  0.00     0.031 C 
ATOM     76  C   UNL     1       9.994  16.384  -2.675  1.00  0.00     0.034 A 
BRANCH  63  77
ATOM     77  C   UNL     1       4.431  18.150  -0.634  1.00  0.00     0.023 A 
ATOM     78  C   UNL     1       4.138  18.468   0.708  1.00  0.00     0.012 A 
ATOM     79  C   UNL     1       3.861  18.920  -1.667  1.00  0.00     0.148 A 
ATOM     80  C   UNL     1       3.267  19.512   1.017  1.00  0.00     0.002 A 
ATOM     81  C   UNL     1       3.028  19.987  -1.349  1.00  0.00     0.091 A 
ATOM     82  F   UNL     1       4.132  18.588  -2.937  1.00  0.00    -0.205 F 
ATOM     83  C   UNL     1       2.720  20.276  -0.010  1.00  0.00     0.022 A 
BRANCH  81  84
ATOM     84  S   UNL     1       2.335  21.078  -2.597  1.00  0.00     0.127 S 
ATOM     85  O   UNL     1       0.924  20.695  -2.575  1.00  0.00    -0.237 OA
ATOM     86  O   UNL     1       2.616  22.401  -2.040  1.00  0.00    -0.237 OA
ATOM     87  O   UNL     1       3.046  20.777  -3.832  1.00  0.00    -0.744 OA
ENDBRANCH  81  84
ENDBRANCH  63  77
BRANCH  64  88
ATOM     88  C   UNL     1      10.336  10.331  -2.684  1.00  0.00     0.023 A 
ATOM     89  C   UNL     1      11.540  10.130  -1.983  1.00  0.00     0.012 A 
ATOM     90  C   UNL     1       9.970   9.421  -3.693  1.00  0.00     0.148 A 
ATOM     91  C   UNL     1      12.378   9.059  -2.300  1.00  0.00     0.002 A 
ATOM     92  C   UNL     1      10.784   8.329  -3.969  1.00  0.00     0.091 A 
ATOM     93  F   UNL     1       8.827   9.634  -4.361  1.00  0.00    -0.205 F 
ATOM     94  C   UNL     1      11.996   8.153  -3.286  1.00  0.00     0.022 A 
BRANCH  92  95
ATOM     95  S   UNL     1      10.284   7.044  -5.119  1.00  0.00     0.127 S 
ATOM     96  O   UNL     1      11.043   7.396  -6.314  1.00  0.00    -0.237 OA
ATOM     97  O   UNL     1      10.735   5.832  -4.432  1.00  0.00    -0.237 OA
ATOM     98  O   UNL     1       8.835   7.171  -5.210  1.00  0.00    -0.744 OA
ENDBRANCH  92  95
ENDBRANCH  64  88
BRANCH  76  99
ATOM     99  C   UNL     1      11.139  17.256  -3.119  1.00  0.00     0.023 A 
ATOM    100  C   UNL     1      11.433  17.389  -4.490  1.00  0.00     0.012 A 
ATOM    101  C   UNL     1      11.864  18.012  -2.177  1.00  0.00     0.148 A 
ATOM    102  C   UNL     1      12.451  18.242  -4.914  1.00  0.00     0.002 A 
ATOM    103  C   UNL     1      12.843  18.897  -2.611  1.00  0.00     0.091 A 
ATOM    104  F   UNL     1      11.579  17.855  -0.876  1.00  0.00    -0.205 F 
ATOM    105  C   UNL     1      13.146  19.005  -3.978  1.00  0.00     0.022 A 
BRANCH 103 106
ATOM    106  S   UNL     1      13.718  19.991  -1.486  1.00  0.00     0.127 S 
ATOM    107  O   UNL     1      15.049  19.388  -1.461  1.00  0.00    -0.237 OA
ATOM    108  O   UNL     1      13.642  21.276  -2.181  1.00  0.00    -0.237 OA
ATOM    109  O   UNL     1      12.986  19.941  -0.227  1.00  0.00    -0.744 OA
ENDBRANCH 103 106
ENDBRANCH  76  99
ENDBRANCH  50  51
ENDBRANCH  43  45
ENDBRANCH  42  43
ENDBRANCH  41  42
ENDBRANCH  40  41
ENDBRANCH  39  40
ENDBRANCH  38  39
ENDBRANCH  37  38
ENDBRANCH   1  37
TORSDOF 28
