REMARK SMILES O=C(OCCOCCOCCOCCOC(=O)[C@@H]1C[C@@H]1C(=O)N1CC2(CCCC2)c2c(F)cccc21)c1ccc(-c2c3nc(c(-c4cccc(S(=O)(=O)[O-])c4F)c4ccc([nH]4)c(-c4cccc(S(=O)(=O)[O-])c4F)c4nc(c(-c5cccc(S(=O)(=O)[O-])c5F)c5ccc2[nH]5)C=C4)C=C3)cc1
REMARK SMILES IDX 8 1 7 2 6 3 5 4 4 5 3 6 2 7 1 8 37 9 38 10 99 11 39 12 98 13
REMARK SMILES IDX 40 14 41 15 42 16 92 17 43 18 97 19 91 20 93 21 44 22 96 23
REMARK SMILES IDX 90 24 89 25 45 27 77 28 57 29 76 30 58 31 61 32 75 33 94 34
REMARK SMILES IDX 59 35 60 36 74 38 95 39 62 40 46 41 47 42 55 43 48 44 50 45
REMARK SMILES IDX 56 46 49 47 51 48 52 49 53 50 54 51 78 52 79 53 87 54 80 55
REMARK SMILES IDX 82 56 88 57 81 58 83 59 84 60 85 61 86 62 63 63 64 64 72 65
REMARK SMILES IDX 65 66 67 67 73 68 66 69 68 70 69 71 70 72 71 73 9 74 10 75
REMARK SMILES IDX 11 76 12 77 13 78 14 79 15 80 16 81 17 82 18 83 19 84 20 85
REMARK SMILES IDX 21 86 22 87 23 88 24 89 36 90 25 91 30 92 35 93 26 94 29 95
REMARK SMILES IDX 31 96 34 97 27 98 28 99 32 100 33 101
REMARK H PARENT 93 26 61 37
REMARK Flexibility Score: inf
ROOT
ATOM      1  C   UNL     1       2.520   2.669   1.147  1.00  0.00     0.188 C 
ENDROOT
BRANCH   1   2
ATOM      2  C   UNL     1       2.706   1.216   0.681  1.00  0.00     0.188 C 
BRANCH   2   3
ATOM      3  O   UNL     1       3.994   0.911   0.164  1.00  0.00    -0.376 OA
BRANCH   3   4
ATOM      4  C   UNL     1       4.184   1.209  -1.211  1.00  0.00     0.202 C 
BRANCH   4   5
ATOM      5  C   UNL     1       4.238  -0.075  -2.032  1.00  0.00     0.261 C 
BRANCH   5   6
ATOM      6  O   UNL     1       2.943  -0.699  -2.088  1.00  0.00    -0.460 OA
BRANCH   6   7
ATOM      7  C   UNL     1       2.361  -1.638  -1.310  1.00  0.00     0.338 C 
ATOM      8  O   UNL     1       1.241  -2.021  -1.654  1.00  0.00    -0.246 OA
BRANCH   7   9
ATOM      9  C   UNL     1       2.941  -2.243  -0.059  1.00  0.00     0.060 A 
ATOM     10  C   UNL     1       4.157  -1.918   0.545  1.00  0.00     0.016 A 
ATOM     11  C   UNL     1       2.154  -3.228   0.576  1.00  0.00     0.016 A 
ATOM     12  C   UNL     1       4.576  -2.529   1.728  1.00  0.00     0.010 A 
ATOM     13  C   UNL     1       2.582  -3.878   1.739  1.00  0.00     0.010 A 
ATOM     14  C   UNL     1       3.811  -3.541   2.302  1.00  0.00    -0.014 A 
BRANCH  14  15
ATOM     15  C   UNL     1       4.439  -4.367   3.347  1.00  0.00     0.031 A 
ATOM     16  C   UNL     1       5.394  -5.435   2.902  1.00  0.00     0.074 A 
ATOM     17  C   UNL     1       4.227  -4.119   4.650  1.00  0.00     0.049 A 
ATOM     18  N   UNL     1       6.185  -6.183   3.619  1.00  0.00    -0.248 NA
ATOM     19  C   UNL     1       5.498  -5.663   1.448  1.00  0.00     0.031 C 
ATOM     20  C   UNL     1       3.353  -3.073   5.179  1.00  0.00     0.029 A 
ATOM     21  N   UNL     1       4.738  -4.732   5.763  1.00  0.00    -0.354 N 
ATOM     22  C   UNL     1       6.888  -6.958   2.708  1.00  0.00     0.074 A 
ATOM     23  C   UNL     1       6.439  -6.592   1.385  1.00  0.00     0.031 C 
ATOM     24  C   UNL     1       3.370  -3.134   6.522  1.00  0.00     0.029 A 
ATOM     25  C   UNL     1       4.251  -4.223   6.941  1.00  0.00     0.049 A 
ATOM     26  H   UNL     1       5.392  -5.467   5.722  1.00  0.00     0.167 HD
ATOM     27  C   UNL     1       7.830  -7.892   2.957  1.00  0.00     0.034 A 
ATOM     28  C   UNL     1       4.490  -4.604   8.212  1.00  0.00     0.034 A 
ATOM     29  C   UNL     1       8.233  -8.281   4.274  1.00  0.00     0.049 A 
ATOM     30  C   UNL     1       5.473  -5.714   8.466  1.00  0.00     0.074 A 
ATOM     31  C   UNL     1       9.173  -9.225   4.639  1.00  0.00     0.029 A 
ATOM     32  N   UNL     1       7.686  -7.773   5.442  1.00  0.00    -0.354 N 
ATOM     33  N   UNL     1       6.212  -6.367   7.600  1.00  0.00    -0.248 NA
ATOM     34  C   UNL     1       5.676  -6.130   9.861  1.00  0.00     0.031 C 
ATOM     35  C   UNL     1       9.173  -9.310   6.034  1.00  0.00     0.029 A 
ATOM     36  C   UNL     1       8.248  -8.403   6.534  1.00  0.00     0.049 A 
ATOM     37  H   UNL     1       7.000  -7.069   5.487  1.00  0.00     0.167 HD
ATOM     38  C   UNL     1       6.981  -7.255   8.342  1.00  0.00     0.074 A 
ATOM     39  C   UNL     1       6.622  -7.055   9.732  1.00  0.00     0.031 C 
ATOM     40  C   UNL     1       7.896  -8.157   7.910  1.00  0.00     0.034 A 
BRANCH  27  41
ATOM     41  C   UNL     1       8.475  -8.554   1.777  1.00  0.00     0.023 A 
ATOM     42  C   UNL     1       9.510  -7.889   1.091  1.00  0.00     0.012 A 
ATOM     43  C   UNL     1       8.075  -9.838   1.366  1.00  0.00     0.148 A 
ATOM     44  C   UNL     1      10.134  -8.493   0.001  1.00  0.00     0.002 A 
ATOM     45  C   UNL     1       8.719 -10.444   0.295  1.00  0.00     0.091 A 
ATOM     46  F   UNL     1       7.067 -10.431   2.020  1.00  0.00    -0.205 F 
ATOM     47  C   UNL     1       9.745  -9.771  -0.391  1.00  0.00     0.022 A 
BRANCH  45  48
ATOM     48  S   UNL     1       8.313 -12.099  -0.269  1.00  0.00     0.127 S 
ATOM     49  O   UNL     1       7.748 -11.828  -1.591  1.00  0.00    -0.237 OA
ATOM     50  O   UNL     1       9.625 -12.745  -0.286  1.00  0.00    -0.237 OA
ATOM     51  O   UNL     1       7.377 -12.639   0.706  1.00  0.00    -0.744 OA
ENDBRANCH  45  48
ENDBRANCH  27  41
BRANCH  28  52
ATOM     52  C   UNL     1       3.802  -3.888   9.320  1.00  0.00     0.023 A 
ATOM     53  C   UNL     1       4.512  -2.946  10.086  1.00  0.00     0.012 A 
ATOM     54  C   UNL     1       2.421  -4.059   9.541  1.00  0.00     0.148 A 
ATOM     55  C   UNL     1       3.856  -2.180  11.052  1.00  0.00     0.002 A 
ATOM     56  C   UNL     1       1.767  -3.268  10.478  1.00  0.00     0.091 A 
ATOM     57  F   UNL     1       1.770  -4.965   8.798  1.00  0.00    -0.205 F 
ATOM     58  C   UNL     1       2.484  -2.332  11.240  1.00  0.00     0.022 A 
BRANCH  56  59
ATOM     59  S   UNL     1      -0.013  -3.315  10.718  1.00  0.00     0.127 S 
ATOM     60  O   UNL     1      -0.116  -3.684  12.128  1.00  0.00    -0.237 OA
ATOM     61  O   UNL     1      -0.389  -1.934  10.413  1.00  0.00    -0.237 OA
ATOM     62  O   UNL     1      -0.517  -4.307   9.779  1.00  0.00    -0.744 OA
ENDBRANCH  56  59
ENDBRANCH  28  52
BRANCH  40  63
ATOM     63  C   UNL     1       8.595  -9.015   8.926  1.00  0.00     0.023 A 
ATOM     64  C   UNL     1       7.958 -10.180   9.392  1.00  0.00     0.012 A 
ATOM     65  C   UNL     1       9.948  -8.782   9.239  1.00  0.00     0.148 A 
ATOM     66  C   UNL     1       8.665 -11.112  10.149  1.00  0.00     0.002 A 
ATOM     67  C   UNL     1      10.656  -9.733   9.962  1.00  0.00     0.091 A 
ATOM     68  F   UNL     1      10.525  -7.664   8.775  1.00  0.00    -0.205 F 
ATOM     69  C   UNL     1      10.016 -10.897  10.420  1.00  0.00     0.022 A 
BRANCH  67  70
ATOM     70  S   UNL     1      12.419  -9.595  10.276  1.00  0.00     0.127 S 
ATOM     71  O   UNL     1      12.457  -9.525  11.736  1.00  0.00    -0.237 OA
ATOM     72  O   UNL     1      12.930 -10.843   9.711  1.00  0.00    -0.237 OA
ATOM     73  O   UNL     1      12.861  -8.387   9.591  1.00  0.00    -0.744 OA
ENDBRANCH  67  70
ENDBRANCH  40  63
ENDBRANCH  14  15
ENDBRANCH   7   9
ENDBRANCH   6   7
ENDBRANCH   5   6
ENDBRANCH   4   5
ENDBRANCH   3   4
ENDBRANCH   2   3
ENDBRANCH   1   2
BRANCH   1  74
ATOM     74  O   UNL     1       3.614   3.582   1.067  1.00  0.00    -0.377 OA
BRANCH  74  75
ATOM     75  C   UNL     1       4.905   3.166   1.510  1.00  0.00     0.188 C 
BRANCH  75  76
ATOM     76  C   UNL     1       5.123   2.488   2.880  1.00  0.00     0.188 C 
BRANCH  76  77
ATOM     77  O   UNL     1       4.029   1.704   3.308  1.00  0.00    -0.376 OA
BRANCH  77  78
ATOM     78  C   UNL     1       3.343   2.063   4.507  1.00  0.00     0.202 C 
BRANCH  78  79
ATOM     79  C   UNL     1       3.311   3.526   4.989  1.00  0.00     0.261 C 
BRANCH  79  80
ATOM     80  O   UNL     1       3.499   4.447   3.915  1.00  0.00    -0.463 OA
BRANCH  80  81
ATOM     81  C   UNL     1       4.112   5.620   4.228  1.00  0.00     0.309 C 
ATOM     82  O   UNL     1       4.377   6.035   5.337  1.00  0.00    -0.252 OA
BRANCH  81  83
ATOM     83  C   UNL     1       4.651   6.266   3.004  1.00  0.00     0.112 C 
ATOM     84  C   UNL     1       4.534   7.735   2.730  1.00  0.00     0.030 C 
ATOM     85  C   UNL     1       3.733   6.750   1.896  1.00  0.00     0.094 C 
BRANCH  85  86
ATOM     86  C   UNL     1       2.256   6.819   2.067  1.00  0.00     0.231 C 
ATOM     87  O   UNL     1       1.708   6.242   3.002  1.00  0.00    -0.274 OA
BRANCH  86  88
ATOM     88  N   UNL     1       1.603   7.799   1.358  1.00  0.00    -0.311 N 
ATOM     89  C   UNL     1       0.584   8.586   2.038  1.00  0.00     0.137 C 
ATOM     90  C   UNL     1       1.611   8.111  -0.004  1.00  0.00     0.050 A 
ATOM     91  C   UNL     1       0.089   9.652   1.034  1.00  0.00     0.018 C 
ATOM     92  C   UNL     1       0.725   9.166  -0.240  1.00  0.00     0.020 A 
ATOM     93  C   UNL     1       2.256   7.472  -1.052  1.00  0.00     0.027 A 
ATOM     94  C   UNL     1      -1.445   9.699   1.038  1.00  0.00     0.014 C 
ATOM     95  C   UNL     1       0.542  11.077   1.423  1.00  0.00     0.014 C 
ATOM     96  C   UNL     1       0.521   9.627  -1.529  1.00  0.00     0.129 A 
ATOM     97  C   UNL     1       2.031   7.932  -2.357  1.00  0.00     0.005 A 
ATOM     98  C   UNL     1      -1.751  10.736   2.107  1.00  0.00     0.001 C 
ATOM     99  C   UNL     1      -0.734  11.825   1.810  1.00  0.00     0.001 C 
ATOM    100  F   UNL     1      -0.305  10.655  -1.762  1.00  0.00    -0.207 F 
ATOM    101  C   UNL     1       1.171   9.013  -2.594  1.00  0.00     0.040 A 
ENDBRANCH  86  88
ENDBRANCH  85  86
ENDBRANCH  81  83
ENDBRANCH  80  81
ENDBRANCH  79  80
ENDBRANCH  78  79
ENDBRANCH  77  78
ENDBRANCH  76  77
ENDBRANCH  75  76
ENDBRANCH  74  75
ENDBRANCH   1  74
TORSDOF 25
