REMARK SMILES O=C(OCCOCCOCCOCCOC(=O)[C@@H](Cc1ccccc1)N1C(=O)/C(=C/c2ccncc2)SC1=S)c1ccc(-c2c3nc(c(-c4cccc(S(=O)(=O)[O-])c4F)c4ccc([nH]4)c(-c4cccc(S(=O)(=O)[O-])c4F)c4nc(c(-c5cccc(S(=O)(=O)[O-])c5F)c5ccc2[nH]5)C=C4)C=C3)cc1
REMARK SMILES IDX 8 1 7 2 6 3 5 4 4 5 3 6 2 7 1 8 40 9 41 10 102 11 42 12
REMARK SMILES IDX 101 13 43 14 44 15 45 16 95 17 46 18 100 19 94 20 96 21
REMARK SMILES IDX 47 22 99 23 93 24 92 25 48 27 80 28 60 29 79 30 61 31 64 32
REMARK SMILES IDX 78 33 97 34 62 35 63 36 77 38 98 39 65 40 49 41 50 42 58 43
REMARK SMILES IDX 51 44 53 45 59 46 52 47 54 48 55 49 56 50 57 51 81 52 82 53
REMARK SMILES IDX 90 54 83 55 85 56 91 57 84 58 86 59 87 60 88 61 89 62 66 63
REMARK SMILES IDX 67 64 75 65 68 66 70 67 76 68 69 69 71 70 72 71 73 72 74 73
REMARK SMILES IDX 9 74 10 75 11 76 12 77 13 78 14 79 15 80 16 81 17 82 18 83
REMARK SMILES IDX 19 84 20 85 21 86 25 87 22 88 24 89 23 90 26 91 27 92 38 93
REMARK SMILES IDX 28 94 29 95 37 96 39 97 30 98 31 99 32 100 36 101 33 102
REMARK SMILES IDX 35 103 34 104
REMARK H PARENT 96 26 64 37
REMARK Flexibility Score: inf
ROOT
ATOM      1  C   UNL     1       2.643  -1.178  -2.298  1.00  0.00     0.188 C 
ENDROOT
BRANCH   1   2
ATOM      2  C   UNL     1       2.933  -0.758  -0.874  1.00  0.00     0.188 C 
BRANCH   2   3
ATOM      3  O   UNL     1       4.311  -0.495  -0.730  1.00  0.00    -0.376 OA
BRANCH   3   4
ATOM      4  C   UNL     1       4.988  -0.676   0.493  1.00  0.00     0.202 C 
BRANCH   4   5
ATOM      5  C   UNL     1       4.196  -0.728   1.787  1.00  0.00     0.261 C 
BRANCH   5   6
ATOM      6  O   UNL     1       2.864  -0.156   1.856  1.00  0.00    -0.460 OA
BRANCH   6   7
ATOM      7  C   UNL     1       2.258   1.041   1.735  1.00  0.00     0.338 C 
ATOM      8  O   UNL     1       1.072   1.119   2.054  1.00  0.00    -0.246 OA
BRANCH   7   9
ATOM      9  C   UNL     1       2.905   2.271   1.212  1.00  0.00     0.060 A 
ATOM     10  C   UNL     1       3.958   2.262   0.315  1.00  0.00     0.016 A 
ATOM     11  C   UNL     1       2.346   3.518   1.526  1.00  0.00     0.016 A 
ATOM     12  C   UNL     1       4.564   3.400  -0.152  1.00  0.00     0.010 A 
ATOM     13  C   UNL     1       2.904   4.697   1.014  1.00  0.00     0.010 A 
ATOM     14  C   UNL     1       4.048   4.626   0.211  1.00  0.00    -0.014 A 
BRANCH  14  15
ATOM     15  C   UNL     1       4.911   5.768  -0.089  1.00  0.00     0.031 A 
ATOM     16  C   UNL     1       5.731   6.297   1.042  1.00  0.00     0.074 A 
ATOM     17  C   UNL     1       5.128   6.119  -1.369  1.00  0.00     0.049 A 
ATOM     18  N   UNL     1       6.547   7.308   1.066  1.00  0.00    -0.248 NA
ATOM     19  C   UNL     1       5.643   5.561   2.320  1.00  0.00     0.031 C 
ATOM     20  C   UNL     1       4.530   5.467  -2.541  1.00  0.00     0.029 A 
ATOM     21  N   UNL     1       5.933   7.085  -1.901  1.00  0.00    -0.354 N 
ATOM     22  C   UNL     1       7.005   7.379   2.374  1.00  0.00     0.074 A 
ATOM     23  C   UNL     1       6.418   6.285   3.108  1.00  0.00     0.031 C 
ATOM     24  C   UNL     1       4.977   6.070  -3.654  1.00  0.00     0.029 A 
ATOM     25  C   UNL     1       5.814   7.196  -3.265  1.00  0.00     0.049 A 
ATOM     26  H   UNL     1       6.537   7.645  -1.361  1.00  0.00     0.167 HD
ATOM     27  C   UNL     1       7.824   8.308   2.909  1.00  0.00     0.034 A 
ATOM     28  C   UNL     1       6.282   8.155  -4.082  1.00  0.00     0.034 A 
ATOM     29  C   UNL     1       8.370   9.380   2.130  1.00  0.00     0.049 A 
ATOM     30  C   UNL     1       7.091   9.252  -3.443  1.00  0.00     0.074 A 
ATOM     31  C   UNL     1       9.136  10.449   2.542  1.00  0.00     0.029 A 
ATOM     32  N   UNL     1       8.181   9.514   0.759  1.00  0.00    -0.354 N 
ATOM     33  N   UNL     1       7.476   9.367  -2.192  1.00  0.00    -0.248 NA
ATOM     34  C   UNL     1       7.532  10.345  -4.314  1.00  0.00     0.031 C 
ATOM     35  C   UNL     1       9.374  11.255   1.424  1.00  0.00     0.029 A 
ATOM     36  C   UNL     1       8.802  10.659   0.307  1.00  0.00     0.049 A 
ATOM     37  H   UNL     1       7.678   8.884   0.194  1.00  0.00     0.167 HD
ATOM     38  C   UNL     1       8.230  10.530  -2.128  1.00  0.00     0.074 A 
ATOM     39  C   UNL     1       8.262  11.069  -3.476  1.00  0.00     0.031 C 
ATOM     40  C   UNL     1       8.832  11.114  -1.062  1.00  0.00     0.034 A 
BRANCH  27  41
ATOM     41  C   UNL     1       8.055   8.240   4.391  1.00  0.00     0.023 A 
ATOM     42  C   UNL     1       8.856   7.224   4.952  1.00  0.00     0.012 A 
ATOM     43  C   UNL     1       7.408   9.159   5.239  1.00  0.00     0.148 A 
ATOM     44  C   UNL     1       8.974   7.102   6.337  1.00  0.00     0.002 A 
ATOM     45  C   UNL     1       7.568   9.059   6.614  1.00  0.00     0.091 A 
ATOM     46  F   UNL     1       6.617  10.089   4.685  1.00  0.00    -0.205 F 
ATOM     47  C   UNL     1       8.337   8.022   7.166  1.00  0.00     0.022 A 
BRANCH  45  48
ATOM     48  S   UNL     1       6.832  10.228   7.761  1.00  0.00     0.127 S 
ATOM     49  O   UNL     1       5.898   9.374   8.494  1.00  0.00    -0.237 OA
ATOM     50  O   UNL     1       7.995  10.665   8.533  1.00  0.00    -0.237 OA
ATOM     51  O   UNL     1       6.215  11.263   6.944  1.00  0.00    -0.744 OA
ENDBRANCH  45  48
ENDBRANCH  27  41
BRANCH  28  52
ATOM     52  C   UNL     1       5.950   8.154  -5.536  1.00  0.00     0.023 A 
ATOM     53  C   UNL     1       6.975   8.033  -6.493  1.00  0.00     0.012 A 
ATOM     54  C   UNL     1       4.615   8.272  -5.978  1.00  0.00     0.148 A 
ATOM     55  C   UNL     1       6.681   8.066  -7.858  1.00  0.00     0.002 A 
ATOM     56  C   UNL     1       4.324   8.248  -7.337  1.00  0.00     0.091 A 
ATOM     57  F   UNL     1       3.649   8.403  -5.057  1.00  0.00    -0.205 F 
ATOM     58  C   UNL     1       5.357   8.165  -8.280  1.00  0.00     0.022 A 
BRANCH  56  59
ATOM     59  S   UNL     1       2.640   8.253  -7.964  1.00  0.00     0.127 S 
ATOM     60  O   UNL     1       2.557   9.573  -8.584  1.00  0.00    -0.237 OA
ATOM     61  O   UNL     1       2.666   7.131  -8.903  1.00  0.00    -0.237 OA
ATOM     62  O   UNL     1       1.785   8.044  -6.804  1.00  0.00    -0.744 OA
ENDBRANCH  56  59
ENDBRANCH  28  52
BRANCH  40  63
ATOM     63  C   UNL     1       9.616  12.365  -1.327  1.00  0.00     0.023 A 
ATOM     64  C   UNL     1       8.946  13.576  -1.587  1.00  0.00     0.012 A 
ATOM     65  C   UNL     1      11.018  12.348  -1.211  1.00  0.00     0.148 A 
ATOM     66  C   UNL     1       9.670  14.753  -1.756  1.00  0.00     0.002 A 
ATOM     67  C   UNL     1      11.726  13.534  -1.319  1.00  0.00     0.091 A 
ATOM     68  F   UNL     1      11.627  11.175  -0.982  1.00  0.00    -0.205 F 
ATOM     69  C   UNL     1      11.056  14.735  -1.605  1.00  0.00     0.022 A 
BRANCH  67  70
ATOM     70  S   UNL     1      13.492  13.620  -1.017  1.00  0.00     0.127 S 
ATOM     71  O   UNL     1      14.011  13.852  -2.364  1.00  0.00    -0.237 OA
ATOM     72  O   UNL     1      13.594  14.768  -0.115  1.00  0.00    -0.237 OA
ATOM     73  O   UNL     1      13.861  12.345  -0.417  1.00  0.00    -0.744 OA
ENDBRANCH  67  70
ENDBRANCH  40  63
ENDBRANCH  14  15
ENDBRANCH   7   9
ENDBRANCH   6   7
ENDBRANCH   5   6
ENDBRANCH   4   5
ENDBRANCH   3   4
ENDBRANCH   2   3
ENDBRANCH   1   2
BRANCH   1  74
ATOM     74  O   UNL     1       3.653  -1.961  -2.919  1.00  0.00    -0.377 OA
BRANCH  74  75
ATOM     75  C   UNL     1       5.009  -1.516  -2.981  1.00  0.00     0.188 C 
BRANCH  75  76
ATOM     76  C   UNL     1       5.331  -0.139  -3.586  1.00  0.00     0.188 C 
BRANCH  76  77
ATOM     77  O   UNL     1       4.248   0.764  -3.550  1.00  0.00    -0.376 OA
BRANCH  77  78
ATOM     78  C   UNL     1       3.560   1.038  -4.766  1.00  0.00     0.202 C 
BRANCH  78  79
ATOM     79  C   UNL     1       3.401  -0.031  -5.868  1.00  0.00     0.261 C 
BRANCH  79  80
ATOM     80  O   UNL     1       3.368  -1.404  -5.430  1.00  0.00    -0.462 OA
BRANCH  80  81
ATOM     81  C   UNL     1       4.338  -2.221  -5.909  1.00  0.00     0.329 C 
ATOM     82  O   UNL     1       5.251  -1.839  -6.643  1.00  0.00    -0.250 OA
BRANCH  81  83
ATOM     83  C   UNL     1       4.213  -3.714  -5.546  1.00  0.00     0.206 C 
BRANCH  83  84
ATOM     84  C   UNL     1       3.562  -4.372  -4.309  1.00  0.00     0.073 C 
BRANCH  84  85
ATOM     85  C   UNL     1       2.076  -4.528  -4.114  1.00  0.00    -0.045 A 
ATOM     86  C   UNL     1       1.159  -3.502  -4.338  1.00  0.00     0.004 A 
ATOM     87  C   UNL     1       1.619  -5.700  -3.481  1.00  0.00     0.004 A 
ATOM     88  C   UNL     1      -0.163  -3.619  -3.902  1.00  0.00     0.000 A 
ATOM     89  C   UNL     1       0.296  -5.824  -3.059  1.00  0.00     0.000 A 
ATOM     90  C   UNL     1      -0.592  -4.774  -3.256  1.00  0.00     0.000 A 
ENDBRANCH  84  85
ENDBRANCH  83  84
BRANCH  83  91
ATOM     91  N   UNL     1       4.049  -4.561  -6.733  1.00  0.00    -0.278 N 
ATOM     92  C   UNL     1       4.737  -5.769  -6.715  1.00  0.00     0.267 C 
ATOM     93  C   UNL     1       3.132  -4.376  -7.746  1.00  0.00     0.149 C 
ATOM     94  O   UNL     1       5.577  -6.127  -5.913  1.00  0.00    -0.268 OA
ATOM     95  C   UNL     1       4.244  -6.632  -7.802  1.00  0.00     0.081 C 
ATOM     96  S   UNL     1       3.156  -5.768  -8.810  1.00  0.00    -0.054 SA
ATOM     97  S   UNL     1       2.113  -3.098  -8.064  1.00  0.00    -0.052 S 
ATOM     98  C   UNL     1       4.615  -7.913  -7.904  1.00  0.00     0.029 C 
BRANCH  98  99
ATOM     99  C   UNL     1       4.203  -8.703  -9.056  1.00  0.00    -0.021 A 
ATOM    100  C   UNL     1       4.783  -8.410 -10.290  1.00  0.00     0.028 A 
ATOM    101  C   UNL     1       3.142  -9.598  -8.980  1.00  0.00     0.028 A 
ATOM    102  C   UNL     1       4.245  -8.996 -11.415  1.00  0.00     0.111 A 
ATOM    103  C   UNL     1       2.689 -10.147 -10.167  1.00  0.00     0.111 A 
ATOM    104  N   UNL     1       3.215  -9.867 -11.381  1.00  0.00    -0.265 NA
ENDBRANCH  98  99
ENDBRANCH  83  91
ENDBRANCH  81  83
ENDBRANCH  80  81
ENDBRANCH  79  80
ENDBRANCH  78  79
ENDBRANCH  77  78
ENDBRANCH  76  77
ENDBRANCH  75  76
ENDBRANCH  74  75
ENDBRANCH   1  74
TORSDOF 27
