REMARK SMILES O=C(CN(CC(F)(F)F)C(=O)[C@H]1C[C@H]2CC[C@@H]1[NH2+]2)OCCOCCOCCOCCOC(=O)c1ccc(-c2c3nc(c(-c4cccc(S(=O)(=O)[O-])c4F)c4ccc([nH]4)c(-c4cccc(S(=O)(=O)[O-])c4F)c4nc(c(-c5cccc(S(=O)(=O)[O-])c5F)c5ccc2[nH]5)C=C4)C=C3)cc1
REMARK SMILES IDX 25 1 24 2 23 3 22 4 21 5 20 6 19 7 2 8 1 9 3 10 4 11 5 12
REMARK SMILES IDX 6 13 7 14 8 15 9 16 10 17 11 18 12 19 13 20 17 21 14 22
REMARK SMILES IDX 16 23 18 24 15 25 26 28 27 29 28 30 29 31 30 32 31 33 32 34
REMARK SMILES IDX 33 35 34 36 35 37 96 38 36 39 95 40 37 41 38 42 39 43 89 44
REMARK SMILES IDX 40 45 94 46 88 47 90 48 41 49 93 50 87 51 86 52 42 54 74 55
REMARK SMILES IDX 54 56 73 57 55 58 58 59 72 60 91 61 56 62 57 63 71 65 92 66
REMARK SMILES IDX 59 67 43 68 44 69 52 70 45 71 47 72 53 73 46 74 48 75 49 76
REMARK SMILES IDX 50 77 51 78 75 79 76 80 84 81 77 82 79 83 85 84 78 85 80 86
REMARK SMILES IDX 81 87 82 88 83 89 60 90 61 91 69 92 62 93 64 94 70 95 63 96
REMARK SMILES IDX 65 97 66 98 67 99 68 100
REMARK H PARENT 18 26 18 27 90 53 58 64
REMARK Flexibility Score: inf
ROOT
ATOM      1  O   UNL     1       0.174  -0.800   7.767  1.00  0.00    -0.377 OA
ENDROOT
BRANCH   1   2
ATOM      2  C   UNL     1       1.426  -0.495   7.175  1.00  0.00     0.188 C 
BRANCH   2   3
ATOM      3  C   UNL     1       1.724   0.990   6.985  1.00  0.00     0.188 C 
BRANCH   3   4
ATOM      4  O   UNL     1       1.096   1.797   5.983  1.00  0.00    -0.376 OA
BRANCH   4   5
ATOM      5  C   UNL     1       0.674   1.351   4.706  1.00  0.00     0.202 C 
BRANCH   5   6
ATOM      6  C   UNL     1       1.698   0.873   3.685  1.00  0.00     0.261 C 
BRANCH   6   7
ATOM      7  O   UNL     1       2.871   0.288   4.243  1.00  0.00    -0.462 OA
BRANCH   7   8
ATOM      8  C   UNL     1       3.863   0.952   4.875  1.00  0.00     0.325 C 
ATOM      9  O   UNL     1       4.664   0.293   5.546  1.00  0.00    -0.250 OA
BRANCH   8  10
ATOM     10  C   UNL     1       3.876   2.503   4.971  1.00  0.00     0.242 C 
BRANCH  10  11
ATOM     11  N   UNL     1       3.546   3.295   3.785  1.00  0.00    -0.322 N 
BRANCH  11  12
ATOM     12  C   UNL     1       2.305   4.131   3.797  1.00  0.00     0.235 C 
BRANCH  12  13
ATOM     13  C   UNL     1       2.278   5.573   4.333  1.00  0.00     0.406 C 
ATOM     14  F   UNL     1       2.193   6.475   3.327  1.00  0.00    -0.169 F 
ATOM     15  F   UNL     1       1.182   5.774   5.105  1.00  0.00    -0.169 F 
ATOM     16  F   UNL     1       3.361   5.871   5.079  1.00  0.00    -0.169 F 
ENDBRANCH  12  13
ENDBRANCH  11  12
BRANCH  11  17
ATOM     17  C   UNL     1       4.439   3.057   2.763  1.00  0.00     0.232 C 
ATOM     18  O   UNL     1       5.167   2.056   2.822  1.00  0.00    -0.274 OA
BRANCH  17  19
ATOM     19  C   UNL     1       4.585   3.943   1.559  1.00  0.00     0.142 C 
ATOM     20  C   UNL     1       4.298   5.432   1.677  1.00  0.00     0.084 C 
ATOM     21  C   UNL     1       6.094   3.957   1.202  1.00  0.00     0.195 C 
ATOM     22  C   UNL     1       5.621   6.093   1.297  1.00  0.00     0.183 C 
ATOM     23  C   UNL     1       6.967   4.454   2.377  1.00  0.00     0.072 C 
ATOM     24  N   UNL     1       6.136   5.133   0.312  1.00  0.00    -0.341 N 
ATOM     25  C   UNL     1       6.596   5.934   2.467  1.00  0.00     0.071 C 
ATOM     26  H   UNL     1       7.082   5.358   0.001  1.00  0.00     0.346 HD
ATOM     27  H   UNL     1       5.636   5.064  -0.574  1.00  0.00     0.346 HD
ENDBRANCH  17  19
ENDBRANCH  11  17
ENDBRANCH  10  11
ENDBRANCH   8  10
ENDBRANCH   7   8
ENDBRANCH   6   7
ENDBRANCH   5   6
ENDBRANCH   4   5
ENDBRANCH   3   4
ENDBRANCH   2   3
ENDBRANCH   1   2
BRANCH   1  28
ATOM     28  C   UNL     1      -0.940  -0.377   7.008  1.00  0.00     0.188 C 
BRANCH  28  29
ATOM     29  C   UNL     1      -1.465   1.015   7.402  1.00  0.00     0.188 C 
BRANCH  29  30
ATOM     30  O   UNL     1      -0.738   1.746   8.369  1.00  0.00    -0.376 OA
BRANCH  30  31
ATOM     31  C   UNL     1      -0.556   1.290   9.700  1.00  0.00     0.202 C 
BRANCH  31  32
ATOM     32  C   UNL     1      -1.095  -0.014  10.329  1.00  0.00     0.261 C 
BRANCH  32  33
ATOM     33  O   UNL     1      -1.979  -0.841   9.576  1.00  0.00    -0.460 OA
BRANCH  33  34
ATOM     34  C   UNL     1      -3.276  -0.481   9.533  1.00  0.00     0.338 C 
ATOM     35  O   UNL     1      -3.791   0.461  10.117  1.00  0.00    -0.246 OA
BRANCH  34  36
ATOM     36  C   UNL     1      -3.918  -1.256   8.443  1.00  0.00     0.060 A 
ATOM     37  C   UNL     1      -4.595  -0.536   7.449  1.00  0.00     0.016 A 
ATOM     38  C   UNL     1      -3.771  -2.644   8.330  1.00  0.00     0.016 A 
ATOM     39  C   UNL     1      -5.167  -1.201   6.370  1.00  0.00     0.010 A 
ATOM     40  C   UNL     1      -4.379  -3.317   7.263  1.00  0.00     0.010 A 
ATOM     41  C   UNL     1      -5.119  -2.598   6.307  1.00  0.00    -0.014 A 
BRANCH  41  42
ATOM     42  C   UNL     1      -6.062  -3.280   5.391  1.00  0.00     0.031 A 
ATOM     43  C   UNL     1      -7.382  -3.733   5.957  1.00  0.00     0.074 A 
ATOM     44  C   UNL     1      -5.804  -3.406   4.078  1.00  0.00     0.049 A 
ATOM     45  N   UNL     1      -8.400  -4.281   5.349  1.00  0.00    -0.248 NA
ATOM     46  C   UNL     1      -7.582  -3.531   7.403  1.00  0.00     0.031 C 
ATOM     47  C   UNL     1      -4.571  -2.991   3.412  1.00  0.00     0.029 A 
ATOM     48  N   UNL     1      -6.573  -3.932   3.070  1.00  0.00    -0.354 N 
ATOM     49  C   UNL     1      -9.354  -4.498   6.336  1.00  0.00     0.074 A 
ATOM     50  C   UNL     1      -8.787  -4.047   7.586  1.00  0.00     0.031 C 
ATOM     51  C   UNL     1      -4.656  -3.305   2.106  1.00  0.00     0.029 A 
ATOM     52  C   UNL     1      -5.940  -3.956   1.851  1.00  0.00     0.049 A 
ATOM     53  H   UNL     1      -7.490  -4.260   3.208  1.00  0.00     0.167 HD
ATOM     54  C   UNL     1     -10.602  -5.007   6.212  1.00  0.00     0.034 A 
ATOM     55  C   UNL     1      -6.346  -4.468   0.671  1.00  0.00     0.034 A 
ATOM     56  C   UNL     1     -11.166  -5.455   4.968  1.00  0.00     0.049 A 
ATOM     57  C   UNL     1      -7.725  -5.069   0.568  1.00  0.00     0.074 A 
ATOM     58  C   UNL     1     -12.426  -5.976   4.734  1.00  0.00     0.029 A 
ATOM     59  N   UNL     1     -10.502  -5.450   3.752  1.00  0.00    -0.354 N 
ATOM     60  N   UNL     1      -8.654  -5.176   1.489  1.00  0.00    -0.248 NA
ATOM     61  C   UNL     1      -8.128  -5.583  -0.749  1.00  0.00     0.031 C 
ATOM     62  C   UNL     1     -12.512  -6.315   3.380  1.00  0.00     0.029 A 
ATOM     63  C   UNL     1     -11.322  -5.965   2.763  1.00  0.00     0.049 A 
ATOM     64  H   UNL     1      -9.583  -5.127   3.611  1.00  0.00     0.167 HD
ATOM     65  C   UNL     1      -9.757  -5.740   0.856  1.00  0.00     0.074 A 
ATOM     66  C   UNL     1      -9.393  -5.916  -0.535  1.00  0.00     0.031 C 
ATOM     67  C   UNL     1     -10.958  -6.098   1.376  1.00  0.00     0.034 A 
BRANCH  54  68
ATOM     68  C   UNL     1     -11.449  -5.089   7.454  1.00  0.00     0.023 A 
ATOM     69  C   UNL     1     -11.969  -3.908   8.024  1.00  0.00     0.012 A 
ATOM     70  C   UNL     1     -11.777  -6.334   8.022  1.00  0.00     0.148 A 
ATOM     71  C   UNL     1     -12.782  -3.964   9.155  1.00  0.00     0.002 A 
ATOM     72  C   UNL     1     -12.627  -6.385   9.120  1.00  0.00     0.091 A 
ATOM     73  F   UNL     1     -11.252  -7.442   7.480  1.00  0.00    -0.205 F 
ATOM     74  C   UNL     1     -13.121  -5.202   9.694  1.00  0.00     0.022 A 
BRANCH  72  75
ATOM     75  S   UNL     1     -13.187  -7.931   9.843  1.00  0.00     0.127 S 
ATOM     76  O   UNL     1     -12.568  -7.879  11.167  1.00  0.00    -0.237 OA
ATOM     77  O   UNL     1     -14.639  -7.758   9.842  1.00  0.00    -0.237 OA
ATOM     78  O   UNL     1     -12.695  -8.987   8.971  1.00  0.00    -0.744 OA
ENDBRANCH  72  75
ENDBRANCH  54  68
BRANCH  55  79
ATOM     79  C   UNL     1      -5.440  -4.440  -0.513  1.00  0.00     0.023 A 
ATOM     80  C   UNL     1      -5.771  -3.667  -1.642  1.00  0.00     0.012 A 
ATOM     81  C   UNL     1      -4.254  -5.200  -0.526  1.00  0.00     0.148 A 
ATOM     82  C   UNL     1      -4.961  -3.686  -2.779  1.00  0.00     0.002 A 
ATOM     83  C   UNL     1      -3.420  -5.165  -1.636  1.00  0.00     0.091 A 
ATOM     84  F   UNL     1      -3.966  -5.946   0.550  1.00  0.00    -0.205 F 
ATOM     85  C   UNL     1      -3.782  -4.427  -2.773  1.00  0.00     0.022 A 
BRANCH  83  86
ATOM     86  S   UNL     1      -1.819  -5.976  -1.658  1.00  0.00     0.127 S 
ATOM     87  O   UNL     1      -2.048  -7.067  -2.601  1.00  0.00    -0.237 OA
ATOM     88  O   UNL     1      -0.949  -4.906  -2.148  1.00  0.00    -0.237 OA
ATOM     89  O   UNL     1      -1.562  -6.372  -0.280  1.00  0.00    -0.744 OA
ENDBRANCH  83  86
ENDBRANCH  55  79
BRANCH  67  90
ATOM     90  C   UNL     1     -11.978  -6.681   0.431  1.00  0.00     0.023 A 
ATOM     91  C   UNL     1     -11.774  -7.959  -0.128  1.00  0.00     0.012 A 
ATOM     92  C   UNL     1     -13.158  -5.974   0.121  1.00  0.00     0.148 A 
ATOM     93  C   UNL     1     -12.697  -8.499  -1.023  1.00  0.00     0.002 A 
ATOM     94  C   UNL     1     -14.100  -6.543  -0.727  1.00  0.00     0.091 A 
ATOM     95  F   UNL     1     -13.332  -4.755   0.651  1.00  0.00    -0.205 F 
ATOM     96  C   UNL     1     -13.863  -7.796  -1.315  1.00  0.00     0.022 A 
BRANCH  94  97
ATOM     97  S   UNL     1     -15.674  -5.755  -1.083  1.00  0.00     0.127 S 
ATOM     98  O   UNL     1     -15.477  -5.306  -2.460  1.00  0.00    -0.237 OA
ATOM     99  O   UNL     1     -16.617  -6.863  -0.931  1.00  0.00    -0.237 OA
ATOM    100  O   UNL     1     -15.824  -4.695  -0.095  1.00  0.00    -0.744 OA
ENDBRANCH  94  97
ENDBRANCH  67  90
ENDBRANCH  41  42
ENDBRANCH  34  36
ENDBRANCH  33  34
ENDBRANCH  32  33
ENDBRANCH  31  32
ENDBRANCH  30  31
ENDBRANCH  29  30
ENDBRANCH  28  29
ENDBRANCH   1  28
TORSDOF 28
