REMARK SMILES COc1cccc(-c2c(C(=O)OCCOCCOCCOCCOC(=O)c3ccc(-c4c5nc(c(-c6cccc(S(=O)(=O)[O-])c6F)c6ccc([nH]6)c(-c6cccc(S(=O)(=O)[O-])c6F)c6nc(c(-c7cccc(S(=O)(=O)[O-])c7F)c7ccc4[nH]7)C=C6)C=C5)cc3)nnn2-c2ccc(OC(F)(F)F)cc2)c1
REMARK SMILES IDX 18 1 17 2 16 3 15 4 14 5 13 6 12 7 10 8 11 9 9 10 8 11 92 12
REMARK SMILES IDX 90 13 91 14 7 15 3 16 4 17 104 18 5 19 6 20 2 21 1 22 93 23
REMARK SMILES IDX 94 24 103 25 95 26 102 27 96 28 97 29 98 30 99 31 100 32
REMARK SMILES IDX 101 33 19 34 20 35 21 36 22 37 23 38 24 39 25 40 26 41 27 42
REMARK SMILES IDX 28 43 89 44 29 45 88 46 30 47 31 48 32 49 82 50 33 51 87 52
REMARK SMILES IDX 81 53 83 54 34 55 86 56 80 57 79 58 35 60 67 61 47 62 66 63
REMARK SMILES IDX 48 64 51 65 65 66 84 67 49 68 50 69 64 71 85 72 52 73 36 74
REMARK SMILES IDX 37 75 45 76 38 77 40 78 46 79 39 80 41 81 42 82 43 83 44 84
REMARK SMILES IDX 68 85 69 86 77 87 70 88 72 89 78 90 71 91 73 92 74 93 75 94
REMARK SMILES IDX 76 95 53 96 54 97 62 98 55 99 57 100 63 101 56 102 58 103
REMARK SMILES IDX 59 104 60 105 61 106
REMARK H PARENT 83 59 51 70
REMARK Flexibility Score: inf
ROOT
ATOM      1  O   UNL     1       2.670  -1.473  -5.833  1.00  0.00    -0.377 OA
ENDROOT
BRANCH   1   2
ATOM      2  C   UNL     1       4.024  -1.734  -5.508  1.00  0.00     0.188 C 
BRANCH   2   3
ATOM      3  C   UNL     1       4.732  -2.698  -6.489  1.00  0.00     0.188 C 
BRANCH   3   4
ATOM      4  O   UNL     1       4.093  -3.208  -7.660  1.00  0.00    -0.376 OA
BRANCH   4   5
ATOM      5  C   UNL     1       2.691  -3.413  -7.726  1.00  0.00     0.202 C 
BRANCH   5   6
ATOM      6  C   UNL     1       2.003  -4.357  -6.732  1.00  0.00     0.261 C 
BRANCH   6   7
ATOM      7  O   UNL     1       2.446  -4.243  -5.378  1.00  0.00    -0.458 OA
BRANCH   7   8
ATOM      8  C   UNL     1       3.404  -5.130  -4.995  1.00  0.00     0.361 C 
ATOM      9  O   UNL     1       3.764  -6.093  -5.664  1.00  0.00    -0.244 OA
BRANCH   8  10
ATOM     10  C   UNL     1       4.046  -4.754  -3.746  1.00  0.00     0.198 A 
ATOM     11  C   UNL     1       3.509  -4.214  -2.581  1.00  0.00     0.109 A 
ATOM     12  N   UNL     1       4.619  -4.185  -1.738  1.00  0.00    -0.212 N 
ATOM     13  N   UNL     1       5.420  -4.788  -3.637  1.00  0.00    -0.122 NA
ATOM     14  N   UNL     1       5.756  -4.298  -2.456  1.00  0.00    -0.061 NA
BRANCH  11  15
ATOM     15  C   UNL     1       2.156  -3.806  -2.177  1.00  0.00     0.007 A 
ATOM     16  C   UNL     1       0.691  -2.361  -0.866  1.00  0.00     0.119 A 
ATOM     17  C   UNL     1      -0.394  -3.169  -1.196  1.00  0.00     0.046 A 
ATOM     18  C   UNL     1       1.960  -2.669  -1.362  1.00  0.00     0.056 A 
ATOM     19  C   UNL     1      -0.225  -4.260  -2.044  1.00  0.00     0.005 A 
ATOM     20  C   UNL     1       1.045  -4.580  -2.530  1.00  0.00     0.011 A 
BRANCH  16  21
ATOM     21  O   UNL     1       0.430  -1.365   0.033  1.00  0.00    -0.497 OA
ATOM     22  C   UNL     1       1.060  -0.115  -0.241  1.00  0.00     0.278 C 
ENDBRANCH  16  21
ENDBRANCH  11  15
BRANCH  12  23
ATOM     23  C   UNL     1       4.659  -4.295  -0.331  1.00  0.00     0.067 A 
ATOM     24  C   UNL     1       5.671  -3.674   0.401  1.00  0.00     0.032 A 
ATOM     25  C   UNL     1       3.710  -5.097   0.312  1.00  0.00     0.032 A 
ATOM     26  C   UNL     1       5.688  -3.817   1.791  1.00  0.00     0.049 A 
ATOM     27  C   UNL     1       3.762  -5.269   1.693  1.00  0.00     0.049 A 
ATOM     28  C   UNL     1       4.740  -4.618   2.444  1.00  0.00     0.129 A 
BRANCH  28  29
ATOM     29  O   UNL     1       4.878  -4.683   3.801  1.00  0.00    -0.406 OA
BRANCH  29  30
ATOM     30  C   UNL     1       3.966  -5.510   4.506  1.00  0.00     0.573 C 
ATOM     31  F   UNL     1       2.688  -5.119   4.317  1.00  0.00    -0.132 F 
ATOM     32  F   UNL     1       4.098  -6.803   4.132  1.00  0.00    -0.132 F 
ATOM     33  F   UNL     1       4.237  -5.433   5.828  1.00  0.00    -0.132 F 
ENDBRANCH  29  30
ENDBRANCH  28  29
ENDBRANCH  12  23
ENDBRANCH   8  10
ENDBRANCH   7   8
ENDBRANCH   6   7
ENDBRANCH   5   6
ENDBRANCH   4   5
ENDBRANCH   3   4
ENDBRANCH   2   3
ENDBRANCH   1   2
BRANCH   1  34
ATOM     34  C   UNL     1       2.452  -0.242  -6.515  1.00  0.00     0.188 C 
BRANCH  34  35
ATOM     35  C   UNL     1       3.334   0.054  -7.756  1.00  0.00     0.188 C 
BRANCH  35  36
ATOM     36  O   UNL     1       4.733  -0.148  -7.550  1.00  0.00    -0.376 OA
BRANCH  36  37
ATOM     37  C   UNL     1       5.619   0.962  -7.476  1.00  0.00     0.202 C 
BRANCH  37  38
ATOM     38  C   UNL     1       5.596   1.722  -6.152  1.00  0.00     0.261 C 
BRANCH  38  39
ATOM     39  O   UNL     1       4.282   2.086  -5.777  1.00  0.00    -0.460 OA
BRANCH  39  40
ATOM     40  C   UNL     1       3.624   2.873  -6.647  1.00  0.00     0.338 C 
ATOM     41  O   UNL     1       4.043   3.334  -7.700  1.00  0.00    -0.246 OA
BRANCH  40  42
ATOM     42  C   UNL     1       2.283   3.120  -6.111  1.00  0.00     0.060 A 
ATOM     43  C   UNL     1       1.477   3.941  -6.902  1.00  0.00     0.016 A 
ATOM     44  C   UNL     1       2.148   3.015  -4.723  1.00  0.00     0.016 A 
ATOM     45  C   UNL     1       0.848   4.976  -6.267  1.00  0.00     0.010 A 
ATOM     46  C   UNL     1       1.600   4.087  -4.098  1.00  0.00     0.010 A 
ATOM     47  C   UNL     1       1.064   5.098  -4.896  1.00  0.00    -0.014 A 
BRANCH  47  48
ATOM     48  C   UNL     1       0.846   6.379  -4.280  1.00  0.00     0.031 A 
ATOM     49  C   UNL     1      -0.481   6.481  -3.651  1.00  0.00     0.074 A 
ATOM     50  C   UNL     1       1.877   7.238  -4.172  1.00  0.00     0.049 A 
ATOM     51  N   UNL     1      -1.488   7.196  -4.027  1.00  0.00    -0.248 NA
ATOM     52  C   UNL     1      -0.805   5.476  -2.623  1.00  0.00     0.031 C 
ATOM     53  C   UNL     1       3.296   6.984  -4.468  1.00  0.00     0.029 A 
ATOM     54  N   UNL     1       1.900   8.461  -3.591  1.00  0.00    -0.354 N 
ATOM     55  C   UNL     1      -2.486   6.876  -3.112  1.00  0.00     0.074 A 
ATOM     56  C   UNL     1      -2.124   5.616  -2.534  1.00  0.00     0.031 C 
ATOM     57  C   UNL     1       4.048   7.900  -3.817  1.00  0.00     0.029 A 
ATOM     58  C   UNL     1       3.162   8.842  -3.156  1.00  0.00     0.049 A 
ATOM     59  H   UNL     1       1.100   9.025  -3.488  1.00  0.00     0.167 HD
ATOM     60  C   UNL     1      -3.328   7.821  -2.617  1.00  0.00     0.034 A 
ATOM     61  C   UNL     1       3.421   9.773  -2.205  1.00  0.00     0.034 A 
ATOM     62  C   UNL     1      -3.303   9.013  -3.421  1.00  0.00     0.049 A 
ATOM     63  C   UNL     1       2.171  10.549  -1.993  1.00  0.00     0.074 A 
ATOM     64  C   UNL     1      -3.573   9.298  -4.744  1.00  0.00     0.029 A 
ATOM     65  N   UNL     1      -2.567  10.068  -2.936  1.00  0.00    -0.354 N 
ATOM     66  N   UNL     1       1.637  11.329  -2.893  1.00  0.00    -0.248 NA
ATOM     67  C   UNL     1       1.266  10.101  -0.944  1.00  0.00     0.031 C 
ATOM     68  C   UNL     1      -2.631  10.302  -5.105  1.00  0.00     0.029 A 
ATOM     69  C   UNL     1      -1.863  10.609  -3.978  1.00  0.00     0.049 A 
ATOM     70  H   UNL     1      -2.549  10.380  -2.003  1.00  0.00     0.167 HD
ATOM     71  C   UNL     1       0.265  11.126  -2.769  1.00  0.00     0.074 A 
ATOM     72  C   UNL     1       0.096  10.450  -1.486  1.00  0.00     0.031 C 
ATOM     73  C   UNL     1      -0.567  11.245  -3.846  1.00  0.00     0.034 A 
BRANCH  60  74
ATOM     74  C   UNL     1      -3.881   7.814  -1.210  1.00  0.00     0.023 A 
ATOM     75  C   UNL     1      -4.884   8.761  -0.921  1.00  0.00     0.012 A 
ATOM     76  C   UNL     1      -3.326   7.119  -0.106  1.00  0.00     0.148 A 
ATOM     77  C   UNL     1      -5.282   9.030   0.392  1.00  0.00     0.002 A 
ATOM     78  C   UNL     1      -3.792   7.320   1.186  1.00  0.00     0.091 A 
ATOM     79  F   UNL     1      -2.239   6.358  -0.252  1.00  0.00    -0.205 F 
ATOM     80  C   UNL     1      -4.747   8.300   1.446  1.00  0.00     0.022 A 
BRANCH  78  81
ATOM     81  S   UNL     1      -3.161   6.347   2.560  1.00  0.00     0.127 S 
ATOM     82  O   UNL     1      -2.219   7.279   3.172  1.00  0.00    -0.237 OA
ATOM     83  O   UNL     1      -4.376   6.092   3.334  1.00  0.00    -0.237 OA
ATOM     84  O   UNL     1      -2.584   5.152   1.954  1.00  0.00    -0.744 OA
ENDBRANCH  78  81
ENDBRANCH  60  74
BRANCH  61  85
ATOM     85  C   UNL     1       4.554   9.816  -1.251  1.00  0.00     0.023 A 
ATOM     86  C   UNL     1       4.934  11.040  -0.670  1.00  0.00     0.012 A 
ATOM     87  C   UNL     1       5.125   8.629  -0.733  1.00  0.00     0.148 A 
ATOM     88  C   UNL     1       5.846  11.081   0.392  1.00  0.00     0.002 A 
ATOM     89  C   UNL     1       6.047   8.676   0.307  1.00  0.00     0.091 A 
ATOM     90  F   UNL     1       4.695   7.448  -1.199  1.00  0.00    -0.205 F 
ATOM     91  C   UNL     1       6.404   9.902   0.880  1.00  0.00     0.022 A 
BRANCH  89  92
ATOM     92  S   UNL     1       6.804   7.190   0.982  1.00  0.00     0.127 S 
ATOM     93  O   UNL     1       8.219   7.561   1.021  1.00  0.00    -0.237 OA
ATOM     94  O   UNL     1       6.160   7.089   2.288  1.00  0.00    -0.237 OA
ATOM     95  O   UNL     1       6.493   6.122   0.039  1.00  0.00    -0.744 OA
ENDBRANCH  89  92
ENDBRANCH  61  85
BRANCH  73  96
ATOM     96  C   UNL     1      -0.008  11.838  -5.117  1.00  0.00     0.023 A 
ATOM     97  C   UNL     1       0.981  11.177  -5.876  1.00  0.00     0.012 A 
ATOM     98  C   UNL     1      -0.663  12.949  -5.675  1.00  0.00     0.148 A 
ATOM     99  C   UNL     1       1.312  11.617  -7.160  1.00  0.00     0.002 A 
ATOM    100  C   UNL     1      -0.370  13.349  -6.973  1.00  0.00     0.091 A 
ATOM    101  F   UNL     1      -1.603  13.563  -4.941  1.00  0.00    -0.205 F 
ATOM    102  C   UNL     1       0.623  12.691  -7.716  1.00  0.00     0.022 A 
BRANCH 100 103
ATOM    103  S   UNL     1      -1.335  14.616  -7.802  1.00  0.00     0.127 S 
ATOM    104  O   UNL     1      -0.421  15.756  -7.783  1.00  0.00    -0.237 OA
ATOM    105  O   UNL     1      -1.554  14.028  -9.125  1.00  0.00    -0.237 OA
ATOM    106  O   UNL     1      -2.551  14.771  -7.013  1.00  0.00    -0.744 OA
ENDBRANCH 100 103
ENDBRANCH  73  96
ENDBRANCH  47  48
ENDBRANCH  40  42
ENDBRANCH  39  40
ENDBRANCH  38  39
ENDBRANCH  37  38
ENDBRANCH  36  37
ENDBRANCH  35  36
ENDBRANCH  34  35
ENDBRANCH   1  34
TORSDOF 28
