REMARK SMILES C[NH+](C)CCc1nc(Nc2ccc(O)c(C(=O)OCCOCCOCCOCCOC(=O)c3ccc(-c4c5nc(c(-c6cccc(S(=O)(=O)[O-])c6F)c6ccc([nH]6)c(-c6cccc(S(=O)(=O)[O-])c6F)c6nc(c(-c7cccc(S(=O)(=O)[O-])c7F)c7ccc4[nH]7)C=C6)C=C5)cc3)c2)c2ccccc2n1
REMARK SMILES IDX 23 1 22 2 21 3 20 4 19 5 18 6 16 7 17 8 15 9 10 10 11 11
REMARK SMILES IDX 96 12 12 13 13 14 9 15 8 17 6 18 7 19 103 20 102 21 97 22
REMARK SMILES IDX 101 23 98 24 100 25 99 26 5 27 4 28 2 29 1 30 3 31 14 33
REMARK SMILES IDX 24 35 25 36 26 37 27 38 28 39 29 40 30 41 31 42 32 43 33 44
REMARK SMILES IDX 34 45 95 46 35 47 94 48 36 49 37 50 38 51 88 52 39 53 93 54
REMARK SMILES IDX 87 55 89 56 40 57 92 58 86 59 85 60 41 62 73 63 53 64 72 65
REMARK SMILES IDX 54 66 57 67 71 68 90 69 55 70 56 71 70 73 91 74 58 75 42 76
REMARK SMILES IDX 43 77 51 78 44 79 46 80 52 81 45 82 47 83 48 84 49 85 50 86
REMARK SMILES IDX 74 87 75 88 83 89 76 90 78 91 84 92 77 93 79 94 80 95 81 96
REMARK SMILES IDX 82 97 59 98 60 99 68 100 61 101 63 102 69 103 62 104 64 105
REMARK SMILES IDX 65 106 66 107 67 108
REMARK H PARENT 9 16 2 32 14 34 89 61 57 72
REMARK Flexibility Score: inf
ROOT
ATOM      1  C   UNL     1      -4.117   5.867  -6.292  1.00  0.00     0.188 C 
ENDROOT
BRANCH   1   2
ATOM      2  C   UNL     1      -3.096   5.849  -7.462  1.00  0.00     0.188 C 
BRANCH   2   3
ATOM      3  O   UNL     1      -3.654   5.854  -8.763  1.00  0.00    -0.376 OA
BRANCH   3   4
ATOM      4  C   UNL     1      -3.572   4.696  -9.570  1.00  0.00     0.202 C 
BRANCH   4   5
ATOM      5  C   UNL     1      -4.283   3.430  -9.083  1.00  0.00     0.261 C 
BRANCH   5   6
ATOM      6  O   UNL     1      -4.124   3.158  -7.691  1.00  0.00    -0.460 OA
BRANCH   6   7
ATOM      7  C   UNL     1      -2.985   2.546  -7.302  1.00  0.00     0.342 C 
ATOM      8  O   UNL     1      -2.038   2.257  -8.017  1.00  0.00    -0.246 OA
BRANCH   7   9
ATOM      9  C   UNL     1      -2.941   2.546  -5.821  1.00  0.00     0.103 A 
ATOM     10  C   UNL     1      -1.673   3.147  -3.836  1.00  0.00     0.041 A 
ATOM     11  C   UNL     1      -2.748   2.727  -3.044  1.00  0.00     0.030 A 
ATOM     12  C   UNL     1      -1.770   3.036  -5.226  1.00  0.00     0.045 A 
ATOM     13  C   UNL     1      -3.929   2.261  -3.631  1.00  0.00     0.049 A 
ATOM     14  C   UNL     1      -4.026   2.178  -5.019  1.00  0.00     0.130 A 
BRANCH  10  15
ATOM     15  N   UNL     1      -0.442   3.516  -3.248  1.00  0.00    -0.340 N 
ATOM     16  H   UNL     1      -0.240   4.471  -3.120  1.00  0.00     0.168 HD
BRANCH  15  17
ATOM     17  C   UNL     1       0.510   2.551  -2.837  1.00  0.00     0.142 A 
ATOM     18  C   UNL     1       1.081   0.331  -2.668  1.00  0.00     0.137 A 
ATOM     19  N   UNL     1       0.183   1.258  -3.004  1.00  0.00    -0.215 NA
ATOM     20  N   UNL     1       2.317   0.603  -2.224  1.00  0.00    -0.233 NA
ATOM     21  C   UNL     1       2.612   1.883  -1.987  1.00  0.00     0.076 A 
ATOM     22  C   UNL     1       1.728   2.937  -2.257  1.00  0.00     0.043 A 
ATOM     23  C   UNL     1       3.839   2.170  -1.407  1.00  0.00     0.029 A 
ATOM     24  C   UNL     1       2.106   4.263  -1.923  1.00  0.00     0.014 A 
ATOM     25  C   UNL     1       4.208   3.473  -1.068  1.00  0.00     0.002 A 
ATOM     26  C   UNL     1       3.338   4.524  -1.325  1.00  0.00     0.001 A 
BRANCH  18  27
ATOM     27  C   UNL     1       0.623  -1.096  -2.713  1.00  0.00     0.138 C 
BRANCH  27  28
ATOM     28  C   UNL     1       0.931  -1.895  -1.433  1.00  0.00     0.269 C 
BRANCH  28  29
ATOM     29  N   UNL     1       0.287  -1.545  -0.151  1.00  0.00    -0.339 N 
ATOM     30  C   UNL     1       0.782  -0.299   0.429  1.00  0.00     0.332 C 
ATOM     31  C   UNL     1      -1.171  -1.532  -0.228  1.00  0.00     0.332 C 
ATOM     32  H   UNL     1       0.557  -2.300   0.480  1.00  0.00     0.347 HD
ENDBRANCH  28  29
ENDBRANCH  27  28
ENDBRANCH  18  27
ENDBRANCH  15  17
ENDBRANCH  10  15
BRANCH  14  33
ATOM     33  O   UNL     1      -5.179   1.721  -5.588  1.00  0.00    -0.507 OA
ATOM     34  H   UNL     1      -5.903   1.475  -5.046  1.00  0.00     0.293 HD
ENDBRANCH  14  33
ENDBRANCH   7   9
ENDBRANCH   6   7
ENDBRANCH   5   6
ENDBRANCH   4   5
ENDBRANCH   3   4
ENDBRANCH   2   3
ENDBRANCH   1   2
BRANCH   1  35
ATOM     35  O   UNL     1      -5.479   6.259  -6.426  1.00  0.00    -0.377 OA
BRANCH  35  36
ATOM     36  C   UNL     1      -5.977   6.617  -7.705  1.00  0.00     0.188 C 
BRANCH  36  37
ATOM     37  C   UNL     1      -5.389   7.921  -8.277  1.00  0.00     0.188 C 
BRANCH  37  38
ATOM     38  O   UNL     1      -4.293   8.416  -7.516  1.00  0.00    -0.376 OA
BRANCH  38  39
ATOM     39  C   UNL     1      -4.555   9.457  -6.589  1.00  0.00     0.202 C 
BRANCH  39  40
ATOM     40  C   UNL     1      -5.645   9.277  -5.518  1.00  0.00     0.261 C 
BRANCH  40  41
ATOM     41  O   UNL     1      -6.941   8.854  -5.961  1.00  0.00    -0.460 OA
BRANCH  41  42
ATOM     42  C   UNL     1      -7.641   9.681  -6.768  1.00  0.00     0.338 C 
ATOM     43  O   UNL     1      -7.303  10.775  -7.169  1.00  0.00    -0.246 OA
BRANCH  42  44
ATOM     44  C   UNL     1      -8.822   8.922  -7.239  1.00  0.00     0.060 A 
ATOM     45  C   UNL     1      -8.976   8.675  -8.610  1.00  0.00     0.016 A 
ATOM     46  C   UNL     1      -9.756   8.433  -6.322  1.00  0.00     0.016 A 
ATOM     47  C   UNL     1     -10.084   7.964  -9.070  1.00  0.00     0.010 A 
ATOM     48  C   UNL     1     -10.876   7.742  -6.787  1.00  0.00     0.010 A 
ATOM     49  C   UNL     1     -11.063   7.534  -8.165  1.00  0.00    -0.014 A 
BRANCH  49  50
ATOM     50  C   UNL     1     -12.373   7.054  -8.665  1.00  0.00     0.031 A 
ATOM     51  C   UNL     1     -13.519   8.028  -8.692  1.00  0.00     0.074 A 
ATOM     52  C   UNL     1     -12.549   5.786  -9.074  1.00  0.00     0.049 A 
ATOM     53  N   UNL     1     -14.766   7.834  -9.031  1.00  0.00    -0.248 NA
ATOM     54  C   UNL     1     -13.216   9.409  -8.275  1.00  0.00     0.031 C 
ATOM     55  C   UNL     1     -11.514   4.755  -9.107  1.00  0.00     0.029 A 
ATOM     56  N   UNL     1     -13.680   5.145  -9.516  1.00  0.00    -0.354 N 
ATOM     57  C   UNL     1     -15.403   9.054  -8.838  1.00  0.00     0.074 A 
ATOM     58  C   UNL     1     -14.409   9.979  -8.342  1.00  0.00     0.031 C 
ATOM     59  C   UNL     1     -12.066   3.599  -9.517  1.00  0.00     0.029 A 
ATOM     60  C   UNL     1     -13.495   3.802  -9.747  1.00  0.00     0.049 A 
ATOM     61  H   UNL     1     -14.540   5.603  -9.655  1.00  0.00     0.167 HD
ATOM     62  C   UNL     1     -16.697   9.379  -9.064  1.00  0.00     0.034 A 
ATOM     63  C   UNL     1     -14.386   2.845 -10.077  1.00  0.00     0.034 A 
ATOM     64  C   UNL     1     -17.680   8.459  -9.565  1.00  0.00     0.049 A 
ATOM     65  C   UNL     1     -15.832   3.224 -10.286  1.00  0.00     0.074 A 
ATOM     66  C   UNL     1     -19.008   8.702  -9.868  1.00  0.00     0.029 A 
ATOM     67  N   UNL     1     -17.449   7.117  -9.820  1.00  0.00    -0.354 N 
ATOM     68  N   UNL     1     -16.398   4.404 -10.206  1.00  0.00    -0.248 NA
ATOM     69  C   UNL     1     -16.756   2.143 -10.661  1.00  0.00     0.031 C 
ATOM     70  C   UNL     1     -19.590   7.495 -10.268  1.00  0.00     0.029 A 
ATOM     71  C   UNL     1     -18.613   6.512 -10.260  1.00  0.00     0.049 A 
ATOM     72  H   UNL     1     -16.585   6.660  -9.704  1.00  0.00     0.167 HD
ATOM     73  C   UNL     1     -17.730   4.216 -10.561  1.00  0.00     0.074 A 
ATOM     74  C   UNL     1     -17.883   2.810 -10.871  1.00  0.00     0.031 C 
ATOM     75  C   UNL     1     -18.738   5.122 -10.617  1.00  0.00     0.034 A 
BRANCH  62  76
ATOM     76  C   UNL     1     -17.120  10.795  -8.775  1.00  0.00     0.023 A 
ATOM     77  C   UNL     1     -16.681  11.844  -9.609  1.00  0.00     0.012 A 
ATOM     78  C   UNL     1     -17.988  11.081  -7.704  1.00  0.00     0.148 A 
ATOM     79  C   UNL     1     -17.071  13.160  -9.359  1.00  0.00     0.002 A 
ATOM     80  C   UNL     1     -18.412  12.387  -7.491  1.00  0.00     0.091 A 
ATOM     81  F   UNL     1     -18.375  10.073  -6.908  1.00  0.00    -0.205 F 
ATOM     82  C   UNL     1     -17.943  13.429  -8.308  1.00  0.00     0.022 A 
BRANCH  80  83
ATOM     83  S   UNL     1     -19.597  12.825  -6.215  1.00  0.00     0.127 S 
ATOM     84  O   UNL     1     -18.762  13.585  -5.285  1.00  0.00    -0.237 OA
ATOM     85  O   UNL     1     -20.566  13.628  -6.960  1.00  0.00    -0.237 OA
ATOM     86  O   UNL     1     -20.117  11.567  -5.699  1.00  0.00    -0.744 OA
ENDBRANCH  80  83
ENDBRANCH  62  76
BRANCH  63  87
ATOM     87  C   UNL     1     -13.940   1.434 -10.255  1.00  0.00     0.023 A 
ATOM     88  C   UNL     1     -13.970   0.849 -11.536  1.00  0.00     0.012 A 
ATOM     89  C   UNL     1     -13.486   0.669  -9.162  1.00  0.00     0.148 A 
ATOM     90  C   UNL     1     -13.591  -0.482 -11.720  1.00  0.00     0.002 A 
ATOM     91  C   UNL     1     -13.057  -0.637  -9.362  1.00  0.00     0.091 A 
ATOM     92  F   UNL     1     -13.480   1.238  -7.949  1.00  0.00    -0.205 F 
ATOM     93  C   UNL     1     -13.126  -1.221 -10.636  1.00  0.00     0.022 A 
BRANCH  91  94
ATOM     94  S   UNL     1     -12.330  -1.625  -8.050  1.00  0.00     0.127 S 
ATOM     95  O   UNL     1     -13.342  -2.660  -7.858  1.00  0.00    -0.237 OA
ATOM     96  O   UNL     1     -11.088  -2.085  -8.674  1.00  0.00    -0.237 OA
ATOM     97  O   UNL     1     -12.138  -0.715  -6.929  1.00  0.00    -0.744 OA
ENDBRANCH  91  94
ENDBRANCH  63  87
BRANCH  75  98
ATOM     98  C   UNL     1     -20.091   4.644 -11.082  1.00  0.00     0.023 A 
ATOM     99  C   UNL     1     -20.875   3.818 -10.253  1.00  0.00     0.012 A 
ATOM    100  C   UNL     1     -20.617   5.085 -12.313  1.00  0.00     0.148 A 
ATOM    101  C   UNL     1     -22.146   3.409 -10.657  1.00  0.00     0.002 A 
ATOM    102  C   UNL     1     -21.905   4.719 -12.685  1.00  0.00     0.091 A 
ATOM    103  F   UNL     1     -19.851   5.859 -13.095  1.00  0.00    -0.205 F 
ATOM    104  C   UNL     1     -22.665   3.869 -11.866  1.00  0.00     0.022 A 
BRANCH 102 105
ATOM    105  S   UNL     1     -22.695   5.344 -14.173  1.00  0.00     0.127 S 
ATOM    106  O   UNL     1     -22.745   4.146 -15.009  1.00  0.00    -0.237 OA
ATOM    107  O   UNL     1     -23.994   5.791 -13.668  1.00  0.00    -0.237 OA
ATOM    108  O   UNL     1     -21.837   6.413 -14.666  1.00  0.00    -0.744 OA
ENDBRANCH 102 105
ENDBRANCH  75  98
ENDBRANCH  49  50
ENDBRANCH  42  44
ENDBRANCH  41  42
ENDBRANCH  40  41
ENDBRANCH  39  40
ENDBRANCH  38  39
ENDBRANCH  37  38
ENDBRANCH  36  37
ENDBRANCH  35  36
ENDBRANCH   1  35
TORSDOF 29
