REMARK SMILES Cn1cnnc1S[C@@H]1CCC[C@]([NH3+])(C(=O)OCCOCCOCCOCCOC(=O)c2ccc(-c3c4nc(c(-c5cccc(S(=O)(=O)[O-])c5F)c5ccc([nH]5)c(-c5cccc(S(=O)(=O)[O-])c5F)c5nc(c(-c6cccc(S(=O)(=O)[O-])c6F)c6ccc3[nH]6)C=C5)C=C4)cc2)C1
REMARK SMILES IDX 23 1 22 2 21 3 20 4 19 5 18 6 17 7 16 8 14 9 15 10 12 11
REMARK SMILES IDX 8 12 9 13 94 14 10 15 11 16 7 17 6 18 1 19 2 20 3 21 4 22
REMARK SMILES IDX 5 23 13 24 24 28 25 29 26 30 27 31 28 32 29 33 30 34 31 35
REMARK SMILES IDX 32 36 93 37 33 38 92 39 34 40 35 41 36 42 86 43 37 44 91 45
REMARK SMILES IDX 85 46 87 47 38 48 90 49 84 50 83 51 39 53 71 54 51 55 70 56
REMARK SMILES IDX 52 57 55 58 69 59 88 60 53 61 54 62 68 64 89 65 56 66 40 67
REMARK SMILES IDX 41 68 49 69 42 70 44 71 50 72 43 73 45 74 46 75 47 76 48 77
REMARK SMILES IDX 72 78 73 79 81 80 74 81 76 82 82 83 75 84 77 85 78 86 79 87
REMARK SMILES IDX 80 88 57 89 58 90 66 91 59 92 61 93 67 94 60 95 62 96 63 97
REMARK SMILES IDX 64 98 65 99
REMARK H PARENT 13 25 13 26 13 27 87 52 55 63
REMARK Flexibility Score: inf
ROOT
ATOM      1  C   UNL     1       7.484   1.651  -2.694  1.00  0.00     0.188 C 
ENDROOT
BRANCH   1   2
ATOM      2  O   UNL     1       6.503   0.638  -2.527  1.00  0.00    -0.377 OA
BRANCH   2   3
ATOM      3  C   UNL     1       6.980  -0.686  -2.445  1.00  0.00     0.188 C 
BRANCH   3   4
ATOM      4  C   UNL     1       6.897  -1.518  -3.731  1.00  0.00     0.188 C 
BRANCH   4   5
ATOM      5  O   UNL     1       6.410  -0.975  -4.949  1.00  0.00    -0.376 OA
BRANCH   5   6
ATOM      6  C   UNL     1       5.482   0.097  -4.971  1.00  0.00     0.202 C 
BRANCH   6   7
ATOM      7  C   UNL     1       4.126   0.012  -4.240  1.00  0.00     0.261 C 
BRANCH   7   8
ATOM      8  O   UNL     1       4.098  -0.559  -2.918  1.00  0.00    -0.459 OA
BRANCH   8   9
ATOM      9  C   UNL     1       3.886  -1.894  -2.876  1.00  0.00     0.368 C 
ATOM     10  O   UNL     1       3.752  -2.605  -3.872  1.00  0.00    -0.245 OA
BRANCH   9  11
ATOM     11  C   UNL     1       3.756  -2.492  -1.436  1.00  0.00     0.193 C 
ATOM     12  C   UNL     1       1.808  -2.877   0.222  1.00  0.00     0.061 C 
ATOM     13  C   UNL     1       2.637  -2.351   1.391  1.00  0.00     0.015 C 
ATOM     14  C   UNL     1       2.234  -2.529  -1.202  1.00  0.00     0.096 C 
ATOM     15  C   UNL     1       4.123  -2.329   1.110  1.00  0.00     0.008 C 
ATOM     16  C   UNL     1       4.472  -1.778  -0.270  1.00  0.00     0.081 C 
BRANCH  12  17
ATOM     17  S   UNL     1       0.065  -2.544   0.539  1.00  0.00    -0.082 SA
BRANCH  17  18
ATOM     18  C   UNL     1      -0.412  -0.925   0.143  1.00  0.00     0.191 A 
ATOM     19  C   UNL     1       1.635   0.656   0.170  1.00  0.00     0.153 C 
ATOM     20  N   UNL     1       0.256   0.273   0.091  1.00  0.00    -0.312 N 
ATOM     21  C   UNL     1      -0.714   1.227  -0.096  1.00  0.00     0.226 A 
ATOM     22  N   UNL     1      -1.886   0.655  -0.197  1.00  0.00    -0.138 NA
ATOM     23  N   UNL     1      -1.696  -0.691  -0.050  1.00  0.00    -0.124 NA
ENDBRANCH  17  18
ENDBRANCH  12  17
BRANCH  11  24
ATOM     24  N   UNL     1       4.341  -3.869  -1.483  1.00  0.00    -0.343 N 
ATOM     25  H   UNL     1       4.277  -4.298  -0.559  1.00  0.00     0.345 HD
ATOM     26  H   UNL     1       5.320  -3.813  -1.764  1.00  0.00     0.345 HD
ATOM     27  H   UNL     1       3.826  -4.435  -2.157  1.00  0.00     0.345 HD
ENDBRANCH  11  24
ENDBRANCH   9  11
ENDBRANCH   8   9
ENDBRANCH   7   8
ENDBRANCH   6   7
ENDBRANCH   5   6
ENDBRANCH   4   5
ENDBRANCH   3   4
ENDBRANCH   2   3
ENDBRANCH   1   2
BRANCH   1  28
ATOM     28  C   UNL     1       8.666   1.318  -3.624  1.00  0.00     0.188 C 
BRANCH  28  29
ATOM     29  O   UNL     1       9.340   0.109  -3.292  1.00  0.00    -0.376 OA
BRANCH  29  30
ATOM     30  C   UNL     1      10.494   0.162  -2.466  1.00  0.00     0.202 C 
BRANCH  30  31
ATOM     31  C   UNL     1      10.344   0.668  -1.020  1.00  0.00     0.261 C 
BRANCH  31  32
ATOM     32  O   UNL     1       9.823   1.994  -0.848  1.00  0.00    -0.460 OA
BRANCH  32  33
ATOM     33  C   UNL     1      10.451   3.011  -1.472  1.00  0.00     0.338 C 
ATOM     34  O   UNL     1      11.484   2.946  -2.121  1.00  0.00    -0.246 OA
BRANCH  33  35
ATOM     35  C   UNL     1       9.556   4.186  -1.431  1.00  0.00     0.060 A 
ATOM     36  C   UNL     1       9.155   4.771  -2.641  1.00  0.00     0.016 A 
ATOM     37  C   UNL     1       9.108   4.703  -0.213  1.00  0.00     0.016 A 
ATOM     38  C   UNL     1       8.341   5.902  -2.635  1.00  0.00     0.010 A 
ATOM     39  C   UNL     1       8.314   5.853  -0.208  1.00  0.00     0.010 A 
ATOM     40  C   UNL     1       7.962   6.479  -1.417  1.00  0.00    -0.014 A 
BRANCH  40  41
ATOM     41  C   UNL     1       7.391   7.846  -1.407  1.00  0.00     0.031 A 
ATOM     42  C   UNL     1       8.313   8.999  -1.119  1.00  0.00     0.074 A 
ATOM     43  C   UNL     1       6.089   8.067  -1.658  1.00  0.00     0.049 A 
ATOM     44  N   UNL     1       8.043  10.273  -1.021  1.00  0.00    -0.248 NA
ATOM     45  C   UNL     1       9.732   8.665  -0.909  1.00  0.00     0.031 C 
ATOM     46  C   UNL     1       5.101   7.039  -1.976  1.00  0.00     0.029 A 
ATOM     47  N   UNL     1       5.373   9.238  -1.661  1.00  0.00    -0.354 N 
ATOM     48  C   UNL     1       9.247  10.889  -0.701  1.00  0.00     0.074 A 
ATOM     49  C   UNL     1      10.248   9.849  -0.614  1.00  0.00     0.031 C 
ATOM     50  C   UNL     1       3.898   7.622  -2.116  1.00  0.00     0.029 A 
ATOM     51  C   UNL     1       4.026   9.057  -1.867  1.00  0.00     0.049 A 
ATOM     52  H   UNL     1       5.784  10.123  -1.527  1.00  0.00     0.167 HD
ATOM     53  C   UNL     1       9.501  12.204  -0.504  1.00  0.00     0.034 A 
ATOM     54  C   UNL     1       3.013   9.946  -1.830  1.00  0.00     0.034 A 
ATOM     55  C   UNL     1       8.507  13.237  -0.601  1.00  0.00     0.049 A 
ATOM     56  C   UNL     1       3.312  11.399  -1.564  1.00  0.00     0.074 A 
ATOM     57  C   UNL     1       8.674  14.604  -0.470  1.00  0.00     0.029 A 
ATOM     58  N   UNL     1       7.157  13.018  -0.829  1.00  0.00    -0.354 N 
ATOM     59  N   UNL     1       4.470  11.982  -1.369  1.00  0.00    -0.248 NA
ATOM     60  C   UNL     1       2.167  12.321  -1.542  1.00  0.00     0.031 C 
ATOM     61  C   UNL     1       7.416  15.208  -0.570  1.00  0.00     0.029 A 
ATOM     62  C   UNL     1       6.474  14.222  -0.817  1.00  0.00     0.049 A 
ATOM     63  H   UNL     1       6.745  12.137  -0.977  1.00  0.00     0.167 HD
ATOM     64  C   UNL     1       4.198  13.341  -1.245  1.00  0.00     0.074 A 
ATOM     65  C   UNL     1       2.766  13.495  -1.400  1.00  0.00     0.031 C 
ATOM     66  C   UNL     1       5.055  14.368  -1.017  1.00  0.00     0.034 A 
BRANCH  53  67
ATOM     67  C   UNL     1      10.912  12.596  -0.152  1.00  0.00     0.023 A 
ATOM     68  C   UNL     1      11.934  12.509  -1.119  1.00  0.00     0.012 A 
ATOM     69  C   UNL     1      11.216  13.083   1.134  1.00  0.00     0.148 A 
ATOM     70  C   UNL     1      13.244  12.864  -0.800  1.00  0.00     0.002 A 
ATOM     71  C   UNL     1      12.513  13.482   1.429  1.00  0.00     0.091 A 
ATOM     72  F   UNL     1      10.236  13.133   2.048  1.00  0.00    -0.205 F 
ATOM     73  C   UNL     1      13.531  13.360   0.469  1.00  0.00     0.022 A 
BRANCH  71  74
ATOM     74  S   UNL     1      12.964  14.209   3.008  1.00  0.00     0.127 S 
ATOM     75  O   UNL     1      13.781  13.149   3.597  1.00  0.00    -0.237 OA
ATOM     76  O   UNL     1      13.712  15.397   2.595  1.00  0.00    -0.237 OA
ATOM     77  O   UNL     1      11.712  14.488   3.695  1.00  0.00    -0.744 OA
ENDBRANCH  71  74
ENDBRANCH  53  67
BRANCH  54  78
ATOM     78  C   UNL     1       1.615   9.489  -2.068  1.00  0.00     0.023 A 
ATOM     79  C   UNL     1       0.935   9.894  -3.233  1.00  0.00     0.012 A 
ATOM     80  C   UNL     1       0.964   8.642  -1.151  1.00  0.00     0.148 A 
ATOM     81  C   UNL     1      -0.379   9.487  -3.466  1.00  0.00     0.002 A 
ATOM     82  C   UNL     1      -0.322   8.190  -1.420  1.00  0.00     0.091 A 
ATOM     83  F   UNL     1       1.624   8.280  -0.042  1.00  0.00    -0.205 F 
ATOM     84  C   UNL     1      -1.004   8.627  -2.566  1.00  0.00     0.022 A 
BRANCH  82  85
ATOM     85  S   UNL     1      -1.144   6.968  -0.393  1.00  0.00     0.127 S 
ATOM     86  O   UNL     1      -2.261   7.737   0.150  1.00  0.00    -0.237 OA
ATOM     87  O   UNL     1      -1.508   5.951  -1.379  1.00  0.00    -0.237 OA
ATOM     88  O   UNL     1      -0.149   6.528   0.577  1.00  0.00    -0.744 OA
ENDBRANCH  82  85
ENDBRANCH  54  78
BRANCH  66  89
ATOM     89  C   UNL     1       4.486  15.764  -0.973  1.00  0.00     0.023 A 
ATOM     90  C   UNL     1       3.689  16.173   0.115  1.00  0.00     0.012 A 
ATOM     91  C   UNL     1       4.808  16.696  -1.981  1.00  0.00     0.148 A 
ATOM     92  C   UNL     1       3.193  17.475   0.180  1.00  0.00     0.002 A 
ATOM     93  C   UNL     1       4.357  18.006  -1.881  1.00  0.00     0.091 A 
ATOM     94  F   UNL     1       5.555  16.284  -3.016  1.00  0.00    -0.205 F 
ATOM     95  C   UNL     1       3.537  18.393  -0.810  1.00  0.00     0.022 A 
BRANCH  93  96
ATOM     96  S   UNL     1       4.832  19.282  -3.053  1.00  0.00     0.127 S 
ATOM     97  O   UNL     1       3.572  19.528  -3.752  1.00  0.00    -0.237 OA
ATOM     98  O   UNL     1       5.262  20.366  -2.170  1.00  0.00    -0.237 OA
ATOM     99  O   UNL     1       5.895  18.707  -3.867  1.00  0.00    -0.744 OA
ENDBRANCH  93  96
ENDBRANCH  66  89
ENDBRANCH  40  41
ENDBRANCH  33  35
ENDBRANCH  32  33
ENDBRANCH  31  32
ENDBRANCH  30  31
ENDBRANCH  29  30
ENDBRANCH  28  29
ENDBRANCH   1  28
TORSDOF 26
