REMARK SMILES Cc1c(Cl)cc2c(c1C)O[C@@H](C(F)(F)F)C(C(=O)OCCOCCOCCOCCOC(=O)c1ccc(-c3c4nc(c(-c5cccc(S(=O)(=O)[O-])c5F)c5ccc([nH]5)c(-c5cccc(S(=O)(=O)[O-])c5F)c5nc(c(-c6cccc(S(=O)(=O)[O-])c6F)c6ccc3[nH]6)C=C5)C=C4)cc1)=C2
REMARK SMILES IDX 26 1 25 2 24 3 23 4 22 5 21 6 20 7 19 8 17 9 18 10 16 11
REMARK SMILES IDX 1 12 2 13 3 14 8 15 4 16 5 17 7 18 9 19 6 20 10 21 97 22
REMARK SMILES IDX 11 23 12 24 13 25 14 26 15 27 27 28 28 29 29 30 30 31 31 32
REMARK SMILES IDX 32 33 33 34 34 35 35 36 96 37 36 38 95 39 37 40 38 41 39 42
REMARK SMILES IDX 89 43 40 44 94 45 88 46 90 47 41 48 93 49 87 50 86 51 42 53
REMARK SMILES IDX 74 54 54 55 73 56 55 57 58 58 72 59 91 60 56 61 57 62 71 64
REMARK SMILES IDX 92 65 59 66 43 67 44 68 52 69 45 70 47 71 53 72 46 73 48 74
REMARK SMILES IDX 49 75 50 76 51 77 75 78 76 79 84 80 77 81 79 82 85 83 78 84
REMARK SMILES IDX 80 85 81 86 82 87 83 88 60 89 61 90 69 91 62 92 64 93 70 94
REMARK SMILES IDX 63 95 65 96 66 97 67 98 68 99
REMARK H PARENT 90 52 58 63
REMARK Flexibility Score: inf
ROOT
ATOM      1  C   UNL     1       1.022  -3.431   9.878  1.00  0.00     0.188 C 
ENDROOT
BRANCH   1   2
ATOM      2  O   UNL     1       1.422  -2.759   8.694  1.00  0.00    -0.377 OA
BRANCH   2   3
ATOM      3  C   UNL     1       0.556  -1.778   8.140  1.00  0.00     0.188 C 
BRANCH   3   4
ATOM      4  C   UNL     1      -0.629  -1.137   8.902  1.00  0.00     0.188 C 
BRANCH   4   5
ATOM      5  O   UNL     1      -1.171  -1.929   9.942  1.00  0.00    -0.376 OA
BRANCH   5   6
ATOM      6  C   UNL     1      -2.443  -2.527   9.809  1.00  0.00     0.202 C 
BRANCH   6   7
ATOM      7  C   UNL     1      -2.639  -3.616   8.745  1.00  0.00     0.261 C 
BRANCH   7   8
ATOM      8  O   UNL     1      -1.938  -3.407   7.514  1.00  0.00    -0.460 OA
BRANCH   8   9
ATOM      9  C   UNL     1      -2.546  -2.643   6.592  1.00  0.00     0.338 C 
ATOM     10  O   UNL     1      -3.629  -2.093   6.714  1.00  0.00    -0.246 OA
BRANCH   9  11
ATOM     11  C   UNL     1      -1.627  -2.409   5.461  1.00  0.00     0.087 C 
ATOM     12  C   UNL     1       1.061   0.068   0.075  1.00  0.00     0.046 C 
ATOM     13  C   UNL     1       0.500  -0.248   1.438  1.00  0.00    -0.026 A 
ATOM     14  C   UNL     1       0.133   0.782   2.327  1.00  0.00     0.045 A 
ATOM     15  C   UNL     1       0.335  -1.595   1.854  1.00  0.00    -0.004 A 
ATOM     16  Cl  UNL     1       0.367   2.457   1.955  1.00  0.00    -0.084 Cl
ATOM     17  C   UNL     1      -0.463   0.493   3.555  1.00  0.00     0.032 A 
ATOM     18  C   UNL     1      -0.313  -1.869   3.077  1.00  0.00     0.131 A 
ATOM     19  C   UNL     1       0.832  -2.766   1.042  1.00  0.00     0.049 C 
ATOM     20  C   UNL     1      -0.719  -0.829   3.914  1.00  0.00     0.019 A 
ATOM     21  O   UNL     1      -0.609  -3.183   3.349  1.00  0.00    -0.475 OA
ATOM     22  C   UNL     1      -1.498  -1.124   5.102  1.00  0.00     0.027 C 
ATOM     23  C   UNL     1      -0.969  -3.547   4.718  1.00  0.00     0.316 C 
BRANCH  23  24
ATOM     24  C   UNL     1       0.269  -4.201   5.369  1.00  0.00     0.430 C 
ATOM     25  F   UNL     1       1.293  -3.323   5.494  1.00  0.00    -0.167 F 
ATOM     26  F   UNL     1       0.010  -4.717   6.588  1.00  0.00    -0.167 F 
ATOM     27  F   UNL     1       0.723  -5.225   4.604  1.00  0.00    -0.167 F 
ENDBRANCH  23  24
ENDBRANCH   9  11
ENDBRANCH   8   9
ENDBRANCH   7   8
ENDBRANCH   6   7
ENDBRANCH   5   6
ENDBRANCH   4   5
ENDBRANCH   3   4
ENDBRANCH   2   3
ENDBRANCH   1   2
BRANCH   1  28
ATOM     28  C   UNL     1       1.216  -2.565  11.137  1.00  0.00     0.188 C 
BRANCH  28  29
ATOM     29  O   UNL     1       1.562  -1.222  10.827  1.00  0.00    -0.376 OA
BRANCH  29  30
ATOM     30  C   UNL     1       2.934  -0.898  10.655  1.00  0.00     0.202 C 
BRANCH  30  31
ATOM     31  C   UNL     1       3.959  -1.829   9.970  1.00  0.00     0.261 C 
BRANCH  31  32
ATOM     32  O   UNL     1       3.895  -3.238  10.229  1.00  0.00    -0.460 OA
BRANCH  32  33
ATOM     33  C   UNL     1       4.223  -3.693  11.453  1.00  0.00     0.338 C 
ATOM     34  O   UNL     1       4.586  -3.030  12.412  1.00  0.00    -0.246 OA
BRANCH  33  35
ATOM     35  C   UNL     1       3.860  -5.128  11.486  1.00  0.00     0.060 A 
ATOM     36  C   UNL     1       2.840  -5.557  12.346  1.00  0.00     0.016 A 
ATOM     37  C   UNL     1       4.495  -6.040  10.638  1.00  0.00     0.016 A 
ATOM     38  C   UNL     1       2.470  -6.902  12.379  1.00  0.00     0.010 A 
ATOM     39  C   UNL     1       4.145  -7.393  10.694  1.00  0.00     0.010 A 
ATOM     40  C   UNL     1       3.154  -7.834  11.588  1.00  0.00    -0.014 A 
BRANCH  40  41
ATOM     41  C   UNL     1       2.982  -9.282  11.858  1.00  0.00     0.031 A 
ATOM     42  C   UNL     1       3.976  -9.953  12.766  1.00  0.00     0.074 A 
ATOM     43  C   UNL     1       1.958  -9.982  11.337  1.00  0.00     0.049 A 
ATOM     44  N   UNL     1       4.040 -11.200  13.147  1.00  0.00    -0.248 NA
ATOM     45  C   UNL     1       5.041  -9.098  13.322  1.00  0.00     0.031 C 
ATOM     46  C   UNL     1       0.918  -9.438  10.467  1.00  0.00     0.029 A 
ATOM     47  N   UNL     1       1.636 -11.312  11.459  1.00  0.00    -0.354 N 
ATOM     48  C   UNL     1       5.155 -11.285  13.971  1.00  0.00     0.074 A 
ATOM     49  C   UNL     1       5.753  -9.970  14.020  1.00  0.00     0.031 C 
ATOM     50  C   UNL     1       0.080 -10.430  10.119  1.00  0.00     0.029 A 
ATOM     51  C   UNL     1       0.538 -11.684  10.719  1.00  0.00     0.049 A 
ATOM     52  H   UNL     1       2.143 -11.939  12.023  1.00  0.00     0.167 HD
ATOM     53  C   UNL     1       5.628 -12.357  14.647  1.00  0.00     0.034 A 
ATOM     54  C   UNL     1      -0.020 -12.899  10.536  1.00  0.00     0.034 A 
ATOM     55  C   UNL     1       5.026 -13.661  14.607  1.00  0.00     0.049 A 
ATOM     56  C   UNL     1       0.563 -14.093  11.252  1.00  0.00     0.074 A 
ATOM     57  C   UNL     1       5.417 -14.805  15.277  1.00  0.00     0.029 A 
ATOM     58  N   UNL     1       3.916 -13.998  13.848  1.00  0.00    -0.354 N 
ATOM     59  N   UNL     1       1.556 -14.139  12.108  1.00  0.00    -0.248 NA
ATOM     60  C   UNL     1      -0.067 -15.399  11.000  1.00  0.00     0.031 C 
ATOM     61  C   UNL     1       4.565 -15.844  14.896  1.00  0.00     0.029 A 
ATOM     62  C   UNL     1       3.618 -15.338  14.020  1.00  0.00     0.049 A 
ATOM     63  H   UNL     1       3.414 -13.377  13.273  1.00  0.00     0.167 HD
ATOM     64  C   UNL     1       1.650 -15.466  12.519  1.00  0.00     0.074 A 
ATOM     65  C   UNL     1       0.598 -16.189  11.834  1.00  0.00     0.031 C 
ATOM     66  C   UNL     1       2.536 -16.037  13.373  1.00  0.00     0.034 A 
BRANCH  53  67
ATOM     67  C   UNL     1       6.842 -12.164  15.516  1.00  0.00     0.023 A 
ATOM     68  C   UNL     1       6.726 -11.439  16.720  1.00  0.00     0.012 A 
ATOM     69  C   UNL     1       8.071 -12.767  15.187  1.00  0.00     0.148 A 
ATOM     70  C   UNL     1       7.820 -11.300  17.572  1.00  0.00     0.002 A 
ATOM     71  C   UNL     1       9.143 -12.665  16.065  1.00  0.00     0.091 A 
ATOM     72  F   UNL     1       8.166 -13.431  14.026  1.00  0.00    -0.205 F 
ATOM     73  C   UNL     1       9.023 -11.923  17.252  1.00  0.00     0.022 A 
BRANCH  71  74
ATOM     74  S   UNL     1      10.707 -13.505  15.790  1.00  0.00     0.127 S 
ATOM     75  O   UNL     1      11.617 -12.377  15.593  1.00  0.00    -0.237 OA
ATOM     76  O   UNL     1      10.892 -14.224  17.050  1.00  0.00    -0.237 OA
ATOM     77  O   UNL     1      10.511 -14.354  14.624  1.00  0.00    -0.744 OA
ENDBRANCH  71  74
ENDBRANCH  53  67
BRANCH  54  78
ATOM     78  C   UNL     1      -1.228 -13.040   9.671  1.00  0.00     0.023 A 
ATOM     79  C   UNL     1      -2.462 -13.385  10.255  1.00  0.00     0.012 A 
ATOM     80  C   UNL     1      -1.171 -12.802   8.283  1.00  0.00     0.148 A 
ATOM     81  C   UNL     1      -3.611 -13.511   9.473  1.00  0.00     0.002 A 
ATOM     82  C   UNL     1      -2.331 -12.870   7.519  1.00  0.00     0.091 A 
ATOM     83  F   UNL     1       0.015 -12.493   7.740  1.00  0.00    -0.205 F 
ATOM     84  C   UNL     1      -3.549 -13.242   8.109  1.00  0.00     0.022 A 
BRANCH  82  85
ATOM     85  S   UNL     1      -2.379 -12.407   5.784  1.00  0.00     0.127 S 
ATOM     86  O   UNL     1      -2.726 -13.674   5.144  1.00  0.00    -0.237 OA
ATOM     87  O   UNL     1      -3.441 -11.400   5.774  1.00  0.00    -0.237 OA
ATOM     88  O   UNL     1      -1.054 -11.890   5.474  1.00  0.00    -0.744 OA
ENDBRANCH  82  85
ENDBRANCH  54  78
BRANCH  66  89
ATOM     89  C   UNL     1       2.418 -17.516  13.648  1.00  0.00     0.023 A 
ATOM     90  C   UNL     1       2.793 -18.442  12.655  1.00  0.00     0.012 A 
ATOM     91  C   UNL     1       2.070 -17.983  14.932  1.00  0.00     0.148 A 
ATOM     92  C   UNL     1       2.807 -19.809  12.929  1.00  0.00     0.002 A 
ATOM     93  C   UNL     1       2.138 -19.343  15.214  1.00  0.00     0.091 A 
ATOM     94  F   UNL     1       1.706 -17.087  15.861  1.00  0.00    -0.205 F 
ATOM     95  C   UNL     1       2.495 -20.258  14.211  1.00  0.00     0.022 A 
BRANCH  93  96
ATOM     96  S   UNL     1       1.865 -20.008  16.861  1.00  0.00     0.127 S 
ATOM     97  O   UNL     1       0.633 -20.773  16.673  1.00  0.00    -0.237 OA
ATOM     98  O   UNL     1       3.062 -20.822  17.067  1.00  0.00    -0.237 OA
ATOM     99  O   UNL     1       1.750 -18.858  17.748  1.00  0.00    -0.744 OA
ENDBRANCH  93  96
ENDBRANCH  66  89
ENDBRANCH  40  41
ENDBRANCH  33  35
ENDBRANCH  32  33
ENDBRANCH  31  32
ENDBRANCH  30  31
ENDBRANCH  29  30
ENDBRANCH  28  29
ENDBRANCH   1  28
TORSDOF 24
