REMARK SMILES NS(=O)(=O)c1ccc(-c2coc(=O)n2-c2ccc(C(=O)OCCOCCOCCOCCOC(=O)c3ccc(-c4c5nc(c(-c6cccc(S(=O)(=O)[O-])c6F)c6ccc([nH]6)c(-c6cccc(S(=O)(=O)[O-])c6F)c6nc(c(-c7cccc(S(=O)(=O)[O-])c7F)c7ccc4[nH]7)C=C6)C=C5)cc3)cc2)cc1
REMARK SMILES IDX 26 1 25 2 24 3 23 4 22 5 21 6 19 7 20 8 18 9 15 10 16 11
REMARK SMILES IDX 100 12 17 13 99 14 14 15 9 16 10 17 11 18 12 19 13 20 8 21
REMARK SMILES IDX 5 22 6 23 102 24 7 25 101 26 2 27 3 28 4 29 1 30 27 33 28 34
REMARK SMILES IDX 29 35 30 36 31 37 32 38 33 39 34 40 35 41 36 42 37 43 98 44
REMARK SMILES IDX 38 45 97 46 39 47 40 48 41 49 91 50 42 51 96 52 90 53 92 54
REMARK SMILES IDX 43 55 95 56 89 57 88 58 44 60 76 61 56 62 75 63 57 64 60 65
REMARK SMILES IDX 74 66 93 67 58 68 59 69 73 71 94 72 61 73 45 74 46 75 54 76
REMARK SMILES IDX 47 77 49 78 55 79 48 80 50 81 51 82 52 83 53 84 77 85 78 86
REMARK SMILES IDX 86 87 79 88 81 89 87 90 80 91 82 92 83 93 84 94 85 95 62 96
REMARK SMILES IDX 63 97 71 98 64 99 66 100 72 101 65 102 67 103 68 104 69 105
REMARK SMILES IDX 70 106
REMARK H PARENT 1 31 1 32 92 59 60 70
REMARK Flexibility Score: inf
ROOT
ATOM      1  C   UNL     1       7.528  -6.460   2.057  1.00  0.00     0.188 C 
ENDROOT
BRANCH   1   2
ATOM      2  C   UNL     1       6.687  -7.264   1.040  1.00  0.00     0.188 C 
BRANCH   2   3
ATOM      3  O   UNL     1       6.955  -7.244  -0.358  1.00  0.00    -0.376 OA
BRANCH   3   4
ATOM      4  C   UNL     1       7.361  -6.069  -1.040  1.00  0.00     0.202 C 
BRANCH   4   5
ATOM      5  C   UNL     1       6.699  -4.699  -0.823  1.00  0.00     0.261 C 
BRANCH   5   6
ATOM      6  O   UNL     1       6.070  -4.485   0.437  1.00  0.00    -0.460 OA
BRANCH   6   7
ATOM      7  C   UNL     1       4.765  -4.820   0.500  1.00  0.00     0.338 C 
ATOM      8  O   UNL     1       4.049  -5.200  -0.410  1.00  0.00    -0.246 OA
BRANCH   7   9
ATOM      9  C   UNL     1       4.359  -4.818   1.921  1.00  0.00     0.060 A 
ATOM     10  C   UNL     1       3.411  -4.814   4.531  1.00  0.00     0.053 A 
ATOM     11  C   UNL     1       3.179  -5.929   3.724  1.00  0.00     0.028 A 
ATOM     12  C   UNL     1       4.232  -3.769   4.074  1.00  0.00     0.028 A 
ATOM     13  C   UNL     1       3.615  -5.906   2.402  1.00  0.00     0.018 A 
ATOM     14  C   UNL     1       4.728  -3.778   2.775  1.00  0.00     0.018 A 
BRANCH  10  15
ATOM     15  N   UNL     1       2.617  -4.613   5.674  1.00  0.00    -0.242 N 
ATOM     16  C   UNL     1       1.778  -3.554   5.894  1.00  0.00     0.095 A 
ATOM     17  C   UNL     1       1.197  -3.788   7.064  1.00  0.00     0.228 A 
ATOM     18  O   UNL     1       1.580  -4.989   7.663  1.00  0.00    -0.415 OA
ATOM     19  C   UNL     1       2.452  -5.522   6.711  1.00  0.00     0.424 A 
ATOM     20  O   UNL     1       2.956  -6.631   6.824  1.00  0.00    -0.223 OA
BRANCH  16  21
ATOM     21  C   UNL     1       1.438  -2.533   4.900  1.00  0.00     0.002 A 
ATOM     22  C   UNL     1       0.884  -0.637   2.910  1.00  0.00     0.082 A 
ATOM     23  C   UNL     1       0.710  -1.991   2.631  1.00  0.00     0.022 A 
ATOM     24  C   UNL     1       1.322  -0.220   4.172  1.00  0.00     0.022 A 
ATOM     25  C   UNL     1       0.976  -2.929   3.629  1.00  0.00     0.012 A 
ATOM     26  C   UNL     1       1.595  -1.169   5.166  1.00  0.00     0.012 A 
BRANCH  22  27
ATOM     27  S   UNL     1       0.554   0.556   1.648  1.00  0.00     0.238 S 
ATOM     28  O   UNL     1       1.258   1.783   1.958  1.00  0.00    -0.207 OA
ATOM     29  O   UNL     1      -0.853   0.524   1.344  1.00  0.00    -0.207 OA
BRANCH  27  30
ATOM     30  N   UNL     1       1.343  -0.074   0.305  1.00  0.00    -0.225 NA
ATOM     31  H   UNL     1       1.211   0.551  -0.490  1.00  0.00     0.137 HD
ATOM     32  H   UNL     1       0.957  -0.992   0.084  1.00  0.00     0.137 HD
ENDBRANCH  27  30
ENDBRANCH  22  27
ENDBRANCH  16  21
ENDBRANCH  10  15
ENDBRANCH   7   9
ENDBRANCH   6   7
ENDBRANCH   5   6
ENDBRANCH   4   5
ENDBRANCH   3   4
ENDBRANCH   2   3
ENDBRANCH   1   2
BRANCH   1  33
ATOM     33  O   UNL     1       8.451  -5.567   1.455  1.00  0.00    -0.377 OA
BRANCH  33  34
ATOM     34  C   UNL     1       9.787  -6.055   1.347  1.00  0.00     0.188 C 
BRANCH  34  35
ATOM     35  C   UNL     1       9.993  -7.486   0.782  1.00  0.00     0.188 C 
BRANCH  35  36
ATOM     36  O   UNL     1       9.078  -8.460   1.273  1.00  0.00    -0.376 OA
BRANCH  36  37
ATOM     37  C   UNL     1       9.447  -9.462   2.205  1.00  0.00     0.202 C 
BRANCH  37  38
ATOM     38  C   UNL     1       9.815  -9.016   3.614  1.00  0.00     0.261 C 
BRANCH  38  39
ATOM     39  O   UNL     1      10.619  -7.859   3.625  1.00  0.00    -0.460 OA
BRANCH  39  40
ATOM     40  C   UNL     1      11.857  -8.022   3.124  1.00  0.00     0.338 C 
ATOM     41  O   UNL     1      12.298  -8.988   2.528  1.00  0.00    -0.246 OA
BRANCH  40  42
ATOM     42  C   UNL     1      12.638  -6.851   3.515  1.00  0.00     0.060 A 
ATOM     43  C   UNL     1      13.944  -6.810   3.030  1.00  0.00     0.016 A 
ATOM     44  C   UNL     1      12.216  -6.160   4.659  1.00  0.00     0.016 A 
ATOM     45  C   UNL     1      14.908  -6.349   3.885  1.00  0.00     0.010 A 
ATOM     46  C   UNL     1      13.179  -5.756   5.531  1.00  0.00     0.010 A 
ATOM     47  C   UNL     1      14.507  -5.956   5.163  1.00  0.00    -0.014 A 
BRANCH  47  48
ATOM     48  C   UNL     1      15.524  -5.675   6.138  1.00  0.00     0.031 A 
ATOM     49  C   UNL     1      16.061  -4.314   5.965  1.00  0.00     0.074 A 
ATOM     50  C   UNL     1      15.779  -6.551   7.127  1.00  0.00     0.049 A 
ATOM     51  N   UNL     1      17.230  -3.979   5.530  1.00  0.00    -0.248 NA
ATOM     52  C   UNL     1      15.097  -3.200   6.020  1.00  0.00     0.031 C 
ATOM     53  C   UNL     1      15.028  -7.766   7.465  1.00  0.00     0.029 A 
ATOM     54  N   UNL     1      16.664  -6.444   8.149  1.00  0.00    -0.354 N 
ATOM     55  C   UNL     1      17.212  -2.587   5.546  1.00  0.00     0.074 A 
ATOM     56  C   UNL     1      15.831  -2.205   5.527  1.00  0.00     0.031 C 
ATOM     57  C   UNL     1      15.312  -8.116   8.739  1.00  0.00     0.029 A 
ATOM     58  C   UNL     1      16.333  -7.220   9.254  1.00  0.00     0.049 A 
ATOM     59  H   UNL     1      17.465  -5.871   8.112  1.00  0.00     0.167 HD
ATOM     60  C   UNL     1      18.298  -1.894   5.979  1.00  0.00     0.034 A 
ATOM     61  C   UNL     1      16.783  -7.036  10.521  1.00  0.00     0.034 A 
ATOM     62  C   UNL     1      19.480  -2.726   5.940  1.00  0.00     0.049 A 
ATOM     63  C   UNL     1      17.980  -6.163  10.439  1.00  0.00     0.074 A 
ATOM     64  C   UNL     1      20.138  -3.444   4.962  1.00  0.00     0.029 A 
ATOM     65  N   UNL     1      19.919  -3.222   7.145  1.00  0.00    -0.354 N 
ATOM     66  N   UNL     1      19.103  -6.526   9.885  1.00  0.00    -0.248 NA
ATOM     67  C   UNL     1      17.783  -4.726  10.566  1.00  0.00     0.031 C 
ATOM     68  C   UNL     1      20.622  -4.613   5.619  1.00  0.00     0.029 A 
ATOM     69  C   UNL     1      20.291  -4.526   6.973  1.00  0.00     0.049 A 
ATOM     70  H   UNL     1      19.958  -2.721   7.991  1.00  0.00     0.167 HD
ATOM     71  C   UNL     1      19.523  -5.400   9.185  1.00  0.00     0.074 A 
ATOM     72  C   UNL     1      18.743  -4.296   9.741  1.00  0.00     0.031 C 
ATOM     73  C   UNL     1      20.226  -5.524   8.020  1.00  0.00     0.034 A 
BRANCH  60  74
ATOM     74  C   UNL     1      18.225  -0.665   6.873  1.00  0.00     0.023 A 
ATOM     75  C   UNL     1      19.462  -0.079   7.221  1.00  0.00     0.012 A 
ATOM     76  C   UNL     1      17.094  -0.239   7.615  1.00  0.00     0.148 A 
ATOM     77  C   UNL     1      19.586   0.785   8.313  1.00  0.00     0.002 A 
ATOM     78  C   UNL     1      17.212   0.665   8.663  1.00  0.00     0.091 A 
ATOM     79  F   UNL     1      15.893  -0.772   7.407  1.00  0.00    -0.205 F 
ATOM     80  C   UNL     1      18.462   1.151   9.041  1.00  0.00     0.022 A 
BRANCH  78  81
ATOM     81  S   UNL     1      15.779   1.191   9.620  1.00  0.00     0.127 S 
ATOM     82  O   UNL     1      16.017   0.514  10.891  1.00  0.00    -0.237 OA
ATOM     83  O   UNL     1      15.957   2.643   9.643  1.00  0.00    -0.237 OA
ATOM     84  O   UNL     1      14.610   0.746   8.871  1.00  0.00    -0.744 OA
ENDBRANCH  78  81
ENDBRANCH  60  74
BRANCH  61  85
ATOM     85  C   UNL     1      16.093  -7.299  11.806  1.00  0.00     0.023 A 
ATOM     86  C   UNL     1      16.848  -7.412  12.991  1.00  0.00     0.012 A 
ATOM     87  C   UNL     1      14.689  -7.184  11.923  1.00  0.00     0.148 A 
ATOM     88  C   UNL     1      16.229  -7.389  14.247  1.00  0.00     0.002 A 
ATOM     89  C   UNL     1      14.076  -7.178  13.172  1.00  0.00     0.091 A 
ATOM     90  F   UNL     1      13.962  -6.986  10.816  1.00  0.00    -0.205 F 
ATOM     91  C   UNL     1      14.845  -7.268  14.339  1.00  0.00     0.022 A 
BRANCH  89  92
ATOM     92  S   UNL     1      12.296  -7.012  13.366  1.00  0.00     0.127 S 
ATOM     93  O   UNL     1      11.988  -8.112  14.280  1.00  0.00    -0.237 OA
ATOM     94  O   UNL     1      12.177  -5.679  13.949  1.00  0.00    -0.237 OA
ATOM     95  O   UNL     1      11.734  -7.169  12.030  1.00  0.00    -0.744 OA
ENDBRANCH  89  92
ENDBRANCH  61  85
BRANCH  73  96
ATOM     96  C   UNL     1      20.782  -6.883   7.673  1.00  0.00     0.023 A 
ATOM     97  C   UNL     1      19.957  -7.993   7.395  1.00  0.00     0.012 A 
ATOM     98  C   UNL     1      22.164  -6.990   7.451  1.00  0.00     0.148 A 
ATOM     99  C   UNL     1      20.505  -9.191   6.926  1.00  0.00     0.002 A 
ATOM    100  C   UNL     1      22.698  -8.165   6.938  1.00  0.00     0.091 A 
ATOM    101  F   UNL     1      22.933  -5.923   7.716  1.00  0.00    -0.205 F 
ATOM    102  C   UNL     1      21.874  -9.272   6.683  1.00  0.00     0.022 A 
BRANCH 100 103
ATOM    103  S   UNL     1      24.429  -8.283   6.482  1.00  0.00     0.127 S 
ATOM    104  O   UNL     1      24.975  -9.098   7.565  1.00  0.00    -0.237 OA
ATOM    105  O   UNL     1      24.366  -8.953   5.182  1.00  0.00    -0.237 OA
ATOM    106  O   UNL     1      24.920  -6.912   6.418  1.00  0.00    -0.744 OA
ENDBRANCH 100 103
ENDBRANCH  73  96
ENDBRANCH  47  48
ENDBRANCH  40  42
ENDBRANCH  39  40
ENDBRANCH  38  39
ENDBRANCH  37  38
ENDBRANCH  36  37
ENDBRANCH  35  36
ENDBRANCH  34  35
ENDBRANCH  33  34
ENDBRANCH   1  33
TORSDOF 27
