REMARK SMILES O=C(OCCOCCOCCOCCOC(=O)[C@@H]1C=C[C@H](NC(=O)[C@@H]2Cc3ccccc3O2)C1)c1ccc(-c2c3nc(c(-c4cccc(S(=O)(=O)[O-])c4F)c4ccc([nH]4)c(-c4cccc(S(=O)(=O)[O-])c4F)c4nc(c(-c5cccc(S(=O)(=O)[O-])c5F)c5ccc2[nH]5)C=C4)C=C3)cc1
REMARK SMILES IDX 8 1 7 2 6 3 5 4 4 5 3 6 2 7 1 8 35 9 36 10 97 11 37 12 96 13
REMARK SMILES IDX 38 14 39 15 40 16 90 17 41 18 95 19 89 20 91 21 42 22 94 23
REMARK SMILES IDX 88 24 87 25 43 27 75 28 55 29 74 30 56 31 59 32 73 33 92 34
REMARK SMILES IDX 57 35 58 36 72 38 93 39 60 40 44 41 45 42 53 43 46 44 48 45
REMARK SMILES IDX 54 46 47 47 49 48 50 49 51 50 52 51 76 52 77 53 85 54 78 55
REMARK SMILES IDX 80 56 86 57 79 58 81 59 82 60 83 61 84 62 61 63 62 64 70 65
REMARK SMILES IDX 63 66 65 67 71 68 64 69 66 70 67 71 68 72 69 73 9 74 10 75
REMARK SMILES IDX 11 76 12 77 13 78 14 79 15 80 16 81 17 82 18 83 19 84 34 85
REMARK SMILES IDX 20 86 21 87 22 88 23 89 24 91 25 92 26 93 33 94 27 95 32 96
REMARK SMILES IDX 28 97 31 98 29 99 30 100
REMARK H PARENT 91 26 59 37 22 90
REMARK Flexibility Score: inf
ROOT
ATOM      1  C   UNL     1       7.742  -8.928  -1.762  1.00  0.00     0.188 C 
ENDROOT
BRANCH   1   2
ATOM      2  C   UNL     1       8.650  -8.344  -0.679  1.00  0.00     0.188 C 
BRANCH   2   3
ATOM      3  O   UNL     1       8.038  -8.491   0.591  1.00  0.00    -0.376 OA
BRANCH   3   4
ATOM      4  C   UNL     1       8.271  -7.568   1.639  1.00  0.00     0.202 C 
BRANCH   4   5
ATOM      5  C   UNL     1       9.694  -7.138   1.936  1.00  0.00     0.261 C 
BRANCH   5   6
ATOM      6  O   UNL     1      10.742  -7.777   1.192  1.00  0.00    -0.460 OA
BRANCH   6   7
ATOM      7  C   UNL     1      11.149  -9.058   1.087  1.00  0.00     0.338 C 
ATOM      8  O   UNL     1      12.008  -9.324   0.247  1.00  0.00    -0.246 OA
BRANCH   7   9
ATOM      9  C   UNL     1      10.669 -10.164   1.950  1.00  0.00     0.060 A 
ATOM     10  C   UNL     1       9.343 -10.414   2.295  1.00  0.00     0.016 A 
ATOM     11  C   UNL     1      11.627 -11.114   2.319  1.00  0.00     0.016 A 
ATOM     12  C   UNL     1       8.972 -11.463   3.107  1.00  0.00     0.010 A 
ATOM     13  C   UNL     1      11.259 -12.232   3.063  1.00  0.00     0.010 A 
ATOM     14  C   UNL     1       9.934 -12.373   3.493  1.00  0.00    -0.014 A 
BRANCH  14  15
ATOM     15  C   UNL     1       9.565 -13.367   4.499  1.00  0.00     0.031 A 
ATOM     16  C   UNL     1      10.169 -13.194   5.848  1.00  0.00     0.074 A 
ATOM     17  C   UNL     1       8.681 -14.332   4.205  1.00  0.00     0.049 A 
ATOM     18  N   UNL     1      10.256 -14.042   6.826  1.00  0.00    -0.248 NA
ATOM     19  C   UNL     1      10.789 -11.882   6.120  1.00  0.00     0.031 C 
ATOM     20  C   UNL     1       7.938 -14.449   2.946  1.00  0.00     0.029 A 
ATOM     21  N   UNL     1       8.279 -15.412   4.936  1.00  0.00    -0.354 N 
ATOM     22  C   UNL     1      11.038 -13.413   7.783  1.00  0.00     0.074 A 
ATOM     23  C   UNL     1      11.364 -12.097   7.290  1.00  0.00     0.031 C 
ATOM     24  C   UNL     1       7.200 -15.568   2.978  1.00  0.00     0.029 A 
ATOM     25  C   UNL     1       7.508 -16.285   4.207  1.00  0.00     0.049 A 
ATOM     26  H   UNL     1       8.515 -15.551   5.882  1.00  0.00     0.167 HD
ATOM     27  C   UNL     1      11.466 -13.931   8.953  1.00  0.00     0.034 A 
ATOM     28  C   UNL     1       7.182 -17.561   4.474  1.00  0.00     0.034 A 
ATOM     29  C   UNL     1      11.092 -15.249   9.376  1.00  0.00     0.049 A 
ATOM     30  C   UNL     1       7.697 -18.140   5.761  1.00  0.00     0.074 A 
ATOM     31  C   UNL     1      11.445 -15.927  10.523  1.00  0.00     0.029 A 
ATOM     32  N   UNL     1      10.272 -16.097   8.635  1.00  0.00    -0.354 N 
ATOM     33  N   UNL     1       8.458 -17.570   6.669  1.00  0.00    -0.248 NA
ATOM     34  C   UNL     1       7.312 -19.519   6.074  1.00  0.00     0.031 C 
ATOM     35  C   UNL     1      10.873 -17.201  10.454  1.00  0.00     0.029 A 
ATOM     36  C   UNL     1      10.114 -17.297   9.292  1.00  0.00     0.049 A 
ATOM     37  H   UNL     1       9.865 -15.871   7.768  1.00  0.00     0.167 HD
ATOM     38  C   UNL     1       8.615 -18.504   7.681  1.00  0.00     0.074 A 
ATOM     39  C   UNL     1       7.867 -19.680   7.270  1.00  0.00     0.031 C 
ATOM     40  C   UNL     1       9.309 -18.409   8.843  1.00  0.00     0.034 A 
BRANCH  27  41
ATOM     41  C   UNL     1      12.433 -13.104   9.753  1.00  0.00     0.023 A 
ATOM     42  C   UNL     1      12.025 -11.892  10.350  1.00  0.00     0.012 A 
ATOM     43  C   UNL     1      13.783 -13.495   9.844  1.00  0.00     0.148 A 
ATOM     44  C   UNL     1      12.957 -11.055  10.966  1.00  0.00     0.002 A 
ATOM     45  C   UNL     1      14.694 -12.684  10.507  1.00  0.00     0.091 A 
ATOM     46  F   UNL     1      14.162 -14.629   9.238  1.00  0.00    -0.205 F 
ATOM     47  C   UNL     1      14.289 -11.454  11.050  1.00  0.00     0.022 A 
BRANCH  45  48
ATOM     48  S   UNL     1      16.415 -13.142  10.728  1.00  0.00     0.127 S 
ATOM     49  O   UNL     1      17.090 -12.200   9.841  1.00  0.00    -0.237 OA
ATOM     50  O   UNL     1      16.616 -12.895  12.154  1.00  0.00    -0.237 OA
ATOM     51  O   UNL     1      16.509 -14.547  10.337  1.00  0.00    -0.744 OA
ENDBRANCH  45  48
ENDBRANCH  27  41
BRANCH  28  52
ATOM     52  C   UNL     1       6.385 -18.342   3.488  1.00  0.00     0.023 A 
ATOM     53  C   UNL     1       5.053 -18.683   3.782  1.00  0.00     0.012 A 
ATOM     54  C   UNL     1       6.911 -18.660   2.217  1.00  0.00     0.148 A 
ATOM     55  C   UNL     1       4.263 -19.338   2.834  1.00  0.00     0.002 A 
ATOM     56  C   UNL     1       6.104 -19.262   1.260  1.00  0.00     0.091 A 
ATOM     57  F   UNL     1       8.183 -18.326   1.957  1.00  0.00    -0.205 F 
ATOM     58  C   UNL     1       4.782 -19.615   1.571  1.00  0.00     0.022 A 
BRANCH  56  59
ATOM     59  S   UNL     1       6.639 -19.537  -0.433  1.00  0.00     0.127 S 
ATOM     60  O   UNL     1       6.642 -20.994  -0.513  1.00  0.00    -0.237 OA
ATOM     61  O   UNL     1       5.580 -18.878  -1.195  1.00  0.00    -0.237 OA
ATOM     62  O   UNL     1       7.948 -18.900  -0.544  1.00  0.00    -0.744 OA
ENDBRANCH  56  59
ENDBRANCH  28  52
BRANCH  40  63
ATOM     63  C   UNL     1       9.229 -19.573   9.786  1.00  0.00     0.023 A 
ATOM     64  C   UNL     1       9.980 -20.737   9.540  1.00  0.00     0.012 A 
ATOM     65  C   UNL     1       8.524 -19.429  10.996  1.00  0.00     0.148 A 
ATOM     66  C   UNL     1      10.023 -21.751  10.493  1.00  0.00     0.002 A 
ATOM     67  C   UNL     1       8.622 -20.415  11.963  1.00  0.00     0.091 A 
ATOM     68  F   UNL     1       7.806 -18.313  11.187  1.00  0.00    -0.205 F 
ATOM     69  C   UNL     1       9.361 -21.582  11.710  1.00  0.00     0.022 A 
BRANCH  67  70
ATOM     70  S   UNL     1       7.912 -20.223  13.600  1.00  0.00     0.127 S 
ATOM     71  O   UNL     1       6.869 -21.247  13.593  1.00  0.00    -0.237 OA
ATOM     72  O   UNL     1       9.054 -20.518  14.465  1.00  0.00    -0.237 OA
ATOM     73  O   UNL     1       7.432 -18.850  13.676  1.00  0.00    -0.744 OA
ENDBRANCH  67  70
ENDBRANCH  40  63
ENDBRANCH  14  15
ENDBRANCH   7   9
ENDBRANCH   6   7
ENDBRANCH   5   6
ENDBRANCH   4   5
ENDBRANCH   3   4
ENDBRANCH   2   3
ENDBRANCH   1   2
BRANCH   1  74
ATOM     74  O   UNL     1       6.521  -8.222  -1.972  1.00  0.00    -0.377 OA
BRANCH  74  75
ATOM     75  C   UNL     1       5.822  -7.834  -0.792  1.00  0.00     0.188 C 
BRANCH  75  76
ATOM     76  C   UNL     1       5.301  -8.928   0.167  1.00  0.00     0.188 C 
BRANCH  76  77
ATOM     77  O   UNL     1       5.751 -10.231  -0.141  1.00  0.00    -0.376 OA
BRANCH  77  78
ATOM     78  C   UNL     1       4.880 -11.044  -0.913  1.00  0.00     0.202 C 
BRANCH  78  79
ATOM     79  C   UNL     1       4.234 -10.449  -2.180  1.00  0.00     0.261 C 
BRANCH  79  80
ATOM     80  O   UNL     1       3.607  -9.149  -2.049  1.00  0.00    -0.463 OA
BRANCH  80  81
ATOM     81  C   UNL     1       2.398  -9.077  -1.439  1.00  0.00     0.312 C 
ATOM     82  O   UNL     1       1.780 -10.055  -1.037  1.00  0.00    -0.252 OA
BRANCH  81  83
ATOM     83  C   UNL     1       1.833  -7.640  -1.392  1.00  0.00     0.124 C 
ATOM     84  C   UNL     1       2.749  -6.457  -1.325  1.00  0.00    -0.014 C 
ATOM     85  C   UNL     1       0.971  -7.399  -0.132  1.00  0.00     0.048 C 
ATOM     86  C   UNL     1       2.689  -5.826  -0.146  1.00  0.00    -0.006 C 
ATOM     87  C   UNL     1       1.762  -6.469   0.818  1.00  0.00     0.106 C 
BRANCH  87  88
ATOM     88  N   UNL     1       2.408  -7.217   1.902  1.00  0.00    -0.347 N 
ATOM     89  C   UNL     1       3.151  -6.688   2.943  1.00  0.00     0.261 C 
ATOM     90  H   UNL     1       2.303  -8.196   1.888  1.00  0.00     0.164 HD
ATOM     91  O   UNL     1       2.667  -6.712   4.077  1.00  0.00    -0.271 OA
BRANCH  89  92
ATOM     92  C   UNL     1       4.641  -6.388   2.706  1.00  0.00     0.266 C 
ATOM     93  C   UNL     1       5.343  -5.565   3.806  1.00  0.00     0.095 C 
ATOM     94  O   UNL     1       4.860  -5.761   1.441  1.00  0.00    -0.480 OA
ATOM     95  C   UNL     1       6.215  -4.705   2.963  1.00  0.00    -0.002 A 
ATOM     96  C   UNL     1       5.828  -4.829   1.644  1.00  0.00     0.123 A 
ATOM     97  C   UNL     1       7.268  -3.872   3.293  1.00  0.00     0.008 A 
ATOM     98  C   UNL     1       6.414  -4.125   0.613  1.00  0.00     0.047 A 
ATOM     99  C   UNL     1       7.900  -3.159   2.262  1.00  0.00     0.001 A 
ATOM    100  C   UNL     1       7.467  -3.275   0.930  1.00  0.00     0.004 A 
ENDBRANCH  89  92
ENDBRANCH  87  88
ENDBRANCH  81  83
ENDBRANCH  80  81
ENDBRANCH  79  80
ENDBRANCH  78  79
ENDBRANCH  77  78
ENDBRANCH  76  77
ENDBRANCH  75  76
ENDBRANCH  74  75
ENDBRANCH   1  74
TORSDOF 25
