REMARK SMILES O=C(OCCOCCOCCOCCOC(=O)c1ccc(-c2c3nc(c(-c4cccc(S(=O)(=O)[O-])c4F)c4ccc([nH]4)c(-c4cccc(S(=O)(=O)[O-])c4F)c4nc(c(-c5cccc(S(=O)(=O)[O-])c5F)c5ccc2[nH]5)C=C4)C=C3)cc1)C1=Cc2cc(Cl)cc(-c3ccc(O)cc3)c2O[C@@H]1C(F)(F)F
REMARK SMILES IDX 10 1 9 2 8 3 7 4 6 5 5 6 4 7 3 8 2 9 1 10 81 11 82 12 98 13
REMARK SMILES IDX 83 14 97 15 84 16 96 17 85 18 88 19 86 20 87 21 99 22 100 23
REMARK SMILES IDX 101 24 102 25 89 26 90 27 95 28 91 29 94 30 92 31 93 32
REMARK SMILES IDX 11 34 12 35 13 36 14 37 15 38 16 39 17 40 18 41 19 42 80 43
REMARK SMILES IDX 20 44 79 45 21 46 22 47 23 48 73 49 24 50 78 51 72 52 74 53
REMARK SMILES IDX 25 54 77 55 71 56 70 57 26 59 58 60 38 61 57 62 39 63 42 64
REMARK SMILES IDX 56 65 75 66 40 67 41 68 55 70 76 71 43 72 27 73 28 74 36 75
REMARK SMILES IDX 29 76 31 77 37 78 30 79 32 80 33 81 34 82 35 83 59 84 60 85
REMARK SMILES IDX 68 86 61 87 63 88 69 89 62 90 64 91 65 92 66 93 67 94 44 95
REMARK SMILES IDX 45 96 53 97 46 98 48 99 54 100 47 101 49 102 50 103 51 104
REMARK SMILES IDX 52 105
REMARK H PARENT 93 33 74 58 42 69
REMARK Flexibility Score: inf
ROOT
ATOM      1  C   UNL     1       2.698  -0.328  -4.453  1.00  0.00     0.188 C 
ENDROOT
BRANCH   1   2
ATOM      2  O   UNL     1       1.548   0.510  -4.354  1.00  0.00    -0.377 OA
BRANCH   2   3
ATOM      3  C   UNL     1       0.679   0.210  -3.260  1.00  0.00     0.188 C 
BRANCH   3   4
ATOM      4  C   UNL     1       1.131   0.889  -1.973  1.00  0.00     0.188 C 
BRANCH   4   5
ATOM      5  O   UNL     1       2.398   0.446  -1.540  1.00  0.00    -0.376 OA
BRANCH   5   6
ATOM      6  C   UNL     1       2.522  -0.897  -1.103  1.00  0.00     0.202 C 
BRANCH   6   7
ATOM      7  C   UNL     1       2.204  -1.181   0.374  1.00  0.00     0.261 C 
BRANCH   7   8
ATOM      8  O   UNL     1       1.968   0.003   1.173  1.00  0.00    -0.460 OA
BRANCH   8   9
ATOM      9  C   UNL     1       2.759   0.197   2.271  1.00  0.00     0.338 C 
ATOM     10  O   UNL     1       2.390  -0.058   3.407  1.00  0.00    -0.246 OA
BRANCH   9  11
ATOM     11  C   UNL     1       4.051   0.876   1.954  1.00  0.00     0.087 C 
ATOM     12  C   UNL     1       5.164   0.501   2.607  1.00  0.00     0.027 C 
ATOM     13  C   UNL     1       4.221   1.349   0.553  1.00  0.00     0.316 C 
ATOM     14  C   UNL     1       6.192  -0.151   1.789  1.00  0.00     0.019 A 
ATOM     15  O   UNL     1       5.016   0.421  -0.232  1.00  0.00    -0.475 OA
ATOM     16  C   UNL     1       7.330  -0.725   2.352  1.00  0.00     0.032 A 
ATOM     17  C   UNL     1       5.878  -0.415   0.448  1.00  0.00     0.135 A 
ATOM     18  C   UNL     1       8.097  -1.608   1.591  1.00  0.00     0.042 A 
ATOM     19  C   UNL     1       6.455  -1.538  -0.191  1.00  0.00     0.026 A 
ATOM     20  Cl  UNL     1       9.569  -2.230   2.225  1.00  0.00    -0.084 Cl
ATOM     21  C   UNL     1       7.629  -2.068   0.362  1.00  0.00     0.033 A 
BRANCH  13  22
ATOM     22  C   UNL     1       4.573   2.846   0.524  1.00  0.00     0.430 C 
ATOM     23  F   UNL     1       4.408   3.384  -0.705  1.00  0.00    -0.167 F 
ATOM     24  F   UNL     1       3.726   3.535   1.347  1.00  0.00    -0.167 F 
ATOM     25  F   UNL     1       5.825   3.123   0.941  1.00  0.00    -0.167 F 
ENDBRANCH  13  22
BRANCH  19  26
ATOM     26  C   UNL     1       5.734  -2.361  -1.187  1.00  0.00    -0.014 A 
ATOM     27  C   UNL     1       4.961  -3.470  -0.750  1.00  0.00     0.012 A 
ATOM     28  C   UNL     1       5.745  -2.087  -2.551  1.00  0.00     0.012 A 
ATOM     29  C   UNL     1       4.159  -4.210  -1.630  1.00  0.00     0.047 A 
ATOM     30  C   UNL     1       4.929  -2.821  -3.425  1.00  0.00     0.047 A 
ATOM     31  C   UNL     1       4.128  -3.857  -2.963  1.00  0.00     0.115 A 
BRANCH  31  32
ATOM     32  O   UNL     1       3.315  -4.543  -3.811  1.00  0.00    -0.508 OA
ATOM     33  H   UNL     1       2.780  -5.239  -3.485  1.00  0.00     0.293 HD
ENDBRANCH  31  32
ENDBRANCH  19  26
ENDBRANCH   9  11
ENDBRANCH   8   9
ENDBRANCH   7   8
ENDBRANCH   6   7
ENDBRANCH   5   6
ENDBRANCH   4   5
ENDBRANCH   3   4
ENDBRANCH   2   3
ENDBRANCH   1   2
BRANCH   1  34
ATOM     34  C   UNL     1       4.040   0.368  -4.136  1.00  0.00     0.188 C 
BRANCH  34  35
ATOM     35  O   UNL     1       4.431   1.601  -4.725  1.00  0.00    -0.376 OA
BRANCH  35  36
ATOM     36  C   UNL     1       3.531   2.249  -5.595  1.00  0.00     0.202 C 
BRANCH  36  37
ATOM     37  C   UNL     1       3.342   1.592  -6.973  1.00  0.00     0.261 C 
BRANCH  37  38
ATOM     38  O   UNL     1       3.887   0.265  -7.117  1.00  0.00    -0.460 OA
BRANCH  38  39
ATOM     39  C   UNL     1       5.232   0.136  -7.209  1.00  0.00     0.338 C 
ATOM     40  O   UNL     1       6.039   1.047  -7.335  1.00  0.00    -0.246 OA
BRANCH  39  41
ATOM     41  C   UNL     1       5.606  -1.300  -7.004  1.00  0.00     0.060 A 
ATOM     42  C   UNL     1       6.823  -1.607  -6.375  1.00  0.00     0.016 A 
ATOM     43  C   UNL     1       4.764  -2.351  -7.388  1.00  0.00     0.016 A 
ATOM     44  C   UNL     1       7.209  -2.946  -6.153  1.00  0.00     0.010 A 
ATOM     45  C   UNL     1       5.147  -3.686  -7.162  1.00  0.00     0.010 A 
ATOM     46  C   UNL     1       6.385  -4.004  -6.563  1.00  0.00    -0.014 A 
BRANCH  46  47
ATOM     47  C   UNL     1       6.867  -5.424  -6.590  1.00  0.00     0.031 A 
ATOM     48  C   UNL     1       7.303  -5.982  -7.920  1.00  0.00     0.074 A 
ATOM     49  C   UNL     1       6.877  -6.252  -5.522  1.00  0.00     0.049 A 
ATOM     50  N   UNL     1       7.701  -7.191  -8.220  1.00  0.00    -0.248 NA
ATOM     51  C   UNL     1       7.302  -5.047  -9.057  1.00  0.00     0.031 C 
ATOM     52  C   UNL     1       6.566  -5.881  -4.150  1.00  0.00     0.029 A 
ATOM     53  N   UNL     1       7.117  -7.609  -5.437  1.00  0.00    -0.354 N 
ATOM     54  C   UNL     1       8.004  -7.160  -9.573  1.00  0.00     0.074 A 
ATOM     55  C   UNL     1       7.686  -5.832 -10.050  1.00  0.00     0.031 C 
ATOM     56  C   UNL     1       6.502  -6.986  -3.385  1.00  0.00     0.029 A 
ATOM     57  C   UNL     1       6.826  -8.151  -4.201  1.00  0.00     0.049 A 
ATOM     58  H   UNL     1       7.463  -8.141  -6.189  1.00  0.00     0.167 HD
ATOM     59  C   UNL     1       8.544  -8.128 -10.349  1.00  0.00     0.034 A 
ATOM     60  C   UNL     1       6.831  -9.431  -3.768  1.00  0.00     0.034 A 
ATOM     61  C   UNL     1       8.875  -9.449  -9.898  1.00  0.00     0.049 A 
ATOM     62  C   UNL     1       7.338 -10.522  -4.682  1.00  0.00     0.074 A 
ATOM     63  C   UNL     1       9.486 -10.468 -10.608  1.00  0.00     0.029 A 
ATOM     64  N   UNL     1       8.598  -9.949  -8.638  1.00  0.00    -0.354 N 
ATOM     65  N   UNL     1       7.792 -10.426  -5.907  1.00  0.00    -0.248 NA
ATOM     66  C   UNL     1       7.408 -11.886  -4.128  1.00  0.00     0.031 C 
ATOM     67  C   UNL     1       9.539 -11.600  -9.790  1.00  0.00     0.029 A 
ATOM     68  C   UNL     1       9.002 -11.271  -8.556  1.00  0.00     0.049 A 
ATOM     69  H   UNL     1       8.177  -9.441  -7.908  1.00  0.00     0.167 HD
ATOM     70  C   UNL     1       8.271 -11.691  -6.238  1.00  0.00     0.074 A 
ATOM     71  C   UNL     1       8.049 -12.539  -5.088  1.00  0.00     0.031 C 
ATOM     72  C   UNL     1       8.848 -12.104  -7.392  1.00  0.00     0.034 A 
BRANCH  59  73
ATOM     73  C   UNL     1       8.847  -7.766 -11.775  1.00  0.00     0.023 A 
ATOM     74  C   UNL     1       9.917  -6.891 -12.058  1.00  0.00     0.012 A 
ATOM     75  C   UNL     1       8.096  -8.313 -12.830  1.00  0.00     0.148 A 
ATOM     76  C   UNL     1      10.210  -6.535 -13.371  1.00  0.00     0.002 A 
ATOM     77  C   UNL     1       8.425  -7.992 -14.139  1.00  0.00     0.091 A 
ATOM     78  F   UNL     1       7.072  -9.124 -12.531  1.00  0.00    -0.205 F 
ATOM     79  C   UNL     1       9.471  -7.093 -14.411  1.00  0.00     0.022 A 
BRANCH  77  80
ATOM     80  S   UNL     1       7.584  -8.710 -15.552  1.00  0.00     0.127 S 
ATOM     81  O   UNL     1       6.923  -7.540 -16.127  1.00  0.00    -0.237 OA
ATOM     82  O   UNL     1       8.702  -9.230 -16.338  1.00  0.00    -0.237 OA
ATOM     83  O   UNL     1       6.689  -9.726 -15.015  1.00  0.00    -0.744 OA
ENDBRANCH  77  80
ENDBRANCH  59  73
BRANCH  60  84
ATOM     84  C   UNL     1       6.410  -9.780  -2.375  1.00  0.00     0.023 A 
ATOM     85  C   UNL     1       7.373 -10.236  -1.451  1.00  0.00     0.012 A 
ATOM     86  C   UNL     1       5.056  -9.741  -1.986  1.00  0.00     0.148 A 
ATOM     87  C   UNL     1       6.992 -10.702  -0.192  1.00  0.00     0.002 A 
ATOM     88  C   UNL     1       4.688 -10.166  -0.712  1.00  0.00     0.091 A 
ATOM     89  F   UNL     1       4.152  -9.313  -2.877  1.00  0.00    -0.205 F 
ATOM     90  C   UNL     1       5.651 -10.667   0.178  1.00  0.00     0.022 A 
BRANCH  88  91
ATOM     91  S   UNL     1       2.998 -10.082  -0.104  1.00  0.00     0.127 S 
ATOM     92  O   UNL     1       2.665 -11.496   0.050  1.00  0.00    -0.237 OA
ATOM     93  O   UNL     1       3.169  -9.348   1.150  1.00  0.00    -0.237 OA
ATOM     94  O   UNL     1       2.246  -9.366  -1.125  1.00  0.00    -0.744 OA
ENDBRANCH  88  91
ENDBRANCH  60  84
BRANCH  72  95
ATOM     95  C   UNL     1       9.360 -13.520  -7.474  1.00  0.00     0.023 A 
ATOM     96  C   UNL     1       8.459 -14.601  -7.531  1.00  0.00     0.012 A 
ATOM     97  C   UNL     1      10.744 -13.770  -7.592  1.00  0.00     0.148 A 
ATOM     98  C   UNL     1       8.926 -15.908  -7.674  1.00  0.00     0.002 A 
ATOM     99  C   UNL     1      11.198 -15.068  -7.790  1.00  0.00     0.091 A 
ATOM    100  F   UNL     1      11.589 -12.732  -7.518  1.00  0.00    -0.205 F 
ATOM    101  C   UNL     1      10.292 -16.140  -7.818  1.00  0.00     0.022 A 
BRANCH  99 102
ATOM    102  S   UNL     1      12.928 -15.450  -8.094  1.00  0.00     0.127 S 
ATOM    103  O   UNL     1      13.300 -16.144  -6.862  1.00  0.00    -0.237 OA
ATOM    104  O   UNL     1      12.851 -16.307  -9.278  1.00  0.00    -0.237 OA
ATOM    105  O   UNL     1      13.591 -14.172  -8.313  1.00  0.00    -0.744 OA
ENDBRANCH  99 102
ENDBRANCH  72  95
ENDBRANCH  46  47
ENDBRANCH  39  41
ENDBRANCH  38  39
ENDBRANCH  37  38
ENDBRANCH  36  37
ENDBRANCH  35  36
ENDBRANCH  34  35
ENDBRANCH   1  34
TORSDOF 26
