REMARK SMILES O=C(C[C@H](NC(=O)[C@]12C[C@H]3C[C@H](C[C@H](C3)C1)C2)c1cccc([N+](=O)[O-])c1)OCCOCCOCCOCCOC(=O)c1ccc(-c2c3nc(c(-c4cccc(S(=O)(=O)[O-])c4F)c4ccc([nH]4)c(-c4cccc(S(=O)(=O)[O-])c4F)c4nc(c(-c5cccc(S(=O)(=O)[O-])c5F)c5ccc2[nH]5)C=C4)C=C3)cc1
REMARK SMILES IDX 33 1 32 2 31 3 30 4 29 5 28 6 27 7 2 8 1 9 3 10 4 11 18 12
REMARK SMILES IDX 19 13 26 14 20 15 22 16 21 17 23 18 24 19 25 20 5 21 6 22
REMARK SMILES IDX 7 24 8 25 9 26 16 27 17 28 10 29 14 30 12 31 11 32 15 33
REMARK SMILES IDX 13 34 34 35 35 36 36 37 37 38 38 39 39 40 40 41 41 42 42 43
REMARK SMILES IDX 43 44 104 45 44 46 103 47 45 48 46 49 47 50 97 51 48 52
REMARK SMILES IDX 102 53 96 54 98 55 49 56 101 57 95 58 94 59 50 61 82 62
REMARK SMILES IDX 62 63 81 64 63 65 66 66 80 67 99 68 64 69 65 70 79 72 100 73
REMARK SMILES IDX 67 74 51 75 52 76 60 77 53 78 55 79 61 80 54 81 56 82 57 83
REMARK SMILES IDX 58 84 59 85 83 86 84 87 92 88 85 89 87 90 93 91 86 92 88 93
REMARK SMILES IDX 89 94 90 95 91 96 68 97 69 98 77 99 70 100 72 101 78 102
REMARK SMILES IDX 71 103 73 104 74 105 75 106 76 107
REMARK H PARENT 5 23 98 60 66 71
REMARK Flexibility Score: inf
ROOT
ATOM      1  O   UNL     1       7.784   0.756   5.000  1.00  0.00    -0.377 OA
ENDROOT
BRANCH   1   2
ATOM      2  C   UNL     1       7.074   0.079   3.971  1.00  0.00     0.188 C 
BRANCH   2   3
ATOM      3  C   UNL     1       5.750   0.728   3.559  1.00  0.00     0.188 C 
BRANCH   3   4
ATOM      4  O   UNL     1       5.893   1.996   2.926  1.00  0.00    -0.376 OA
BRANCH   4   5
ATOM      5  C   UNL     1       5.015   3.072   3.254  1.00  0.00     0.202 C 
BRANCH   5   6
ATOM      6  C   UNL     1       3.654   2.838   3.922  1.00  0.00     0.261 C 
BRANCH   6   7
ATOM      7  O   UNL     1       2.996   1.599   3.636  1.00  0.00    -0.463 OA
BRANCH   7   8
ATOM      8  C   UNL     1       2.346   1.512   2.453  1.00  0.00     0.308 C 
ATOM      9  O   UNL     1       1.128   1.533   2.355  1.00  0.00    -0.252 OA
BRANCH   8  10
ATOM     10  C   UNL     1       3.267   1.096   1.349  1.00  0.00     0.152 C 
BRANCH  10  11
ATOM     11  C   UNL     1       2.850   1.575  -0.019  1.00  0.00     0.123 C 
BRANCH  11  12
ATOM     12  C   UNL     1       3.713   2.811  -0.345  1.00  0.00    -0.018 A 
ATOM     13  C   UNL     1       5.051   2.660  -0.758  1.00  0.00     0.006 A 
ATOM     14  C   UNL     1       3.257   4.105  -0.026  1.00  0.00     0.091 A 
ATOM     15  C   UNL     1       5.921   3.754  -0.822  1.00  0.00     0.007 A 
ATOM     16  C   UNL     1       4.137   5.203  -0.101  1.00  0.00     0.269 A 
ATOM     17  C   UNL     1       5.471   5.029  -0.491  1.00  0.00     0.085 A 
BRANCH  16  18
ATOM     18  N   UNL     1       3.678   6.541   0.296  1.00  0.00     0.062 N 
ATOM     19  O   UNL     1       4.442   7.497   0.099  1.00  0.00    -0.258 OA
ATOM     20  O   UNL     1       2.555   6.632   0.811  1.00  0.00    -0.258 OA
ENDBRANCH  16  18
ENDBRANCH  11  12
BRANCH  11  21
ATOM     21  N   UNL     1       2.860   0.606  -1.131  1.00  0.00    -0.348 N 
ATOM     22  C   UNL     1       3.184  -0.672  -1.437  1.00  0.00     0.226 C 
ATOM     23  H   UNL     1       2.503   1.045  -1.937  1.00  0.00     0.164 HD
ATOM     24  O   UNL     1       2.836  -0.997  -2.584  1.00  0.00    -0.274 OA
BRANCH  22  25
ATOM     25  C   UNL     1       3.916  -1.712  -0.551  1.00  0.00     0.050 C 
ATOM     26  C   UNL     1       3.025  -2.300   0.575  1.00  0.00     0.020 C 
ATOM     27  C   UNL     1       5.278  -1.174  -0.058  1.00  0.00     0.020 C 
ATOM     28  C   UNL     1       4.276  -2.967  -1.431  1.00  0.00     0.020 C 
ATOM     29  C   UNL     1       3.815  -3.305   1.435  1.00  0.00    -0.010 C 
ATOM     30  C   UNL     1       6.007  -2.210   0.808  1.00  0.00    -0.010 C 
ATOM     31  C   UNL     1       5.047  -4.034  -0.620  1.00  0.00    -0.010 C 
ATOM     32  C   UNL     1       4.189  -4.508   0.564  1.00  0.00     0.007 C 
ATOM     33  C   UNL     1       5.103  -2.663   1.968  1.00  0.00     0.007 C 
ATOM     34  C   UNL     1       6.346  -3.423  -0.071  1.00  0.00     0.007 C 
ENDBRANCH  22  25
ENDBRANCH  11  21
ENDBRANCH  10  11
ENDBRANCH   8  10
ENDBRANCH   7   8
ENDBRANCH   6   7
ENDBRANCH   5   6
ENDBRANCH   4   5
ENDBRANCH   3   4
ENDBRANCH   2   3
ENDBRANCH   1   2
BRANCH   1  35
ATOM     35  C   UNL     1       7.846   2.168   4.867  1.00  0.00     0.188 C 
BRANCH  35  36
ATOM     36  C   UNL     1       8.553   2.747   3.618  1.00  0.00     0.188 C 
BRANCH  36  37
ATOM     37  O   UNL     1       8.865   1.795   2.605  1.00  0.00    -0.376 OA
BRANCH  37  38
ATOM     38  C   UNL     1      10.255   1.532   2.431  1.00  0.00     0.202 C 
BRANCH  38  39
ATOM     39  C   UNL     1      10.910   0.673   3.525  1.00  0.00     0.261 C 
BRANCH  39  40
ATOM     40  O   UNL     1      10.763   1.165   4.866  1.00  0.00    -0.460 OA
BRANCH  40  41
ATOM     41  C   UNL     1      11.365   2.332   5.186  1.00  0.00     0.338 C 
ATOM     42  O   UNL     1      12.107   2.986   4.470  1.00  0.00    -0.246 OA
BRANCH  41  43
ATOM     43  C   UNL     1      10.742   2.823   6.442  1.00  0.00     0.060 A 
ATOM     44  C   UNL     1      10.254   4.140   6.471  1.00  0.00     0.016 A 
ATOM     45  C   UNL     1      10.489   1.960   7.516  1.00  0.00     0.016 A 
ATOM     46  C   UNL     1       9.509   4.588   7.565  1.00  0.00     0.010 A 
ATOM     47  C   UNL     1       9.775   2.422   8.628  1.00  0.00     0.010 A 
ATOM     48  C   UNL     1       9.300   3.743   8.666  1.00  0.00    -0.014 A 
BRANCH  48  49
ATOM     49  C   UNL     1       8.848   4.333   9.951  1.00  0.00     0.031 A 
ATOM     50  C   UNL     1       9.914   4.911  10.842  1.00  0.00     0.074 A 
ATOM     51  C   UNL     1       7.556   4.366  10.330  1.00  0.00     0.049 A 
ATOM     52  N   UNL     1       9.799   5.515  11.994  1.00  0.00    -0.248 NA
ATOM     53  C   UNL     1      11.303   4.792  10.361  1.00  0.00     0.031 C 
ATOM     54  C   UNL     1       6.428   3.832   9.570  1.00  0.00     0.029 A 
ATOM     55  N   UNL     1       6.983   4.863  11.477  1.00  0.00    -0.354 N 
ATOM     56  C   UNL     1      11.093   5.847  12.373  1.00  0.00     0.074 A 
ATOM     57  C   UNL     1      11.982   5.362  11.342  1.00  0.00     0.031 C 
ATOM     58  C   UNL     1       5.300   4.002  10.287  1.00  0.00     0.029 A 
ATOM     59  C   UNL     1       5.627   4.648  11.559  1.00  0.00     0.049 A 
ATOM     60  H   UNL     1       7.497   5.329  12.176  1.00  0.00     0.167 HD
ATOM     61  C   UNL     1      11.511   6.513  13.472  1.00  0.00     0.034 A 
ATOM     62  C   UNL     1       4.759   4.931  12.554  1.00  0.00     0.034 A 
ATOM     63  C   UNL     1      10.640   6.980  14.510  1.00  0.00     0.049 A 
ATOM     64  C   UNL     1       5.259   5.637  13.793  1.00  0.00     0.074 A 
ATOM     65  C   UNL     1      10.968   7.679  15.657  1.00  0.00     0.029 A 
ATOM     66  N   UNL     1       9.270   6.777  14.539  1.00  0.00    -0.354 N 
ATOM     67  N   UNL     1       6.465   6.072  14.070  1.00  0.00    -0.248 NA
ATOM     68  C   UNL     1       4.268   5.925  14.843  1.00  0.00     0.031 C 
ATOM     69  C   UNL     1       9.796   7.882  16.392  1.00  0.00     0.029 A 
ATOM     70  C   UNL     1       8.736   7.331  15.688  1.00  0.00     0.049 A 
ATOM     71  H   UNL     1       8.753   6.309  13.844  1.00  0.00     0.167 HD
ATOM     72  C   UNL     1       6.370   6.712  15.303  1.00  0.00     0.074 A 
ATOM     73  C   UNL     1       4.982   6.633  15.707  1.00  0.00     0.031 C 
ATOM     74  C   UNL     1       7.343   7.296  16.046  1.00  0.00     0.034 A 
BRANCH  61  75
ATOM     75  C   UNL     1      12.982   6.798  13.586  1.00  0.00     0.023 A 
ATOM     76  C   UNL     1      13.556   7.798  12.776  1.00  0.00     0.012 A 
ATOM     77  C   UNL     1      13.784   6.111  14.517  1.00  0.00     0.148 A 
ATOM     78  C   UNL     1      14.913   8.098  12.876  1.00  0.00     0.002 A 
ATOM     79  C   UNL     1      15.126   6.444  14.639  1.00  0.00     0.091 A 
ATOM     80  F   UNL     1      13.221   5.142  15.252  1.00  0.00    -0.205 F 
ATOM     81  C   UNL     1      15.694   7.430  13.815  1.00  0.00     0.022 A 
BRANCH  79  82
ATOM     82  S   UNL     1      16.204   5.692  15.863  1.00  0.00     0.127 S 
ATOM     83  O   UNL     1      17.126   4.934  15.018  1.00  0.00    -0.237 OA
ATOM     84  O   UNL     1      16.793   6.863  16.512  1.00  0.00    -0.237 OA
ATOM     85  O   UNL     1      15.343   4.888  16.719  1.00  0.00    -0.744 OA
ENDBRANCH  79  82
ENDBRANCH  61  75
BRANCH  62  86
ATOM     86  C   UNL     1       3.313   4.575  12.430  1.00  0.00     0.023 A 
ATOM     87  C   UNL     1       2.346   5.597  12.347  1.00  0.00     0.012 A 
ATOM     88  C   UNL     1       2.888   3.232  12.433  1.00  0.00     0.148 A 
ATOM     89  C   UNL     1       0.984   5.290  12.311  1.00  0.00     0.002 A 
ATOM     90  C   UNL     1       1.533   2.932  12.341  1.00  0.00     0.091 A 
ATOM     91  F   UNL     1       3.817   2.272  12.541  1.00  0.00    -0.205 F 
ATOM     92  C   UNL     1       0.578   3.959  12.300  1.00  0.00     0.022 A 
BRANCH  90  93
ATOM     93  S   UNL     1       0.934   1.245  12.199  1.00  0.00     0.127 S 
ATOM     94  O   UNL     1       0.378   1.011  13.529  1.00  0.00    -0.237 OA
ATOM     95  O   UNL     1      -0.057   1.363  11.128  1.00  0.00    -0.237 OA
ATOM     96  O   UNL     1       2.101   0.447  11.847  1.00  0.00    -0.744 OA
ENDBRANCH  90  93
ENDBRANCH  62  86
BRANCH  74  97
ATOM     97  C   UNL     1       6.945   7.931  17.354  1.00  0.00     0.023 A 
ATOM     98  C   UNL     1       6.593   7.117  18.449  1.00  0.00     0.012 A 
ATOM     99  C   UNL     1       6.994   9.329  17.520  1.00  0.00     0.148 A 
ATOM    100  C   UNL     1       6.258   7.687  19.678  1.00  0.00     0.002 A 
ATOM    101  C   UNL     1       6.708   9.887  18.761  1.00  0.00     0.091 A 
ATOM    102  F   UNL     1       7.317  10.089  16.464  1.00  0.00    -0.205 F 
ATOM    103  C   UNL     1       6.327   9.069  19.837  1.00  0.00     0.022 A 
BRANCH 101 104
ATOM    104  S   UNL     1       6.868  11.648  19.080  1.00  0.00     0.127 S 
ATOM    105  O   UNL     1       5.471  12.077  19.092  1.00  0.00    -0.237 OA
ATOM    106  O   UNL     1       7.524  11.671  20.388  1.00  0.00    -0.237 OA
ATOM    107  O   UNL     1       7.679  12.178  17.992  1.00  0.00    -0.744 OA
ENDBRANCH 101 104
ENDBRANCH  74  97
ENDBRANCH  48  49
ENDBRANCH  41  43
ENDBRANCH  40  41
ENDBRANCH  39  40
ENDBRANCH  38  39
ENDBRANCH  37  38
ENDBRANCH  36  37
ENDBRANCH  35  36
ENDBRANCH   1  35
TORSDOF 28
